MODEL 1
REMARK VINA RESULT:      -9.6      0.000      0.000
REMARK  4 active torsions:
REMARK  status: ('A' for Active; 'I' for Inactive)
REMARK    1  A    between atoms: C_6  and  C_7 
REMARK    2  A    between atoms: C_8  and  C_9 
REMARK       I    between atoms: C_9  and  N_10 
REMARK    3  A    between atoms: N_10  and  C_11 
REMARK    4  A    between atoms: C_18  and  C_19 
REMARK       I    between atoms: C_19  and  N_20 
ROOT
HETATM    1  C   UNL     1      -3.634   3.725 -32.721  1.00  0.00     0.035 A 
HETATM    2  C   UNL     1      -2.530   3.939 -31.887  1.00  0.00     0.046 A 
HETATM    3  C   UNL     1      -1.794   5.141 -31.998  1.00  0.00     0.030 A 
HETATM    4  C   UNL     1      -2.191   6.085 -32.938  1.00  0.00     0.063 A 
HETATM    5  N   UNL     1      -1.302   7.116 -32.814  1.00  0.00    -0.277 N 
HETATM    6  H   UNL     1      -1.285   7.979 -33.347  1.00  0.00     0.189 HD
HETATM    7  N   UNL     1      -0.361   6.930 -31.876  1.00  0.00    -0.168 NA
HETATM    8  C   UNL     1      -0.651   5.714 -31.361  1.00  0.00     0.156 A 
HETATM    9  C   UNL     1      -3.288   5.908 -33.781  1.00  0.00     0.034 A 
HETATM   10  C   UNL     1      -4.000   4.709 -33.650  1.00  0.00     0.032 A 
ENDROOT
BRANCH   1  11
HETATM   11  N   UNL     1      -4.424   2.555 -32.699  1.00  0.00    -0.327 N 
HETATM   12  C   UNL     1      -4.049   1.291 -32.292  1.00  0.00     0.227 C 
HETATM   13  O   UNL     1      -2.958   0.954 -31.857  1.00  0.00    -0.273 OA
HETATM   14  H   UNL     1      -5.360   2.655 -33.058  1.00  0.00     0.169 HD
BRANCH  12  15
HETATM   15  C   UNL     1      -5.090   0.226 -32.433  1.00  0.00     0.087 A 
HETATM   16  C   UNL     1      -5.485  -0.235 -33.829  1.00  0.00     0.032 A 
HETATM   17  C   UNL     1      -6.502   0.416 -32.920  1.00  0.00     0.025 A 
BRANCH  16  18
HETATM   18  C   UNL     1      -5.571  -1.710 -34.134  1.00  0.00    -0.051 A 
HETATM   19  C   UNL     1      -4.466  -2.558 -33.946  1.00  0.00     0.031 A 
HETATM   20  C   UNL     1      -4.557  -3.927 -34.203  1.00  0.00     0.034 A 
HETATM   21  C   UNL     1      -5.752  -4.485 -34.649  1.00  0.00     0.024 A 
HETATM   22 CL   UNL     1      -3.182  -4.933 -33.959  1.00  0.00    -0.084 Cl
HETATM   23  C   UNL     1      -6.861  -3.666 -34.835  1.00  0.00     0.002 A 
HETATM   24  C   UNL     1      -6.770  -2.295 -34.576  1.00  0.00     0.007 A 
ENDBRANCH  16  18
ENDBRANCH  12  15
ENDBRANCH   1  11
BRANCH   8  25
HETATM   25  C   UNL     1       0.161   5.131 -30.284  1.00  0.00     0.270 C 
HETATM   26  N   UNL     1      -0.231   5.503 -29.026  1.00  0.00    -0.365 N 
HETATM   27  H   UNL     1      -1.024   6.127 -28.930  1.00  0.00     0.159 HD
HETATM   28  H   UNL     1       0.267   5.152 -28.224  1.00  0.00     0.159 HD
HETATM   29  O   UNL     1       1.112   4.377 -30.453  1.00  0.00    -0.266 OA
ENDBRANCH   8  25
TORSDOF 4
ENDMDL
MODEL 2
REMARK VINA RESULT:      -9.2      4.156      8.737
REMARK  4 active torsions:
REMARK  status: ('A' for Active; 'I' for Inactive)
REMARK    1  A    between atoms: C_6  and  C_7 
REMARK    2  A    between atoms: C_8  and  C_9 
REMARK       I    between atoms: C_9  and  N_10 
REMARK    3  A    between atoms: N_10  and  C_11 
REMARK    4  A    between atoms: C_18  and  C_19 
REMARK       I    between atoms: C_19  and  N_20 
ROOT
HETATM    1  C   UNL     1      -5.570  -0.138 -33.802  1.00  0.00     0.035 A 
HETATM    2  C   UNL     1      -4.813  -1.299 -33.602  1.00  0.00     0.046 A 
HETATM    3  C   UNL     1      -5.303  -2.541 -34.066  1.00  0.00     0.030 A 
HETATM    4  C   UNL     1      -6.531  -2.576 -34.715  1.00  0.00     0.063 A 
HETATM    5  N   UNL     1      -6.735  -3.890 -35.037  1.00  0.00    -0.277 N 
HETATM    6  H   UNL     1      -7.534  -4.286 -35.518  1.00  0.00     0.189 HD
HETATM    7  N   UNL     1      -5.747  -4.715 -34.657  1.00  0.00    -0.168 NA
HETATM    8  C   UNL     1      -4.853  -3.896 -34.056  1.00  0.00     0.156 A 
HETATM    9  C   UNL     1      -7.310  -1.440 -34.937  1.00  0.00     0.034 A 
HETATM   10  C   UNL     1      -6.802  -0.223 -34.468  1.00  0.00     0.032 A 
ENDROOT
BRANCH   1  11
HETATM   11  N   UNL     1      -5.178   1.145 -33.364  1.00  0.00    -0.327 N 
HETATM   12  C   UNL     1      -5.476   1.754 -32.163  1.00  0.00     0.227 C 
HETATM   13  O   UNL     1      -6.127   1.283 -31.243  1.00  0.00    -0.273 OA
HETATM   14  H   UNL     1      -4.648   1.688 -34.027  1.00  0.00     0.169 HD
BRANCH  12  15
HETATM   15  C   UNL     1      -4.966   3.151 -31.996  1.00  0.00     0.087 A 
HETATM   16  C   UNL     1      -3.525   3.358 -31.552  1.00  0.00     0.032 A 
HETATM   17  C   UNL     1      -4.669   3.842 -30.692  1.00  0.00     0.025 A 
BRANCH  16  18
HETATM   18  C   UNL     1      -2.650   4.346 -32.284  1.00  0.00    -0.051 A 
HETATM   19  C   UNL     1      -1.674   5.096 -31.606  1.00  0.00     0.031 A 
HETATM   20  C   UNL     1      -0.847   5.988 -32.291  1.00  0.00     0.034 A 
HETATM   21  C   UNL     1      -0.969   6.152 -33.667  1.00  0.00     0.024 A 
HETATM   22 CL   UNL     1       0.337   6.887 -31.425  1.00  0.00    -0.084 Cl
HETATM   23  C   UNL     1      -1.924   5.414 -34.362  1.00  0.00     0.002 A 
HETATM   24  C   UNL     1      -2.750   4.519 -33.675  1.00  0.00     0.007 A 
ENDBRANCH  16  18
ENDBRANCH  12  15
ENDBRANCH   1  11
BRANCH   8  25
HETATM   25  C   UNL     1      -3.603  -4.422 -33.490  1.00  0.00     0.270 C 
HETATM   26  N   UNL     1      -2.960  -5.321 -34.299  1.00  0.00    -0.365 N 
HETATM   27  H   UNL     1      -3.374  -5.550 -35.195  1.00  0.00     0.159 HD
HETATM   28  H   UNL     1      -2.094  -5.734 -33.994  1.00  0.00     0.159 HD
HETATM   29  O   UNL     1      -3.142  -4.111 -32.398  1.00  0.00    -0.266 OA
ENDBRANCH   8  25
TORSDOF 4
ENDMDL
MODEL 3
REMARK VINA RESULT:      -9.1      1.355      1.679
REMARK  4 active torsions:
REMARK  status: ('A' for Active; 'I' for Inactive)
REMARK    1  A    between atoms: C_6  and  C_7 
REMARK    2  A    between atoms: C_8  and  C_9 
REMARK       I    between atoms: C_9  and  N_10 
REMARK    3  A    between atoms: N_10  and  C_11 
REMARK    4  A    between atoms: C_18  and  C_19 
REMARK       I    between atoms: C_19  and  N_20 
ROOT
HETATM    1  C   UNL     1      -3.057   3.678 -32.640  1.00  0.00     0.035 A 
HETATM    2  C   UNL     1      -2.157   4.009 -31.619  1.00  0.00     0.046 A 
HETATM    3  C   UNL     1      -1.385   5.189 -31.725  1.00  0.00     0.030 A 
HETATM    4  C   UNL     1      -1.544   5.995 -32.845  1.00  0.00     0.063 A 
HETATM    5  N   UNL     1      -0.679   7.039 -32.667  1.00  0.00    -0.277 N 
HETATM    6  H   UNL     1      -0.526   7.822 -33.292  1.00  0.00     0.189 HD
HETATM    7  N   UNL     1       0.030   6.986 -31.529  1.00  0.00    -0.168 NA
HETATM    8  C   UNL     1      -0.396   5.848 -30.934  1.00  0.00     0.156 A 
HETATM    9  C   UNL     1      -2.436   5.701 -33.877  1.00  0.00     0.034 A 
HETATM   10  C   UNL     1      -3.188   4.527 -33.749  1.00  0.00     0.032 A 
ENDROOT
BRANCH   1  11
HETATM   11  N   UNL     1      -3.861   2.518 -32.637  1.00  0.00    -0.327 N 
HETATM   12  C   UNL     1      -5.219   2.432 -32.408  1.00  0.00     0.227 C 
HETATM   13  O   UNL     1      -5.984   3.357 -32.177  1.00  0.00    -0.273 OA
HETATM   14  H   UNL     1      -3.373   1.649 -32.787  1.00  0.00     0.169 HD
BRANCH  12  15
HETATM   15  C   UNL     1      -5.795   1.052 -32.416  1.00  0.00     0.087 A 
HETATM   16  C   UNL     1      -5.960   0.333 -33.747  1.00  0.00     0.032 A 
HETATM   17  C   UNL     1      -7.167   0.661 -32.899  1.00  0.00     0.025 A 
BRANCH  16  18
HETATM   18  C   UNL     1      -5.495  -1.096 -33.889  1.00  0.00    -0.051 A 
HETATM   19  C   UNL     1      -6.265  -2.047 -34.580  1.00  0.00     0.031 A 
HETATM   20  C   UNL     1      -5.818  -3.360 -34.735  1.00  0.00     0.034 A 
HETATM   21  C   UNL     1      -4.591  -3.757 -34.209  1.00  0.00     0.024 A 
HETATM   22 CL   UNL     1      -6.789  -4.496 -35.588  1.00  0.00    -0.084 Cl
HETATM   23  C   UNL     1      -3.808  -2.830 -33.527  1.00  0.00     0.002 A 
HETATM   24  C   UNL     1      -4.255  -1.514 -33.375  1.00  0.00     0.007 A 
ENDBRANCH  16  18
ENDBRANCH  12  15
ENDBRANCH   1  11
BRANCH   8  25
HETATM   25  C   UNL     1       0.148   5.420 -29.637  1.00  0.00     0.270 C 
HETATM   26  N   UNL     1      -0.483   5.977 -28.557  1.00  0.00    -0.365 N 
HETATM   27  H   UNL     1      -1.250   6.618 -28.721  1.00  0.00     0.159 HD
HETATM   28  H   UNL     1      -0.179   5.741 -27.627  1.00  0.00     0.159 HD
HETATM   29  O   UNL     1       1.080   4.638 -29.492  1.00  0.00    -0.266 OA
ENDBRANCH   8  25
TORSDOF 4
ENDMDL
MODEL 4
REMARK VINA RESULT:      -8.9      1.894      2.232
REMARK  4 active torsions:
REMARK  status: ('A' for Active; 'I' for Inactive)
REMARK    1  A    between atoms: C_6  and  C_7 
REMARK    2  A    between atoms: C_8  and  C_9 
REMARK       I    between atoms: C_9  and  N_10 
REMARK    3  A    between atoms: N_10  and  C_11 
REMARK    4  A    between atoms: C_18  and  C_19 
REMARK       I    between atoms: C_19  and  N_20 
ROOT
HETATM    1  C   UNL     1      -5.565   3.434 -31.760  1.00  0.00     0.035 A 
HETATM    2  C   UNL     1      -4.212   3.794 -31.821  1.00  0.00     0.046 A 
HETATM    3  C   UNL     1      -3.777   4.981 -31.188  1.00  0.00     0.030 A 
HETATM    4  C   UNL     1      -4.708   5.762 -30.516  1.00  0.00     0.063 A 
HETATM    5  N   UNL     1      -4.002   6.824 -30.021  1.00  0.00    -0.277 N 
HETATM    6  H   UNL     1      -4.362   7.599 -29.476  1.00  0.00     0.189 HD
HETATM    7  N   UNL     1      -2.692   6.803 -30.309  1.00  0.00    -0.168 NA
HETATM    8  C   UNL     1      -2.535   5.669 -31.030  1.00  0.00     0.156 A 
HETATM    9  C   UNL     1      -6.061   5.432 -30.429  1.00  0.00     0.034 A 
HETATM   10  C   UNL     1      -6.467   4.252 -31.064  1.00  0.00     0.032 A 
ENDROOT
BRANCH   1  11
HETATM   11  N   UNL     1      -6.103   2.280 -32.369  1.00  0.00    -0.327 N 
HETATM   12  C   UNL     1      -6.032   0.978 -31.920  1.00  0.00     0.227 C 
HETATM   13  O   UNL     1      -5.498   0.584 -30.894  1.00  0.00    -0.273 OA
HETATM   14  H   UNL     1      -6.561   2.429 -33.254  1.00  0.00     0.169 HD
BRANCH  12  15
HETATM   15  C   UNL     1      -6.653  -0.053 -32.809  1.00  0.00     0.087 A 
HETATM   16  C   UNL     1      -5.872  -0.544 -34.020  1.00  0.00     0.032 A 
HETATM   17  C   UNL     1      -7.190   0.173 -34.197  1.00  0.00     0.025 A 
BRANCH  16  18
HETATM   18  C   UNL     1      -5.767  -2.025 -34.293  1.00  0.00    -0.051 A 
HETATM   19  C   UNL     1      -4.602  -2.743 -33.975  1.00  0.00     0.031 A 
HETATM   20  C   UNL     1      -4.519  -4.118 -34.203  1.00  0.00     0.034 A 
HETATM   21  C   UNL     1      -5.596  -4.810 -34.749  1.00  0.00     0.024 A 
HETATM   22 CL   UNL     1      -3.075  -4.962 -33.799  1.00  0.00    -0.084 Cl
HETATM   23  C   UNL     1      -6.763  -4.121 -35.065  1.00  0.00     0.002 A 
HETATM   24  C   UNL     1      -6.846  -2.745 -34.834  1.00  0.00     0.007 A 
ENDBRANCH  16  18
ENDBRANCH  12  15
ENDBRANCH   1  11
BRANCH   8  25
HETATM   25  C   UNL     1      -1.218   5.274 -31.547  1.00  0.00     0.270 C 
HETATM   26  N   UNL     1      -0.854   5.918 -32.699  1.00  0.00    -0.365 N 
HETATM   27  H   UNL     1      -1.493   6.596 -33.097  1.00  0.00     0.159 HD
HETATM   28  H   UNL     1       0.034   5.712 -33.126  1.00  0.00     0.159 HD
HETATM   29  O   UNL     1      -0.480   4.446 -31.025  1.00  0.00    -0.266 OA
ENDBRANCH   8  25
TORSDOF 4
ENDMDL
MODEL 5
REMARK VINA RESULT:      -8.9      5.570      8.703
REMARK  4 active torsions:
REMARK  status: ('A' for Active; 'I' for Inactive)
REMARK    1  A    between atoms: C_6  and  C_7 
REMARK    2  A    between atoms: C_8  and  C_9 
REMARK       I    between atoms: C_9  and  N_10 
REMARK    3  A    between atoms: N_10  and  C_11 
REMARK    4  A    between atoms: C_18  and  C_19 
REMARK       I    between atoms: C_19  and  N_20 
ROOT
HETATM    1  C   UNL     1      -9.895   1.663 -33.544  1.00  0.00     0.035 A 
HETATM    2  C   UNL     1     -11.171   1.126 -33.753  1.00  0.00     0.046 A 
HETATM    3  C   UNL     1     -12.313   1.893 -33.425  1.00  0.00     0.030 A 
HETATM    4  C   UNL     1     -12.136   3.169 -32.904  1.00  0.00     0.063 A 
HETATM    5  N   UNL     1     -13.397   3.651 -32.687  1.00  0.00    -0.277 N 
HETATM    6  H   UNL     1     -13.650   4.557 -32.309  1.00  0.00     0.189 HD
HETATM    7  N   UNL     1     -14.381   2.804 -33.024  1.00  0.00    -0.168 NA
HETATM    8  C   UNL     1     -13.728   1.712 -33.483  1.00  0.00     0.156 A 
HETATM    9  C   UNL     1     -10.880   3.738 -32.689  1.00  0.00     0.034 A 
HETATM   10  C   UNL     1      -9.766   2.958 -33.021  1.00  0.00     0.032 A 
ENDROOT
BRANCH   1  11
HETATM   11  N   UNL     1      -8.694   0.975 -33.824  1.00  0.00    -0.327 N 
HETATM   12  C   UNL     1      -7.406   1.462 -33.751  1.00  0.00     0.227 C 
HETATM   13  O   UNL     1      -7.065   2.586 -33.414  1.00  0.00    -0.273 OA
HETATM   14  H   UNL     1      -8.801   0.026 -34.147  1.00  0.00     0.169 HD
BRANCH  12  15
HETATM   15  C   UNL     1      -6.325   0.512 -34.161  1.00  0.00     0.087 A 
HETATM   16  C   UNL     1      -6.002  -0.666 -33.254  1.00  0.00     0.032 A 
HETATM   17  C   UNL     1      -4.960   0.392 -33.537  1.00  0.00     0.025 A 
BRANCH  16  18
HETATM   18  C   UNL     1      -5.863  -2.049 -33.842  1.00  0.00    -0.051 A 
HETATM   19  C   UNL     1      -4.665  -2.773 -33.724  1.00  0.00     0.031 A 
HETATM   20  C   UNL     1      -4.550  -4.064 -34.245  1.00  0.00     0.034 A 
HETATM   21  C   UNL     1      -5.626  -4.664 -34.891  1.00  0.00     0.024 A 
HETATM   22 CL   UNL     1      -3.066  -4.920 -34.079  1.00  0.00    -0.084 Cl
HETATM   23  C   UNL     1      -6.825  -3.969 -35.014  1.00  0.00     0.002 A 
HETATM   24  C   UNL     1      -6.940  -2.678 -34.490  1.00  0.00     0.007 A 
ENDBRANCH  16  18
ENDBRANCH  12  15
ENDBRANCH   1  11
BRANCH   8  25
HETATM   25  C   UNL     1     -14.463   0.532 -33.959  1.00  0.00     0.270 C 
HETATM   26  N   UNL     1     -14.020  -0.651 -33.433  1.00  0.00    -0.365 N 
HETATM   27  H   UNL     1     -13.248  -0.632 -32.777  1.00  0.00     0.159 HD
HETATM   28  H   UNL     1     -14.465  -1.514 -33.702  1.00  0.00     0.159 HD
HETATM   29  O   UNL     1     -15.395   0.562 -34.756  1.00  0.00    -0.266 OA
ENDBRANCH   8  25
TORSDOF 4
ENDMDL
MODEL 6
REMARK VINA RESULT:      -8.8      2.864      3.399
REMARK  4 active torsions:
REMARK  status: ('A' for Active; 'I' for Inactive)
REMARK    1  A    between atoms: C_6  and  C_7 
REMARK    2  A    between atoms: C_8  and  C_9 
REMARK       I    between atoms: C_9  and  N_10 
REMARK    3  A    between atoms: N_10  and  C_11 
REMARK    4  A    between atoms: C_18  and  C_19 
REMARK       I    between atoms: C_19  and  N_20 
ROOT
HETATM    1  C   UNL     1      -4.773   2.588 -32.066  1.00  0.00     0.035 A 
HETATM    2  C   UNL     1      -5.368   3.488 -31.174  1.00  0.00     0.046 A 
HETATM    3  C   UNL     1      -4.630   4.600 -30.709  1.00  0.00     0.030 A 
HETATM    4  C   UNL     1      -3.325   4.773 -31.155  1.00  0.00     0.063 A 
HETATM    5  N   UNL     1      -2.879   5.910 -30.541  1.00  0.00    -0.277 N 
HETATM    6  H   UNL     1      -1.965   6.338 -30.633  1.00  0.00     0.189 HD
HETATM    7  N   UNL     1      -3.777   6.496 -29.735  1.00  0.00    -0.168 NA
HETATM    8  C   UNL     1      -4.866   5.699 -29.828  1.00  0.00     0.156 A 
HETATM    9  C   UNL     1      -2.703   3.900 -32.049  1.00  0.00     0.034 A 
HETATM   10  C   UNL     1      -3.455   2.807 -32.494  1.00  0.00     0.032 A 
ENDROOT
BRANCH   1  11
HETATM   11  N   UNL     1      -5.417   1.440 -32.577  1.00  0.00    -0.327 N 
HETATM   12  C   UNL     1      -6.397   1.383 -33.546  1.00  0.00     0.227 C 
HETATM   13  O   UNL     1      -6.880   2.325 -34.157  1.00  0.00    -0.273 OA
HETATM   14  H   UNL     1      -5.150   0.566 -32.154  1.00  0.00     0.169 HD
BRANCH  12  15
HETATM   15  C   UNL     1      -6.936   0.021 -33.849  1.00  0.00     0.087 A 
HETATM   16  C   UNL     1      -6.343  -0.761 -35.013  1.00  0.00     0.032 A 
HETATM   17  C   UNL     1      -7.799  -0.355 -35.025  1.00  0.00     0.025 A 
BRANCH  16  18
HETATM   18  C   UNL     1      -5.957  -2.207 -34.824  1.00  0.00    -0.051 A 
HETATM   19  C   UNL     1      -4.808  -2.564 -34.097  1.00  0.00     0.031 A 
HETATM   20  C   UNL     1      -4.470  -3.904 -33.900  1.00  0.00     0.034 A 
HETATM   21  C   UNL     1      -5.269  -4.920 -34.417  1.00  0.00     0.024 A 
HETATM   22 CL   UNL     1      -3.056  -4.302 -33.003  1.00  0.00    -0.084 Cl
HETATM   23  C   UNL     1      -6.415  -4.590 -35.133  1.00  0.00     0.002 A 
HETATM   24  C   UNL     1      -6.755  -3.248 -35.329  1.00  0.00     0.007 A 
ENDBRANCH  16  18
ENDBRANCH  12  15
ENDBRANCH   1  11
BRANCH   8  25
HETATM   25  C   UNL     1      -6.094   6.002 -29.080  1.00  0.00     0.270 C 
HETATM   26  N   UNL     1      -6.229   5.290 -27.918  1.00  0.00    -0.365 N 
HETATM   27  H   UNL     1      -5.501   4.633 -27.664  1.00  0.00     0.159 HD
HETATM   28  H   UNL     1      -7.040   5.432 -27.338  1.00  0.00     0.159 HD
HETATM   29  O   UNL     1      -6.946   6.810 -29.429  1.00  0.00    -0.266 OA
ENDBRANCH   8  25
TORSDOF 4
ENDMDL
MODEL 7
REMARK VINA RESULT:      -8.5      3.280      3.616
REMARK  4 active torsions:
REMARK  status: ('A' for Active; 'I' for Inactive)
REMARK    1  A    between atoms: C_6  and  C_7 
REMARK    2  A    between atoms: C_8  and  C_9 
REMARK       I    between atoms: C_9  and  N_10 
REMARK    3  A    between atoms: N_10  and  C_11 
REMARK    4  A    between atoms: C_18  and  C_19 
REMARK       I    between atoms: C_19  and  N_20 
ROOT
HETATM    1  C   UNL     1      -5.057   3.893 -31.744  1.00  0.00     0.035 A 
HETATM    2  C   UNL     1      -5.326   4.422 -30.475  1.00  0.00     0.046 A 
HETATM    3  C   UNL     1      -4.715   5.634 -30.081  1.00  0.00     0.030 A 
HETATM    4  C   UNL     1      -3.861   6.275 -30.971  1.00  0.00     0.063 A 
HETATM    5  N   UNL     1      -3.431   7.397 -30.318  1.00  0.00    -0.277 N 
HETATM    6  H   UNL     1      -2.792   8.102 -30.666  1.00  0.00     0.189 HD
HETATM    7  N   UNL     1      -3.931   7.546 -29.081  1.00  0.00    -0.168 NA
HETATM    8  C   UNL     1      -4.727   6.465 -28.919  1.00  0.00     0.156 A 
HETATM    9  C   UNL     1      -3.576   5.781 -32.244  1.00  0.00     0.034 A 
HETATM   10  C   UNL     1      -4.192   4.579 -32.610  1.00  0.00     0.032 A 
ENDROOT
BRANCH   1  11
HETATM   11  N   UNL     1      -5.602   2.684 -32.226  1.00  0.00    -0.327 N 
HETATM   12  C   UNL     1      -6.820   2.495 -32.846  1.00  0.00     0.227 C 
HETATM   13  O   UNL     1      -7.652   3.352 -33.106  1.00  0.00    -0.273 OA
HETATM   14  H   UNL     1      -5.045   1.860 -32.065  1.00  0.00     0.169 HD
BRANCH  12  15
HETATM   15  C   UNL     1      -7.158   1.082 -33.204  1.00  0.00     0.087 A 
HETATM   16  C   UNL     1      -6.486   0.451 -34.415  1.00  0.00     0.032 A 
HETATM   17  C   UNL     1      -7.986   0.633 -34.379  1.00  0.00     0.025 A 
BRANCH  16  18
HETATM   18  C   UNL     1      -5.883  -0.927 -34.303  1.00  0.00    -0.051 A 
HETATM   19  C   UNL     1      -6.503  -2.043 -34.892  1.00  0.00     0.031 A 
HETATM   20  C   UNL     1      -5.927  -3.312 -34.811  1.00  0.00     0.034 A 
HETATM   21  C   UNL     1      -4.719  -3.500 -34.146  1.00  0.00     0.024 A 
HETATM   22 CL   UNL     1      -6.716  -4.653 -35.546  1.00  0.00    -0.084 Cl
HETATM   23  C   UNL     1      -4.082  -2.409 -33.562  1.00  0.00     0.002 A 
HETATM   24  C   UNL     1      -4.658  -1.138 -33.645  1.00  0.00     0.007 A 
ENDBRANCH  16  18
ENDBRANCH  12  15
ENDBRANCH   1  11
BRANCH   8  25
HETATM   25  C   UNL     1      -5.474   6.252 -27.671  1.00  0.00     0.270 C 
HETATM   26  N   UNL     1      -4.942   5.283 -26.863  1.00  0.00    -0.365 N 
HETATM   27  H   UNL     1      -4.105   4.801 -27.168  1.00  0.00     0.159 HD
HETATM   28  H   UNL     1      -5.387   5.068 -25.985  1.00  0.00     0.159 HD
HETATM   29  O   UNL     1      -6.484   6.865 -27.346  1.00  0.00    -0.266 OA
ENDBRANCH   8  25
TORSDOF 4
ENDMDL
MODEL 8
REMARK VINA RESULT:      -8.5      2.499      3.203
REMARK  4 active torsions:
REMARK  status: ('A' for Active; 'I' for Inactive)
REMARK    1  A    between atoms: C_6  and  C_7 
REMARK    2  A    between atoms: C_8  and  C_9 
REMARK       I    between atoms: C_9  and  N_10 
REMARK    3  A    between atoms: N_10  and  C_11 
REMARK    4  A    between atoms: C_18  and  C_19 
REMARK       I    between atoms: C_19  and  N_20 
ROOT
HETATM    1  C   UNL     1      -5.089   3.674 -31.655  1.00  0.00     0.035 A 
HETATM    2  C   UNL     1      -4.245   4.403 -32.502  1.00  0.00     0.046 A 
HETATM    3  C   UNL     1      -3.802   5.687 -32.111  1.00  0.00     0.030 A 
HETATM    4  C   UNL     1      -4.216   6.194 -30.885  1.00  0.00     0.063 A 
HETATM    5  N   UNL     1      -3.640   7.430 -30.790  1.00  0.00    -0.277 N 
HETATM    6  H   UNL     1      -3.726   8.089 -30.025  1.00  0.00     0.189 HD
HETATM    7  N   UNL     1      -2.884   7.774 -31.844  1.00  0.00    -0.168 NA
HETATM    8  C   UNL     1      -2.973   6.706 -32.670  1.00  0.00     0.156 A 
HETATM    9  C   UNL     1      -5.051   5.494 -30.013  1.00  0.00     0.034 A 
HETATM   10  C   UNL     1      -5.476   4.225 -30.424  1.00  0.00     0.032 A 
ENDROOT
BRANCH   1  11
HETATM   11  N   UNL     1      -5.599   2.393 -31.958  1.00  0.00    -0.327 N 
HETATM   12  C   UNL     1      -6.918   2.027 -32.122  1.00  0.00     0.227 C 
HETATM   13  O   UNL     1      -7.896   2.756 -32.048  1.00  0.00    -0.273 OA
HETATM   14  H   UNL     1      -4.914   1.657 -32.028  1.00  0.00     0.169 HD
BRANCH  12  15
HETATM   15  C   UNL     1      -7.164   0.576 -32.388  1.00  0.00     0.087 A 
HETATM   16  C   UNL     1      -6.909   0.032 -33.786  1.00  0.00     0.032 A 
HETATM   17  C   UNL     1      -8.298  -0.004 -33.192  1.00  0.00     0.025 A 
BRANCH  16  18
HETATM   18  C   UNL     1      -6.122  -1.243 -33.962  1.00  0.00    -0.051 A 
HETATM   19  C   UNL     1      -6.658  -2.339 -34.659  1.00  0.00     0.031 A 
HETATM   20  C   UNL     1      -5.916  -3.507 -34.844  1.00  0.00     0.034 A 
HETATM   21  C   UNL     1      -4.621  -3.609 -34.345  1.00  0.00     0.024 A 
HETATM   22 CL   UNL     1      -6.607  -4.828 -35.704  1.00  0.00    -0.084 Cl
HETATM   23  C   UNL     1      -4.066  -2.534 -33.658  1.00  0.00     0.002 A 
HETATM   24  C   UNL     1      -4.809  -1.364 -33.474  1.00  0.00     0.007 A 
ENDBRANCH  16  18
ENDBRANCH  12  15
ENDBRANCH   1  11
BRANCH   8  25
HETATM   25  C   UNL     1      -2.272   6.685 -33.961  1.00  0.00     0.270 C 
HETATM   26  N   UNL     1      -2.925   5.984 -34.939  1.00  0.00    -0.365 N 
HETATM   27  H   UNL     1      -3.811   5.547 -34.713  1.00  0.00     0.159 HD
HETATM   28  H   UNL     1      -2.521   5.915 -35.858  1.00  0.00     0.159 HD
HETATM   29  O   UNL     1      -1.199   7.233 -34.185  1.00  0.00    -0.266 OA
ENDBRANCH   8  25
TORSDOF 4
ENDMDL
MODEL 9
REMARK VINA RESULT:      -8.4      4.219      9.432
REMARK  4 active torsions:
REMARK  status: ('A' for Active; 'I' for Inactive)
REMARK    1  A    between atoms: C_6  and  C_7 
REMARK    2  A    between atoms: C_8  and  C_9 
REMARK       I    between atoms: C_9  and  N_10 
REMARK    3  A    between atoms: N_10  and  C_11 
REMARK    4  A    between atoms: C_18  and  C_19 
REMARK       I    between atoms: C_19  and  N_20 
ROOT
HETATM    1  C   UNL     1      -3.742   2.756 -31.883  1.00  0.00     0.035 A 
HETATM    2  C   UNL     1      -3.628   1.380 -32.121  1.00  0.00     0.046 A 
HETATM    3  C   UNL     1      -4.677   0.696 -32.777  1.00  0.00     0.030 A 
HETATM    4  C   UNL     1      -5.799   1.413 -33.174  1.00  0.00     0.063 A 
HETATM    5  N   UNL     1      -6.624   0.497 -33.766  1.00  0.00    -0.277 N 
HETATM    6  H   UNL     1      -7.537   0.667 -34.172  1.00  0.00     0.189 HD
HETATM    7  N   UNL     1      -6.139  -0.754 -33.792  1.00  0.00    -0.168 NA
HETATM    8  C   UNL     1      -4.935  -0.648 -33.185  1.00  0.00     0.156 A 
HETATM    9  C   UNL     1      -5.944   2.784 -32.960  1.00  0.00     0.034 A 
HETATM   10  C   UNL     1      -4.892   3.438 -32.308  1.00  0.00     0.032 A 
ENDROOT
BRANCH   1  11
HETATM   11  N   UNL     1      -2.760   3.526 -31.224  1.00  0.00    -0.327 N 
HETATM   12  C   UNL     1      -1.844   4.389 -31.789  1.00  0.00     0.227 C 
HETATM   13  O   UNL     1      -1.724   4.657 -32.976  1.00  0.00    -0.273 OA
HETATM   14  H   UNL     1      -2.705   3.400 -30.225  1.00  0.00     0.169 HD
BRANCH  12  15
HETATM   15  C   UNL     1      -0.883   5.033 -30.841  1.00  0.00     0.087 A 
HETATM   16  C   UNL     1      -0.492   6.487 -31.067  1.00  0.00     0.032 A 
HETATM   17  C   UNL     1       0.549   5.394 -31.131  1.00  0.00     0.025 A 
BRANCH  16  18
HETATM   18  C   UNL     1      -0.510   7.456 -29.911  1.00  0.00    -0.051 A 
HETATM   19  C   UNL     1       0.585   7.567 -29.037  1.00  0.00     0.031 A 
HETATM   20  C   UNL     1       0.576   8.486 -27.986  1.00  0.00     0.034 A 
HETATM   21  C   UNL     1      -0.521   9.318 -27.782  1.00  0.00     0.024 A 
HETATM   22 CL   UNL     1       1.937   8.593 -26.938  1.00  0.00    -0.084 Cl
HETATM   23  C   UNL     1      -1.614   9.230 -28.639  1.00  0.00     0.002 A 
HETATM   24  C   UNL     1      -1.604   8.312 -29.693  1.00  0.00     0.007 A 
ENDBRANCH  16  18
ENDBRANCH  12  15
ENDBRANCH   1  11
BRANCH   8  25
HETATM   25  C   UNL     1      -4.068  -1.821 -33.010  1.00  0.00     0.270 C 
HETATM   26  N   UNL     1      -4.147  -2.731 -34.030  1.00  0.00    -0.365 N 
HETATM   27  H   UNL     1      -4.772  -2.538 -34.804  1.00  0.00     0.159 HD
HETATM   28  H   UNL     1      -3.587  -3.567 -33.997  1.00  0.00     0.159 HD
HETATM   29  O   UNL     1      -3.326  -2.007 -32.052  1.00  0.00    -0.266 OA
ENDBRANCH   8  25
TORSDOF 4
ENDMDL
MODEL 10
REMARK VINA RESULT:      -8.3      6.610      9.774
REMARK  4 active torsions:
REMARK  status: ('A' for Active; 'I' for Inactive)
REMARK    1  A    between atoms: C_6  and  C_7 
REMARK    2  A    between atoms: C_8  and  C_9 
REMARK       I    between atoms: C_9  and  N_10 
REMARK    3  A    between atoms: N_10  and  C_11 
REMARK    4  A    between atoms: C_18  and  C_19 
REMARK       I    between atoms: C_19  and  N_20 
ROOT
HETATM    1  C   UNL     1      -7.742   0.279 -34.258  1.00  0.00     0.035 A 
HETATM    2  C   UNL     1      -7.587  -1.089 -34.516  1.00  0.00     0.046 A 
HETATM    3  C   UNL     1      -6.321  -1.693 -34.340  1.00  0.00     0.030 A 
HETATM    4  C   UNL     1      -5.258  -0.909 -33.910  1.00  0.00     0.063 A 
HETATM    5  N   UNL     1      -4.187  -1.756 -33.838  1.00  0.00    -0.277 N 
HETATM    6  H   UNL     1      -3.240  -1.525 -33.561  1.00  0.00     0.189 HD
HETATM    7  N   UNL     1      -4.458  -3.025 -34.182  1.00  0.00    -0.168 NA
HETATM    8  C   UNL     1      -5.774  -3.003 -34.494  1.00  0.00     0.156 A 
HETATM    9  C   UNL     1      -5.377   0.454 -33.637  1.00  0.00     0.034 A 
HETATM   10  C   UNL     1      -6.640   1.029 -33.819  1.00  0.00     0.032 A 
ENDROOT
BRANCH   1  11
HETATM   11  N   UNL     1      -8.957   0.980 -34.417  1.00  0.00    -0.327 N 
HETATM   12  C   UNL     1     -10.117   0.833 -33.686  1.00  0.00     0.227 C 
HETATM   13  O   UNL     1     -10.302   0.072 -32.748  1.00  0.00    -0.273 OA
HETATM   14  H   UNL     1      -8.983   1.639 -35.179  1.00  0.00     0.169 HD
BRANCH  12  15
HETATM   15  C   UNL     1     -11.272   1.680 -34.119  1.00  0.00     0.087 A 
HETATM   16  C   UNL     1     -12.678   1.272 -33.702  1.00  0.00     0.032 A 
HETATM   17  C   UNL     1     -12.297   1.324 -35.163  1.00  0.00     0.025 A 
BRANCH  16  18
HETATM   18  C   UNL     1     -13.616   2.302 -33.122  1.00  0.00    -0.051 A 
HETATM   19  C   UNL     1     -14.934   1.968 -32.765  1.00  0.00     0.031 A 
HETATM   20  C   UNL     1     -15.789   2.916 -32.202  1.00  0.00     0.034 A 
HETATM   21  C   UNL     1     -15.352   4.218 -31.976  1.00  0.00     0.024 A 
HETATM   22 CL   UNL     1     -17.396   2.468 -31.777  1.00  0.00    -0.084 Cl
HETATM   23  C   UNL     1     -14.049   4.570 -32.314  1.00  0.00     0.002 A 
HETATM   24  C   UNL     1     -13.191   3.619 -32.876  1.00  0.00     0.007 A 
ENDBRANCH  16  18
ENDBRANCH  12  15
ENDBRANCH   1  11
BRANCH   8  25
HETATM   25  C   UNL     1      -6.471  -4.222 -34.929  1.00  0.00     0.270 C 
HETATM   26  N   UNL     1      -7.573  -4.531 -34.179  1.00  0.00    -0.365 N 
HETATM   27  H   UNL     1      -7.822  -3.922 -33.409  1.00  0.00     0.159 HD
HETATM   28  H   UNL     1      -8.115  -5.349 -34.404  1.00  0.00     0.159 HD
HETATM   29  O   UNL     1      -6.129  -4.925 -35.872  1.00  0.00    -0.266 OA
ENDBRANCH   8  25
TORSDOF 4
ENDMDL
