MODEL 1
REMARK VINA RESULT:      -8.2      0.000      0.000
REMARK  7 active torsions:
REMARK  status: ('A' for Active; 'I' for Inactive)
REMARK    1  A    between atoms: C_2  and  N_3 
REMARK    2  A    between atoms: C_2  and  C_17 
REMARK       I    between atoms: N_3  and  C_4 
REMARK    3  A    between atoms: C_4  and  C_5 
REMARK    4  A    between atoms: C_7  and  N_8 
REMARK    5  A    between atoms: C_17  and  O_18 
REMARK    6  A    between atoms: C_17  and  C_19 
REMARK    7  A    between atoms: C_22  and  O_23 
ROOT
HETATM    1  N   UNL     1      -4.326   2.405 -31.412  1.00  0.00    -0.349 N 
HETATM    2  C   UNL     1      -4.334   3.180 -32.552  1.00  0.00     0.270 C 
HETATM    3  O   UNL     1      -5.195   3.107 -33.421  1.00  0.00    -0.266 OA
HETATM    4  H   UNL     1      -3.479   2.450 -30.850  1.00  0.00     0.163 HD
ENDROOT
BRANCH   1   5
HETATM    5  C   UNL     1      -5.292   1.335 -31.183  1.00  0.00     0.114 C 
HETATM    6  C   UNL     1      -6.176   1.682 -29.985  1.00  0.00     0.035 C 
BRANCH   5   7
HETATM    7  C   UNL     1      -4.628  -0.070 -31.087  1.00  0.00     0.173 C 
BRANCH   7   8
HETATM    8  O   UNL     1      -3.216   0.067 -30.885  1.00  0.00    -0.389 OA
HETATM    9  H   UNL     1      -3.014   1.011 -31.016  1.00  0.00     0.210 HD
ENDBRANCH   7   8
BRANCH   7  10
HETATM   10  C   UNL     1      -4.888  -0.978 -32.278  1.00  0.00    -0.028 A 
HETATM   11  C   UNL     1      -6.088  -0.872 -32.993  1.00  0.00     0.012 A 
HETATM   12  C   UNL     1      -6.334  -1.701 -34.092  1.00  0.00     0.037 A 
HETATM   13  C   UNL     1      -5.393  -2.647 -34.498  1.00  0.00     0.068 A 
HETATM   14  C   UNL     1      -4.194  -2.757 -33.798  1.00  0.00     0.037 A 
HETATM   15  C   UNL     1      -3.944  -1.928 -32.697  1.00  0.00     0.012 A 
BRANCH  13  16
HETATM   16  O   UNL     1      -5.762  -3.394 -35.583  1.00  0.00    -0.356 OA
HETATM   17  C   UNL     1      -6.493  -4.587 -35.324  1.00  0.00     0.210 C 
ENDBRANCH  13  16
ENDBRANCH   7  10
ENDBRANCH   5   7
ENDBRANCH   1   5
BRANCH   2  18
HETATM   18  C   UNL     1      -3.178   4.125 -32.672  1.00  0.00     0.126 A 
HETATM   19  N   UNL     1      -2.384   4.246 -31.571  1.00  0.00    -0.224 NA
HETATM   20  C   UNL     1      -1.330   5.103 -31.672  1.00  0.00     0.151 A 
HETATM   21  C   UNL     1      -1.057   5.833 -32.830  1.00  0.00     0.052 A 
HETATM   22  C   UNL     1      -1.889   5.680 -33.937  1.00  0.00     0.006 A 
HETATM   23  C   UNL     1      -2.970   4.809 -33.862  1.00  0.00     0.037 A 
BRANCH  20  24
HETATM   24  N   UNL     1      -0.470   5.252 -30.543  1.00  0.00    -0.227 N 
HETATM   25  N   UNL     1       0.534   4.374 -30.266  1.00  0.00    -0.179 NA
HETATM   26  C   UNL     1       1.093   4.849 -29.152  1.00  0.00     0.141 A 
HETATM   27  C   UNL     1       0.475   6.024 -28.694  1.00  0.00     0.040 A 
HETATM   28  C   UNL     1      -0.525   6.262 -29.605  1.00  0.00     0.122 A 
ENDBRANCH  20  24
ENDBRANCH   2  18
TORSDOF 7
ENDMDL
MODEL 2
REMARK VINA RESULT:      -7.9      1.429      2.038
REMARK  7 active torsions:
REMARK  status: ('A' for Active; 'I' for Inactive)
REMARK    1  A    between atoms: C_2  and  N_3 
REMARK    2  A    between atoms: C_2  and  C_17 
REMARK       I    between atoms: N_3  and  C_4 
REMARK    3  A    between atoms: C_4  and  C_5 
REMARK    4  A    between atoms: C_7  and  N_8 
REMARK    5  A    between atoms: C_17  and  O_18 
REMARK    6  A    between atoms: C_17  and  C_19 
REMARK    7  A    between atoms: C_22  and  O_23 
ROOT
HETATM    1  N   UNL     1      -4.856   2.126 -32.720  1.00  0.00    -0.349 N 
HETATM    2  C   UNL     1      -4.780   3.413 -32.231  1.00  0.00     0.270 C 
HETATM    3  O   UNL     1      -5.692   3.972 -31.635  1.00  0.00    -0.266 OA
HETATM    4  H   UNL     1      -4.095   1.835 -33.328  1.00  0.00     0.163 HD
ENDROOT
BRANCH   1   5
HETATM    5  C   UNL     1      -6.085   1.340 -32.672  1.00  0.00     0.114 C 
HETATM    6  C   UNL     1      -6.010   0.330 -31.526  1.00  0.00     0.035 C 
BRANCH   5   7
HETATM    7  C   UNL     1      -6.453   0.704 -34.044  1.00  0.00     0.173 C 
BRANCH   7   8
HETATM    8  O   UNL     1      -7.854   0.863 -34.298  1.00  0.00    -0.389 OA
HETATM    9  H   UNL     1      -8.314   0.337 -33.619  1.00  0.00     0.210 HD
ENDBRANCH   7   8
BRANCH   7  10
HETATM   10  C   UNL     1      -6.071  -0.760 -34.189  1.00  0.00    -0.028 A 
HETATM   11  C   UNL     1      -4.736  -1.155 -34.037  1.00  0.00     0.012 A 
HETATM   12  C   UNL     1      -4.375  -2.500 -34.165  1.00  0.00     0.037 A 
HETATM   13  C   UNL     1      -5.335  -3.474 -34.446  1.00  0.00     0.068 A 
HETATM   14  C   UNL     1      -6.666  -3.092 -34.593  1.00  0.00     0.037 A 
HETATM   15  C   UNL     1      -7.031  -1.746 -34.465  1.00  0.00     0.012 A 
BRANCH  13  16
HETATM   16  O   UNL     1      -4.847  -4.747 -34.549  1.00  0.00    -0.356 OA
HETATM   17  C   UNL     1      -3.844  -5.129 -33.616  1.00  0.00     0.210 C 
ENDBRANCH  13  16
ENDBRANCH   7  10
ENDBRANCH   5   7
ENDBRANCH   1   5
BRANCH   2  18
HETATM   18  C   UNL     1      -3.480   4.106 -32.504  1.00  0.00     0.126 A 
HETATM   19  N   UNL     1      -2.674   4.320 -31.426  1.00  0.00    -0.224 NA
HETATM   20  C   UNL     1      -1.490   4.949 -31.666  1.00  0.00     0.151 A 
HETATM   21  C   UNL     1      -1.099   5.365 -32.940  1.00  0.00     0.052 A 
HETATM   22  C   UNL     1      -1.948   5.126 -34.018  1.00  0.00     0.006 A 
HETATM   23  C   UNL     1      -3.161   4.482 -33.802  1.00  0.00     0.037 A 
BRANCH  20  24
HETATM   24  N   UNL     1      -0.614   5.185 -30.564  1.00  0.00    -0.227 N 
HETATM   25  N   UNL     1       0.427   4.359 -30.267  1.00  0.00    -0.179 NA
HETATM   26  C   UNL     1       0.989   4.908 -29.189  1.00  0.00     0.141 A 
HETATM   27  C   UNL     1       0.335   6.080 -28.774  1.00  0.00     0.040 A 
HETATM   28  C   UNL     1      -0.690   6.236 -29.674  1.00  0.00     0.122 A 
ENDBRANCH  20  24
ENDBRANCH   2  18
TORSDOF 7
ENDMDL
MODEL 3
REMARK VINA RESULT:      -7.9      2.117      3.388
REMARK  7 active torsions:
REMARK  status: ('A' for Active; 'I' for Inactive)
REMARK    1  A    between atoms: C_2  and  N_3 
REMARK    2  A    between atoms: C_2  and  C_17 
REMARK       I    between atoms: N_3  and  C_4 
REMARK    3  A    between atoms: C_4  and  C_5 
REMARK    4  A    between atoms: C_7  and  N_8 
REMARK    5  A    between atoms: C_17  and  O_18 
REMARK    6  A    between atoms: C_17  and  C_19 
REMARK    7  A    between atoms: C_22  and  O_23 
ROOT
HETATM    1  N   UNL     1      -3.826   0.253 -32.405  1.00  0.00    -0.349 N 
HETATM    2  C   UNL     1      -4.125   1.277 -31.532  1.00  0.00     0.270 C 
HETATM    3  O   UNL     1      -4.642   1.110 -30.433  1.00  0.00    -0.266 OA
HETATM    4  H   UNL     1      -3.547   0.533 -33.341  1.00  0.00     0.163 HD
ENDROOT
BRANCH   1   5
HETATM    5  C   UNL     1      -4.205  -1.134 -32.146  1.00  0.00     0.114 C 
HETATM    6  C   UNL     1      -2.956  -1.968 -31.865  1.00  0.00     0.035 C 
BRANCH   5   7
HETATM    7  C   UNL     1      -5.120  -1.729 -33.256  1.00  0.00     0.173 C 
BRANCH   7   8
HETATM    8  O   UNL     1      -4.369  -1.917 -34.462  1.00  0.00    -0.389 OA
HETATM    9  H   UNL     1      -4.306  -1.040 -34.881  1.00  0.00     0.210 HD
ENDBRANCH   7   8
BRANCH   7  10
HETATM   10  C   UNL     1      -6.369  -0.916 -33.554  1.00  0.00    -0.028 A 
HETATM   11  C   UNL     1      -6.699  -0.595 -34.877  1.00  0.00     0.012 A 
HETATM   12  C   UNL     1      -7.848   0.150 -35.161  1.00  0.00     0.037 A 
HETATM   13  C   UNL     1      -8.686   0.589 -34.135  1.00  0.00     0.068 A 
HETATM   14  C   UNL     1      -8.370   0.271 -32.816  1.00  0.00     0.037 A 
HETATM   15  C   UNL     1      -7.221  -0.476 -32.529  1.00  0.00     0.012 A 
BRANCH  13  16
HETATM   16  O   UNL     1      -9.772   1.311 -34.551  1.00  0.00    -0.356 OA
HETATM   17  C   UNL     1     -10.818   1.498 -33.606  1.00  0.00     0.210 C 
ENDBRANCH  13  16
ENDBRANCH   7  10
ENDBRANCH   5   7
ENDBRANCH   1   5
BRANCH   2  18
HETATM   18  C   UNL     1      -3.786   2.646 -32.039  1.00  0.00     0.126 A 
HETATM   19  N   UNL     1      -2.652   3.210 -31.536  1.00  0.00    -0.224 NA
HETATM   20  C   UNL     1      -2.337   4.453 -31.993  1.00  0.00     0.151 A 
HETATM   21  C   UNL     1      -3.119   5.138 -32.925  1.00  0.00     0.052 A 
HETATM   22  C   UNL     1      -4.269   4.527 -33.419  1.00  0.00     0.006 A 
HETATM   23  C   UNL     1      -4.612   3.256 -32.972  1.00  0.00     0.037 A 
BRANCH  20  24
HETATM   24  N   UNL     1      -1.153   5.076 -31.496  1.00  0.00    -0.227 N 
HETATM   25  N   UNL     1      -0.313   4.459 -30.620  1.00  0.00    -0.179 NA
HETATM   26  C   UNL     1       0.653   5.352 -30.400  1.00  0.00     0.141 A 
HETATM   27  C   UNL     1       0.463   6.543 -31.118  1.00  0.00     0.040 A 
HETATM   28  C   UNL     1      -0.703   6.341 -31.815  1.00  0.00     0.122 A 
ENDBRANCH  20  24
ENDBRANCH   2  18
TORSDOF 7
ENDMDL
MODEL 4
REMARK VINA RESULT:      -7.8      3.067      8.000
REMARK  7 active torsions:
REMARK  status: ('A' for Active; 'I' for Inactive)
REMARK    1  A    between atoms: C_2  and  N_3 
REMARK    2  A    between atoms: C_2  and  C_17 
REMARK       I    between atoms: N_3  and  C_4 
REMARK    3  A    between atoms: C_4  and  C_5 
REMARK    4  A    between atoms: C_7  and  N_8 
REMARK    5  A    between atoms: C_17  and  O_18 
REMARK    6  A    between atoms: C_17  and  C_19 
REMARK    7  A    between atoms: C_22  and  O_23 
ROOT
HETATM    1  N   UNL     1      -5.910   3.456 -33.735  1.00  0.00    -0.349 N 
HETATM    2  C   UNL     1      -5.997   2.374 -32.884  1.00  0.00     0.270 C 
HETATM    3  O   UNL     1      -5.968   2.462 -31.663  1.00  0.00    -0.266 OA
HETATM    4  H   UNL     1      -5.789   3.238 -34.721  1.00  0.00     0.163 HD
ENDROOT
BRANCH   1   5
HETATM    5  C   UNL     1      -5.658   4.811 -33.256  1.00  0.00     0.114 C 
HETATM    6  C   UNL     1      -6.968   5.598 -33.211  1.00  0.00     0.035 C 
BRANCH   5   7
HETATM    7  C   UNL     1      -4.522   5.530 -34.042  1.00  0.00     0.173 C 
BRANCH   7   8
HETATM    8  O   UNL     1      -4.349   4.917 -35.325  1.00  0.00    -0.389 OA
HETATM    9  H   UNL     1      -3.401   4.706 -35.399  1.00  0.00     0.210 HD
ENDBRANCH   7   8
BRANCH   7  10
HETATM   10  C   UNL     1      -3.187   5.586 -33.319  1.00  0.00    -0.028 A 
HETATM   11  C   UNL     1      -2.918   4.697 -32.270  1.00  0.00     0.012 A 
HETATM   12  C   UNL     1      -1.691   4.738 -31.601  1.00  0.00     0.037 A 
HETATM   13  C   UNL     1      -0.711   5.664 -31.962  1.00  0.00     0.068 A 
HETATM   14  C   UNL     1      -0.966   6.549 -33.007  1.00  0.00     0.037 A 
HETATM   15  C   UNL     1      -2.193   6.510 -33.680  1.00  0.00     0.012 A 
BRANCH  13  16
HETATM   16  O   UNL     1       0.439   5.599 -31.224  1.00  0.00    -0.356 OA
HETATM   17  C   UNL     1       0.334   5.048 -29.918  1.00  0.00     0.210 C 
ENDBRANCH  13  16
ENDBRANCH   7  10
ENDBRANCH   5   7
ENDBRANCH   1   5
BRANCH   2  18
HETATM   18  C   UNL     1      -6.112   1.048 -33.573  1.00  0.00     0.126 A 
HETATM   19  N   UNL     1      -5.268   0.070 -33.139  1.00  0.00    -0.224 NA
HETATM   20  C   UNL     1      -5.368  -1.138 -33.759  1.00  0.00     0.151 A 
HETATM   21  C   UNL     1      -6.276  -1.388 -34.789  1.00  0.00     0.052 A 
HETATM   22  C   UNL     1      -7.125  -0.364 -35.203  1.00  0.00     0.006 A 
HETATM   23  C   UNL     1      -7.047   0.879 -34.584  1.00  0.00     0.037 A 
BRANCH  20  24
HETATM   24  N   UNL     1      -4.506  -2.192 -33.329  1.00  0.00    -0.227 N 
HETATM   25  N   UNL     1      -4.397  -3.370 -34.003  1.00  0.00    -0.179 NA
HETATM   26  C   UNL     1      -3.515  -4.078 -33.295  1.00  0.00     0.141 A 
HETATM   27  C   UNL     1      -3.043  -3.384 -32.169  1.00  0.00     0.040 A 
HETATM   28  C   UNL     1      -3.694  -2.176 -32.213  1.00  0.00     0.122 A 
ENDBRANCH  20  24
ENDBRANCH   2  18
TORSDOF 7
ENDMDL
MODEL 5
REMARK VINA RESULT:      -7.8      5.875      8.862
REMARK  7 active torsions:
REMARK  status: ('A' for Active; 'I' for Inactive)
REMARK    1  A    between atoms: C_2  and  N_3 
REMARK    2  A    between atoms: C_2  and  C_17 
REMARK       I    between atoms: N_3  and  C_4 
REMARK    3  A    between atoms: C_4  and  C_5 
REMARK    4  A    between atoms: C_7  and  N_8 
REMARK    5  A    between atoms: C_17  and  O_18 
REMARK    6  A    between atoms: C_17  and  C_19 
REMARK    7  A    between atoms: C_22  and  O_23 
ROOT
HETATM    1  N   UNL     1      -9.140   1.353 -33.204  1.00  0.00    -0.349 N 
HETATM    2  C   UNL     1     -10.149   0.431 -33.022  1.00  0.00     0.270 C 
HETATM    3  O   UNL     1      -9.977  -0.686 -32.549  1.00  0.00    -0.266 OA
HETATM    4  H   UNL     1      -9.384   2.178 -33.746  1.00  0.00     0.163 HD
ENDROOT
BRANCH   1   5
HETATM    5  C   UNL     1      -7.737   1.039 -32.953  1.00  0.00     0.114 C 
HETATM    6  C   UNL     1      -7.091   2.165 -32.145  1.00  0.00     0.035 C 
BRANCH   5   7
HETATM    7  C   UNL     1      -6.957   0.670 -34.248  1.00  0.00     0.173 C 
BRANCH   7   8
HETATM    8  O   UNL     1      -7.818   0.781 -35.388  1.00  0.00    -0.389 OA
HETATM    9  H   UNL     1      -8.728   0.765 -35.042  1.00  0.00     0.210 HD
ENDBRANCH   7   8
BRANCH   7  10
HETATM   10  C   UNL     1      -6.309  -0.705 -34.229  1.00  0.00    -0.028 A 
HETATM   11  C   UNL     1      -6.991  -1.809 -34.756  1.00  0.00     0.012 A 
HETATM   12  C   UNL     1      -6.403  -3.078 -34.747  1.00  0.00     0.037 A 
HETATM   13  C   UNL     1      -5.127  -3.269 -34.213  1.00  0.00     0.068 A 
HETATM   14  C   UNL     1      -4.438  -2.177 -33.692  1.00  0.00     0.037 A 
HETATM   15  C   UNL     1      -5.025  -0.905 -33.700  1.00  0.00     0.012 A 
BRANCH  13  16
HETATM   16  O   UNL     1      -4.673  -4.559 -34.263  1.00  0.00    -0.356 OA
HETATM   17  C   UNL     1      -3.362  -4.796 -33.766  1.00  0.00     0.210 C 
ENDBRANCH  13  16
ENDBRANCH   7  10
ENDBRANCH   5   7
ENDBRANCH   1   5
BRANCH   2  18
HETATM   18  C   UNL     1     -11.502   0.892 -33.472  1.00  0.00     0.126 A 
HETATM   19  N   UNL     1     -11.628   2.223 -33.733  1.00  0.00    -0.224 NA
HETATM   20  C   UNL     1     -12.854   2.649 -34.144  1.00  0.00     0.151 A 
HETATM   21  C   UNL     1     -13.943   1.789 -34.295  1.00  0.00     0.052 A 
HETATM   22  C   UNL     1     -13.775   0.433 -34.022  1.00  0.00     0.006 A 
HETATM   23  C   UNL     1     -12.532  -0.029 -33.605  1.00  0.00     0.037 A 
BRANCH  20  24
HETATM   24  N   UNL     1     -13.026   4.036 -34.434  1.00  0.00    -0.227 N 
HETATM   25  N   UNL     1     -13.548   4.914 -33.534  1.00  0.00    -0.179 NA
HETATM   26  C   UNL     1     -13.548   6.085 -34.173  1.00  0.00     0.141 A 
HETATM   27  C   UNL     1     -13.033   5.992 -35.476  1.00  0.00     0.040 A 
HETATM   28  C   UNL     1     -12.704   4.666 -35.620  1.00  0.00     0.122 A 
ENDBRANCH  20  24
ENDBRANCH   2  18
TORSDOF 7
ENDMDL
MODEL 6
REMARK VINA RESULT:      -7.6      1.756      2.142
REMARK  7 active torsions:
REMARK  status: ('A' for Active; 'I' for Inactive)
REMARK    1  A    between atoms: C_2  and  N_3 
REMARK    2  A    between atoms: C_2  and  C_17 
REMARK       I    between atoms: N_3  and  C_4 
REMARK    3  A    between atoms: C_4  and  C_5 
REMARK    4  A    between atoms: C_7  and  N_8 
REMARK    5  A    between atoms: C_17  and  O_18 
REMARK    6  A    between atoms: C_17  and  C_19 
REMARK    7  A    between atoms: C_22  and  O_23 
ROOT
HETATM    1  N   UNL     1      -5.591   2.523 -31.557  1.00  0.00    -0.349 N 
HETATM    2  C   UNL     1      -5.875   3.775 -32.058  1.00  0.00     0.270 C 
HETATM    3  O   UNL     1      -6.945   4.349 -31.897  1.00  0.00    -0.266 OA
HETATM    4  H   UNL     1      -4.730   2.095 -31.890  1.00  0.00     0.163 HD
ENDROOT
BRANCH   1   5
HETATM    5  C   UNL     1      -6.590   1.705 -30.876  1.00  0.00     0.114 C 
HETATM    6  C   UNL     1      -5.904   0.775 -29.875  1.00  0.00     0.035 C 
BRANCH   5   7
HETATM    7  C   UNL     1      -7.547   0.972 -31.860  1.00  0.00     0.173 C 
BRANCH   7   8
HETATM    8  O   UNL     1      -8.654   0.412 -31.142  1.00  0.00    -0.389 OA
HETATM    9  H   UNL     1      -8.271  -0.073 -30.390  1.00  0.00     0.210 HD
ENDBRANCH   7   8
BRANCH   7  10
HETATM   10  C   UNL     1      -6.887  -0.107 -32.702  1.00  0.00    -0.028 A 
HETATM   11  C   UNL     1      -7.596  -0.717 -33.745  1.00  0.00     0.012 A 
HETATM   12  C   UNL     1      -6.996  -1.709 -34.527  1.00  0.00     0.037 A 
HETATM   13  C   UNL     1      -5.681  -2.110 -34.286  1.00  0.00     0.068 A 
HETATM   14  C   UNL     1      -4.965  -1.506 -33.255  1.00  0.00     0.037 A 
HETATM   15  C   UNL     1      -5.563  -0.513 -32.470  1.00  0.00     0.012 A 
BRANCH  13  16
HETATM   16  O   UNL     1      -5.219  -3.091 -35.121  1.00  0.00    -0.356 OA
HETATM   17  C   UNL     1      -5.913  -4.332 -35.100  1.00  0.00     0.210 C 
ENDBRANCH  13  16
ENDBRANCH   7  10
ENDBRANCH   5   7
ENDBRANCH   1   5
BRANCH   2  18
HETATM   18  C   UNL     1      -4.765   4.395 -32.852  1.00  0.00     0.126 A 
HETATM   19  N   UNL     1      -3.630   4.702 -32.161  1.00  0.00    -0.224 NA
HETATM   20  C   UNL     1      -2.617   5.264 -32.876  1.00  0.00     0.151 A 
HETATM   21  C   UNL     1      -2.709   5.525 -34.244  1.00  0.00     0.052 A 
HETATM   22  C   UNL     1      -3.884   5.195 -34.916  1.00  0.00     0.006 A 
HETATM   23  C   UNL     1      -4.933   4.616 -34.211  1.00  0.00     0.037 A 
BRANCH  20  24
HETATM   24  N   UNL     1      -1.409   5.593 -32.191  1.00  0.00    -0.227 N 
HETATM   25  N   UNL     1      -0.752   4.704 -31.395  1.00  0.00    -0.179 NA
HETATM   26  C   UNL     1       0.306   5.380 -30.943  1.00  0.00     0.141 A 
HETATM   27  C   UNL     1       0.355   6.697 -31.429  1.00  0.00     0.040 A 
HETATM   28  C   UNL     1      -0.756   6.809 -32.229  1.00  0.00     0.122 A 
ENDBRANCH  20  24
ENDBRANCH   2  18
TORSDOF 7
ENDMDL
MODEL 7
REMARK VINA RESULT:      -7.3      3.616      8.028
REMARK  7 active torsions:
REMARK  status: ('A' for Active; 'I' for Inactive)
REMARK    1  A    between atoms: C_2  and  N_3 
REMARK    2  A    between atoms: C_2  and  C_17 
REMARK       I    between atoms: N_3  and  C_4 
REMARK    3  A    between atoms: C_4  and  C_5 
REMARK    4  A    between atoms: C_7  and  N_8 
REMARK    5  A    between atoms: C_17  and  O_18 
REMARK    6  A    between atoms: C_17  and  C_19 
REMARK    7  A    between atoms: C_22  and  O_23 
ROOT
HETATM    1  N   UNL     1      -7.162   2.300 -33.253  1.00  0.00    -0.349 N 
HETATM    2  C   UNL     1      -6.826   1.398 -32.266  1.00  0.00     0.270 C 
HETATM    3  O   UNL     1      -7.358   1.363 -31.163  1.00  0.00    -0.266 OA
HETATM    4  H   UNL     1      -6.544   2.326 -34.061  1.00  0.00     0.163 HD
ENDROOT
BRANCH   1   5
HETATM    5  C   UNL     1      -8.115   3.384 -33.034  1.00  0.00     0.114 C 
HETATM    6  C   UNL     1      -9.304   3.228 -33.982  1.00  0.00     0.035 C 
BRANCH   5   7
HETATM    7  C   UNL     1      -7.454   4.792 -33.085  1.00  0.00     0.173 C 
BRANCH   7   8
HETATM    8  O   UNL     1      -7.869   5.487 -34.267  1.00  0.00    -0.389 OA
HETATM    9  H   UNL     1      -7.065   5.886 -34.644  1.00  0.00     0.210 HD
ENDBRANCH   7   8
BRANCH   7  10
HETATM   10  C   UNL     1      -5.936   4.784 -33.004  1.00  0.00    -0.028 A 
HETATM   11  C   UNL     1      -5.170   4.901 -34.172  1.00  0.00     0.012 A 
HETATM   12  C   UNL     1      -3.774   4.898 -34.108  1.00  0.00     0.037 A 
HETATM   13  C   UNL     1      -3.115   4.779 -32.884  1.00  0.00     0.068 A 
HETATM   14  C   UNL     1      -3.867   4.668 -31.716  1.00  0.00     0.037 A 
HETATM   15  C   UNL     1      -5.265   4.671 -31.777  1.00  0.00     0.012 A 
BRANCH  13  16
HETATM   16  O   UNL     1      -1.749   4.785 -32.964  1.00  0.00    -0.356 OA
HETATM   17  C   UNL     1      -1.125   6.042 -33.193  1.00  0.00     0.210 C 
ENDBRANCH  13  16
ENDBRANCH   7  10
ENDBRANCH   5   7
ENDBRANCH   1   5
BRANCH   2  18
HETATM   18  C   UNL     1      -5.724   0.452 -32.636  1.00  0.00     0.126 A 
HETATM   19  N   UNL     1      -6.108  -0.726 -33.205  1.00  0.00    -0.224 NA
HETATM   20  C   UNL     1      -5.112  -1.590 -33.545  1.00  0.00     0.151 A 
HETATM   21  C   UNL     1      -3.761  -1.311 -33.330  1.00  0.00     0.052 A 
HETATM   22  C   UNL     1      -3.408  -0.095 -32.749  1.00  0.00     0.006 A 
HETATM   23  C   UNL     1      -4.404   0.808 -32.396  1.00  0.00     0.037 A 
BRANCH  20  24
HETATM   24  N   UNL     1      -5.472  -2.831 -34.150  1.00  0.00    -0.227 N 
HETATM   25  N   UNL     1      -4.614  -3.887 -34.221  1.00  0.00    -0.179 NA
HETATM   26  C   UNL     1      -5.309  -4.837 -34.850  1.00  0.00     0.141 A 
HETATM   27  C   UNL     1      -6.606  -4.424 -35.191  1.00  0.00     0.040 A 
HETATM   28  C   UNL     1      -6.687  -3.133 -34.731  1.00  0.00     0.122 A 
ENDBRANCH  20  24
ENDBRANCH   2  18
TORSDOF 7
ENDMDL
MODEL 8
REMARK VINA RESULT:      -7.2     16.406     18.542
REMARK  7 active torsions:
REMARK  status: ('A' for Active; 'I' for Inactive)
REMARK    1  A    between atoms: C_2  and  N_3 
REMARK    2  A    between atoms: C_2  and  C_17 
REMARK       I    between atoms: N_3  and  C_4 
REMARK    3  A    between atoms: C_4  and  C_5 
REMARK    4  A    between atoms: C_7  and  N_8 
REMARK    5  A    between atoms: C_17  and  O_18 
REMARK    6  A    between atoms: C_17  and  C_19 
REMARK    7  A    between atoms: C_22  and  O_23 
ROOT
HETATM    1  N   UNL     1      -4.314 -13.931 -37.249  1.00  0.00    -0.349 N 
HETATM    2  C   UNL     1      -3.738 -12.965 -38.047  1.00  0.00     0.270 C 
HETATM    3  O   UNL     1      -3.997 -11.771 -37.968  1.00  0.00    -0.266 OA
HETATM    4  H   UNL     1      -4.133 -14.895 -37.516  1.00  0.00     0.163 HD
ENDROOT
BRANCH   1   5
HETATM    5  C   UNL     1      -5.383 -13.630 -36.301  1.00  0.00     0.114 C 
HETATM    6  C   UNL     1      -4.814 -13.562 -34.883  1.00  0.00     0.035 C 
BRANCH   5   7
HETATM    7  C   UNL     1      -6.604 -14.585 -36.441  1.00  0.00     0.173 C 
BRANCH   7   8
HETATM    8  O   UNL     1      -6.155 -15.928 -36.658  1.00  0.00    -0.389 OA
HETATM    9  H   UNL     1      -6.932 -16.427 -36.966  1.00  0.00     0.210 HD
ENDBRANCH   7   8
BRANCH   7  10
HETATM   10  C   UNL     1      -7.592 -14.196 -37.528  1.00  0.00    -0.028 A 
HETATM   11  C   UNL     1      -8.411 -15.170 -38.115  1.00  0.00     0.012 A 
HETATM   12  C   UNL     1      -9.325 -14.821 -39.114  1.00  0.00     0.037 A 
HETATM   13  C   UNL     1      -9.442 -13.499 -39.546  1.00  0.00     0.068 A 
HETATM   14  C   UNL     1      -8.636 -12.522 -38.965  1.00  0.00     0.037 A 
HETATM   15  C   UNL     1      -7.720 -12.868 -37.965  1.00  0.00     0.012 A 
BRANCH  13  16
HETATM   16  O   UNL     1     -10.370 -13.297 -40.530  1.00  0.00    -0.356 OA
HETATM   17  C   UNL     1     -11.058 -14.446 -41.010  1.00  0.00     0.210 C 
ENDBRANCH  13  16
ENDBRANCH   7  10
ENDBRANCH   5   7
ENDBRANCH   1   5
BRANCH   2  18
HETATM   18  C   UNL     1      -2.764 -13.492 -39.057  1.00  0.00     0.126 A 
HETATM   19  N   UNL     1      -3.296 -13.936 -40.230  1.00  0.00    -0.224 NA
HETATM   20  C   UNL     1      -2.417 -14.415 -41.154  1.00  0.00     0.151 A 
HETATM   21  C   UNL     1      -1.039 -14.462 -40.934  1.00  0.00     0.052 A 
HETATM   22  C   UNL     1      -0.533 -13.996 -39.723  1.00  0.00     0.006 A 
HETATM   23  C   UNL     1      -1.407 -13.498 -38.764  1.00  0.00     0.037 A 
BRANCH  20  24
HETATM   24  N   UNL     1      -2.934 -14.882 -42.399  1.00  0.00    -0.227 N 
HETATM   25  N   UNL     1      -3.846 -14.178 -43.125  1.00  0.00    -0.179 NA
HETATM   26  C   UNL     1      -4.075 -14.937 -44.198  1.00  0.00     0.141 A 
HETATM   27  C   UNL     1      -3.328 -16.125 -44.191  1.00  0.00     0.040 A 
HETATM   28  C   UNL     1      -2.603 -16.067 -43.026  1.00  0.00     0.122 A 
ENDBRANCH  20  24
ENDBRANCH   2  18
TORSDOF 7
ENDMDL
MODEL 9
REMARK VINA RESULT:      -7.2      3.041      3.841
REMARK  7 active torsions:
REMARK  status: ('A' for Active; 'I' for Inactive)
REMARK    1  A    between atoms: C_2  and  N_3 
REMARK    2  A    between atoms: C_2  and  C_17 
REMARK       I    between atoms: N_3  and  C_4 
REMARK    3  A    between atoms: C_4  and  C_5 
REMARK    4  A    between atoms: C_7  and  N_8 
REMARK    5  A    between atoms: C_17  and  O_18 
REMARK    6  A    between atoms: C_17  and  C_19 
REMARK    7  A    between atoms: C_22  and  O_23 
ROOT
HETATM    1  N   UNL     1      -4.660   2.282 -32.640  1.00  0.00    -0.349 N 
HETATM    2  C   UNL     1      -3.445   2.342 -31.991  1.00  0.00     0.270 C 
HETATM    3  O   UNL     1      -3.039   1.480 -31.221  1.00  0.00    -0.266 OA
HETATM    4  H   UNL     1      -4.947   3.128 -33.126  1.00  0.00     0.163 HD
ENDROOT
BRANCH   1   5
HETATM    5  C   UNL     1      -5.637   1.229 -32.380  1.00  0.00     0.114 C 
HETATM    6  C   UNL     1      -5.918   0.454 -33.667  1.00  0.00     0.035 C 
BRANCH   5   7
HETATM    7  C   UNL     1      -6.920   1.753 -31.671  1.00  0.00     0.173 C 
BRANCH   7   8
HETATM    8  O   UNL     1      -7.094   1.086 -30.415  1.00  0.00    -0.389 OA
HETATM    9  H   UNL     1      -7.566   0.257 -30.611  1.00  0.00     0.210 HD
ENDBRANCH   7   8
BRANCH   7  10
HETATM   10  C   UNL     1      -8.193   1.634 -32.493  1.00  0.00    -0.028 A 
HETATM   11  C   UNL     1      -8.508   2.612 -33.445  1.00  0.00     0.012 A 
HETATM   12  C   UNL     1      -9.676   2.509 -34.208  1.00  0.00     0.037 A 
HETATM   13  C   UNL     1     -10.549   1.434 -34.037  1.00  0.00     0.068 A 
HETATM   14  C   UNL     1     -10.242   0.453 -33.096  1.00  0.00     0.037 A 
HETATM   15  C   UNL     1      -9.073   0.553 -32.331  1.00  0.00     0.012 A 
BRANCH  13  16
HETATM   16  O   UNL     1     -11.654   1.459 -34.843  1.00  0.00    -0.356 OA
HETATM   17  C   UNL     1     -12.840   0.869 -34.324  1.00  0.00     0.210 C 
ENDBRANCH  13  16
ENDBRANCH   7  10
ENDBRANCH   5   7
ENDBRANCH   1   5
BRANCH   2  18
HETATM   18  C   UNL     1      -2.644   3.574 -32.282  1.00  0.00     0.126 A 
HETATM   19  N   UNL     1      -1.972   4.118 -31.228  1.00  0.00    -0.224 NA
HETATM   20  C   UNL     1      -1.241   5.237 -31.485  1.00  0.00     0.151 A 
HETATM   21  C   UNL     1      -1.167   5.819 -32.752  1.00  0.00     0.052 A 
HETATM   22  C   UNL     1      -1.864   5.232 -33.806  1.00  0.00     0.006 A 
HETATM   23  C   UNL     1      -2.616   4.086 -33.572  1.00  0.00     0.037 A 
BRANCH  20  24
HETATM   24  N   UNL     1      -0.517   5.834 -30.409  1.00  0.00    -0.227 N 
HETATM   25  N   UNL     1       0.270   5.110 -29.566  1.00  0.00    -0.179 NA
HETATM   26  C   UNL     1       0.760   6.011 -28.713  1.00  0.00     0.141 A 
HETATM   27  C   UNL     1       0.309   7.313 -28.982  1.00  0.00     0.040 A 
HETATM   28  C   UNL     1      -0.509   7.173 -30.076  1.00  0.00     0.122 A 
ENDBRANCH  20  24
ENDBRANCH   2  18
TORSDOF 7
ENDMDL
MODEL 10
REMARK VINA RESULT:      -7.2      4.419      7.558
REMARK  7 active torsions:
REMARK  status: ('A' for Active; 'I' for Inactive)
REMARK    1  A    between atoms: C_2  and  N_3 
REMARK    2  A    between atoms: C_2  and  C_17 
REMARK       I    between atoms: N_3  and  C_4 
REMARK    3  A    between atoms: C_4  and  C_5 
REMARK    4  A    between atoms: C_7  and  N_8 
REMARK    5  A    between atoms: C_17  and  O_18 
REMARK    6  A    between atoms: C_17  and  C_19 
REMARK    7  A    between atoms: C_22  and  O_23 
ROOT
HETATM    1  N   UNL     1      -6.887   2.835 -32.203  1.00  0.00    -0.349 N 
HETATM    2  C   UNL     1      -5.521   2.804 -32.384  1.00  0.00     0.270 C 
HETATM    3  O   UNL     1      -4.847   3.786 -32.670  1.00  0.00    -0.266 OA
HETATM    4  H   UNL     1      -7.346   1.931 -32.124  1.00  0.00     0.163 HD
ENDROOT
BRANCH   1   5
HETATM    5  C   UNL     1      -7.684   4.033 -32.450  1.00  0.00     0.114 C 
HETATM    6  C   UNL     1      -8.846   4.096 -31.458  1.00  0.00     0.035 C 
BRANCH   5   7
HETATM    7  C   UNL     1      -8.121   4.176 -33.937  1.00  0.00     0.173 C 
BRANCH   7   8
HETATM    8  O   UNL     1      -8.152   5.559 -34.308  1.00  0.00    -0.389 OA
HETATM    9  H   UNL     1      -8.736   5.618 -35.085  1.00  0.00     0.210 HD
ENDBRANCH   7   8
BRANCH   7  10
HETATM   10  C   UNL     1      -9.454   3.528 -34.272  1.00  0.00    -0.028 A 
HETATM   11  C   UNL     1     -10.508   4.305 -34.769  1.00  0.00     0.012 A 
HETATM   12  C   UNL     1     -11.737   3.717 -35.083  1.00  0.00     0.037 A 
HETATM   13  C   UNL     1     -11.939   2.348 -34.909  1.00  0.00     0.068 A 
HETATM   14  C   UNL     1     -10.896   1.564 -34.421  1.00  0.00     0.037 A 
HETATM   15  C   UNL     1      -9.663   2.150 -34.106  1.00  0.00     0.012 A 
BRANCH  13  16
HETATM   16  O   UNL     1     -13.187   1.904 -35.251  1.00  0.00    -0.356 OA
HETATM   17  C   UNL     1     -13.768   0.913 -34.412  1.00  0.00     0.210 C 
ENDBRANCH  13  16
ENDBRANCH   7  10
ENDBRANCH   5   7
ENDBRANCH   1   5
BRANCH   2  18
HETATM   18  C   UNL     1      -4.902   1.448 -32.223  1.00  0.00     0.126 A 
HETATM   19  N   UNL     1      -5.410   0.459 -33.011  1.00  0.00    -0.224 NA
HETATM   20  C   UNL     1      -4.852  -0.776 -32.872  1.00  0.00     0.151 A 
HETATM   21  C   UNL     1      -3.815  -1.041 -31.975  1.00  0.00     0.052 A 
HETATM   22  C   UNL     1      -3.320  -0.003 -31.190  1.00  0.00     0.006 A 
HETATM   23  C   UNL     1      -3.869   1.268 -31.315  1.00  0.00     0.037 A 
BRANCH  20  24
HETATM   24  N   UNL     1      -5.351  -1.838 -33.684  1.00  0.00    -0.227 N 
HETATM   25  N   UNL     1      -6.678  -2.001 -33.943  1.00  0.00    -0.179 NA
HETATM   26  C   UNL     1      -6.734  -3.086 -34.718  1.00  0.00     0.141 A 
HETATM   27  C   UNL     1      -5.468  -3.637 -34.972  1.00  0.00     0.040 A 
HETATM   28  C   UNL     1      -4.596  -2.817 -34.298  1.00  0.00     0.122 A 
ENDBRANCH  20  24
ENDBRANCH   2  18
TORSDOF 7
ENDMDL
