MODEL 1
REMARK VINA RESULT:     -10.2      0.000      0.000
REMARK  10 active torsions:
REMARK  status: ('A' for Active; 'I' for Inactive)
REMARK    1  A    between atoms: C_8  and  C_9 
REMARK    2  A    between atoms: N_14  and  C_15 
REMARK    3  A    between atoms: C_15  and  C_16 
REMARK    4  A    between atoms: C_16  and  C_17 
REMARK    5  A    between atoms: C_20  and  O_21 
REMARK    6  A    between atoms: C_27  and  N_28 
REMARK    7  A    between atoms: N_28  and  C_29 
REMARK    8  A    between atoms: C_29  and  C_30 
REMARK    9  A    between atoms: C_30  and  O_31 
REMARK   10  A    between atoms: C_30  and  C_32 
ROOT
HETATM    1  C   UNL     1      -0.331   5.235 -30.312  1.00  0.00     0.052 C 
HETATM    2  C   UNL     1      -0.948   5.702 -31.593  1.00  0.00    -0.015 A 
HETATM    3  C   UNL     1      -2.068   4.879 -32.168  1.00  0.00     0.144 A 
HETATM    4  N   UNL     1      -2.376   3.751 -31.611  1.00  0.00    -0.217 NA
HETATM    5  N   UNL     1      -2.720   5.388 -33.279  1.00  0.00    -0.272 N 
HETATM    6  C   UNL     1      -3.806   4.708 -33.806  1.00  0.00     0.266 C 
HETATM    7  O   UNL     1      -4.419   5.060 -34.817  1.00  0.00    -0.267 OA
HETATM    8  C   UNL     1      -4.231   3.477 -33.079  1.00  0.00     0.074 C 
HETATM    9  C   UNL     1      -3.438   3.029 -32.077  1.00  0.00     0.121 C 
HETATM   10  C   UNL     1      -2.284   6.555 -33.895  1.00  0.00     0.102 A 
HETATM   11  C   UNL     1      -1.251   7.259 -33.422  1.00  0.00     0.018 A 
HETATM   12  C   UNL     1      -0.582   6.830 -32.223  1.00  0.00     0.012 A 
ENDROOT
BRANCH   8  13
HETATM   13  C   UNL     1      -5.480   2.843 -33.490  1.00  0.00     0.045 C 
HETATM   14  C   UNL     1      -6.690   3.103 -32.974  1.00  0.00     0.077 A 
HETATM   15  S   UNL     1      -7.088   4.253 -31.759  1.00  0.00    -0.055 SA
HETATM   16  C   UNL     1      -7.904   2.343 -33.371  1.00  0.00     0.266 A 
HETATM   17  C   UNL     1      -8.725   3.646 -31.590  1.00  0.00     0.148 A 
HETATM   18  S   UNL     1      -9.765   4.223 -30.419  1.00  0.00    -0.052 SA
HETATM   19  N   UNL     1      -8.960   2.669 -32.538  1.00  0.00    -0.298 N 
HETATM   20  O   UNL     1      -7.925   1.526 -34.281  1.00  0.00    -0.266 OA
BRANCH  19  21
HETATM   21  C   UNL     1     -10.241   1.980 -32.706  1.00  0.00     0.138 C 
BRANCH  21  22
HETATM   22  C   UNL     1     -11.118   2.652 -33.771  1.00  0.00     0.059 C 
BRANCH  22  23
HETATM   23  C   UNL     1     -12.586   2.385 -33.551  1.00  0.00    -0.057 A 
HETATM   24  C   UNL     1     -13.304   3.120 -32.598  1.00  0.00     0.010 A 
HETATM   25  C   UNL     1     -14.662   2.874 -32.396  1.00  0.00     0.037 A 
HETATM   26  C   UNL     1     -15.331   1.908 -33.150  1.00  0.00     0.068 A 
HETATM   27  C   UNL     1     -14.621   1.173 -34.097  1.00  0.00     0.037 A 
HETATM   28  C   UNL     1     -13.255   1.408 -34.295  1.00  0.00     0.010 A 
BRANCH  26  29
HETATM   29  O   UNL     1     -16.662   1.777 -32.861  1.00  0.00    -0.356 OA
HETATM   30  C   UNL     1     -17.237   2.785 -32.040  1.00  0.00     0.210 C 
ENDBRANCH  26  29
ENDBRANCH  22  23
ENDBRANCH  21  22
ENDBRANCH  19  21
ENDBRANCH   8  13
BRANCH   9  31
HETATM   31  N   UNL     1      -3.676   1.844 -31.392  1.00  0.00    -0.274 NA
HETATM   32  H   UNL     1      -3.356   1.973 -30.428  1.00  0.00     0.129 HD
BRANCH  31  33
HETATM   33  C   UNL     1      -3.347   0.510 -31.913  1.00  0.00     0.130 C 
BRANCH  33  34
HETATM   34  C   UNL     1      -4.506  -0.489 -31.669  1.00  0.00     0.164 C 
BRANCH  34  35
HETATM   35  O   UNL     1      -5.642   0.202 -31.125  1.00  0.00    -0.390 OA
HETATM   36  H   UNL     1      -5.461   0.380 -30.184  1.00  0.00     0.210 HD
ENDBRANCH  34  35
BRANCH  34  37
HETATM   37  C   UNL     1      -4.983  -1.318 -32.847  1.00  0.00    -0.029 A 
HETATM   38  C   UNL     1      -4.171  -2.230 -33.536  1.00  0.00     0.010 A 
HETATM   39  C   UNL     1      -4.675  -2.973 -34.609  1.00  0.00     0.001 A 
HETATM   40  C   UNL     1      -6.000  -2.816 -35.009  1.00  0.00     0.000 A 
HETATM   41  C   UNL     1      -6.822  -1.914 -34.340  1.00  0.00     0.001 A 
HETATM   42  C   UNL     1      -6.317  -1.172 -33.271  1.00  0.00     0.010 A 
ENDBRANCH  34  37
ENDBRANCH  33  34
ENDBRANCH  31  33
ENDBRANCH   9  31
TORSDOF 10
ENDMDL
MODEL 2
REMARK VINA RESULT:     -10.1      2.719      9.405
REMARK  10 active torsions:
REMARK  status: ('A' for Active; 'I' for Inactive)
REMARK    1  A    between atoms: C_8  and  C_9 
REMARK    2  A    between atoms: N_14  and  C_15 
REMARK    3  A    between atoms: C_15  and  C_16 
REMARK    4  A    between atoms: C_16  and  C_17 
REMARK    5  A    between atoms: C_20  and  O_21 
REMARK    6  A    between atoms: C_27  and  N_28 
REMARK    7  A    between atoms: N_28  and  C_29 
REMARK    8  A    between atoms: C_29  and  C_30 
REMARK    9  A    between atoms: C_30  and  O_31 
REMARK   10  A    between atoms: C_30  and  C_32 
ROOT
HETATM    1  C   UNL     1     -10.229  -0.306 -32.726  1.00  0.00     0.052 C 
HETATM    2  C   UNL     1     -10.216   1.124 -33.167  1.00  0.00    -0.015 A 
HETATM    3  C   UNL     1      -8.896   1.846 -33.153  1.00  0.00     0.144 A 
HETATM    4  N   UNL     1      -7.856   1.254 -32.658  1.00  0.00    -0.217 NA
HETATM    5  N   UNL     1      -8.870   3.124 -33.686  1.00  0.00    -0.272 N 
HETATM    6  C   UNL     1      -7.667   3.807 -33.767  1.00  0.00     0.266 C 
HETATM    7  O   UNL     1      -7.553   4.962 -34.184  1.00  0.00    -0.267 OA
HETATM    8  C   UNL     1      -6.455   3.066 -33.312  1.00  0.00     0.074 C 
HETATM    9  C   UNL     1      -6.636   1.868 -32.708  1.00  0.00     0.121 C 
HETATM   10  C   UNL     1     -10.036   3.748 -34.114  1.00  0.00     0.102 A 
HETATM   11  C   UNL     1     -11.221   3.131 -34.073  1.00  0.00     0.018 A 
HETATM   12  C   UNL     1     -11.306   1.773 -33.607  1.00  0.00     0.012 A 
ENDROOT
BRANCH   8  13
HETATM   13  C   UNL     1      -5.153   3.678 -33.558  1.00  0.00     0.045 C 
HETATM   14  C   UNL     1      -4.494   4.474 -32.703  1.00  0.00     0.077 A 
HETATM   15  S   UNL     1      -4.973   4.934 -31.116  1.00  0.00    -0.055 SA
HETATM   16  C   UNL     1      -3.218   5.146 -33.063  1.00  0.00     0.266 A 
HETATM   17  C   UNL     1      -3.696   6.129 -30.977  1.00  0.00     0.148 A 
HETATM   18  S   UNL     1      -3.583   7.152 -29.664  1.00  0.00    -0.052 SA
HETATM   19  N   UNL     1      -2.874   6.064 -32.086  1.00  0.00    -0.298 N 
HETATM   20  O   UNL     1      -2.606   4.926 -34.098  1.00  0.00    -0.266 OA
BRANCH  19  21
HETATM   21  C   UNL     1      -1.683   6.895 -32.274  1.00  0.00     0.138 C 
BRANCH  21  22
HETATM   22  C   UNL     1      -0.395   6.133 -31.937  1.00  0.00     0.059 C 
BRANCH  22  23
HETATM   23  C   UNL     1       0.048   6.366 -30.515  1.00  0.00    -0.057 A 
HETATM   24  C   UNL     1       0.139   7.667 -30.005  1.00  0.00     0.010 A 
HETATM   25  C   UNL     1       0.548   7.883 -28.688  1.00  0.00     0.037 A 
HETATM   26  C   UNL     1       0.854   6.807 -27.853  1.00  0.00     0.068 A 
HETATM   27  C   UNL     1       0.768   5.510 -28.356  1.00  0.00     0.037 A 
HETATM   28  C   UNL     1       0.369   5.290 -29.680  1.00  0.00     0.010 A 
BRANCH  26  29
HETATM   29  O   UNL     1       1.228   7.156 -26.585  1.00  0.00    -0.356 OA
HETATM   30  C   UNL     1       1.896   8.402 -26.439  1.00  0.00     0.210 C 
ENDBRANCH  26  29
ENDBRANCH  22  23
ENDBRANCH  21  22
ENDBRANCH  19  21
ENDBRANCH   8  13
BRANCH   9  31
HETATM   31  N   UNL     1      -5.596   1.130 -32.155  1.00  0.00    -0.274 NA
HETATM   32  H   UNL     1      -4.718   1.586 -32.419  1.00  0.00     0.129 HD
BRANCH  31  33
HETATM   33  C   UNL     1      -5.502  -0.334 -32.212  1.00  0.00     0.130 C 
BRANCH  33  34
HETATM   34  C   UNL     1      -4.878  -0.804 -33.552  1.00  0.00     0.164 C 
BRANCH  34  35
HETATM   35  O   UNL     1      -3.455  -0.609 -33.523  1.00  0.00    -0.390 OA
HETATM   36  H   UNL     1      -3.286   0.344 -33.411  1.00  0.00     0.210 HD
ENDBRANCH  34  35
BRANCH  34  37
HETATM   37  C   UNL     1      -5.146  -2.230 -33.993  1.00  0.00    -0.029 A 
HETATM   38  C   UNL     1      -4.215  -3.272 -33.868  1.00  0.00     0.010 A 
HETATM   39  C   UNL     1      -4.529  -4.570 -34.284  1.00  0.00     0.001 A 
HETATM   40  C   UNL     1      -5.779  -4.848 -34.832  1.00  0.00     0.000 A 
HETATM   41  C   UNL     1      -6.715  -3.828 -34.968  1.00  0.00     0.001 A 
HETATM   42  C   UNL     1      -6.401  -2.532 -34.553  1.00  0.00     0.010 A 
ENDBRANCH  34  37
ENDBRANCH  33  34
ENDBRANCH  31  33
ENDBRANCH   9  31
TORSDOF 10
ENDMDL
MODEL 3
REMARK VINA RESULT:     -10.1      2.928      9.496
REMARK  10 active torsions:
REMARK  status: ('A' for Active; 'I' for Inactive)
REMARK    1  A    between atoms: C_8  and  C_9 
REMARK    2  A    between atoms: N_14  and  C_15 
REMARK    3  A    between atoms: C_15  and  C_16 
REMARK    4  A    between atoms: C_16  and  C_17 
REMARK    5  A    between atoms: C_20  and  O_21 
REMARK    6  A    between atoms: C_27  and  N_28 
REMARK    7  A    between atoms: N_28  and  C_29 
REMARK    8  A    between atoms: C_29  and  C_30 
REMARK    9  A    between atoms: C_30  and  O_31 
REMARK   10  A    between atoms: C_30  and  C_32 
ROOT
HETATM    1  C   UNL     1      -9.756  -0.108 -32.552  1.00  0.00     0.052 C 
HETATM    2  C   UNL     1      -9.670   1.275 -33.120  1.00  0.00    -0.015 A 
HETATM    3  C   UNL     1      -8.345   1.980 -33.041  1.00  0.00     0.144 A 
HETATM    4  N   UNL     1      -7.370   1.427 -32.391  1.00  0.00    -0.217 NA
HETATM    5  N   UNL     1      -8.240   3.202 -33.685  1.00  0.00    -0.272 N 
HETATM    6  C   UNL     1      -7.022   3.861 -33.708  1.00  0.00     0.266 C 
HETATM    7  O   UNL     1      -6.844   4.970 -34.217  1.00  0.00    -0.267 OA
HETATM    8  C   UNL     1      -5.876   3.153 -33.066  1.00  0.00     0.074 C 
HETATM    9  C   UNL     1      -6.140   2.020 -32.375  1.00  0.00     0.121 C 
HETATM   10  C   UNL     1      -9.345   3.794 -34.285  1.00  0.00     0.102 A 
HETATM   11  C   UNL     1     -10.541   3.197 -34.305  1.00  0.00     0.018 A 
HETATM   12  C   UNL     1     -10.698   1.890 -33.726  1.00  0.00     0.012 A 
ENDROOT
BRANCH   8  13
HETATM   13  C   UNL     1      -4.543   3.726 -33.236  1.00  0.00     0.045 C 
HETATM   14  C   UNL     1      -3.940   4.558 -32.375  1.00  0.00     0.077 A 
HETATM   15  S   UNL     1      -4.538   5.120 -30.864  1.00  0.00    -0.055 SA
HETATM   16  C   UNL     1      -2.623   5.184 -32.664  1.00  0.00     0.266 A 
HETATM   17  C   UNL     1      -3.249   6.297 -30.686  1.00  0.00     0.148 A 
HETATM   18  S   UNL     1      -3.222   7.393 -29.428  1.00  0.00    -0.052 SA
HETATM   19  N   UNL     1      -2.340   6.152 -31.715  1.00  0.00    -0.298 N 
HETATM   20  O   UNL     1      -1.932   4.892 -33.629  1.00  0.00    -0.266 OA
BRANCH  19  21
HETATM   21  C   UNL     1      -1.118   6.947 -31.850  1.00  0.00     0.138 C 
BRANCH  21  22
HETATM   22  C   UNL     1       0.108   6.211 -31.295  1.00  0.00     0.059 C 
BRANCH  22  23
HETATM   23  C   UNL     1       0.401   6.591 -29.865  1.00  0.00    -0.057 A 
HETATM   24  C   UNL     1       0.363   5.622 -28.853  1.00  0.00     0.010 A 
HETATM   25  C   UNL     1       0.635   5.973 -27.530  1.00  0.00     0.037 A 
HETATM   26  C   UNL     1       0.967   7.287 -27.196  1.00  0.00     0.068 A 
HETATM   27  C   UNL     1       1.003   8.255 -28.198  1.00  0.00     0.037 A 
HETATM   28  C   UNL     1       0.719   7.910 -29.525  1.00  0.00     0.010 A 
BRANCH  26  29
HETATM   29  O   UNL     1       1.222   7.493 -25.868  1.00  0.00    -0.356 OA
HETATM   30  C   UNL     1       1.467   8.836 -25.469  1.00  0.00     0.210 C 
ENDBRANCH  26  29
ENDBRANCH  22  23
ENDBRANCH  21  22
ENDBRANCH  19  21
ENDBRANCH   8  13
BRANCH   9  31
HETATM   31  N   UNL     1      -5.174   1.327 -31.654  1.00  0.00    -0.274 NA
HETATM   32  H   UNL     1      -4.265   1.743 -31.873  1.00  0.00     0.129 HD
BRANCH  31  33
HETATM   33  C   UNL     1      -5.108  -0.137 -31.560  1.00  0.00     0.130 C 
BRANCH  33  34
HETATM   34  C   UNL     1      -4.328  -0.741 -32.756  1.00  0.00     0.164 C 
BRANCH  34  35
HETATM   35  O   UNL     1      -3.058  -1.241 -32.310  1.00  0.00    -0.390 OA
HETATM   36  H   UNL     1      -2.786  -0.717 -31.535  1.00  0.00     0.210 HD
ENDBRANCH  34  35
BRANCH  34  37
HETATM   37  C   UNL     1      -5.005  -1.835 -33.560  1.00  0.00    -0.029 A 
HETATM   38  C   UNL     1      -4.352  -2.996 -33.999  1.00  0.00     0.010 A 
HETATM   39  C   UNL     1      -5.037  -3.974 -34.727  1.00  0.00     0.001 A 
HETATM   40  C   UNL     1      -6.387  -3.808 -35.027  1.00  0.00     0.000 A 
HETATM   41  C   UNL     1      -7.053  -2.662 -34.603  1.00  0.00     0.001 A 
HETATM   42  C   UNL     1      -6.368  -1.686 -33.878  1.00  0.00     0.010 A 
ENDBRANCH  34  37
ENDBRANCH  33  34
ENDBRANCH  31  33
ENDBRANCH   9  31
TORSDOF 10
ENDMDL
MODEL 4
REMARK VINA RESULT:     -10.0      3.248      9.705
REMARK  10 active torsions:
REMARK  status: ('A' for Active; 'I' for Inactive)
REMARK    1  A    between atoms: C_8  and  C_9 
REMARK    2  A    between atoms: N_14  and  C_15 
REMARK    3  A    between atoms: C_15  and  C_16 
REMARK    4  A    between atoms: C_16  and  C_17 
REMARK    5  A    between atoms: C_20  and  O_21 
REMARK    6  A    between atoms: C_27  and  N_28 
REMARK    7  A    between atoms: N_28  and  C_29 
REMARK    8  A    between atoms: C_29  and  C_30 
REMARK    9  A    between atoms: C_30  and  O_31 
REMARK   10  A    between atoms: C_30  and  C_32 
ROOT
HETATM    1  C   UNL     1      -7.852  -0.845 -33.618  1.00  0.00     0.052 C 
HETATM    2  C   UNL     1      -8.449   0.497 -33.330  1.00  0.00    -0.015 A 
HETATM    3  C   UNL     1      -7.610   1.484 -32.566  1.00  0.00     0.144 A 
HETATM    4  N   UNL     1      -6.467   1.108 -32.088  1.00  0.00    -0.217 NA
HETATM    5  N   UNL     1      -8.119   2.764 -32.419  1.00  0.00    -0.272 N 
HETATM    6  C   UNL     1      -7.356   3.734 -31.788  1.00  0.00     0.266 C 
HETATM    7  O   UNL     1      -7.742   4.886 -31.572  1.00  0.00    -0.267 OA
HETATM    8  C   UNL     1      -5.989   3.323 -31.357  1.00  0.00     0.074 C 
HETATM    9  C   UNL     1      -5.661   2.014 -31.458  1.00  0.00     0.121 C 
HETATM   10  C   UNL     1      -9.394   3.086 -32.867  1.00  0.00     0.102 A 
HETATM   11  C   UNL     1     -10.167   2.194 -33.494  1.00  0.00     0.018 A 
HETATM   12  C   UNL     1      -9.668   0.870 -33.752  1.00  0.00     0.012 A 
ENDROOT
BRANCH   8  13
HETATM   13  C   UNL     1      -5.091   4.363 -30.863  1.00  0.00     0.045 C 
HETATM   14  C   UNL     1      -4.155   4.991 -31.590  1.00  0.00     0.077 A 
HETATM   15  S   UNL     1      -3.804   4.777 -33.260  1.00  0.00    -0.055 SA
HETATM   16  C   UNL     1      -3.207   5.968 -30.994  1.00  0.00     0.266 A 
HETATM   17  C   UNL     1      -2.342   5.743 -33.172  1.00  0.00     0.148 A 
HETATM   18  S   UNL     1      -1.308   5.900 -34.473  1.00  0.00    -0.052 SA
HETATM   19  N   UNL     1      -2.224   6.295 -31.912  1.00  0.00    -0.298 N 
HETATM   20  O   UNL     1      -3.288   6.374 -29.843  1.00  0.00    -0.266 OA
BRANCH  19  21
HETATM   21  C   UNL     1      -1.140   7.193 -31.507  1.00  0.00     0.138 C 
BRANCH  21  22
HETATM   22  C   UNL     1       0.059   6.422 -30.941  1.00  0.00     0.059 C 
BRANCH  22  23
HETATM   23  C   UNL     1       0.341   6.784 -29.504  1.00  0.00    -0.057 A 
HETATM   24  C   UNL     1       0.927   8.016 -29.185  1.00  0.00     0.010 A 
HETATM   25  C   UNL     1       1.187   8.351 -27.856  1.00  0.00     0.037 A 
HETATM   26  C   UNL     1       0.849   7.476 -26.822  1.00  0.00     0.068 A 
HETATM   27  C   UNL     1       0.268   6.248 -27.134  1.00  0.00     0.037 A 
HETATM   28  C   UNL     1       0.017   5.903 -28.467  1.00  0.00     0.010 A 
BRANCH  26  29
HETATM   29  O   UNL     1       1.145   7.931 -25.567  1.00  0.00    -0.356 OA
HETATM   30  C   UNL     1       2.363   8.650 -25.421  1.00  0.00     0.210 C 
ENDBRANCH  26  29
ENDBRANCH  22  23
ENDBRANCH  21  22
ENDBRANCH  19  21
ENDBRANCH   8  13
BRANCH   9  31
HETATM   31  N   UNL     1      -4.457   1.494 -30.999  1.00  0.00    -0.274 NA
HETATM   32  H   UNL     1      -3.703   1.946 -31.525  1.00  0.00     0.129 HD
BRANCH  31  33
HETATM   33  C   UNL     1      -4.204   0.063 -30.784  1.00  0.00     0.130 C 
BRANCH  33  34
HETATM   34  C   UNL     1      -3.161  -0.480 -31.794  1.00  0.00     0.164 C 
BRANCH  34  35
HETATM   35  O   UNL     1      -1.904  -0.691 -31.132  1.00  0.00    -0.390 OA
HETATM   36  H   UNL     1      -2.077  -1.188 -30.312  1.00  0.00     0.210 HD
ENDBRANCH  34  35
BRANCH  34  37
HETATM   37  C   UNL     1      -3.508  -1.747 -32.553  1.00  0.00    -0.029 A 
HETATM   38  C   UNL     1      -4.228  -1.761 -33.757  1.00  0.00     0.010 A 
HETATM   39  C   UNL     1      -4.505  -2.964 -34.415  1.00  0.00     0.001 A 
HETATM   40  C   UNL     1      -4.067  -4.173 -33.880  1.00  0.00     0.000 A 
HETATM   41  C   UNL     1      -3.354  -4.181 -32.685  1.00  0.00     0.001 A 
HETATM   42  C   UNL     1      -3.078  -2.980 -32.029  1.00  0.00     0.010 A 
ENDBRANCH  34  37
ENDBRANCH  33  34
ENDBRANCH  31  33
ENDBRANCH   9  31
TORSDOF 10
ENDMDL
MODEL 5
REMARK VINA RESULT:      -9.4      2.925      9.398
REMARK  10 active torsions:
REMARK  status: ('A' for Active; 'I' for Inactive)
REMARK    1  A    between atoms: C_8  and  C_9 
REMARK    2  A    between atoms: N_14  and  C_15 
REMARK    3  A    between atoms: C_15  and  C_16 
REMARK    4  A    between atoms: C_16  and  C_17 
REMARK    5  A    between atoms: C_20  and  O_21 
REMARK    6  A    between atoms: C_27  and  N_28 
REMARK    7  A    between atoms: N_28  and  C_29 
REMARK    8  A    between atoms: C_29  and  C_30 
REMARK    9  A    between atoms: C_30  and  O_31 
REMARK   10  A    between atoms: C_30  and  C_32 
ROOT
HETATM    1  C   UNL     1     -10.093  -0.030 -32.981  1.00  0.00     0.052 C 
HETATM    2  C   UNL     1     -10.312   1.392 -33.393  1.00  0.00    -0.015 A 
HETATM    3  C   UNL     1      -9.398   2.435 -32.810  1.00  0.00     0.144 A 
HETATM    4  N   UNL     1      -8.545   2.092 -31.898  1.00  0.00    -0.217 NA
HETATM    5  N   UNL     1      -9.521   3.726 -33.297  1.00  0.00    -0.272 N 
HETATM    6  C   UNL     1      -8.656   4.711 -32.849  1.00  0.00     0.266 C 
HETATM    7  O   UNL     1      -8.718   5.895 -33.191  1.00  0.00    -0.267 OA
HETATM    8  C   UNL     1      -7.595   4.275 -31.895  1.00  0.00     0.074 C 
HETATM    9  C   UNL     1      -7.658   3.012 -31.414  1.00  0.00     0.121 C 
HETATM   10  C   UNL     1     -10.519   4.059 -34.205  1.00  0.00     0.102 A 
HETATM   11  C   UNL     1     -11.373   3.146 -34.680  1.00  0.00     0.018 A 
HETATM   12  C   UNL     1     -11.247   1.771 -34.279  1.00  0.00     0.012 A 
ENDROOT
BRANCH   8  13
HETATM   13  C   UNL     1      -6.554   5.239 -31.551  1.00  0.00     0.045 C 
HETATM   14  C   UNL     1      -5.461   5.497 -32.284  1.00  0.00     0.077 A 
HETATM   15  S   UNL     1      -5.031   4.815 -33.803  1.00  0.00    -0.055 SA
HETATM   16  C   UNL     1      -4.391   6.418 -31.820  1.00  0.00     0.266 A 
HETATM   17  C   UNL     1      -3.421   5.512 -33.765  1.00  0.00     0.148 A 
HETATM   18  S   UNL     1      -2.280   5.161 -34.930  1.00  0.00    -0.052 SA
HETATM   19  N   UNL     1      -3.296   6.334 -32.662  1.00  0.00    -0.298 N 
HETATM   20  O   UNL     1      -4.480   7.107 -30.814  1.00  0.00    -0.266 OA
BRANCH  19  21
HETATM   21  C   UNL     1      -2.093   7.108 -32.348  1.00  0.00     0.138 C 
BRANCH  21  22
HETATM   22  C   UNL     1      -0.928   6.207 -31.919  1.00  0.00     0.059 C 
BRANCH  22  23
HETATM   23  C   UNL     1      -0.509   6.460 -30.493  1.00  0.00    -0.057 A 
HETATM   24  C   UNL     1      -0.907   7.631 -29.834  1.00  0.00     0.010 A 
HETATM   25  C   UNL     1      -0.520   7.865 -28.514  1.00  0.00     0.037 A 
HETATM   26  C   UNL     1       0.252   6.930 -27.823  1.00  0.00     0.068 A 
HETATM   27  C   UNL     1       0.654   5.765 -28.474  1.00  0.00     0.037 A 
HETATM   28  C   UNL     1       0.277   5.532 -29.802  1.00  0.00     0.010 A 
BRANCH  26  29
HETATM   29  O   UNL     1       0.551   7.276 -26.533  1.00  0.00    -0.356 OA
HETATM   30  C   UNL     1       1.811   7.899 -26.318  1.00  0.00     0.210 C 
ENDBRANCH  26  29
ENDBRANCH  22  23
ENDBRANCH  21  22
ENDBRANCH  19  21
ENDBRANCH   8  13
BRANCH   9  31
HETATM   31  N   UNL     1      -6.788   2.522 -30.448  1.00  0.00    -0.274 NA
HETATM   32  H   UNL     1      -6.661   3.255 -29.745  1.00  0.00     0.129 HD
BRANCH  31  33
HETATM   33  C   UNL     1      -5.535   1.816 -30.748  1.00  0.00     0.130 C 
BRANCH  33  34
HETATM   34  C   UNL     1      -5.714   0.281 -30.626  1.00  0.00     0.164 C 
BRANCH  34  35
HETATM   35  O   UNL     1      -6.990  -0.018 -30.038  1.00  0.00    -0.390 OA
HETATM   36  H   UNL     1      -7.117  -0.983 -30.075  1.00  0.00     0.210 HD
ENDBRANCH  34  35
BRANCH  34  37
HETATM   37  C   UNL     1      -5.575  -0.548 -31.889  1.00  0.00    -0.029 A 
HETATM   38  C   UNL     1      -6.587  -0.678 -32.851  1.00  0.00     0.010 A 
HETATM   39  C   UNL     1      -6.392  -1.449 -34.001  1.00  0.00     0.001 A 
HETATM   40  C   UNL     1      -5.180  -2.103 -34.209  1.00  0.00     0.000 A 
HETATM   41  C   UNL     1      -4.163  -1.990 -33.266  1.00  0.00     0.001 A 
HETATM   42  C   UNL     1      -4.360  -1.221 -32.117  1.00  0.00     0.010 A 
ENDBRANCH  34  37
ENDBRANCH  33  34
ENDBRANCH  31  33
ENDBRANCH   9  31
TORSDOF 10
ENDMDL
MODEL 6
REMARK VINA RESULT:      -9.3      3.655      7.347
REMARK  10 active torsions:
REMARK  status: ('A' for Active; 'I' for Inactive)
REMARK    1  A    between atoms: C_8  and  C_9 
REMARK    2  A    between atoms: N_14  and  C_15 
REMARK    3  A    between atoms: C_15  and  C_16 
REMARK    4  A    between atoms: C_16  and  C_17 
REMARK    5  A    between atoms: C_20  and  O_21 
REMARK    6  A    between atoms: C_27  and  N_28 
REMARK    7  A    between atoms: N_28  and  C_29 
REMARK    8  A    between atoms: C_29  and  C_30 
REMARK    9  A    between atoms: C_30  and  O_31 
REMARK   10  A    between atoms: C_30  and  C_32 
ROOT
HETATM    1  C   UNL     1      -2.946   8.678 -30.816  1.00  0.00     0.052 C 
HETATM    2  C   UNL     1      -4.440   8.732 -30.729  1.00  0.00    -0.015 A 
HETATM    3  C   UNL     1      -5.221   7.719 -31.520  1.00  0.00     0.144 A 
HETATM    4  N   UNL     1      -4.593   6.924 -32.327  1.00  0.00    -0.217 NA
HETATM    5  N   UNL     1      -6.593   7.692 -31.331  1.00  0.00    -0.272 N 
HETATM    6  C   UNL     1      -7.354   6.731 -31.977  1.00  0.00     0.266 C 
HETATM    7  O   UNL     1      -8.583   6.658 -31.905  1.00  0.00    -0.267 OA
HETATM    8  C   UNL     1      -6.604   5.741 -32.803  1.00  0.00     0.074 C 
HETATM    9  C   UNL     1      -5.281   5.950 -32.994  1.00  0.00     0.121 C 
HETATM   10  C   UNL     1      -7.225   8.632 -30.526  1.00  0.00     0.102 A 
HETATM   11  C   UNL     1      -6.540   9.573 -29.868  1.00  0.00     0.018 A 
HETATM   12  C   UNL     1      -5.104   9.605 -29.956  1.00  0.00     0.012 A 
ENDROOT
BRANCH   8  13
HETATM   13  C   UNL     1      -7.348   4.606 -33.343  1.00  0.00     0.045 C 
HETATM   14  C   UNL     1      -7.355   3.367 -32.830  1.00  0.00     0.077 A 
HETATM   15  S   UNL     1      -6.552   2.813 -31.414  1.00  0.00    -0.055 SA
HETATM   16  C   UNL     1      -8.054   2.236 -33.492  1.00  0.00     0.266 A 
HETATM   17  C   UNL     1      -6.909   1.130 -31.758  1.00  0.00     0.148 A 
HETATM   18  S   UNL     1      -6.297  -0.111 -30.824  1.00  0.00    -0.052 SA
HETATM   19  N   UNL     1      -7.723   1.044 -32.869  1.00  0.00    -0.298 N 
HETATM   20  O   UNL     1      -8.779   2.366 -34.468  1.00  0.00    -0.266 OA
BRANCH  19  21
HETATM   21  C   UNL     1      -8.247  -0.212 -33.408  1.00  0.00     0.138 C 
BRANCH  21  22
HETATM   22  C   UNL     1      -7.602  -0.572 -34.753  1.00  0.00     0.059 C 
BRANCH  22  23
HETATM   23  C   UNL     1      -6.667  -1.750 -34.639  1.00  0.00    -0.057 A 
HETATM   24  C   UNL     1      -5.376  -1.582 -34.121  1.00  0.00     0.010 A 
HETATM   25  C   UNL     1      -4.512  -2.672 -34.014  1.00  0.00     0.037 A 
HETATM   26  C   UNL     1      -4.924  -3.948 -34.402  1.00  0.00     0.068 A 
HETATM   27  C   UNL     1      -6.207  -4.120 -34.921  1.00  0.00     0.037 A 
HETATM   28  C   UNL     1      -7.073  -3.027 -35.041  1.00  0.00     0.010 A 
BRANCH  26  29
HETATM   29  O   UNL     1      -3.986  -4.929 -34.234  1.00  0.00    -0.356 OA
HETATM   30  C   UNL     1      -3.112  -4.789 -33.121  1.00  0.00     0.210 C 
ENDBRANCH  26  29
ENDBRANCH  22  23
ENDBRANCH  21  22
ENDBRANCH  19  21
ENDBRANCH   8  13
BRANCH   9  31
HETATM   31  N   UNL     1      -4.497   5.155 -33.822  1.00  0.00    -0.274 NA
HETATM   32  H   UNL     1      -4.201   4.339 -33.279  1.00  0.00     0.129 HD
BRANCH  31  33
HETATM   33  C   UNL     1      -3.425   5.668 -34.685  1.00  0.00     0.130 C 
BRANCH  33  34
HETATM   34  C   UNL     1      -2.065   5.009 -34.340  1.00  0.00     0.164 C 
BRANCH  34  35
HETATM   35  O   UNL     1      -1.161   5.144 -35.448  1.00  0.00    -0.390 OA
HETATM   36  H   UNL     1      -1.689   5.136 -36.267  1.00  0.00     0.210 HD
ENDBRANCH  34  35
BRANCH  34  37
HETATM   37  C   UNL     1      -1.347   5.487 -33.091  1.00  0.00    -0.029 A 
HETATM   38  C   UNL     1      -0.598   6.671 -33.028  1.00  0.00     0.010 A 
HETATM   39  C   UNL     1       0.031   7.061 -31.841  1.00  0.00     0.001 A 
HETATM   40  C   UNL     1      -0.079   6.273 -30.698  1.00  0.00     0.000 A 
HETATM   41  C   UNL     1      -0.814   5.093 -30.740  1.00  0.00     0.001 A 
HETATM   42  C   UNL     1      -1.441   4.704 -31.925  1.00  0.00     0.010 A 
ENDBRANCH  34  37
ENDBRANCH  33  34
ENDBRANCH  31  33
ENDBRANCH   9  31
TORSDOF 10
ENDMDL
MODEL 7
REMARK VINA RESULT:      -9.2      3.969      7.818
REMARK  10 active torsions:
REMARK  status: ('A' for Active; 'I' for Inactive)
REMARK    1  A    between atoms: C_8  and  C_9 
REMARK    2  A    between atoms: N_14  and  C_15 
REMARK    3  A    between atoms: C_15  and  C_16 
REMARK    4  A    between atoms: C_16  and  C_17 
REMARK    5  A    between atoms: C_20  and  O_21 
REMARK    6  A    between atoms: C_27  and  N_28 
REMARK    7  A    between atoms: N_28  and  C_29 
REMARK    8  A    between atoms: C_29  and  C_30 
REMARK    9  A    between atoms: C_30  and  O_31 
REMARK   10  A    between atoms: C_30  and  C_32 
ROOT
HETATM    1  C   UNL     1      -1.329   8.670 -28.694  1.00  0.00     0.052 C 
HETATM    2  C   UNL     1      -0.893   7.573 -29.614  1.00  0.00    -0.015 A 
HETATM    3  C   UNL     1      -1.962   6.712 -30.228  1.00  0.00     0.144 A 
HETATM    4  N   UNL     1      -3.193   6.867 -29.855  1.00  0.00    -0.217 NA
HETATM    5  N   UNL     1      -1.560   5.788 -31.178  1.00  0.00    -0.272 N 
HETATM    6  C   UNL     1      -2.511   5.019 -31.830  1.00  0.00     0.266 C 
HETATM    7  O   UNL     1      -2.246   4.142 -32.655  1.00  0.00    -0.267 OA
HETATM    8  C   UNL     1      -3.936   5.298 -31.484  1.00  0.00     0.074 C 
HETATM    9  C   UNL     1      -4.183   6.145 -30.458  1.00  0.00     0.121 C 
HETATM   10  C   UNL     1      -0.215   5.596 -31.469  1.00  0.00     0.102 A 
HETATM   11  C   UNL     1       0.744   6.318 -30.882  1.00  0.00     0.018 A 
HETATM   12  C   UNL     1       0.389   7.352 -29.946  1.00  0.00     0.012 A 
ENDROOT
BRANCH   8  13
HETATM   13  C   UNL     1      -4.968   4.645 -32.284  1.00  0.00     0.045 C 
HETATM   14  C   UNL     1      -5.564   3.482 -31.984  1.00  0.00     0.077 A 
HETATM   15  S   UNL     1      -5.311   2.500 -30.594  1.00  0.00    -0.055 SA
HETATM   16  C   UNL     1      -6.534   2.825 -32.899  1.00  0.00     0.266 A 
HETATM   17  C   UNL     1      -6.251   1.171 -31.248  1.00  0.00     0.148 A 
HETATM   18  S   UNL     1      -6.364  -0.299 -30.465  1.00  0.00    -0.052 SA
HETATM   19  N   UNL     1      -6.825   1.550 -32.445  1.00  0.00    -0.298 N 
HETATM   20  O   UNL     1      -6.963   3.347 -33.918  1.00  0.00    -0.266 OA
BRANCH  19  21
HETATM   21  C   UNL     1      -7.709   0.695 -33.239  1.00  0.00     0.138 C 
BRANCH  21  22
HETATM   22  C   UNL     1      -7.077   0.309 -34.583  1.00  0.00     0.059 C 
BRANCH  22  23
HETATM   23  C   UNL     1      -6.350  -1.010 -34.511  1.00  0.00    -0.057 A 
HETATM   24  C   UNL     1      -5.060  -1.079 -33.968  1.00  0.00     0.010 A 
HETATM   25  C   UNL     1      -4.387  -2.300 -33.901  1.00  0.00     0.037 A 
HETATM   26  C   UNL     1      -4.993  -3.473 -34.355  1.00  0.00     0.068 A 
HETATM   27  C   UNL     1      -6.275  -3.409 -34.899  1.00  0.00     0.037 A 
HETATM   28  C   UNL     1      -6.949  -2.185 -34.978  1.00  0.00     0.010 A 
BRANCH  26  29
HETATM   29  O   UNL     1      -4.231  -4.600 -34.219  1.00  0.00    -0.356 OA
HETATM   30  C   UNL     1      -3.368  -4.652 -33.091  1.00  0.00     0.210 C 
ENDBRANCH  26  29
ENDBRANCH  22  23
ENDBRANCH  21  22
ENDBRANCH  19  21
ENDBRANCH   8  13
BRANCH   9  31
HETATM   31  N   UNL     1      -5.462   6.407 -29.980  1.00  0.00    -0.274 NA
HETATM   32  H   UNL     1      -6.062   6.596 -30.787  1.00  0.00     0.129 HD
BRANCH  31  33
HETATM   33  C   UNL     1      -5.753   7.297 -28.849  1.00  0.00     0.130 C 
BRANCH  33  34
HETATM   34  C   UNL     1      -5.461   6.600 -27.496  1.00  0.00     0.164 C 
BRANCH  34  35
HETATM   35  O   UNL     1      -5.170   5.210 -27.715  1.00  0.00    -0.390 OA
HETATM   36  H   UNL     1      -6.017   4.738 -27.804  1.00  0.00     0.210 HD
ENDBRANCH  34  35
BRANCH  34  37
HETATM   37  C   UNL     1      -4.360   7.177 -26.627  1.00  0.00    -0.029 A 
HETATM   38  C   UNL     1      -4.399   8.466 -26.074  1.00  0.00     0.010 A 
HETATM   39  C   UNL     1      -3.355   8.936 -25.271  1.00  0.00     0.001 A 
HETATM   40  C   UNL     1      -2.254   8.124 -25.008  1.00  0.00     0.000 A 
HETATM   41  C   UNL     1      -2.193   6.844 -25.549  1.00  0.00     0.001 A 
HETATM   42  C   UNL     1      -3.236   6.377 -26.352  1.00  0.00     0.010 A 
ENDBRANCH  34  37
ENDBRANCH  33  34
ENDBRANCH  31  33
ENDBRANCH   9  31
TORSDOF 10
ENDMDL
MODEL 8
REMARK VINA RESULT:      -9.2      3.776     10.478
REMARK  10 active torsions:
REMARK  status: ('A' for Active; 'I' for Inactive)
REMARK    1  A    between atoms: C_8  and  C_9 
REMARK    2  A    between atoms: N_14  and  C_15 
REMARK    3  A    between atoms: C_15  and  C_16 
REMARK    4  A    between atoms: C_16  and  C_17 
REMARK    5  A    between atoms: C_20  and  O_21 
REMARK    6  A    between atoms: C_27  and  N_28 
REMARK    7  A    between atoms: N_28  and  C_29 
REMARK    8  A    between atoms: C_29  and  C_30 
REMARK    9  A    between atoms: C_30  and  O_31 
REMARK   10  A    between atoms: C_30  and  C_32 
ROOT
HETATM    1  C   UNL     1      -8.153  -0.167 -35.340  1.00  0.00     0.052 C 
HETATM    2  C   UNL     1      -6.854  -0.329 -34.613  1.00  0.00    -0.015 A 
HETATM    3  C   UNL     1      -6.311   0.868 -33.881  1.00  0.00     0.144 A 
HETATM    4  N   UNL     1      -6.911   2.009 -33.999  1.00  0.00    -0.217 NA
HETATM    5  N   UNL     1      -5.181   0.673 -33.104  1.00  0.00    -0.272 N 
HETATM    6  C   UNL     1      -4.680   1.722 -32.350  1.00  0.00     0.266 C 
HETATM    7  O   UNL     1      -3.656   1.657 -31.665  1.00  0.00    -0.267 OA
HETATM    8  C   UNL     1      -5.455   2.997 -32.395  1.00  0.00     0.074 C 
HETATM    9  C   UNL     1      -6.474   3.086 -33.282  1.00  0.00     0.121 C 
HETATM   10  C   UNL     1      -4.520  -0.550 -33.090  1.00  0.00     0.102 A 
HETATM   11  C   UNL     1      -4.966  -1.600 -33.787  1.00  0.00     0.018 A 
HETATM   12  C   UNL     1      -6.181  -1.489 -34.549  1.00  0.00     0.012 A 
ENDROOT
BRANCH   8  13
HETATM   13  C   UNL     1      -5.069   4.059 -31.471  1.00  0.00     0.045 C 
HETATM   14  C   UNL     1      -4.182   5.031 -31.731  1.00  0.00     0.077 A 
HETATM   15  S   UNL     1      -3.324   5.304 -33.196  1.00  0.00    -0.055 SA
HETATM   16  C   UNL     1      -3.761   6.019 -30.705  1.00  0.00     0.266 A 
HETATM   17  C   UNL     1      -2.284   6.516 -32.470  1.00  0.00     0.148 A 
HETATM   18  S   UNL     1      -1.011   7.201 -33.304  1.00  0.00    -0.052 SA
HETATM   19  N   UNL     1      -2.692   6.763 -31.174  1.00  0.00    -0.298 N 
HETATM   20  O   UNL     1      -4.277   6.111 -29.600  1.00  0.00    -0.266 OA
BRANCH  19  21
HETATM   21  C   UNL     1      -2.069   7.752 -30.292  1.00  0.00     0.138 C 
BRANCH  21  22
HETATM   22  C   UNL     1      -0.719   7.265 -29.749  1.00  0.00     0.059 C 
BRANCH  22  23
HETATM   23  C   UNL     1      -0.173   8.177 -28.679  1.00  0.00    -0.057 A 
HETATM   24  C   UNL     1       1.132   8.006 -28.201  1.00  0.00     0.010 A 
HETATM   25  C   UNL     1       1.637   8.850 -27.211  1.00  0.00     0.037 A 
HETATM   26  C   UNL     1       0.859   9.888 -26.696  1.00  0.00     0.068 A 
HETATM   27  C   UNL     1      -0.442  10.061 -27.166  1.00  0.00     0.037 A 
HETATM   28  C   UNL     1      -0.956   9.209 -28.150  1.00  0.00     0.010 A 
BRANCH  26  29
HETATM   29  O   UNL     1       1.478  10.649 -25.742  1.00  0.00    -0.356 OA
HETATM   30  C   UNL     1       2.066   9.949 -24.653  1.00  0.00     0.210 C 
ENDBRANCH  26  29
ENDBRANCH  22  23
ENDBRANCH  21  22
ENDBRANCH  19  21
ENDBRANCH   8  13
BRANCH   9  31
HETATM   31  N   UNL     1      -7.204   4.251 -33.485  1.00  0.00    -0.274 NA
HETATM   32  H   UNL     1      -6.549   5.037 -33.458  1.00  0.00     0.129 HD
BRANCH  31  33
HETATM   33  C   UNL     1      -8.471   4.559 -32.809  1.00  0.00     0.130 C 
BRANCH  33  34
HETATM   34  C   UNL     1      -9.571   4.948 -33.829  1.00  0.00     0.164 C 
BRANCH  34  35
HETATM   35  O   UNL     1      -8.981   5.615 -34.955  1.00  0.00    -0.390 OA
HETATM   36  H   UNL     1      -8.890   4.965 -35.675  1.00  0.00     0.210 HD
ENDBRANCH  34  35
BRANCH  34  37
HETATM   37  C   UNL     1     -10.466   3.842 -34.358  1.00  0.00    -0.029 A 
HETATM   38  C   UNL     1     -10.442   2.524 -33.877  1.00  0.00     0.010 A 
HETATM   39  C   UNL     1     -11.302   1.553 -34.400  1.00  0.00     0.001 A 
HETATM   40  C   UNL     1     -12.200   1.883 -35.412  1.00  0.00     0.000 A 
HETATM   41  C   UNL     1     -12.237   3.183 -35.906  1.00  0.00     0.001 A 
HETATM   42  C   UNL     1     -11.378   4.152 -35.384  1.00  0.00     0.010 A 
ENDBRANCH  34  37
ENDBRANCH  33  34
ENDBRANCH  31  33
ENDBRANCH   9  31
TORSDOF 10
ENDMDL
MODEL 9
REMARK VINA RESULT:      -9.2      2.400      9.425
REMARK  10 active torsions:
REMARK  status: ('A' for Active; 'I' for Inactive)
REMARK    1  A    between atoms: C_8  and  C_9 
REMARK    2  A    between atoms: N_14  and  C_15 
REMARK    3  A    between atoms: C_15  and  C_16 
REMARK    4  A    between atoms: C_16  and  C_17 
REMARK    5  A    between atoms: C_20  and  O_21 
REMARK    6  A    between atoms: C_27  and  N_28 
REMARK    7  A    between atoms: N_28  and  C_29 
REMARK    8  A    between atoms: C_29  and  C_30 
REMARK    9  A    between atoms: C_30  and  O_31 
REMARK   10  A    between atoms: C_30  and  C_32 
ROOT
HETATM    1  C   UNL     1     -12.556   1.080 -34.928  1.00  0.00     0.052 C 
HETATM    2  C   UNL     1     -12.357   2.140 -33.890  1.00  0.00    -0.015 A 
HETATM    3  C   UNL     1     -11.038   2.168 -33.168  1.00  0.00     0.144 A 
HETATM    4  N   UNL     1     -10.180   1.222 -33.378  1.00  0.00    -0.217 NA
HETATM    5  N   UNL     1     -10.813   3.230 -32.306  1.00  0.00    -0.272 N 
HETATM    6  C   UNL     1      -9.588   3.346 -31.671  1.00  0.00     0.266 C 
HETATM    7  O   UNL     1      -9.312   4.230 -30.855  1.00  0.00    -0.267 OA
HETATM    8  C   UNL     1      -8.562   2.321 -32.020  1.00  0.00     0.074 C 
HETATM    9  C   UNL     1      -8.949   1.275 -32.786  1.00  0.00     0.121 C 
HETATM   10  C   UNL     1     -11.807   4.165 -32.044  1.00  0.00     0.102 A 
HETATM   11  C   UNL     1     -13.002   4.109 -32.640  1.00  0.00     0.018 A 
HETATM   12  C   UNL     1     -13.273   3.080 -33.607  1.00  0.00     0.012 A 
ENDROOT
BRANCH   8  13
HETATM   13  C   UNL     1      -7.205   2.520 -31.518  1.00  0.00     0.045 C 
HETATM   14  C   UNL     1      -6.252   3.245 -32.121  1.00  0.00     0.077 A 
HETATM   15  S   UNL     1      -6.385   4.146 -33.580  1.00  0.00    -0.055 SA
HETATM   16  C   UNL     1      -4.861   3.319 -31.605  1.00  0.00     0.266 A 
HETATM   17  C   UNL     1      -4.658   4.443 -33.663  1.00  0.00     0.148 A 
HETATM   18  S   UNL     1      -3.955   5.205 -34.971  1.00  0.00    -0.052 SA
HETATM   19  N   UNL     1      -4.046   3.953 -32.526  1.00  0.00    -0.298 N 
HETATM   20  O   UNL     1      -4.510   2.844 -30.534  1.00  0.00    -0.266 OA
BRANCH  19  21
HETATM   21  C   UNL     1      -2.613   4.070 -32.250  1.00  0.00     0.138 C 
BRANCH  21  22
HETATM   22  C   UNL     1      -2.077   5.468 -32.587  1.00  0.00     0.059 C 
BRANCH  22  23
HETATM   23  C   UNL     1      -1.330   6.085 -31.432  1.00  0.00    -0.057 A 
HETATM   24  C   UNL     1       0.068   6.166 -31.454  1.00  0.00     0.010 A 
HETATM   25  C   UNL     1       0.759   6.738 -30.386  1.00  0.00     0.037 A 
HETATM   26  C   UNL     1       0.070   7.256 -29.288  1.00  0.00     0.068 A 
HETATM   27  C   UNL     1      -1.322   7.175 -29.259  1.00  0.00     0.037 A 
HETATM   28  C   UNL     1      -2.018   6.592 -30.324  1.00  0.00     0.010 A 
BRANCH  26  29
HETATM   29  O   UNL     1       0.865   7.800 -28.317  1.00  0.00    -0.356 OA
HETATM   30  C   UNL     1       0.957   7.080 -27.094  1.00  0.00     0.210 C 
ENDBRANCH  26  29
ENDBRANCH  22  23
ENDBRANCH  21  22
ENDBRANCH  19  21
ENDBRANCH   8  13
BRANCH   9  31
HETATM   31  N   UNL     1      -8.114   0.208 -33.096  1.00  0.00    -0.274 NA
HETATM   32  H   UNL     1      -7.404   0.147 -32.360  1.00  0.00     0.129 HD
BRANCH  31  33
HETATM   33  C   UNL     1      -7.554  -0.040 -34.431  1.00  0.00     0.130 C 
BRANCH  33  34
HETATM   34  C   UNL     1      -6.078  -0.507 -34.342  1.00  0.00     0.164 C 
BRANCH  34  35
HETATM   35  O   UNL     1      -5.485  -0.025 -33.126  1.00  0.00    -0.390 OA
HETATM   36  H   UNL     1      -4.610   0.344 -33.346  1.00  0.00     0.210 HD
ENDBRANCH  34  35
BRANCH  34  37
HETATM   37  C   UNL     1      -5.802  -1.996 -34.439  1.00  0.00    -0.029 A 
HETATM   38  C   UNL     1      -6.750  -2.937 -34.865  1.00  0.00     0.010 A 
HETATM   39  C   UNL     1      -6.429  -4.296 -34.943  1.00  0.00     0.001 A 
HETATM   40  C   UNL     1      -5.154  -4.736 -34.596  1.00  0.00     0.000 A 
HETATM   41  C   UNL     1      -4.200  -3.819 -34.167  1.00  0.00     0.001 A 
HETATM   42  C   UNL     1      -4.522  -2.463 -34.089  1.00  0.00     0.010 A 
ENDBRANCH  34  37
ENDBRANCH  33  34
ENDBRANCH  31  33
ENDBRANCH   9  31
TORSDOF 10
ENDMDL
MODEL 10
REMARK VINA RESULT:      -8.8      3.792      7.819
REMARK  10 active torsions:
REMARK  status: ('A' for Active; 'I' for Inactive)
REMARK    1  A    between atoms: C_8  and  C_9 
REMARK    2  A    between atoms: N_14  and  C_15 
REMARK    3  A    between atoms: C_15  and  C_16 
REMARK    4  A    between atoms: C_16  and  C_17 
REMARK    5  A    between atoms: C_20  and  O_21 
REMARK    6  A    between atoms: C_27  and  N_28 
REMARK    7  A    between atoms: N_28  and  C_29 
REMARK    8  A    between atoms: C_29  and  C_30 
REMARK    9  A    between atoms: C_30  and  O_31 
REMARK   10  A    between atoms: C_30  and  C_32 
ROOT
HETATM    1  C   UNL     1      -3.452  10.232 -29.431  1.00  0.00     0.052 C 
HETATM    2  C   UNL     1      -4.705   9.562 -28.961  1.00  0.00    -0.015 A 
HETATM    3  C   UNL     1      -4.982   8.171 -29.462  1.00  0.00     0.144 A 
HETATM    4  N   UNL     1      -4.204   7.654 -30.359  1.00  0.00    -0.217 NA
HETATM    5  N   UNL     1      -6.073   7.510 -28.920  1.00  0.00    -0.272 N 
HETATM    6  C   UNL     1      -6.332   6.201 -29.290  1.00  0.00     0.266 C 
HETATM    7  O   UNL     1      -7.302   5.548 -28.896  1.00  0.00    -0.267 OA
HETATM    8  C   UNL     1      -5.354   5.573 -30.226  1.00  0.00     0.074 C 
HETATM    9  C   UNL     1      -4.399   6.365 -30.767  1.00  0.00     0.121 C 
HETATM   10  C   UNL     1      -6.931   8.149 -28.033  1.00  0.00     0.102 A 
HETATM   11  C   UNL     1      -6.722   9.407 -27.631  1.00  0.00     0.018 A 
HETATM   12  C   UNL     1      -5.562  10.121 -28.092  1.00  0.00     0.012 A 
ENDROOT
BRANCH   8  13
HETATM   13  C   UNL     1      -5.487   4.143 -30.488  1.00  0.00     0.045 C 
HETATM   14  C   UNL     1      -6.304   3.592 -31.397  1.00  0.00     0.077 A 
HETATM   15  S   UNL     1      -7.347   4.402 -32.499  1.00  0.00    -0.055 SA
HETATM   16  C   UNL     1      -6.463   2.121 -31.537  1.00  0.00     0.266 A 
HETATM   17  C   UNL     1      -8.138   2.914 -32.988  1.00  0.00     0.148 A 
HETATM   18  S   UNL     1      -9.451   2.910 -34.018  1.00  0.00    -0.052 SA
HETATM   19  N   UNL     1      -7.513   1.837 -32.393  1.00  0.00    -0.298 N 
HETATM   20  O   UNL     1      -5.775   1.305 -30.939  1.00  0.00    -0.266 OA
BRANCH  19  21
HETATM   21  C   UNL     1      -7.892   0.441 -32.618  1.00  0.00     0.138 C 
BRANCH  21  22
HETATM   22  C   UNL     1      -7.620  -0.001 -34.062  1.00  0.00     0.059 C 
BRANCH  22  23
HETATM   23  C   UNL     1      -6.579  -1.089 -34.138  1.00  0.00    -0.057 A 
HETATM   24  C   UNL     1      -5.294  -0.877 -33.622  1.00  0.00     0.010 A 
HETATM   25  C   UNL     1      -4.330  -1.884 -33.691  1.00  0.00     0.037 A 
HETATM   26  C   UNL     1      -4.636  -3.123 -34.256  1.00  0.00     0.068 A 
HETATM   27  C   UNL     1      -5.912  -3.339 -34.773  1.00  0.00     0.037 A 
HETATM   28  C   UNL     1      -6.878  -2.327 -34.716  1.00  0.00     0.010 A 
BRANCH  26  29
HETATM   29  O   UNL     1      -3.607  -4.025 -34.249  1.00  0.00    -0.356 OA
HETATM   30  C   UNL     1      -3.806  -5.210 -33.489  1.00  0.00     0.210 C 
ENDBRANCH  26  29
ENDBRANCH  22  23
ENDBRANCH  21  22
ENDBRANCH  19  21
ENDBRANCH   8  13
BRANCH   9  31
HETATM   31  N   UNL     1      -3.495   5.919 -31.724  1.00  0.00    -0.274 NA
HETATM   32  H   UNL     1      -2.722   5.463 -31.232  1.00  0.00     0.129 HD
BRANCH  31  33
HETATM   33  C   UNL     1      -3.032   6.727 -32.860  1.00  0.00     0.130 C 
BRANCH  33  34
HETATM   34  C   UNL     1      -1.668   7.397 -32.553  1.00  0.00     0.164 C 
BRANCH  34  35
HETATM   35  O   UNL     1      -1.854   8.804 -32.332  1.00  0.00    -0.390 OA
HETATM   36  H   UNL     1      -2.765   9.030 -32.591  1.00  0.00     0.210 HD
ENDBRANCH  34  35
BRANCH  34  37
HETATM   37  C   UNL     1      -0.856   6.846 -31.396  1.00  0.00    -0.029 A 
HETATM   38  C   UNL     1      -0.772   7.463 -30.140  1.00  0.00     0.010 A 
HETATM   39  C   UNL     1      -0.014   6.896 -29.110  1.00  0.00     0.001 A 
HETATM   40  C   UNL     1       0.673   5.703 -29.320  1.00  0.00     0.000 A 
HETATM   41  C   UNL     1       0.606   5.076 -30.560  1.00  0.00     0.001 A 
HETATM   42  C   UNL     1      -0.151   5.643 -31.588  1.00  0.00     0.010 A 
ENDBRANCH  34  37
ENDBRANCH  33  34
ENDBRANCH  31  33
ENDBRANCH   9  31
TORSDOF 10
ENDMDL
