MODEL 1
REMARK VINA RESULT:      -7.5      0.000      0.000
REMARK  5 active torsions:
REMARK  status: ('A' for Active; 'I' for Inactive)
REMARK    1  A    between atoms: C_8  and  C_9 
REMARK    2  A    between atoms: C_11  and  O_12 
REMARK    3  A    between atoms: C_14  and  O_15 
REMARK    4  A    between atoms: C_18  and  C_19 
REMARK    5  A    between atoms: C_22  and  O_23 
ROOT
HETATM    1  C   UNL     1      -6.472  -1.139 -34.940  1.00  0.00     0.070 C 
HETATM    2  C   UNL     1      -5.563  -0.731 -33.843  1.00  0.00     0.033 A 
HETATM    3  N   UNL     1      -4.535  -1.538 -33.430  1.00  0.00    -0.282 N 
HETATM    4  H   UNL     1      -4.287  -2.459 -33.773  1.00  0.00     0.189 HD
HETATM    5  N   UNL     1      -3.752  -0.982 -32.493  1.00  0.00    -0.179 NA
HETATM    6  C   UNL     1      -4.339   0.191 -32.250  1.00  0.00     0.066 A 
HETATM    7  C   UNL     1      -5.501   0.396 -33.043  1.00  0.00     0.001 A 
HETATM    8  C   UNL     1      -6.277   1.682 -33.012  1.00  0.00     0.070 C 
HETATM    9  C   UNL     1      -5.857   2.610 -31.839  1.00  0.00     0.102 C 
HETATM   10  C   UNL     1      -4.320   2.609 -31.589  1.00  0.00     0.071 C 
HETATM   11  C   UNL     1      -3.573   3.231 -32.784  1.00  0.00     0.047 C 
HETATM   12  C   UNL     1      -3.779   1.184 -31.293  1.00  0.00     0.100 C 
ENDROOT
BRANCH   8  13
HETATM   13  C   UNL     1      -7.776   1.428 -33.092  1.00  0.00    -0.046 A 
HETATM   14  C   UNL     1      -8.657   2.188 -33.887  1.00  0.00     0.047 A 
HETATM   15  C   UNL     1     -10.020   1.885 -33.933  1.00  0.00     0.101 A 
HETATM   16  C   UNL     1     -10.495   0.767 -33.247  1.00  0.00     0.099 A 
HETATM   17  C   UNL     1      -9.650  -0.014 -32.474  1.00  0.00     0.040 A 
HETATM   18  C   UNL     1      -8.298   0.322 -32.391  1.00  0.00     0.011 A 
BRANCH  15  19
HETATM   19  O   UNL     1     -10.955   2.589 -34.648  1.00  0.00    -0.353 OA
HETATM   20  C   UNL     1     -10.540   3.907 -35.004  1.00  0.00     0.210 C 
ENDBRANCH  15  19
BRANCH  16  21
HETATM   21  O   UNL     1     -11.816   0.422 -33.321  1.00  0.00    -0.358 OA
HETATM   22  H   UNL     1     -12.106   0.736 -34.200  1.00  0.00     0.218 HD
ENDBRANCH  16  21
ENDBRANCH   8  13
BRANCH   9  23
HETATM   23  C   UNL     1      -6.586   2.277 -30.533  1.00  0.00     0.131 C 
HETATM   24  C   UNL     1      -7.710   3.201 -30.133  1.00  0.00     0.091 C 
HETATM   25  O   UNL     1      -6.281   1.317 -29.824  1.00  0.00    -0.298 OA
ENDBRANCH   9  23
BRANCH  10  26
HETATM   26  O   UNL     1      -4.052   3.480 -30.475  1.00  0.00    -0.389 OA
HETATM   27  H   UNL     1      -3.249   3.157 -30.026  1.00  0.00     0.210 HD
ENDBRANCH  10  26
TORSDOF 5
ENDMDL
MODEL 2
REMARK VINA RESULT:      -7.0      2.624      4.070
REMARK  5 active torsions:
REMARK  status: ('A' for Active; 'I' for Inactive)
REMARK    1  A    between atoms: C_8  and  C_9 
REMARK    2  A    between atoms: C_11  and  O_12 
REMARK    3  A    between atoms: C_14  and  O_15 
REMARK    4  A    between atoms: C_18  and  C_19 
REMARK    5  A    between atoms: C_22  and  O_23 
ROOT
HETATM    1  C   UNL     1     -10.255   3.733 -30.449  1.00  0.00     0.070 C 
HETATM    2  C   UNL     1      -8.808   3.502 -30.669  1.00  0.00     0.033 A 
HETATM    3  N   UNL     1      -7.862   4.339 -30.137  1.00  0.00    -0.282 N 
HETATM    4  H   UNL     1      -8.009   5.177 -29.584  1.00  0.00     0.189 HD
HETATM    5  N   UNL     1      -6.600   3.939 -30.353  1.00  0.00    -0.179 NA
HETATM    6  C   UNL     1      -6.743   2.846 -31.104  1.00  0.00     0.066 A 
HETATM    7  C   UNL     1      -8.105   2.536 -31.366  1.00  0.00     0.001 A 
HETATM    8  C   UNL     1      -8.518   1.299 -32.114  1.00  0.00     0.070 C 
HETATM    9  C   UNL     1      -7.321   0.586 -32.801  1.00  0.00     0.102 C 
HETATM   10  C   UNL     1      -6.033   0.586 -31.927  1.00  0.00     0.071 C 
HETATM   11  C   UNL     1      -6.236  -0.261 -30.656  1.00  0.00     0.047 C 
HETATM   12  C   UNL     1      -5.584   2.025 -31.552  1.00  0.00     0.100 C 
ENDROOT
BRANCH   8  13
HETATM   13  C   UNL     1      -9.689   1.578 -33.045  1.00  0.00    -0.046 A 
HETATM   14  C   UNL     1      -9.779   2.720 -33.867  1.00  0.00     0.047 A 
HETATM   15  C   UNL     1     -10.872   2.903 -34.717  1.00  0.00     0.101 A 
HETATM   16  C   UNL     1     -11.841   1.903 -34.810  1.00  0.00     0.099 A 
HETATM   17  C   UNL     1     -11.769   0.759 -34.031  1.00  0.00     0.040 A 
HETATM   18  C   UNL     1     -10.701   0.603 -33.146  1.00  0.00     0.011 A 
BRANCH  15  19
HETATM   19  O   UNL     1     -11.062   3.996 -35.524  1.00  0.00    -0.353 OA
HETATM   20  C   UNL     1     -10.258   5.122 -35.173  1.00  0.00     0.210 C 
ENDBRANCH  15  19
BRANCH  16  21
HETATM   21  O   UNL     1     -12.891   2.040 -35.674  1.00  0.00    -0.358 OA
HETATM   22  H   UNL     1     -12.505   2.450 -36.473  1.00  0.00     0.218 HD
ENDBRANCH  16  21
ENDBRANCH   8  13
BRANCH   9  23
HETATM   23  C   UNL     1      -7.000   1.168 -34.181  1.00  0.00     0.131 C 
HETATM   24  C   UNL     1      -7.373   0.324 -35.375  1.00  0.00     0.091 C 
HETATM   25  O   UNL     1      -6.457   2.264 -34.334  1.00  0.00    -0.298 OA
ENDBRANCH   9  23
BRANCH  10  26
HETATM   26  O   UNL     1      -4.993  -0.078 -32.668  1.00  0.00    -0.389 OA
HETATM   27  H   UNL     1      -4.613  -0.772 -32.098  1.00  0.00     0.210 HD
ENDBRANCH  10  26
TORSDOF 5
ENDMDL
MODEL 3
REMARK VINA RESULT:      -6.7     15.110     16.894
REMARK  5 active torsions:
REMARK  status: ('A' for Active; 'I' for Inactive)
REMARK    1  A    between atoms: C_8  and  C_9 
REMARK    2  A    between atoms: C_11  and  O_12 
REMARK    3  A    between atoms: C_14  and  O_15 
REMARK    4  A    between atoms: C_18  and  C_19 
REMARK    5  A    between atoms: C_22  and  O_23 
ROOT
HETATM    1  C   UNL     1      -3.032 -15.117 -36.698  1.00  0.00     0.070 C 
HETATM    2  C   UNL     1      -3.465 -13.948 -37.498  1.00  0.00     0.033 A 
HETATM    3  N   UNL     1      -2.729 -12.792 -37.530  1.00  0.00    -0.282 N 
HETATM    4  H   UNL     1      -1.869 -12.585 -37.034  1.00  0.00     0.189 HD
HETATM    5  N   UNL     1      -3.210 -11.865 -38.373  1.00  0.00    -0.179 NA
HETATM    6  C   UNL     1      -4.327 -12.421 -38.843  1.00  0.00     0.066 A 
HETATM    7  C   UNL     1      -4.562 -13.717 -38.309  1.00  0.00     0.001 A 
HETATM    8  C   UNL     1      -5.709 -14.577 -38.760  1.00  0.00     0.070 C 
HETATM    9  C   UNL     1      -6.741 -13.797 -39.622  1.00  0.00     0.102 C 
HETATM   10  C   UNL     1      -6.072 -12.794 -40.606  1.00  0.00     0.071 C 
HETATM   11  C   UNL     1      -5.250 -13.542 -41.673  1.00  0.00     0.047 C 
HETATM   12  C   UNL     1      -5.182 -11.758 -39.866  1.00  0.00     0.100 C 
ENDROOT
BRANCH   8  13
HETATM   13  C   UNL     1      -6.326 -15.336 -37.594  1.00  0.00    -0.046 A 
HETATM   14  C   UNL     1      -6.428 -14.815 -36.288  1.00  0.00     0.047 A 
HETATM   15  C   UNL     1      -7.028 -15.557 -35.268  1.00  0.00     0.101 A 
HETATM   16  C   UNL     1      -7.603 -16.792 -35.569  1.00  0.00     0.099 A 
HETATM   17  C   UNL     1      -7.539 -17.322 -36.848  1.00  0.00     0.040 A 
HETATM   18  C   UNL     1      -6.895 -16.600 -37.853  1.00  0.00     0.011 A 
BRANCH  15  19
HETATM   19  O   UNL     1      -7.140 -15.148 -33.964  1.00  0.00    -0.353 OA
HETATM   20  C   UNL     1      -6.743 -13.795 -33.745  1.00  0.00     0.210 C 
ENDBRANCH  15  19
BRANCH  16  21
HETATM   21  O   UNL     1      -8.241 -17.511 -34.596  1.00  0.00    -0.358 OA
HETATM   22  H   UNL     1      -8.360 -16.881 -33.858  1.00  0.00     0.218 HD
ENDBRANCH  16  21
ENDBRANCH   8  13
BRANCH   9  23
HETATM   23  C   UNL     1      -7.782 -13.061 -38.773  1.00  0.00     0.131 C 
HETATM   24  C   UNL     1      -9.179 -13.633 -38.770  1.00  0.00     0.091 C 
HETATM   25  O   UNL     1      -7.519 -12.045 -38.126  1.00  0.00    -0.298 OA
ENDBRANCH   9  23
BRANCH  10  26
HETATM   26  O   UNL     1      -7.116 -12.120 -41.331  1.00  0.00    -0.389 OA
HETATM   27  H   UNL     1      -6.910 -11.167 -41.340  1.00  0.00     0.210 HD
ENDBRANCH  10  26
TORSDOF 5
ENDMDL
MODEL 4
REMARK VINA RESULT:      -6.7      2.943      5.761
REMARK  5 active torsions:
REMARK  status: ('A' for Active; 'I' for Inactive)
REMARK    1  A    between atoms: C_8  and  C_9 
REMARK    2  A    between atoms: C_11  and  O_12 
REMARK    3  A    between atoms: C_14  and  O_15 
REMARK    4  A    between atoms: C_18  and  C_19 
REMARK    5  A    between atoms: C_22  and  O_23 
ROOT
HETATM    1  C   UNL     1      -8.819   4.063 -32.099  1.00  0.00     0.070 C 
HETATM    2  C   UNL     1      -8.783   2.594 -32.292  1.00  0.00     0.033 A 
HETATM    3  N   UNL     1      -9.850   1.803 -31.954  1.00  0.00    -0.282 N 
HETATM    4  H   UNL     1     -10.730   2.085 -31.538  1.00  0.00     0.189 HD
HETATM    5  N   UNL     1      -9.690   0.510 -32.278  1.00  0.00    -0.179 NA
HETATM    6  C   UNL     1      -8.455   0.463 -32.777  1.00  0.00     0.066 A 
HETATM    7  C   UNL     1      -7.818   1.734 -32.785  1.00  0.00     0.001 A 
HETATM    8  C   UNL     1      -6.456   1.946 -33.385  1.00  0.00     0.070 C 
HETATM    9  C   UNL     1      -5.729   0.613 -33.711  1.00  0.00     0.102 C 
HETATM   10  C   UNL     1      -6.685  -0.472 -34.287  1.00  0.00     0.071 C 
HETATM   11  C   UNL     1      -7.225  -0.047 -35.666  1.00  0.00     0.047 C 
HETATM   12  C   UNL     1      -7.858  -0.788 -33.320  1.00  0.00     0.100 C 
ENDROOT
BRANCH   8  13
HETATM   13  C   UNL     1      -5.628   2.915 -32.552  1.00  0.00    -0.046 A 
HETATM   14  C   UNL     1      -4.728   3.849 -33.104  1.00  0.00     0.047 A 
HETATM   15  C   UNL     1      -4.017   4.726 -32.283  1.00  0.00     0.101 A 
HETATM   16  C   UNL     1      -4.263   4.729 -30.909  1.00  0.00     0.099 A 
HETATM   17  C   UNL     1      -5.159   3.838 -30.339  1.00  0.00     0.040 A 
HETATM   18  C   UNL     1      -5.831   2.929 -31.157  1.00  0.00     0.011 A 
BRANCH  15  19
HETATM   19  O   UNL     1      -3.096   5.641 -32.726  1.00  0.00    -0.353 OA
HETATM   20  C   UNL     1      -1.952   5.057 -33.348  1.00  0.00     0.210 C 
ENDBRANCH  15  19
BRANCH  16  21
HETATM   21  O   UNL     1      -3.616   5.615 -30.095  1.00  0.00    -0.358 OA
HETATM   22  H   UNL     1      -3.198   5.062 -29.406  1.00  0.00     0.218 HD
ENDBRANCH  16  21
ENDBRANCH   8  13
BRANCH   9  23
HETATM   23  C   UNL     1      -4.977   0.041 -32.505  1.00  0.00     0.131 C 
HETATM   24  C   UNL     1      -3.475   0.191 -32.511  1.00  0.00     0.091 C 
HETATM   25  O   UNL     1      -5.546  -0.526 -31.571  1.00  0.00    -0.298 OA
ENDBRANCH   9  23
BRANCH  10  26
HETATM   26  O   UNL     1      -5.911  -1.661 -34.530  1.00  0.00    -0.389 OA
HETATM   27  H   UNL     1      -6.254  -2.368 -33.952  1.00  0.00     0.210 HD
ENDBRANCH  10  26
TORSDOF 5
ENDMDL
MODEL 5
REMARK VINA RESULT:      -6.6      2.690      5.159
REMARK  5 active torsions:
REMARK  status: ('A' for Active; 'I' for Inactive)
REMARK    1  A    between atoms: C_8  and  C_9 
REMARK    2  A    between atoms: C_11  and  O_12 
REMARK    3  A    between atoms: C_14  and  O_15 
REMARK    4  A    between atoms: C_18  and  C_19 
REMARK    5  A    between atoms: C_22  and  O_23 
ROOT
HETATM    1  C   UNL     1      -3.761   2.315 -32.326  1.00  0.00     0.070 C 
HETATM    2  C   UNL     1      -4.965   2.652 -31.531  1.00  0.00     0.033 A 
HETATM    3  N   UNL     1      -4.865   3.233 -30.294  1.00  0.00    -0.282 N 
HETATM    4  H   UNL     1      -4.022   3.473 -29.783  1.00  0.00     0.189 HD
HETATM    5  N   UNL     1      -6.048   3.557 -29.749  1.00  0.00    -0.179 NA
HETATM    6  C   UNL     1      -6.934   3.107 -30.637  1.00  0.00     0.066 A 
HETATM    7  C   UNL     1      -6.320   2.499 -31.765  1.00  0.00     0.001 A 
HETATM    8  C   UNL     1      -7.113   2.000 -32.941  1.00  0.00     0.070 C 
HETATM    9  C   UNL     1      -8.640   1.953 -32.658  1.00  0.00     0.102 C 
HETATM   10  C   UNL     1      -9.140   3.173 -31.830  1.00  0.00     0.071 C 
HETATM   11  C   UNL     1      -8.994   4.477 -32.637  1.00  0.00     0.047 C 
HETATM   12  C   UNL     1      -8.402   3.294 -30.468  1.00  0.00     0.100 C 
ENDROOT
BRANCH   8  13
HETATM   13  C   UNL     1      -6.544   0.695 -33.480  1.00  0.00    -0.046 A 
HETATM   14  C   UNL     1      -5.660  -0.131 -32.757  1.00  0.00     0.047 A 
HETATM   15  C   UNL     1      -5.195  -1.329 -33.303  1.00  0.00     0.101 A 
HETATM   16  C   UNL     1      -5.676  -1.747 -34.545  1.00  0.00     0.099 A 
HETATM   17  C   UNL     1      -6.562  -0.968 -35.270  1.00  0.00     0.040 A 
HETATM   18  C   UNL     1      -6.987   0.252 -34.744  1.00  0.00     0.011 A 
BRANCH  15  19
HETATM   19  O   UNL     1      -4.307  -2.176 -32.690  1.00  0.00    -0.353 OA
HETATM   20  C   UNL     1      -3.270  -1.509 -31.972  1.00  0.00     0.210 C 
ENDBRANCH  15  19
BRANCH  16  21
HETATM   21  O   UNL     1      -5.272  -2.941 -35.073  1.00  0.00    -0.358 OA
HETATM   22  H   UNL     1      -4.466  -2.729 -35.583  1.00  0.00     0.218 HD
ENDBRANCH  16  21
ENDBRANCH   8  13
BRANCH   9  23
HETATM   23  C   UNL     1      -9.073   0.656 -31.967  1.00  0.00     0.131 C 
HETATM   24  C   UNL     1     -10.042  -0.221 -32.722  1.00  0.00     0.091 C 
HETATM   25  O   UNL     1      -8.673   0.330 -30.848  1.00  0.00    -0.298 OA
ENDBRANCH   9  23
BRANCH  10  26
HETATM   26  O   UNL     1     -10.553   3.013 -31.613  1.00  0.00    -0.389 OA
HETATM   27  H   UNL     1     -10.802   3.549 -30.837  1.00  0.00     0.210 HD
ENDBRANCH  10  26
TORSDOF 5
ENDMDL
MODEL 6
REMARK VINA RESULT:      -6.6      1.808      5.462
REMARK  5 active torsions:
REMARK  status: ('A' for Active; 'I' for Inactive)
REMARK    1  A    between atoms: C_8  and  C_9 
REMARK    2  A    between atoms: C_11  and  O_12 
REMARK    3  A    between atoms: C_14  and  O_15 
REMARK    4  A    between atoms: C_18  and  C_19 
REMARK    5  A    between atoms: C_22  and  O_23 
ROOT
HETATM    1  C   UNL     1      -3.774  -0.431 -31.159  1.00  0.00     0.070 C 
HETATM    2  C   UNL     1      -4.681  -0.528 -32.326  1.00  0.00     0.033 A 
HETATM    3  N   UNL     1      -4.513  -1.493 -33.284  1.00  0.00    -0.282 N 
HETATM    4  H   UNL     1      -3.789  -2.202 -33.337  1.00  0.00     0.189 HD
HETATM    5  N   UNL     1      -5.473  -1.500 -34.222  1.00  0.00    -0.179 NA
HETATM    6  C   UNL     1      -6.242  -0.463 -33.889  1.00  0.00     0.066 A 
HETATM    7  C   UNL     1      -5.782   0.209 -32.725  1.00  0.00     0.001 A 
HETATM    8  C   UNL     1      -6.538   1.351 -32.106  1.00  0.00     0.070 C 
HETATM    9  C   UNL     1      -7.675   1.885 -33.020  1.00  0.00     0.102 C 
HETATM   10  C   UNL     1      -8.434   0.750 -33.767  1.00  0.00     0.071 C 
HETATM   11  C   UNL     1      -9.202  -0.140 -32.771  1.00  0.00     0.047 C 
HETATM   12  C   UNL     1      -7.480  -0.113 -34.639  1.00  0.00     0.100 C 
ENDROOT
BRANCH   8  13
HETATM   13  C   UNL     1      -5.593   2.432 -31.599  1.00  0.00    -0.046 A 
HETATM   14  C   UNL     1      -4.330   2.695 -32.166  1.00  0.00     0.047 A 
HETATM   15  C   UNL     1      -3.522   3.719 -31.666  1.00  0.00     0.101 A 
HETATM   16  C   UNL     1      -4.010   4.540 -30.648  1.00  0.00     0.099 A 
HETATM   17  C   UNL     1      -5.257   4.320 -30.085  1.00  0.00     0.040 A 
HETATM   18  C   UNL     1      -6.041   3.265 -30.553  1.00  0.00     0.011 A 
BRANCH  15  19
HETATM   19  O   UNL     1      -2.268   4.024 -32.130  1.00  0.00    -0.353 OA
HETATM   20  C   UNL     1      -2.241   4.455 -33.490  1.00  0.00     0.210 C 
ENDBRANCH  15  19
BRANCH  16  21
HETATM   21  O   UNL     1      -3.256   5.580 -30.181  1.00  0.00    -0.358 OA
HETATM   22  H   UNL     1      -3.902   6.199 -29.788  1.00  0.00     0.218 HD
ENDBRANCH  16  21
ENDBRANCH   8  13
BRANCH   9  23
HETATM   23  C   UNL     1      -7.179   2.921 -34.035  1.00  0.00     0.131 C 
HETATM   24  C   UNL     1      -7.663   4.337 -33.846  1.00  0.00     0.091 C 
HETATM   25  O   UNL     1      -6.432   2.633 -34.971  1.00  0.00    -0.298 OA
ENDBRANCH   9  23
BRANCH  10  26
HETATM   26  O   UNL     1      -9.442   1.359 -34.593  1.00  0.00    -0.389 OA
HETATM   27  H   UNL     1      -9.076   1.462 -35.491  1.00  0.00     0.210 HD
ENDBRANCH  10  26
TORSDOF 5
ENDMDL
MODEL 7
REMARK VINA RESULT:      -6.6      3.174      5.221
REMARK  5 active torsions:
REMARK  status: ('A' for Active; 'I' for Inactive)
REMARK    1  A    between atoms: C_8  and  C_9 
REMARK    2  A    between atoms: C_11  and  O_12 
REMARK    3  A    between atoms: C_14  and  O_15 
REMARK    4  A    between atoms: C_18  and  C_19 
REMARK    5  A    between atoms: C_22  and  O_23 
ROOT
HETATM    1  C   UNL     1     -10.067  -0.420 -32.721  1.00  0.00     0.070 C 
HETATM    2  C   UNL     1      -9.830   1.036 -32.582  1.00  0.00     0.033 A 
HETATM    3  N   UNL     1     -10.834   1.946 -32.792  1.00  0.00    -0.282 N 
HETATM    4  H   UNL     1     -11.792   1.767 -33.071  1.00  0.00     0.189 HD
HETATM    5  N   UNL     1     -10.478   3.215 -32.535  1.00  0.00    -0.179 NA
HETATM    6  C   UNL     1      -9.187   3.118 -32.216  1.00  0.00     0.066 A 
HETATM    7  C   UNL     1      -8.710   1.780 -32.257  1.00  0.00     0.001 A 
HETATM    8  C   UNL     1      -7.312   1.413 -31.847  1.00  0.00     0.070 C 
HETATM    9  C   UNL     1      -6.392   2.652 -31.669  1.00  0.00     0.102 C 
HETATM   10  C   UNL     1      -7.121   3.854 -31.000  1.00  0.00     0.071 C 
HETATM   11  C   UNL     1      -7.505   3.518 -29.546  1.00  0.00     0.047 C 
HETATM   12  C   UNL     1      -8.375   4.296 -31.803  1.00  0.00     0.100 C 
ENDROOT
BRANCH   8  13
HETATM   13  C   UNL     1      -6.731   0.338 -32.756  1.00  0.00    -0.046 A 
HETATM   14  C   UNL     1      -5.728  -0.566 -32.355  1.00  0.00     0.047 A 
HETATM   15  C   UNL     1      -5.257  -1.545 -33.234  1.00  0.00     0.101 A 
HETATM   16  C   UNL     1      -5.846  -1.676 -34.492  1.00  0.00     0.099 A 
HETATM   17  C   UNL     1      -6.850  -0.816 -34.906  1.00  0.00     0.040 A 
HETATM   18  C   UNL     1      -7.284   0.192 -34.045  1.00  0.00     0.011 A 
BRANCH  15  19
HETATM   19  O   UNL     1      -4.260  -2.443 -32.945  1.00  0.00    -0.353 OA
HETATM   20  C   UNL     1      -3.326  -1.978 -31.971  1.00  0.00     0.210 C 
ENDBRANCH  15  19
BRANCH  16  21
HETATM   21  O   UNL     1      -5.435  -2.660 -35.346  1.00  0.00    -0.358 OA
HETATM   22  H   UNL     1      -5.568  -2.287 -36.239  1.00  0.00     0.218 HD
ENDBRANCH  16  21
ENDBRANCH   8  13
BRANCH   9  23
HETATM   23  C   UNL     1      -5.758   3.111 -32.986  1.00  0.00     0.131 C 
HETATM   24  C   UNL     1      -4.259   2.981 -33.095  1.00  0.00     0.091 C 
HETATM   25  O   UNL     1      -6.417   3.574 -33.919  1.00  0.00    -0.298 OA
ENDBRANCH   9  23
BRANCH  10  26
HETATM   26  O   UNL     1      -6.185   4.944 -30.906  1.00  0.00    -0.389 OA
HETATM   27  H   UNL     1      -6.600   5.653 -30.380  1.00  0.00     0.210 HD
ENDBRANCH  10  26
TORSDOF 5
ENDMDL
MODEL 8
REMARK VINA RESULT:      -6.5      2.928      5.661
REMARK  5 active torsions:
REMARK  status: ('A' for Active; 'I' for Inactive)
REMARK    1  A    between atoms: C_8  and  C_9 
REMARK    2  A    between atoms: C_11  and  O_12 
REMARK    3  A    between atoms: C_14  and  O_15 
REMARK    4  A    between atoms: C_18  and  C_19 
REMARK    5  A    between atoms: C_22  and  O_23 
ROOT
HETATM    1  C   UNL     1      -9.112   4.051 -32.217  1.00  0.00     0.070 C 
HETATM    2  C   UNL     1      -8.989   2.584 -32.373  1.00  0.00     0.033 A 
HETATM    3  N   UNL     1     -10.037   1.745 -32.095  1.00  0.00    -0.282 N 
HETATM    4  H   UNL     1     -10.959   1.990 -31.750  1.00  0.00     0.189 HD
HETATM    5  N   UNL     1      -9.790   0.456 -32.377  1.00  0.00    -0.179 NA
HETATM    6  C   UNL     1      -8.520   0.463 -32.784  1.00  0.00     0.066 A 
HETATM    7  C   UNL     1      -7.949   1.764 -32.775  1.00  0.00     0.001 A 
HETATM    8  C   UNL     1      -6.559   2.035 -33.280  1.00  0.00     0.070 C 
HETATM    9  C   UNL     1      -5.744   0.735 -33.522  1.00  0.00     0.102 C 
HETATM   10  C   UNL     1      -6.600  -0.409 -34.141  1.00  0.00     0.071 C 
HETATM   11  C   UNL     1      -7.059  -0.039 -35.564  1.00  0.00     0.047 C 
HETATM   12  C   UNL     1      -7.824  -0.766 -33.254  1.00  0.00     0.100 C 
ENDROOT
BRANCH   8  13
HETATM   13  C   UNL     1      -5.844   3.061 -32.413  1.00  0.00    -0.046 A 
HETATM   14  C   UNL     1      -6.108   3.245 -31.041  1.00  0.00     0.047 A 
HETATM   15  C   UNL     1      -5.396   4.189 -30.297  1.00  0.00     0.101 A 
HETATM   16  C   UNL     1      -4.359   4.898 -30.905  1.00  0.00     0.099 A 
HETATM   17  C   UNL     1      -4.060   4.723 -32.247  1.00  0.00     0.040 A 
HETATM   18  C   UNL     1      -4.806   3.815 -32.999  1.00  0.00     0.011 A 
BRANCH  15  19
HETATM   19  O   UNL     1      -5.608   4.462 -28.970  1.00  0.00    -0.353 OA
HETATM   20  C   UNL     1      -6.807   5.192 -28.712  1.00  0.00     0.210 C 
ENDBRANCH  15  19
BRANCH  16  21
HETATM   21  O   UNL     1      -3.616   5.788 -30.181  1.00  0.00    -0.358 OA
HETATM   22  H   UNL     1      -3.400   5.318 -29.353  1.00  0.00     0.218 HD
ENDBRANCH  16  21
ENDBRANCH   8  13
BRANCH   9  23
HETATM   23  C   UNL     1      -5.055   0.225 -32.253  1.00  0.00     0.131 C 
HETATM   24  C   UNL     1      -3.555   0.380 -32.190  1.00  0.00     0.091 C 
HETATM   25  O   UNL     1      -5.671  -0.296 -31.322  1.00  0.00    -0.298 OA
ENDBRANCH   9  23
BRANCH  10  26
HETATM   26  O   UNL     1      -5.752  -1.561 -34.300  1.00  0.00    -0.389 OA
HETATM   27  H   UNL     1      -6.317  -2.356 -34.278  1.00  0.00     0.210 HD
ENDBRANCH  10  26
TORSDOF 5
ENDMDL
MODEL 9
REMARK VINA RESULT:      -6.4      3.192      5.300
REMARK  5 active torsions:
REMARK  status: ('A' for Active; 'I' for Inactive)
REMARK    1  A    between atoms: C_8  and  C_9 
REMARK    2  A    between atoms: C_11  and  O_12 
REMARK    3  A    between atoms: C_14  and  O_15 
REMARK    4  A    between atoms: C_18  and  C_19 
REMARK    5  A    between atoms: C_22  and  O_23 
ROOT
HETATM    1  C   UNL     1      -9.551  -0.023 -32.791  1.00  0.00     0.070 C 
HETATM    2  C   UNL     1      -9.464   1.332 -33.383  1.00  0.00     0.033 A 
HETATM    3  N   UNL     1     -10.327   1.738 -34.367  1.00  0.00    -0.282 N 
HETATM    4  H   UNL     1     -11.068   1.204 -34.808  1.00  0.00     0.189 HD
HETATM    5  N   UNL     1     -10.173   3.021 -34.729  1.00  0.00    -0.179 NA
HETATM    6  C   UNL     1      -9.134   3.429 -33.999  1.00  0.00     0.066 A 
HETATM    7  C   UNL     1      -8.622   2.406 -33.156  1.00  0.00     0.001 A 
HETATM    8  C   UNL     1      -7.511   2.655 -32.174  1.00  0.00     0.070 C 
HETATM    9  C   UNL     1      -6.812   4.025 -32.393  1.00  0.00     0.102 C 
HETATM   10  C   UNL     1      -7.811   5.162 -32.760  1.00  0.00     0.071 C 
HETATM   11  C   UNL     1      -8.757   5.459 -31.580  1.00  0.00     0.047 C 
HETATM   12  C   UNL     1      -8.629   4.829 -34.038  1.00  0.00     0.100 C 
ENDROOT
BRANCH   8  13
HETATM   13  C   UNL     1      -6.551   1.475 -32.111  1.00  0.00    -0.046 A 
HETATM   14  C   UNL     1      -6.220   0.676 -33.223  1.00  0.00     0.047 A 
HETATM   15  C   UNL     1      -5.312  -0.378 -33.100  1.00  0.00     0.101 A 
HETATM   16  C   UNL     1      -4.669  -0.587 -31.880  1.00  0.00     0.099 A 
HETATM   17  C   UNL     1      -4.957   0.195 -30.773  1.00  0.00     0.040 A 
HETATM   18  C   UNL     1      -5.901   1.216 -30.887  1.00  0.00     0.011 A 
BRANCH  15  19
HETATM   19  O   UNL     1      -4.958  -1.229 -34.116  1.00  0.00    -0.353 OA
HETATM   20  C   UNL     1      -5.973  -2.168 -34.466  1.00  0.00     0.210 C 
ENDBRANCH  15  19
BRANCH  16  21
HETATM   21  O   UNL     1      -3.739  -1.581 -31.753  1.00  0.00    -0.358 OA
HETATM   22  H   UNL     1      -3.178  -1.304 -31.002  1.00  0.00     0.218 HD
ENDBRANCH  16  21
ENDBRANCH   8  13
BRANCH   9  23
HETATM   23  C   UNL     1      -5.704   3.961 -33.449  1.00  0.00     0.131 C 
HETATM   24  C   UNL     1      -4.284   3.950 -32.939  1.00  0.00     0.091 C 
HETATM   25  O   UNL     1      -5.936   3.929 -34.659  1.00  0.00    -0.298 OA
ENDBRANCH   9  23
BRANCH  10  26
HETATM   26  O   UNL     1      -7.055   6.370 -32.958  1.00  0.00    -0.389 OA
HETATM   27  H   UNL     1      -6.116   6.169 -32.792  1.00  0.00     0.210 HD
ENDBRANCH  10  26
TORSDOF 5
ENDMDL
MODEL 10
REMARK VINA RESULT:      -6.3      1.758      2.145
REMARK  5 active torsions:
REMARK  status: ('A' for Active; 'I' for Inactive)
REMARK    1  A    between atoms: C_8  and  C_9 
REMARK    2  A    between atoms: C_11  and  O_12 
REMARK    3  A    between atoms: C_14  and  O_15 
REMARK    4  A    between atoms: C_18  and  C_19 
REMARK    5  A    between atoms: C_22  and  O_23 
ROOT
HETATM    1  C   UNL     1      -7.438   0.029 -35.399  1.00  0.00     0.070 C 
HETATM    2  C   UNL     1      -6.689   0.671 -34.294  1.00  0.00     0.033 A 
HETATM    3  N   UNL     1      -5.536   0.121 -33.797  1.00  0.00    -0.282 N 
HETATM    4  H   UNL     1      -5.085  -0.743 -34.077  1.00  0.00     0.189 HD
HETATM    5  N   UNL     1      -4.933   0.873 -32.864  1.00  0.00    -0.179 NA
HETATM    6  C   UNL     1      -5.763   1.906 -32.711  1.00  0.00     0.066 A 
HETATM    7  C   UNL     1      -6.902   1.823 -33.558  1.00  0.00     0.001 A 
HETATM    8  C   UNL     1      -7.930   2.917 -33.630  1.00  0.00     0.070 C 
HETATM    9  C   UNL     1      -7.770   3.967 -32.496  1.00  0.00     0.102 C 
HETATM   10  C   UNL     1      -6.282   4.303 -32.189  1.00  0.00     0.071 C 
HETATM   11  C   UNL     1      -5.622   5.010 -33.388  1.00  0.00     0.047 C 
HETATM   12  C   UNL     1      -5.469   3.039 -31.792  1.00  0.00     0.100 C 
ENDROOT
BRANCH   8  13
HETATM   13  C   UNL     1      -9.337   2.349 -33.752  1.00  0.00    -0.046 A 
HETATM   14  C   UNL     1     -10.344   2.920 -34.555  1.00  0.00     0.047 A 
HETATM   15  C   UNL     1     -11.609   2.332 -34.640  1.00  0.00     0.101 A 
HETATM   16  C   UNL     1     -11.846   1.123 -33.986  1.00  0.00     0.099 A 
HETATM   17  C   UNL     1     -10.869   0.525 -33.206  1.00  0.00     0.040 A 
HETATM   18  C   UNL     1      -9.623   1.141 -33.083  1.00  0.00     0.011 A 
BRANCH  15  19
HETATM   19  O   UNL     1     -12.659   2.835 -35.365  1.00  0.00    -0.353 OA
HETATM   20  C   UNL     1     -12.639   4.255 -35.506  1.00  0.00     0.210 C 
ENDBRANCH  15  19
BRANCH  16  21
HETATM   21  O   UNL     1     -13.060   0.505 -34.099  1.00  0.00    -0.358 OA
HETATM   22  H   UNL     1     -13.716   1.218 -33.966  1.00  0.00     0.218 HD
ENDBRANCH  16  21
ENDBRANCH   8  13
BRANCH   9  23
HETATM   23  C   UNL     1      -8.477   3.551 -31.202  1.00  0.00     0.131 C 
HETATM   24  C   UNL     1      -9.786   4.237 -30.897  1.00  0.00     0.091 C 
HETATM   25  O   UNL     1      -8.014   2.711 -30.429  1.00  0.00    -0.298 OA
ENDBRANCH   9  23
BRANCH  10  26
HETATM   26  O   UNL     1      -6.256   5.263 -31.117  1.00  0.00    -0.389 OA
HETATM   27  H   UNL     1      -6.674   4.855 -30.336  1.00  0.00     0.210 HD
ENDBRANCH  10  26
TORSDOF 5
ENDMDL
