MODEL 1
REMARK VINA RESULT:      -8.7      0.000      0.000
REMARK  7 active torsions:
REMARK  status: ('A' for Active; 'I' for Inactive)
REMARK    1  A    between atoms: CG_4  and  CB_5 
REMARK    2  A    between atoms: CB_5  and  CA_6 
REMARK    3  A    between atoms: CA_6  and  N_7 
REMARK    4  A    between atoms: CA_6  and  C_8 
REMARK       I    between atoms: N_7  and  C_14 
REMARK    5  A    between atoms: C_8  and  O_9 
REMARK       I    between atoms: C_14  and  N_15 
REMARK    6  A    between atoms: N_15  and  C_16 
REMARK    7  A    between atoms: C_22  and  C_23 
ROOT
ATOM      1  N   PHE A   1      -8.544   0.448 -33.782  1.00  0.00    -0.336 N 
ATOM      2  H   PHE A   1      -8.277   1.261 -34.314  1.00  0.00     0.164 HD
HETATM    3  C   UNK A   0      -9.830   0.378 -33.297  1.00  0.00     0.321 C 
HETATM    4  N   UNK A   0     -10.661   1.258 -33.948  1.00  0.00    -0.309 N 
HETATM    5  O   UNK A   0     -10.124  -0.394 -32.394  1.00  0.00    -0.247 OA
HETATM    6  H   UNK A   0     -10.242   1.790 -34.693  1.00  0.00     0.170 HD
ENDROOT
BRANCH   1   7
ATOM      7  CA  PHE A   1      -7.475  -0.445 -33.314  1.00  0.00     0.113 C 
BRANCH   7   8
ATOM      8  CB  PHE A   1      -6.487  -0.755 -34.459  1.00  0.00     0.065 C 
BRANCH   8   9
ATOM      9  CG  PHE A   1      -5.972  -2.178 -34.458  1.00  0.00    -0.056 A 
ATOM     10  CD1 PHE A   1      -4.647  -2.454 -34.093  1.00  0.00     0.007 A 
ATOM     11  CE1 PHE A   1      -4.171  -3.767 -34.092  1.00  0.00     0.001 A 
ATOM     12  CZ  PHE A   1      -5.015  -4.816 -34.452  1.00  0.00     0.000 A 
ATOM     13  CE2 PHE A   1      -6.336  -4.556 -34.806  1.00  0.00     0.001 A 
ATOM     14  CD2 PHE A   1      -6.814  -3.244 -34.805  1.00  0.00     0.007 A 
ENDBRANCH   8   9
ENDBRANCH   7   8
BRANCH   7  15
ATOM     15  C   PHE A   1      -6.715   0.169 -32.118  1.00  0.00     0.189 C 
BRANCH  15  16
ATOM     16  O   PHE A   1      -7.519   0.257 -30.945  1.00  0.00    -0.399 OA
ATOM     17  H   PHE A   1      -8.237   0.907 -31.113  1.00  0.00     0.209 HD
ENDBRANCH  15  16
ENDBRANCH   7  15
ENDBRANCH   1   7
BRANCH   4  18
HETATM   18  C   UNK A   0     -12.049   1.435 -33.758  1.00  0.00     0.038 A 
HETATM   19  C   UNK A   0     -12.603   2.482 -33.011  1.00  0.00     0.063 A 
HETATM   20  C   UNK A   0     -13.998   2.546 -32.855  1.00  0.00     0.087 A 
HETATM   21  C   UNK A   0     -14.799   1.583 -33.455  1.00  0.00     0.063 A 
HETATM   22  N   UNK A   0     -14.764   3.451 -32.159  1.00  0.00    -0.228 NA
HETATM   23  N   UNK A   0     -16.076   1.933 -33.103  1.00  0.00    -0.338 N 
HETATM   24  C   UNK A   0     -14.289   0.535 -34.218  1.00  0.00     0.034 A 
HETATM   25  H   UNK A   0     -16.924   1.449 -33.363  1.00  0.00     0.167 HD
HETATM   26  C   UNK A   0     -16.015   3.057 -32.315  1.00  0.00     0.170 A 
HETATM   27  C   UNK A   0     -12.894   0.482 -34.351  1.00  0.00     0.032 A 
BRANCH  26  28
HETATM   28  C   UNK A   0     -17.248   3.666 -31.756  1.00  0.00     0.422 C 
HETATM   29  F   UNK A   0     -17.977   4.262 -32.740  1.00  0.00    -0.206 F 
HETATM   30  F   UNK A   0     -18.062   2.705 -31.232  1.00  0.00    -0.206 F 
ENDBRANCH  26  28
ENDBRANCH   4  18
TORSDOF 7
ENDMDL
MODEL 2
REMARK VINA RESULT:      -8.2      8.164     11.205
REMARK  7 active torsions:
REMARK  status: ('A' for Active; 'I' for Inactive)
REMARK    1  A    between atoms: CG_4  and  CB_5 
REMARK    2  A    between atoms: CB_5  and  CA_6 
REMARK    3  A    between atoms: CA_6  and  N_7 
REMARK    4  A    between atoms: CA_6  and  C_8 
REMARK       I    between atoms: N_7  and  C_14 
REMARK    5  A    between atoms: C_8  and  O_9 
REMARK       I    between atoms: C_14  and  N_15 
REMARK    6  A    between atoms: N_15  and  C_16 
REMARK    7  A    between atoms: C_22  and  C_23 
ROOT
ATOM      1  N   PHE A   1      -1.600   4.842 -30.617  1.00  0.00    -0.336 N 
ATOM      2  H   PHE A   1      -1.715   4.508 -29.674  1.00  0.00     0.164 HD
HETATM    3  C   UNK A   0      -2.218   4.152 -31.634  1.00  0.00     0.321 C 
HETATM    4  N   UNK A   0      -3.214   3.337 -31.156  1.00  0.00    -0.309 N 
HETATM    5  O   UNK A   0      -1.868   4.296 -32.799  1.00  0.00    -0.247 OA
HETATM    6  H   UNK A   0      -3.380   3.380 -30.163  1.00  0.00     0.170 HD
ENDROOT
BRANCH   1   7
ATOM      7  CA  PHE A   1      -0.553   5.844 -30.866  1.00  0.00     0.113 C 
BRANCH   7   8
ATOM      8  CB  PHE A   1      -0.871   7.157 -30.119  1.00  0.00     0.065 C 
BRANCH   8   9
ATOM      9  CG  PHE A   1      -0.185   7.283 -28.776  1.00  0.00    -0.056 A 
ATOM     10  CD1 PHE A   1      -0.654   6.564 -27.668  1.00  0.00     0.007 A 
ATOM     11  CE1 PHE A   1      -0.021   6.681 -26.428  1.00  0.00     0.001 A 
ATOM     12  CZ  PHE A   1       1.088   7.511 -26.286  1.00  0.00     0.000 A 
ATOM     13  CE2 PHE A   1       1.571   8.221 -27.381  1.00  0.00     0.001 A 
ATOM     14  CD2 PHE A   1       0.941   8.105 -28.623  1.00  0.00     0.007 A 
ENDBRANCH   8   9
ENDBRANCH   7   8
BRANCH   7  15
ATOM     15  C   PHE A   1       0.836   5.321 -30.438  1.00  0.00     0.189 C 
BRANCH  15  16
ATOM     16  O   PHE A   1       0.768   4.056 -29.787  1.00  0.00    -0.399 OA
ATOM     17  H   PHE A   1       0.940   4.194 -28.829  1.00  0.00     0.209 HD
ENDBRANCH  15  16
ENDBRANCH   7  15
ENDBRANCH   1   7
BRANCH   4  18
HETATM   18  C   UNK A   0      -4.092   2.519 -31.900  1.00  0.00     0.038 A 
HETATM   19  C   UNK A   0      -3.849   1.167 -32.174  1.00  0.00     0.063 A 
HETATM   20  C   UNK A   0      -4.773   0.452 -32.955  1.00  0.00     0.087 A 
HETATM   21  C   UNK A   0      -5.912   1.092 -33.426  1.00  0.00     0.063 A 
HETATM   22  N   UNK A   0      -4.743  -0.858 -33.372  1.00  0.00    -0.228 NA
HETATM   23  N   UNK A   0      -6.574   0.128 -34.140  1.00  0.00    -0.338 N 
HETATM   24  C   UNK A   0      -6.198   2.430 -33.163  1.00  0.00     0.034 A 
HETATM   25  H   UNK A   0      -7.451   0.242 -34.630  1.00  0.00     0.167 HD
HETATM   26  C   UNK A   0      -5.836  -1.029 -34.094  1.00  0.00     0.170 A 
HETATM   27  C   UNK A   0      -5.258   3.129 -32.393  1.00  0.00     0.032 A 
BRANCH  26  28
HETATM   28  C   UNK A   0      -6.290  -2.253 -34.800  1.00  0.00     0.422 C 
HETATM   29  F   UNK A   0      -5.289  -3.176 -34.851  1.00  0.00    -0.206 F 
HETATM   30  F   UNK A   0      -7.303  -2.855 -34.114  1.00  0.00    -0.206 F 
ENDBRANCH  26  28
ENDBRANCH   4  18
TORSDOF 7
ENDMDL
MODEL 3
REMARK VINA RESULT:      -8.2      2.136      3.262
REMARK  7 active torsions:
REMARK  status: ('A' for Active; 'I' for Inactive)
REMARK    1  A    between atoms: CG_4  and  CB_5 
REMARK    2  A    between atoms: CB_5  and  CA_6 
REMARK    3  A    between atoms: CA_6  and  N_7 
REMARK    4  A    between atoms: CA_6  and  C_8 
REMARK       I    between atoms: N_7  and  C_14 
REMARK    5  A    between atoms: C_8  and  O_9 
REMARK       I    between atoms: C_14  and  N_15 
REMARK    6  A    between atoms: N_15  and  C_16 
REMARK    7  A    between atoms: C_22  and  C_23 
ROOT
ATOM      1  N   PHE A   1      -5.540   0.485 -33.051  1.00  0.00    -0.336 N 
ATOM      2  H   PHE A   1      -5.197   1.217 -33.653  1.00  0.00     0.164 HD
HETATM    3  C   UNK A   0      -6.832   0.574 -32.586  1.00  0.00     0.321 C 
HETATM    4  N   UNK A   0      -7.576   1.455 -33.332  1.00  0.00    -0.309 N 
HETATM    5  O   UNK A   0      -7.202  -0.079 -31.619  1.00  0.00    -0.247 OA
HETATM    6  H   UNK A   0      -7.104   1.875 -34.117  1.00  0.00     0.170 HD
ENDROOT
BRANCH   1   7
ATOM      7  CA  PHE A   1      -4.559  -0.448 -32.480  1.00  0.00     0.113 C 
BRANCH   7   8
ATOM      8  CB  PHE A   1      -3.846  -1.238 -33.599  1.00  0.00     0.065 C 
BRANCH   8   9
ATOM      9  CG  PHE A   1      -4.576  -2.492 -34.027  1.00  0.00    -0.056 A 
ATOM     10  CD1 PHE A   1      -3.990  -3.752 -33.847  1.00  0.00     0.007 A 
ATOM     11  CE1 PHE A   1      -4.664  -4.910 -34.243  1.00  0.00     0.001 A 
ATOM     12  CZ  PHE A   1      -5.930  -4.820 -34.817  1.00  0.00     0.000 A 
ATOM     13  CE2 PHE A   1      -6.527  -3.575 -34.991  1.00  0.00     0.001 A 
ATOM     14  CD2 PHE A   1      -5.857  -2.416 -34.594  1.00  0.00     0.007 A 
ENDBRANCH   8   9
ENDBRANCH   7   8
BRANCH   7  15
ATOM     15  C   PHE A   1      -3.516   0.294 -31.618  1.00  0.00     0.189 C 
BRANCH  15  16
ATOM     16  O   PHE A   1      -2.469  -0.561 -31.166  1.00  0.00    -0.399 OA
ATOM     17  H   PHE A   1      -2.279  -1.214 -31.875  1.00  0.00     0.209 HD
ENDBRANCH  15  16
ENDBRANCH   7  15
ENDBRANCH   1   7
BRANCH   4  18
HETATM   18  C   UNK A   0      -8.945   1.770 -33.186  1.00  0.00     0.038 A 
HETATM   19  C   UNK A   0      -9.983   0.943 -33.632  1.00  0.00     0.063 A 
HETATM   20  C   UNK A   0     -11.312   1.368 -33.469  1.00  0.00     0.087 A 
HETATM   21  C   UNK A   0     -11.570   2.589 -32.857  1.00  0.00     0.063 A 
HETATM   22  N   UNK A   0     -12.484   0.753 -33.841  1.00  0.00    -0.228 NA
HETATM   23  N   UNK A   0     -12.937   2.692 -32.866  1.00  0.00    -0.338 N 
HETATM   24  C   UNK A   0     -10.567   3.432 -32.385  1.00  0.00     0.034 A 
HETATM   25  H   UNK A   0     -13.482   3.461 -32.500  1.00  0.00     0.167 HD
HETATM   26  C   UNK A   0     -13.452   1.574 -33.475  1.00  0.00     0.170 A 
HETATM   27  C   UNK A   0      -9.248   2.996 -32.569  1.00  0.00     0.032 A 
BRANCH  26  28
HETATM   28  C   UNK A   0     -14.916   1.409 -33.656  1.00  0.00     0.422 C 
HETATM   29  F   UNK A   0     -15.195   0.204 -34.227  1.00  0.00    -0.206 F 
HETATM   30  F   UNK A   0     -15.550   1.394 -32.449  1.00  0.00    -0.206 F 
ENDBRANCH  26  28
ENDBRANCH   4  18
TORSDOF 7
ENDMDL
MODEL 4
REMARK VINA RESULT:      -8.0      7.129      9.935
REMARK  7 active torsions:
REMARK  status: ('A' for Active; 'I' for Inactive)
REMARK    1  A    between atoms: CG_4  and  CB_5 
REMARK    2  A    between atoms: CB_5  and  CA_6 
REMARK    3  A    between atoms: CA_6  and  N_7 
REMARK    4  A    between atoms: CA_6  and  C_8 
REMARK       I    between atoms: N_7  and  C_14 
REMARK    5  A    between atoms: C_8  and  O_9 
REMARK       I    between atoms: C_14  and  N_15 
REMARK    6  A    between atoms: N_15  and  C_16 
REMARK    7  A    between atoms: C_22  and  C_23 
ROOT
ATOM      1  N   PHE A   1      -7.828   2.005 -33.012  1.00  0.00    -0.336 N 
ATOM      2  H   PHE A   1      -8.394   2.450 -32.307  1.00  0.00     0.164 HD
HETATM    3  C   UNK A   0      -6.615   2.570 -33.329  1.00  0.00     0.321 C 
HETATM    4  N   UNK A   0      -6.196   3.442 -32.354  1.00  0.00    -0.309 N 
HETATM    5  O   UNK A   0      -6.038   2.287 -34.371  1.00  0.00    -0.247 OA
HETATM    6  H   UNK A   0      -6.793   3.519 -31.546  1.00  0.00     0.170 HD
ENDROOT
BRANCH   1   7
ATOM      7  CA  PHE A   1      -8.462   0.975 -33.849  1.00  0.00     0.113 C 
BRANCH   7   8
ATOM      8  CB  PHE A   1      -8.308  -0.418 -33.204  1.00  0.00     0.065 C 
BRANCH   8   9
ATOM      9  CG  PHE A   1      -7.004  -1.111 -33.538  1.00  0.00    -0.056 A 
ATOM     10  CD1 PHE A   1      -6.909  -1.942 -34.662  1.00  0.00     0.007 A 
ATOM     11  CE1 PHE A   1      -5.706  -2.581 -34.970  1.00  0.00     0.001 A 
ATOM     12  CZ  PHE A   1      -4.587  -2.392 -34.162  1.00  0.00     0.000 A 
ATOM     13  CE2 PHE A   1      -4.666  -1.560 -33.048  1.00  0.00     0.001 A 
ATOM     14  CD2 PHE A   1      -5.868  -0.918 -32.740  1.00  0.00     0.007 A 
ENDBRANCH   8   9
ENDBRANCH   7   8
BRANCH   7  15
ATOM     15  C   PHE A   1      -9.956   1.284 -34.081  1.00  0.00     0.189 C 
BRANCH  15  16
ATOM     16  O   PHE A   1     -10.731   1.164 -32.891  1.00  0.00    -0.399 OA
ATOM     17  H   PHE A   1     -11.472   1.808 -32.941  1.00  0.00     0.209 HD
ENDBRANCH  15  16
ENDBRANCH   7  15
ENDBRANCH   1   7
BRANCH   4  18
HETATM   18  C   UNK A   0      -4.986   4.169 -32.307  1.00  0.00     0.038 A 
HETATM   19  C   UNK A   0      -3.843   3.731 -31.625  1.00  0.00     0.063 A 
HETATM   20  C   UNK A   0      -2.702   4.550 -31.612  1.00  0.00     0.087 A 
HETATM   21  C   UNK A   0      -2.722   5.765 -32.284  1.00  0.00     0.063 A 
HETATM   22  N   UNK A   0      -1.486   4.352 -31.001  1.00  0.00    -0.228 NA
HETATM   23  N   UNK A   0      -1.479   6.298 -32.065  1.00  0.00    -0.338 N 
HETATM   24  C   UNK A   0      -3.833   6.229 -32.986  1.00  0.00     0.034 A 
HETATM   25  H   UNK A   0      -1.138   7.186 -32.408  1.00  0.00     0.167 HD
HETATM   26  C   UNK A   0      -0.766   5.424 -31.282  1.00  0.00     0.170 A 
HETATM   27  C   UNK A   0      -4.966   5.404 -32.977  1.00  0.00     0.032 A 
BRANCH  26  28
HETATM   28  C   UNK A   0       0.621   5.739 -30.853  1.00  0.00     0.422 C 
HETATM   29  F   UNK A   0       1.486   4.781 -31.290  1.00  0.00    -0.206 F 
HETATM   30  F   UNK A   0       1.047   6.901 -31.425  1.00  0.00    -0.206 F 
ENDBRANCH  26  28
ENDBRANCH   4  18
TORSDOF 7
ENDMDL
MODEL 5
REMARK VINA RESULT:      -7.9      5.057     10.317
REMARK  7 active torsions:
REMARK  status: ('A' for Active; 'I' for Inactive)
REMARK    1  A    between atoms: CG_4  and  CB_5 
REMARK    2  A    between atoms: CB_5  and  CA_6 
REMARK    3  A    between atoms: CA_6  and  N_7 
REMARK    4  A    between atoms: CA_6  and  C_8 
REMARK       I    between atoms: N_7  and  C_14 
REMARK    5  A    between atoms: C_8  and  O_9 
REMARK       I    between atoms: C_14  and  N_15 
REMARK    6  A    between atoms: N_15  and  C_16 
REMARK    7  A    between atoms: C_22  and  C_23 
ROOT
ATOM      1  N   PHE A   1     -10.570   1.815 -34.879  1.00  0.00    -0.336 N 
ATOM      2  H   PHE A   1     -10.328   2.168 -35.791  1.00  0.00     0.164 HD
HETATM    3  C   UNK A   0      -9.715   0.922 -34.276  1.00  0.00     0.321 C 
HETATM    4  N   UNK A   0      -8.469   0.952 -34.853  1.00  0.00    -0.309 N 
HETATM    5  O   UNK A   0     -10.087   0.219 -33.345  1.00  0.00    -0.247 OA
HETATM    6  H   UNK A   0      -8.341   1.627 -35.590  1.00  0.00     0.170 HD
ENDROOT
BRANCH   1   7
ATOM      7  CA  PHE A   1     -11.942   2.040 -34.399  1.00  0.00     0.113 C 
BRANCH   7   8
ATOM      8  CB  PHE A   1     -11.946   3.031 -33.215  1.00  0.00     0.065 C 
BRANCH   8   9
ATOM      9  CG  PHE A   1     -13.331   3.439 -32.760  1.00  0.00    -0.056 A 
ATOM     10  CD1 PHE A   1     -14.243   2.476 -32.308  1.00  0.00     0.007 A 
ATOM     11  CE1 PHE A   1     -15.521   2.853 -31.888  1.00  0.00     0.001 A 
ATOM     12  CZ  PHE A   1     -15.897   4.194 -31.912  1.00  0.00     0.000 A 
ATOM     13  CE2 PHE A   1     -14.996   5.161 -32.349  1.00  0.00     0.001 A 
ATOM     14  CD2 PHE A   1     -13.717   4.787 -32.767  1.00  0.00     0.007 A 
ENDBRANCH   8   9
ENDBRANCH   7   8
BRANCH   7  15
ATOM     15  C   PHE A   1     -12.851   2.569 -35.529  1.00  0.00     0.189 C 
BRANCH  15  16
ATOM     16  O   PHE A   1     -12.331   2.291 -36.826  1.00  0.00    -0.399 OA
ATOM     17  H   PHE A   1     -13.059   1.927 -37.377  1.00  0.00     0.209 HD
ENDBRANCH  15  16
ENDBRANCH   7  15
ENDBRANCH   1   7
BRANCH   4  18
HETATM   18  C   UNK A   0      -7.324   0.216 -34.475  1.00  0.00     0.038 A 
HETATM   19  C   UNK A   0      -7.111  -1.122 -34.826  1.00  0.00     0.063 A 
HETATM   20  C   UNK A   0      -5.953  -1.772 -34.367  1.00  0.00     0.087 A 
HETATM   21  C   UNK A   0      -5.037  -1.073 -33.591  1.00  0.00     0.063 A 
HETATM   22  N   UNK A   0      -5.540  -3.070 -34.555  1.00  0.00    -0.228 NA
HETATM   23  N   UNK A   0      -4.053  -1.987 -33.317  1.00  0.00    -0.338 N 
HETATM   24  C   UNK A   0      -5.204   0.263 -33.233  1.00  0.00     0.034 A 
HETATM   25  H   UNK A   0      -3.221  -1.824 -32.767  1.00  0.00     0.167 HD
HETATM   26  C   UNK A   0      -4.394  -3.180 -33.905  1.00  0.00     0.170 A 
HETATM   27  C   UNK A   0      -6.372   0.889 -33.690  1.00  0.00     0.032 A 
BRANCH  26  28
HETATM   28  C   UNK A   0      -3.528  -4.377 -33.764  1.00  0.00     0.422 C 
HETATM   29  F   UNK A   0      -2.863  -4.349 -32.576  1.00  0.00    -0.206 F 
HETATM   30  F   UNK A   0      -4.281  -5.513 -33.733  1.00  0.00    -0.206 F 
ENDBRANCH  26  28
ENDBRANCH   4  18
TORSDOF 7
ENDMDL
MODEL 6
REMARK VINA RESULT:      -7.8      5.338      9.828
REMARK  7 active torsions:
REMARK  status: ('A' for Active; 'I' for Inactive)
REMARK    1  A    between atoms: CG_4  and  CB_5 
REMARK    2  A    between atoms: CB_5  and  CA_6 
REMARK    3  A    between atoms: CA_6  and  N_7 
REMARK    4  A    between atoms: CA_6  and  C_8 
REMARK       I    between atoms: N_7  and  C_14 
REMARK    5  A    between atoms: C_8  and  O_9 
REMARK       I    between atoms: C_14  and  N_15 
REMARK    6  A    between atoms: N_15  and  C_16 
REMARK    7  A    between atoms: C_22  and  C_23 
ROOT
ATOM      1  N   PHE A   1     -10.318   2.209 -34.918  1.00  0.00    -0.336 N 
ATOM      2  H   PHE A   1     -10.153   2.394 -35.895  1.00  0.00     0.164 HD
HETATM    3  C   UNK A   0      -9.501   1.307 -34.277  1.00  0.00     0.321 C 
HETATM    4  N   UNK A   0      -8.342   1.089 -34.981  1.00  0.00    -0.309 N 
HETATM    5  O   UNK A   0      -9.832   0.799 -33.214  1.00  0.00    -0.247 OA
HETATM    6  H   UNK A   0      -8.231   1.629 -35.825  1.00  0.00     0.170 HD
ENDROOT
BRANCH   1   7
ATOM      7  CA  PHE A   1     -11.583   2.680 -34.336  1.00  0.00     0.113 C 
BRANCH   7   8
ATOM      8  CB  PHE A   1     -11.512   4.192 -34.034  1.00  0.00     0.065 C 
BRANCH   8   9
ATOM      9  CG  PHE A   1     -10.850   4.525 -32.715  1.00  0.00    -0.056 A 
ATOM     10  CD1 PHE A   1     -10.941   3.643 -31.631  1.00  0.00     0.007 A 
ATOM     11  CE1 PHE A   1     -10.330   3.950 -30.413  1.00  0.00     0.001 A 
ATOM     12  CZ  PHE A   1      -9.618   5.140 -30.269  1.00  0.00     0.000 A 
ATOM     13  CE2 PHE A   1      -9.511   6.019 -31.343  1.00  0.00     0.001 A 
ATOM     14  CD2 PHE A   1     -10.120   5.713 -32.562  1.00  0.00     0.007 A 
ENDBRANCH   8   9
ENDBRANCH   7   8
BRANCH   7  15
ATOM     15  C   PHE A   1     -12.774   2.388 -35.275  1.00  0.00     0.189 C 
BRANCH  15  16
ATOM     16  O   PHE A   1     -12.369   2.178 -36.624  1.00  0.00    -0.399 OA
ATOM     17  H   PHE A   1     -12.330   1.210 -36.786  1.00  0.00     0.209 HD
ENDBRANCH  15  16
ENDBRANCH   7  15
ENDBRANCH   1   7
BRANCH   4  18
HETATM   18  C   UNK A   0      -7.251   0.271 -34.617  1.00  0.00     0.038 A 
HETATM   19  C   UNK A   0      -7.114  -1.065 -35.016  1.00  0.00     0.063 A 
HETATM   20  C   UNK A   0      -6.006  -1.802 -34.568  1.00  0.00     0.087 A 
HETATM   21  C   UNK A   0      -5.061  -1.190 -33.752  1.00  0.00     0.063 A 
HETATM   22  N   UNK A   0      -5.670  -3.114 -34.801  1.00  0.00    -0.228 NA
HETATM   23  N   UNK A   0      -4.140  -2.173 -33.501  1.00  0.00    -0.338 N 
HETATM   24  C   UNK A   0      -5.152   0.139 -33.346  1.00  0.00     0.034 A 
HETATM   25  H   UNK A   0      -3.308  -2.083 -32.934  1.00  0.00     0.167 HD
HETATM   26  C   UNK A   0      -4.544  -3.319 -34.140  1.00  0.00     0.170 A 
HETATM   27  C   UNK A   0      -6.272   0.853 -33.793  1.00  0.00     0.032 A 
BRANCH  26  28
HETATM   28  C   UNK A   0      -3.755  -4.572 -34.034  1.00  0.00     0.422 C 
HETATM   29  F   UNK A   0      -3.186  -4.677 -32.801  1.00  0.00    -0.206 F 
HETATM   30  F   UNK A   0      -4.566  -5.661 -34.154  1.00  0.00    -0.206 F 
ENDBRANCH  26  28
ENDBRANCH   4  18
TORSDOF 7
ENDMDL
MODEL 7
REMARK VINA RESULT:      -7.7      7.856     11.088
REMARK  7 active torsions:
REMARK  status: ('A' for Active; 'I' for Inactive)
REMARK    1  A    between atoms: CG_4  and  CB_5 
REMARK    2  A    between atoms: CB_5  and  CA_6 
REMARK    3  A    between atoms: CA_6  and  N_7 
REMARK    4  A    between atoms: CA_6  and  C_8 
REMARK       I    between atoms: N_7  and  C_14 
REMARK    5  A    between atoms: C_8  and  O_9 
REMARK       I    between atoms: C_14  and  N_15 
REMARK    6  A    between atoms: N_15  and  C_16 
REMARK    7  A    between atoms: C_22  and  C_23 
ROOT
ATOM      1  N   PHE A   1      -3.227   5.176 -31.780  1.00  0.00    -0.336 N 
ATOM      2  H   PHE A   1      -3.713   5.206 -30.898  1.00  0.00     0.164 HD
HETATM    3  C   UNK A   0      -3.224   3.994 -32.484  1.00  0.00     0.321 C 
HETATM    4  N   UNK A   0      -4.216   3.148 -32.050  1.00  0.00    -0.309 N 
HETATM    5  O   UNK A   0      -2.407   3.789 -33.372  1.00  0.00    -0.247 OA
HETATM    6  H   UNK A   0      -4.817   3.509 -31.327  1.00  0.00     0.170 HD
ENDROOT
BRANCH   1   7
ATOM      7  CA  PHE A   1      -2.318   6.286 -32.100  1.00  0.00     0.113 C 
BRANCH   7   8
ATOM      8  CB  PHE A   1      -0.847   5.848 -31.932  1.00  0.00     0.065 C 
BRANCH   8   9
ATOM      9  CG  PHE A   1      -0.260   6.174 -30.575  1.00  0.00    -0.056 A 
ATOM     10  CD1 PHE A   1      -0.315   7.480 -30.072  1.00  0.00     0.007 A 
ATOM     11  CE1 PHE A   1       0.227   7.781 -28.820  1.00  0.00     0.001 A 
ATOM     12  CZ  PHE A   1       0.825   6.778 -28.059  1.00  0.00     0.000 A 
ATOM     13  CE2 PHE A   1       0.876   5.474 -28.543  1.00  0.00     0.001 A 
ATOM     14  CD2 PHE A   1       0.332   5.171 -29.794  1.00  0.00     0.007 A 
ENDBRANCH   8   9
ENDBRANCH   7   8
BRANCH   7  15
ATOM     15  C   PHE A   1      -2.549   6.803 -33.536  1.00  0.00     0.189 C 
BRANCH  15  16
ATOM     16  O   PHE A   1      -1.542   7.719 -33.958  1.00  0.00    -0.399 OA
ATOM     17  H   PHE A   1      -1.546   8.485 -33.343  1.00  0.00     0.209 HD
ENDBRANCH  15  16
ENDBRANCH   7  15
ENDBRANCH   1   7
BRANCH   4  18
HETATM   18  C   UNK A   0      -4.551   1.875 -32.562  1.00  0.00     0.038 A 
HETATM   19  C   UNK A   0      -3.736   0.745 -32.424  1.00  0.00     0.063 A 
HETATM   20  C   UNK A   0      -4.147  -0.468 -33.003  1.00  0.00     0.087 A 
HETATM   21  C   UNK A   0      -5.357  -0.526 -33.684  1.00  0.00     0.063 A 
HETATM   22  N   UNK A   0      -3.517  -1.690 -33.024  1.00  0.00    -0.228 NA
HETATM   23  N   UNK A   0      -5.443  -1.824 -34.116  1.00  0.00    -0.338 N 
HETATM   24  C   UNK A   0      -6.203   0.571 -33.829  1.00  0.00     0.034 A 
HETATM   25  H   UNK A   0      -6.198  -2.227 -34.653  1.00  0.00     0.167 HD
HETATM   26  C   UNK A   0      -4.314  -2.491 -33.708  1.00  0.00     0.170 A 
HETATM   27  C   UNK A   0      -5.769   1.774 -33.256  1.00  0.00     0.032 A 
BRANCH  26  28
HETATM   28  C   UNK A   0      -4.107  -3.921 -34.050  1.00  0.00     0.422 C 
HETATM   29  F   UNK A   0      -3.455  -4.565 -33.042  1.00  0.00    -0.206 F 
HETATM   30  F   UNK A   0      -5.304  -4.562 -34.176  1.00  0.00    -0.206 F 
ENDBRANCH  26  28
ENDBRANCH   4  18
TORSDOF 7
ENDMDL
MODEL 8
REMARK VINA RESULT:      -7.7      8.138     11.472
REMARK  7 active torsions:
REMARK  status: ('A' for Active; 'I' for Inactive)
REMARK    1  A    between atoms: CG_4  and  CB_5 
REMARK    2  A    between atoms: CB_5  and  CA_6 
REMARK    3  A    between atoms: CA_6  and  N_7 
REMARK    4  A    between atoms: CA_6  and  C_8 
REMARK       I    between atoms: N_7  and  C_14 
REMARK    5  A    between atoms: C_8  and  O_9 
REMARK       I    between atoms: C_14  and  N_15 
REMARK    6  A    between atoms: N_15  and  C_16 
REMARK    7  A    between atoms: C_22  and  C_23 
ROOT
ATOM      1  N   PHE A   1      -2.942   5.408 -30.773  1.00  0.00    -0.336 N 
ATOM      2  H   PHE A   1      -3.454   5.382 -29.906  1.00  0.00     0.164 HD
HETATM    3  C   UNK A   0      -2.799   4.237 -31.482  1.00  0.00     0.321 C 
HETATM    4  N   UNK A   0      -3.713   3.293 -31.082  1.00  0.00    -0.309 N 
HETATM    5  O   UNK A   0      -1.940   4.122 -32.346  1.00  0.00    -0.247 OA
HETATM    6  H   UNK A   0      -4.368   3.585 -30.375  1.00  0.00     0.170 HD
ENDROOT
BRANCH   1   7
ATOM      7  CA  PHE A   1      -2.141   6.607 -31.061  1.00  0.00     0.113 C 
BRANCH   7   8
ATOM      8  CB  PHE A   1      -0.705   6.442 -30.519  1.00  0.00     0.065 C 
BRANCH   8   9
ATOM      9  CG  PHE A   1      -0.345   7.424 -29.424  1.00  0.00    -0.056 A 
ATOM     10  CD1 PHE A   1      -1.284   8.360 -28.971  1.00  0.00     0.007 A 
ATOM     11  CE1 PHE A   1      -0.952   9.266 -27.962  1.00  0.00     0.001 A 
ATOM     12  CZ  PHE A   1       0.320   9.242 -27.393  1.00  0.00     0.000 A 
ATOM     13  CE2 PHE A   1       1.259   8.310 -27.827  1.00  0.00     0.001 A 
ATOM     14  CD2 PHE A   1       0.927   7.402 -28.835  1.00  0.00     0.007 A 
ENDBRANCH   8   9
ENDBRANCH   7   8
BRANCH   7  15
ATOM     15  C   PHE A   1      -2.099   6.902 -32.576  1.00  0.00     0.189 C 
BRANCH  15  16
ATOM     16  O   PHE A   1      -1.876   8.280 -32.859  1.00  0.00    -0.399 OA
ATOM     17  H   PHE A   1      -2.390   8.515 -33.663  1.00  0.00     0.209 HD
ENDBRANCH  15  16
ENDBRANCH   7  15
ENDBRANCH   1   7
BRANCH   4  18
HETATM   18  C   UNK A   0      -3.901   1.996 -31.609  1.00  0.00     0.038 A 
HETATM   19  C   UNK A   0      -4.819   1.696 -32.623  1.00  0.00     0.063 A 
HETATM   20  C   UNK A   0      -4.953   0.364 -33.050  1.00  0.00     0.087 A 
HETATM   21  C   UNK A   0      -4.165  -0.623 -32.471  1.00  0.00     0.063 A 
HETATM   22  N   UNK A   0      -5.790  -0.174 -33.999  1.00  0.00    -0.228 NA
HETATM   23  N   UNK A   0      -4.549  -1.778 -33.102  1.00  0.00    -0.338 N 
HETATM   24  C   UNK A   0      -3.231  -0.364 -31.471  1.00  0.00     0.034 A 
HETATM   25  H   UNK A   0      -4.183  -2.704 -32.929  1.00  0.00     0.167 HD
HETATM   26  C   UNK A   0      -5.534  -1.471 -34.007  1.00  0.00     0.170 A 
HETATM   27  C   UNK A   0      -3.122   0.969 -31.050  1.00  0.00     0.032 A 
BRANCH  26  28
HETATM   28  C   UNK A   0      -6.170  -2.528 -34.833  1.00  0.00     0.422 C 
HETATM   29  F   UNK A   0      -5.269  -3.503 -35.140  1.00  0.00    -0.206 F 
HETATM   30  F   UNK A   0      -7.158  -3.154 -34.132  1.00  0.00    -0.206 F 
ENDBRANCH  26  28
ENDBRANCH   4  18
TORSDOF 7
ENDMDL
MODEL 9
REMARK VINA RESULT:      -7.7      7.601     10.412
REMARK  7 active torsions:
REMARK  status: ('A' for Active; 'I' for Inactive)
REMARK    1  A    between atoms: CG_4  and  CB_5 
REMARK    2  A    between atoms: CB_5  and  CA_6 
REMARK    3  A    between atoms: CA_6  and  N_7 
REMARK    4  A    between atoms: CA_6  and  C_8 
REMARK       I    between atoms: N_7  and  C_14 
REMARK    5  A    between atoms: C_8  and  O_9 
REMARK       I    between atoms: C_14  and  N_15 
REMARK    6  A    between atoms: N_15  and  C_16 
REMARK    7  A    between atoms: C_22  and  C_23 
ROOT
ATOM      1  N   PHE A   1      -1.510   4.850 -30.592  1.00  0.00    -0.336 N 
ATOM      2  H   PHE A   1      -1.631   4.588 -29.626  1.00  0.00     0.164 HD
HETATM    3  C   UNK A   0      -2.184   4.132 -31.553  1.00  0.00     0.321 C 
HETATM    4  N   UNK A   0      -3.220   3.413 -31.009  1.00  0.00    -0.309 N 
HETATM    5  O   UNK A   0      -1.844   4.175 -32.728  1.00  0.00    -0.247 OA
HETATM    6  H   UNK A   0      -3.368   3.533 -30.020  1.00  0.00     0.170 HD
ENDROOT
BRANCH   1   7
ATOM      7  CA  PHE A   1      -0.409   5.766 -30.920  1.00  0.00     0.113 C 
BRANCH   7   8
ATOM      8  CB  PHE A   1      -0.635   7.144 -30.260  1.00  0.00     0.065 C 
BRANCH   8   9
ATOM      9  CG  PHE A   1      -0.060   7.260 -28.865  1.00  0.00    -0.056 A 
ATOM     10  CD1 PHE A   1      -0.620   6.537 -27.803  1.00  0.00     0.007 A 
ATOM     11  CE1 PHE A   1      -0.090   6.644 -26.515  1.00  0.00     0.001 A 
ATOM     12  CZ  PHE A   1       1.007   7.470 -26.278  1.00  0.00     0.000 A 
ATOM     13  CE2 PHE A   1       1.579   8.185 -27.327  1.00  0.00     0.001 A 
ATOM     14  CD2 PHE A   1       1.052   8.077 -28.616  1.00  0.00     0.007 A 
ENDBRANCH   8   9
ENDBRANCH   7   8
BRANCH   7  15
ATOM     15  C   PHE A   1       0.952   5.189 -30.473  1.00  0.00     0.189 C 
BRANCH  15  16
ATOM     16  O   PHE A   1       0.817   3.989 -29.717  1.00  0.00    -0.399 OA
ATOM     17  H   PHE A   1       1.484   4.004 -28.997  1.00  0.00     0.209 HD
ENDBRANCH  15  16
ENDBRANCH   7  15
ENDBRANCH   1   7
BRANCH   4  18
HETATM   18  C   UNK A   0      -4.157   2.602 -31.686  1.00  0.00     0.038 A 
HETATM   19  C   UNK A   0      -5.466   3.005 -31.977  1.00  0.00     0.063 A 
HETATM   20  C   UNK A   0      -6.330   2.105 -32.624  1.00  0.00     0.087 A 
HETATM   21  C   UNK A   0      -5.866   0.843 -32.975  1.00  0.00     0.063 A 
HETATM   22  N   UNK A   0      -7.647   2.259 -32.988  1.00  0.00    -0.228 NA
HETATM   23  N   UNK A   0      -6.943   0.237 -33.567  1.00  0.00    -0.338 N 
HETATM   24  C   UNK A   0      -4.568   0.410 -32.717  1.00  0.00     0.034 A 
HETATM   25  H   UNK A   0      -6.970  -0.699 -33.946  1.00  0.00     0.167 HD
HETATM   26  C   UNK A   0      -7.999   1.115 -33.549  1.00  0.00     0.170 A 
HETATM   27  C   UNK A   0      -3.726   1.317 -32.060  1.00  0.00     0.032 A 
BRANCH  26  28
HETATM   28  C   UNK A   0      -9.322   0.732 -34.104  1.00  0.00     0.422 C 
HETATM   29  F   UNK A   0     -10.104   0.178 -33.137  1.00  0.00    -0.206 F 
HETATM   30  F   UNK A   0      -9.999   1.835 -34.532  1.00  0.00    -0.206 F 
ENDBRANCH  26  28
ENDBRANCH   4  18
TORSDOF 7
ENDMDL
MODEL 10
REMARK VINA RESULT:      -7.6      1.525      2.207
REMARK  7 active torsions:
REMARK  status: ('A' for Active; 'I' for Inactive)
REMARK    1  A    between atoms: CG_4  and  CB_5 
REMARK    2  A    between atoms: CB_5  and  CA_6 
REMARK    3  A    between atoms: CA_6  and  N_7 
REMARK    4  A    between atoms: CA_6  and  C_8 
REMARK       I    between atoms: N_7  and  C_14 
REMARK    5  A    between atoms: C_8  and  O_9 
REMARK       I    between atoms: C_14  and  N_15 
REMARK    6  A    between atoms: N_15  and  C_16 
REMARK    7  A    between atoms: C_22  and  C_23 
ROOT
ATOM      1  N   PHE A   1      -7.917   2.589 -32.553  1.00  0.00    -0.336 N 
ATOM      2  H   PHE A   1      -7.832   3.511 -32.951  1.00  0.00     0.164 HD
HETATM    3  C   UNK A   0      -9.178   2.077 -32.355  1.00  0.00     0.321 C 
HETATM    4  N   UNK A   0     -10.118   2.755 -33.092  1.00  0.00    -0.309 N 
HETATM    5  O   UNK A   0      -9.365   1.132 -31.599  1.00  0.00    -0.247 OA
HETATM    6  H   UNK A   0      -9.766   3.487 -33.688  1.00  0.00     0.170 HD
ENDROOT
BRANCH   1   7
ATOM      7  CA  PHE A   1      -6.719   1.993 -31.946  1.00  0.00     0.113 C 
BRANCH   7   8
ATOM      8  CB  PHE A   1      -5.664   1.674 -33.027  1.00  0.00     0.065 C 
BRANCH   8   9
ATOM      9  CG  PHE A   1      -5.695   0.242 -33.513  1.00  0.00    -0.056 A 
ATOM     10  CD1 PHE A   1      -6.750  -0.214 -34.315  1.00  0.00     0.007 A 
ATOM     11  CE1 PHE A   1      -6.778  -1.537 -34.764  1.00  0.00     0.001 A 
ATOM     12  CZ  PHE A   1      -5.752  -2.414 -34.419  1.00  0.00     0.000 A 
ATOM     13  CE2 PHE A   1      -4.693  -1.970 -33.632  1.00  0.00     0.001 A 
ATOM     14  CD2 PHE A   1      -4.661  -0.647 -33.184  1.00  0.00     0.007 A 
ENDBRANCH   8   9
ENDBRANCH   7   8
BRANCH   7  15
ATOM     15  C   PHE A   1      -6.109   2.926 -30.877  1.00  0.00     0.189 C 
BRANCH  15  16
ATOM     16  O   PHE A   1      -5.817   2.246 -29.659  1.00  0.00    -0.399 OA
ATOM     17  H   PHE A   1      -6.594   2.335 -29.064  1.00  0.00     0.209 HD
ENDBRANCH  15  16
ENDBRANCH   7  15
ENDBRANCH   1   7
BRANCH   4  18
HETATM   18  C   UNK A   0     -11.502   2.488 -33.183  1.00  0.00     0.038 A 
HETATM   19  C   UNK A   0     -12.473   3.162 -32.433  1.00  0.00     0.063 A 
HETATM   20  C   UNK A   0     -13.822   2.793 -32.574  1.00  0.00     0.087 A 
HETATM   21  C   UNK A   0     -14.166   1.782 -33.462  1.00  0.00     0.063 A 
HETATM   22  N   UNK A   0     -14.938   3.283 -31.938  1.00  0.00    -0.228 NA
HETATM   23  N   UNK A   0     -15.527   1.676 -33.348  1.00  0.00    -0.338 N 
HETATM   24  C   UNK A   0     -13.232   1.099 -34.238  1.00  0.00     0.034 A 
HETATM   25  H   UNK A   0     -16.123   1.033 -33.851  1.00  0.00     0.167 HD
HETATM   26  C   UNK A   0     -15.956   2.588 -32.415  1.00  0.00     0.170 A 
HETATM   27  C   UNK A   0     -11.891   1.472 -34.073  1.00  0.00     0.032 A 
BRANCH  26  28
HETATM   28  C   UNK A   0     -17.392   2.695 -32.055  1.00  0.00     0.422 C 
HETATM   29  F   UNK A   0     -17.629   3.849 -31.370  1.00  0.00    -0.206 F 
HETATM   30  F   UNK A   0     -18.163   2.773 -33.176  1.00  0.00    -0.206 F 
ENDBRANCH  26  28
ENDBRANCH   4  18
TORSDOF 7
ENDMDL
