MODEL 1
REMARK VINA RESULT:      -8.2      0.000      0.000
REMARK  5 active torsions:
REMARK  status: ('A' for Active; 'I' for Inactive)
REMARK    1  A    between atoms: C_2  and  C_3 
REMARK    2  A    between atoms: C_3  and  N_4 
REMARK    3  A    between atoms: C_3  and  C_18 
REMARK    4  A    between atoms: N_4  and  C_7 
REMARK    5  A    between atoms: C_7  and  C_8 
ROOT
HETATM    1  N   UNL     1      -5.763   1.893 -33.388  1.00  0.00    -0.056 N 
HETATM    2  H   UNL     1      -5.989   1.770 -32.392  1.00  0.00     0.278 HD
HETATM    3  H   UNL     1      -4.762   1.697 -33.490  1.00  0.00     0.278 HD
ENDROOT
BRANCH   1   4
HETATM    4  C   UNL     1      -6.562   0.871 -34.146  1.00  0.00     0.292 C 
BRANCH   4   5
HETATM    5  C   UNL     1      -5.874  -0.484 -34.129  1.00  0.00    -0.020 A 
HETATM    6  C   UNL     1      -6.394  -1.600 -34.817  1.00  0.00     0.011 A 
HETATM    7  C   UNL     1      -5.741  -2.836 -34.770  1.00  0.00     0.024 A 
HETATM    8  C   UNL     1      -4.566  -2.976 -34.038  1.00  0.00     0.034 A 
HETATM    9  C   UNL     1      -4.035  -1.887 -33.352  1.00  0.00     0.024 A 
HETATM   10 CL   UNL     1      -3.768  -4.496 -33.983  1.00  0.00    -0.084 Cl
HETATM   11  C   UNL     1      -4.683  -0.649 -33.396  1.00  0.00     0.011 A 
ENDBRANCH   4   5
BRANCH   4  12
HETATM   12  C   UNL     1      -7.927   0.645 -33.564  1.00  0.00     0.190 A 
HETATM   13  N   UNL     1      -9.056   0.756 -34.273  1.00  0.00    -0.109 NA
HETATM   14  O   UNL     1     -10.052   0.522 -33.320  1.00  0.00    -0.205 OA
HETATM   15  C   UNL     1      -9.415   0.341 -32.133  1.00  0.00     0.288 A 
HETATM   16  N   UNL     1      -8.107   0.442 -32.210  1.00  0.00    -0.215 NA
ENDBRANCH   4  12
ENDBRANCH   1   4
BRANCH   1  17
HETATM   17  C   UNL     1      -6.050   3.302 -33.753  1.00  0.00     0.272 C 
BRANCH  17  18
HETATM   18  C   UNL     1      -4.794   4.125 -33.711  1.00  0.00    -0.030 A 
HETATM   19  C   UNL     1      -3.945   4.059 -32.595  1.00  0.00     0.048 A 
HETATM   20  C   UNL     1      -2.757   4.789 -32.569  1.00  0.00     0.102 A 
HETATM   21  C   UNL     1      -2.418   5.614 -33.644  1.00  0.00     0.102 A 
HETATM   22  O   UNL     1      -1.978   4.650 -31.452  1.00  0.00    -0.346 OA
HETATM   23  O   UNL     1      -1.288   6.387 -33.668  1.00  0.00    -0.346 OA
HETATM   24  C   UNL     1      -3.243   5.672 -34.763  1.00  0.00     0.040 A 
HETATM   25  C   UNL     1      -0.727   6.534 -32.358  1.00  0.00     0.202 C 
HETATM   26  C   UNL     1      -0.662   5.189 -31.652  1.00  0.00     0.202 C 
HETATM   27  C   UNL     1      -4.426   4.929 -34.801  1.00  0.00     0.012 A 
ENDBRANCH  17  18
ENDBRANCH   1  17
TORSDOF 5
ENDMDL
MODEL 2
REMARK VINA RESULT:      -8.1      0.891      1.846
REMARK  5 active torsions:
REMARK  status: ('A' for Active; 'I' for Inactive)
REMARK    1  A    between atoms: C_2  and  C_3 
REMARK    2  A    between atoms: C_3  and  N_4 
REMARK    3  A    between atoms: C_3  and  C_18 
REMARK    4  A    between atoms: N_4  and  C_7 
REMARK    5  A    between atoms: C_7  and  C_8 
ROOT
HETATM    1  N   UNL     1      -5.566   1.372 -33.323  1.00  0.00    -0.056 N 
HETATM    2  H   UNL     1      -5.670   1.070 -32.346  1.00  0.00     0.278 HD
HETATM    3  H   UNL     1      -4.596   1.178 -33.592  1.00  0.00     0.278 HD
ENDROOT
BRANCH   1   4
HETATM    4  C   UNL     1      -6.500   0.528 -34.142  1.00  0.00     0.292 C 
BRANCH   4   5
HETATM    5  C   UNL     1      -6.028  -0.916 -34.198  1.00  0.00    -0.020 A 
HETATM    6  C   UNL     1      -4.754  -1.308 -33.738  1.00  0.00     0.011 A 
HETATM    7  C   UNL     1      -4.347  -2.644 -33.816  1.00  0.00     0.024 A 
HETATM    8  C   UNL     1      -5.201  -3.603 -34.353  1.00  0.00     0.034 A 
HETATM    9  C   UNL     1      -6.464  -3.237 -34.811  1.00  0.00     0.024 A 
HETATM   10 CL   UNL     1      -4.697  -5.243 -34.446  1.00  0.00    -0.084 Cl
HETATM   11  C   UNL     1      -6.876  -1.903 -34.735  1.00  0.00     0.011 A 
ENDBRANCH   4   5
BRANCH   4  12
HETATM   12  C   UNL     1      -7.892   0.483 -33.582  1.00  0.00     0.190 A 
HETATM   13  N   UNL     1      -8.985   0.748 -34.307  1.00  0.00    -0.109 NA
HETATM   14  O   UNL     1     -10.018   0.643 -33.369  1.00  0.00    -0.205 OA
HETATM   15  C   UNL     1      -9.430   0.370 -32.175  1.00  0.00     0.288 A 
HETATM   16  N   UNL     1      -8.119   0.297 -32.233  1.00  0.00    -0.215 NA
ENDBRANCH   4  12
ENDBRANCH   1   4
BRANCH   1  17
HETATM   17  C   UNL     1      -5.832   2.831 -33.383  1.00  0.00     0.272 C 
BRANCH  17  18
HETATM   18  C   UNL     1      -4.591   3.608 -33.052  1.00  0.00    -0.030 A 
HETATM   19  C   UNL     1      -4.260   4.756 -33.791  1.00  0.00     0.048 A 
HETATM   20  C   UNL     1      -3.130   5.505 -33.462  1.00  0.00     0.102 A 
HETATM   21  C   UNL     1      -2.305   5.102 -32.411  1.00  0.00     0.102 A 
HETATM   22  O   UNL     1      -2.894   6.620 -34.220  1.00  0.00    -0.346 OA
HETATM   23  O   UNL     1      -1.161   5.767 -32.059  1.00  0.00    -0.346 OA
HETATM   24  C   UNL     1      -2.633   3.977 -31.660  1.00  0.00     0.040 A 
HETATM   25  C   UNL     1      -0.732   6.657 -33.097  1.00  0.00     0.202 C 
HETATM   26  C   UNL     1      -1.905   7.471 -33.618  1.00  0.00     0.202 C 
HETATM   27  C   UNL     1      -3.774   3.233 -31.975  1.00  0.00     0.012 A 
ENDBRANCH  17  18
ENDBRANCH   1  17
TORSDOF 5
ENDMDL
MODEL 3
REMARK VINA RESULT:      -7.7      1.813      2.467
REMARK  5 active torsions:
REMARK  status: ('A' for Active; 'I' for Inactive)
REMARK    1  A    between atoms: C_2  and  C_3 
REMARK    2  A    between atoms: C_3  and  N_4 
REMARK    3  A    between atoms: C_3  and  C_18 
REMARK    4  A    between atoms: N_4  and  C_7 
REMARK    5  A    between atoms: C_7  and  C_8 
ROOT
HETATM    1  N   UNL     1      -5.087   3.322 -32.829  1.00  0.00    -0.056 N 
HETATM    2  H   UNL     1      -5.194   3.901 -31.985  1.00  0.00     0.278 HD
HETATM    3  H   UNL     1      -4.439   2.565 -32.587  1.00  0.00     0.278 HD
ENDROOT
BRANCH   1   4
HETATM    4  C   UNL     1      -6.441   2.753 -33.142  1.00  0.00     0.292 C 
BRANCH   4   5
HETATM    5  C   UNL     1      -6.340   1.296 -33.562  1.00  0.00    -0.020 A 
HETATM    6  C   UNL     1      -5.574   0.357 -32.842  1.00  0.00     0.011 A 
HETATM    7  C   UNL     1      -5.492  -0.974 -33.264  1.00  0.00     0.024 A 
HETATM    8  C   UNL     1      -6.171  -1.384 -34.407  1.00  0.00     0.034 A 
HETATM    9  C   UNL     1      -6.935  -0.474 -35.133  1.00  0.00     0.024 A 
HETATM   10 CL   UNL     1      -6.069  -3.020 -34.922  1.00  0.00    -0.084 Cl
HETATM   11  C   UNL     1      -7.019   0.857 -34.715  1.00  0.00     0.011 A 
ENDBRANCH   4   5
BRANCH   4  12
HETATM   12  C   UNL     1      -7.373   2.777 -31.965  1.00  0.00     0.190 A 
HETATM   13  N   UNL     1      -8.665   2.440 -32.043  1.00  0.00    -0.109 NA
HETATM   14  O   UNL     1      -9.130   2.670 -30.745  1.00  0.00    -0.205 OA
HETATM   15  C   UNL     1      -8.078   3.162 -30.039  1.00  0.00     0.288 A 
HETATM   16  N   UNL     1      -6.977   3.287 -30.745  1.00  0.00    -0.215 NA
ENDBRANCH   4  12
ENDBRANCH   1   4
BRANCH   1  17
HETATM   17  C   UNL     1      -4.506   4.172 -33.898  1.00  0.00     0.272 C 
BRANCH  17  18
HETATM   18  C   UNL     1      -3.322   4.936 -33.381  1.00  0.00    -0.030 A 
HETATM   19  C   UNL     1      -2.532   4.401 -32.351  1.00  0.00     0.048 A 
HETATM   20  C   UNL     1      -1.407   5.089 -31.896  1.00  0.00     0.102 A 
HETATM   21  C   UNL     1      -1.076   6.329 -32.443  1.00  0.00     0.102 A 
HETATM   22  O   UNL     1      -0.681   4.485 -30.904  1.00  0.00    -0.346 OA
HETATM   23  O   UNL     1      -0.009   7.075 -32.017  1.00  0.00    -0.346 OA
HETATM   24  C   UNL     1      -1.840   6.860 -33.477  1.00  0.00     0.040 A 
HETATM   25  C   UNL     1       0.467   6.627 -30.742  1.00  0.00     0.202 C 
HETATM   26  C   UNL     1       0.598   5.112 -30.726  1.00  0.00     0.202 C 
HETATM   27  C   UNL     1      -2.959   6.167 -33.949  1.00  0.00     0.012 A 
ENDBRANCH  17  18
ENDBRANCH   1  17
TORSDOF 5
ENDMDL
MODEL 4
REMARK VINA RESULT:      -7.7      2.565      7.071
REMARK  5 active torsions:
REMARK  status: ('A' for Active; 'I' for Inactive)
REMARK    1  A    between atoms: C_2  and  C_3 
REMARK    2  A    between atoms: C_3  and  N_4 
REMARK    3  A    between atoms: C_3  and  C_18 
REMARK    4  A    between atoms: N_4  and  C_7 
REMARK    5  A    between atoms: C_7  and  C_8 
ROOT
HETATM    1  N   UNL     1      -7.114   3.208 -31.714  1.00  0.00    -0.056 N 
HETATM    2  H   UNL     1      -6.948   4.124 -31.278  1.00  0.00     0.278 HD
HETATM    3  H   UNL     1      -7.424   3.389 -32.675  1.00  0.00     0.278 HD
ENDROOT
BRANCH   1   4
HETATM    4  C   UNL     1      -5.796   2.487 -31.732  1.00  0.00     0.292 C 
BRANCH   4   5
HETATM    5  C   UNL     1      -5.881   1.210 -32.551  1.00  0.00    -0.020 A 
HETATM    6  C   UNL     1      -6.300   1.206 -33.897  1.00  0.00     0.011 A 
HETATM    7  C   UNL     1      -6.378   0.009 -34.617  1.00  0.00     0.024 A 
HETATM    8  C   UNL     1      -6.042  -1.195 -34.007  1.00  0.00     0.034 A 
HETATM    9  C   UNL     1      -5.623  -1.214 -32.679  1.00  0.00     0.024 A 
HETATM   10 CL   UNL     1      -6.139  -2.662 -34.896  1.00  0.00    -0.084 Cl
HETATM   11  C   UNL     1      -5.543  -0.020 -31.954  1.00  0.00     0.011 A 
ENDBRANCH   4   5
BRANCH   4  12
HETATM   12  C   UNL     1      -4.694   3.298 -32.349  1.00  0.00     0.190 A 
HETATM   13  N   UNL     1      -4.912   4.380 -33.106  1.00  0.00    -0.109 NA
HETATM   14  O   UNL     1      -3.623   4.756 -33.497  1.00  0.00    -0.205 OA
HETATM   15  C   UNL     1      -2.775   3.835 -32.970  1.00  0.00     0.288 A 
HETATM   16  N   UNL     1      -3.377   2.889 -32.284  1.00  0.00    -0.215 NA
ENDBRANCH   4  12
ENDBRANCH   1   4
BRANCH   1  17
HETATM   17  C   UNL     1      -8.187   2.524 -30.951  1.00  0.00     0.272 C 
BRANCH  17  18
HETATM   18  C   UNL     1      -9.299   2.100 -31.866  1.00  0.00    -0.030 A 
HETATM   19  C   UNL     1     -10.182   3.057 -32.394  1.00  0.00     0.048 A 
HETATM   20  C   UNL     1     -11.191   2.674 -33.277  1.00  0.00     0.102 A 
HETATM   21  C   UNL     1     -11.348   1.331 -33.621  1.00  0.00     0.102 A 
HETATM   22  O   UNL     1     -11.993   3.674 -33.759  1.00  0.00    -0.346 OA
HETATM   23  O   UNL     1     -12.341   0.881 -34.450  1.00  0.00    -0.346 OA
HETATM   24  C   UNL     1     -10.468   0.377 -33.120  1.00  0.00     0.040 A 
HETATM   25  C   UNL     1     -13.379   1.857 -34.602  1.00  0.00     0.202 C 
HETATM   26  C   UNL     1     -12.784   3.229 -34.872  1.00  0.00     0.202 C 
HETATM   27  C   UNL     1      -9.444   0.757 -32.247  1.00  0.00     0.012 A 
ENDBRANCH  17  18
ENDBRANCH   1  17
TORSDOF 5
ENDMDL
MODEL 5
REMARK VINA RESULT:      -7.5      1.961      2.646
REMARK  5 active torsions:
REMARK  status: ('A' for Active; 'I' for Inactive)
REMARK    1  A    between atoms: C_2  and  C_3 
REMARK    2  A    between atoms: C_3  and  N_4 
REMARK    3  A    between atoms: C_3  and  C_18 
REMARK    4  A    between atoms: N_4  and  C_7 
REMARK    5  A    between atoms: C_7  and  C_8 
ROOT
HETATM    1  N   UNL     1      -6.962   0.365 -30.865  1.00  0.00    -0.056 N 
HETATM    2  H   UNL     1      -7.755   0.934 -30.543  1.00  0.00     0.278 HD
HETATM    3  H   UNL     1      -7.229  -0.617 -30.735  1.00  0.00     0.278 HD
ENDROOT
BRANCH   1   4
HETATM    4  C   UNL     1      -6.784   0.653 -32.329  1.00  0.00     0.292 C 
BRANCH   4   5
HETATM    5  C   UNL     1      -6.488  -0.619 -33.106  1.00  0.00    -0.020 A 
HETATM    6  C   UNL     1      -7.506  -1.390 -33.701  1.00  0.00     0.011 A 
HETATM    7  C   UNL     1      -7.199  -2.563 -34.399  1.00  0.00     0.024 A 
HETATM    8  C   UNL     1      -5.877  -2.980 -34.512  1.00  0.00     0.034 A 
HETATM    9  C   UNL     1      -4.855  -2.233 -33.933  1.00  0.00     0.024 A 
HETATM   10 CL   UNL     1      -5.504  -4.421 -35.370  1.00  0.00    -0.084 Cl
HETATM   11  C   UNL     1      -5.157  -1.059 -33.234  1.00  0.00     0.011 A 
ENDBRANCH   4   5
BRANCH   4  12
HETATM   12  C   UNL     1      -8.009   1.246 -32.962  1.00  0.00     0.190 A 
HETATM   13  N   UNL     1      -7.981   1.955 -34.096  1.00  0.00    -0.109 NA
HETATM   14  O   UNL     1      -9.315   2.342 -34.259  1.00  0.00    -0.205 OA
HETATM   15  C   UNL     1      -9.991   1.861 -33.183  1.00  0.00     0.288 A 
HETATM   16  N   UNL     1      -9.235   1.209 -32.328  1.00  0.00    -0.215 NA
ENDBRANCH   4  12
ENDBRANCH   1   4
BRANCH   1  17
HETATM   17  C   UNL     1      -5.787   0.692 -30.019  1.00  0.00     0.272 C 
BRANCH  17  18
HETATM   18  C   UNL     1      -5.261   2.058 -30.350  1.00  0.00    -0.030 A 
HETATM   19  C   UNL     1      -4.031   2.198 -31.013  1.00  0.00     0.048 A 
HETATM   20  C   UNL     1      -3.556   3.463 -31.360  1.00  0.00     0.102 A 
HETATM   21  C   UNL     1      -4.290   4.602 -31.025  1.00  0.00     0.102 A 
HETATM   22  O   UNL     1      -2.359   3.506 -32.023  1.00  0.00    -0.346 OA
HETATM   23  O   UNL     1      -3.866   5.874 -31.300  1.00  0.00    -0.346 OA
HETATM   24  C   UNL     1      -5.519   4.474 -30.386  1.00  0.00     0.040 A 
HETATM   25  C   UNL     1      -2.467   5.904 -31.609  1.00  0.00     0.202 C 
HETATM   26  C   UNL     1      -2.115   4.801 -32.594  1.00  0.00     0.202 C 
HETATM   27  C   UNL     1      -6.008   3.208 -30.051  1.00  0.00     0.012 A 
ENDBRANCH  17  18
ENDBRANCH   1  17
TORSDOF 5
ENDMDL
MODEL 6
REMARK VINA RESULT:      -7.5      3.697      7.282
REMARK  5 active torsions:
REMARK  status: ('A' for Active; 'I' for Inactive)
REMARK    1  A    between atoms: C_2  and  C_3 
REMARK    2  A    between atoms: C_3  and  N_4 
REMARK    3  A    between atoms: C_3  and  C_18 
REMARK    4  A    between atoms: N_4  and  C_7 
REMARK    5  A    between atoms: C_7  and  C_8 
ROOT
HETATM    1  N   UNL     1      -4.870   1.996 -32.971  1.00  0.00    -0.056 N 
HETATM    2  H   UNL     1      -4.525   2.390 -33.857  1.00  0.00     0.278 HD
HETATM    3  H   UNL     1      -4.127   1.390 -32.607  1.00  0.00     0.278 HD
ENDROOT
BRANCH   1   4
HETATM    4  C   UNL     1      -5.089   3.152 -32.037  1.00  0.00     0.292 C 
BRANCH   4   5
HETATM    5  C   UNL     1      -3.880   4.072 -32.011  1.00  0.00    -0.020 A 
HETATM    6  C   UNL     1      -2.777   3.890 -32.870  1.00  0.00     0.011 A 
HETATM    7  C   UNL     1      -1.675   4.749 -32.811  1.00  0.00     0.024 A 
HETATM    8  C   UNL     1      -1.657   5.797 -31.896  1.00  0.00     0.034 A 
HETATM    9  C   UNL     1      -2.736   5.997 -31.039  1.00  0.00     0.024 A 
HETATM   10 CL   UNL     1      -0.302   6.850 -31.827  1.00  0.00    -0.084 Cl
HETATM   11  C   UNL     1      -3.841   5.141 -31.095  1.00  0.00     0.011 A 
ENDBRANCH   4   5
BRANCH   4  12
HETATM   12  C   UNL     1      -6.252   4.013 -32.433  1.00  0.00     0.190 A 
HETATM   13  N   UNL     1      -7.343   4.170 -31.674  1.00  0.00    -0.109 NA
HETATM   14  O   UNL     1      -8.159   4.989 -32.460  1.00  0.00    -0.205 OA
HETATM   15  C   UNL     1      -7.489   5.199 -33.623  1.00  0.00     0.288 A 
HETATM   16  N   UNL     1      -6.325   4.593 -33.683  1.00  0.00    -0.215 NA
ENDBRANCH   4  12
ENDBRANCH   1   4
BRANCH   1  17
HETATM   17  C   UNL     1      -6.085   1.196 -33.267  1.00  0.00     0.272 C 
BRANCH  17  18
HETATM   18  C   UNL     1      -5.716  -0.220 -33.603  1.00  0.00    -0.030 A 
HETATM   19  C   UNL     1      -4.682  -0.865 -32.904  1.00  0.00     0.048 A 
HETATM   20  C   UNL     1      -4.363  -2.193 -33.185  1.00  0.00     0.102 A 
HETATM   21  C   UNL     1      -5.053  -2.883 -34.184  1.00  0.00     0.102 A 
HETATM   22  O   UNL     1      -3.357  -2.750 -32.442  1.00  0.00    -0.346 OA
HETATM   23  O   UNL     1      -4.766  -4.174 -34.537  1.00  0.00    -0.346 OA
HETATM   24  C   UNL     1      -6.091  -2.261 -34.869  1.00  0.00     0.040 A 
HETATM   25  C   UNL     1      -3.480  -4.577 -34.048  1.00  0.00     0.202 C 
HETATM   26  C   UNL     1      -3.316  -4.178 -32.591  1.00  0.00     0.202 C 
HETATM   27  C   UNL     1      -6.427  -0.934 -34.580  1.00  0.00     0.012 A 
ENDBRANCH  17  18
ENDBRANCH   1  17
TORSDOF 5
ENDMDL
MODEL 7
REMARK VINA RESULT:      -7.4      4.930      7.471
REMARK  5 active torsions:
REMARK  status: ('A' for Active; 'I' for Inactive)
REMARK    1  A    between atoms: C_2  and  C_3 
REMARK    2  A    between atoms: C_3  and  N_4 
REMARK    3  A    between atoms: C_3  and  C_18 
REMARK    4  A    between atoms: N_4  and  C_7 
REMARK    5  A    between atoms: C_7  and  C_8 
ROOT
HETATM    1  N   UNL     1      -8.167   1.499 -34.265  1.00  0.00    -0.056 N 
HETATM    2  H   UNL     1      -8.675   0.742 -34.740  1.00  0.00     0.278 HD
HETATM    3  H   UNL     1      -7.455   1.836 -34.922  1.00  0.00     0.278 HD
ENDROOT
BRANCH   1   4
HETATM    4  C   UNL     1      -9.164   2.590 -33.993  1.00  0.00     0.292 C 
BRANCH   4   5
HETATM    5  C   UNL     1     -10.587   2.061 -34.064  1.00  0.00    -0.020 A 
HETATM    6  C   UNL     1     -10.932   0.769 -33.616  1.00  0.00     0.011 A 
HETATM    7  C   UNL     1     -12.250   0.310 -33.707  1.00  0.00     0.024 A 
HETATM    8  C   UNL     1     -13.238   1.129 -34.246  1.00  0.00     0.034 A 
HETATM    9  C   UNL     1     -12.919   2.409 -34.693  1.00  0.00     0.024 A 
HETATM   10 CL   UNL     1     -14.855   0.561 -34.356  1.00  0.00    -0.084 Cl
HETATM   11  C   UNL     1     -11.603   2.873 -34.603  1.00  0.00     0.011 A 
ENDBRANCH   4   5
BRANCH   4  12
HETATM   12  C   UNL     1      -9.016   3.191 -32.626  1.00  0.00     0.190 A 
HETATM   13  N   UNL     1      -8.145   4.165 -32.341  1.00  0.00    -0.109 NA
HETATM   14  O   UNL     1      -8.321   4.353 -30.967  1.00  0.00    -0.205 OA
HETATM   15  C   UNL     1      -9.246   3.442 -30.567  1.00  0.00     0.288 A 
HETATM   16  N   UNL     1      -9.685   2.671 -31.536  1.00  0.00    -0.215 NA
ENDBRANCH   4  12
ENDBRANCH   1   4
BRANCH   1  17
HETATM   17  C   UNL     1      -7.520   0.932 -33.056  1.00  0.00     0.272 C 
BRANCH  17  18
HETATM   18  C   UNL     1      -6.671  -0.252 -33.417  1.00  0.00    -0.030 A 
HETATM   19  C   UNL     1      -7.269  -1.427 -33.902  1.00  0.00     0.048 A 
HETATM   20  C   UNL     1      -6.481  -2.515 -34.278  1.00  0.00     0.102 A 
HETATM   21  C   UNL     1      -5.093  -2.453 -34.147  1.00  0.00     0.102 A 
HETATM   22  O   UNL     1      -7.144  -3.612 -34.760  1.00  0.00    -0.346 OA
HETATM   23  O   UNL     1      -4.264  -3.497 -34.460  1.00  0.00    -0.346 OA
HETATM   24  C   UNL     1      -4.489  -1.288 -33.686  1.00  0.00     0.040 A 
HETATM   25  C   UNL     1      -4.989  -4.729 -34.563  1.00  0.00     0.202 C 
HETATM   26  C   UNL     1      -6.248  -4.538 -35.393  1.00  0.00     0.202 C 
HETATM   27  C   UNL     1      -5.272  -0.188 -33.324  1.00  0.00     0.012 A 
ENDBRANCH  17  18
ENDBRANCH   1  17
TORSDOF 5
ENDMDL
MODEL 8
REMARK VINA RESULT:      -7.4      1.706      2.274
REMARK  5 active torsions:
REMARK  status: ('A' for Active; 'I' for Inactive)
REMARK    1  A    between atoms: C_2  and  C_3 
REMARK    2  A    between atoms: C_3  and  N_4 
REMARK    3  A    between atoms: C_3  and  C_18 
REMARK    4  A    between atoms: N_4  and  C_7 
REMARK    5  A    between atoms: C_7  and  C_8 
ROOT
HETATM    1  N   UNL     1      -7.740   1.537 -31.134  1.00  0.00    -0.056 N 
HETATM    2  H   UNL     1      -8.633   1.193 -30.756  1.00  0.00     0.278 HD
HETATM    3  H   UNL     1      -7.008   0.913 -30.779  1.00  0.00     0.278 HD
ENDROOT
BRANCH   1   4
HETATM    4  C   UNL     1      -7.827   1.421 -32.629  1.00  0.00     0.292 C 
BRANCH   4   5
HETATM    5  C   UNL     1      -6.962   0.280 -33.141  1.00  0.00    -0.020 A 
HETATM    6  C   UNL     1      -7.152  -0.294 -34.415  1.00  0.00     0.011 A 
HETATM    7  C   UNL     1      -6.346  -1.351 -34.849  1.00  0.00     0.024 A 
HETATM    8  C   UNL     1      -5.345  -1.849 -34.021  1.00  0.00     0.034 A 
HETATM    9  C   UNL     1      -5.139  -1.296 -32.760  1.00  0.00     0.024 A 
HETATM   10 CL   UNL     1      -4.357  -3.148 -34.559  1.00  0.00    -0.084 Cl
HETATM   11  C   UNL     1      -5.942  -0.239 -32.321  1.00  0.00     0.011 A 
ENDBRANCH   4   5
BRANCH   4  12
HETATM   12  C   UNL     1      -9.218   1.132 -33.115  1.00  0.00     0.190 A 
HETATM   13  N   UNL     1      -9.868   1.909 -33.988  1.00  0.00    -0.109 NA
HETATM   14  O   UNL     1     -11.118   1.291 -34.091  1.00  0.00    -0.205 OA
HETATM   15  C   UNL     1     -11.098   0.236 -33.234  1.00  0.00     0.288 A 
HETATM   16  N   UNL     1      -9.969   0.107 -32.575  1.00  0.00    -0.215 NA
ENDBRANCH   4  12
ENDBRANCH   1   4
BRANCH   1  17
HETATM   17  C   UNL     1      -7.528   2.916 -30.628  1.00  0.00     0.272 C 
BRANCH  17  18
HETATM   18  C   UNL     1      -6.643   3.691 -31.560  1.00  0.00    -0.030 A 
HETATM   19  C   UNL     1      -5.254   3.480 -31.551  1.00  0.00     0.048 A 
HETATM   20  C   UNL     1      -4.431   4.168 -32.443  1.00  0.00     0.102 A 
HETATM   21  C   UNL     1      -4.981   5.092 -33.333  1.00  0.00     0.102 A 
HETATM   22  O   UNL     1      -3.093   3.887 -32.381  1.00  0.00    -0.346 OA
HETATM   23  O   UNL     1      -4.229   5.829 -34.208  1.00  0.00    -0.346 OA
HETATM   24  C   UNL     1      -6.357   5.294 -33.364  1.00  0.00     0.040 A 
HETATM   25  C   UNL     1      -2.843   5.818 -33.844  1.00  0.00     0.202 C 
HETATM   26  C   UNL     1      -2.388   4.404 -33.521  1.00  0.00     0.202 C 
HETATM   27  C   UNL     1      -7.189   4.595 -32.484  1.00  0.00     0.012 A 
ENDBRANCH  17  18
ENDBRANCH   1  17
TORSDOF 5
ENDMDL
MODEL 9
REMARK VINA RESULT:      -7.3      3.270      7.403
REMARK  5 active torsions:
REMARK  status: ('A' for Active; 'I' for Inactive)
REMARK    1  A    between atoms: C_2  and  C_3 
REMARK    2  A    between atoms: C_3  and  N_4 
REMARK    3  A    between atoms: C_3  and  C_18 
REMARK    4  A    between atoms: N_4  and  C_7 
REMARK    5  A    between atoms: C_7  and  C_8 
ROOT
HETATM    1  N   UNL     1      -3.949   0.374 -31.119  1.00  0.00    -0.056 N 
HETATM    2  H   UNL     1      -3.670   0.893 -30.276  1.00  0.00     0.278 HD
HETATM    3  H   UNL     1      -4.769  -0.188 -30.862  1.00  0.00     0.278 HD
ENDROOT
BRANCH   1   4
HETATM    4  C   UNL     1      -4.334   1.393 -32.152  1.00  0.00     0.292 C 
BRANCH   4   5
HETATM    5  C   UNL     1      -5.826   1.347 -32.439  1.00  0.00    -0.020 A 
HETATM    6  C   UNL     1      -6.727   0.634 -31.622  1.00  0.00     0.011 A 
HETATM    7  C   UNL     1      -8.093   0.602 -31.923  1.00  0.00     0.024 A 
HETATM    8  C   UNL     1      -8.576   1.278 -33.039  1.00  0.00     0.034 A 
HETATM    9  C   UNL     1      -7.704   1.990 -33.858  1.00  0.00     0.024 A 
HETATM   10 CL   UNL     1     -10.254   1.237 -33.404  1.00  0.00    -0.084 Cl
HETATM   11  C   UNL     1      -6.338   2.025 -33.562  1.00  0.00     0.011 A 
ENDBRANCH   4   5
BRANCH   4  12
HETATM   12  C   UNL     1      -4.042   2.802 -31.722  1.00  0.00     0.190 A 
HETATM   13  N   UNL     1      -4.722   3.432 -30.758  1.00  0.00    -0.109 NA
HETATM   14  O   UNL     1      -4.150   4.708 -30.751  1.00  0.00    -0.205 OA
HETATM   15  C   UNL     1      -3.220   4.719 -31.741  1.00  0.00     0.288 A 
HETATM   16  N   UNL     1      -3.132   3.586 -32.401  1.00  0.00    -0.215 NA
ENDBRANCH   4  12
ENDBRANCH   1   4
BRANCH   1  17
HETATM   17  C   UNL     1      -2.823  -0.512 -31.507  1.00  0.00     0.272 C 
BRANCH  17  18
HETATM   18  C   UNL     1      -3.331  -1.730 -32.222  1.00  0.00    -0.030 A 
HETATM   19  C   UNL     1      -4.259  -1.599 -33.267  1.00  0.00     0.048 A 
HETATM   20  C   UNL     1      -4.703  -2.724 -33.962  1.00  0.00     0.102 A 
HETATM   21  C   UNL     1      -4.246  -3.993 -33.603  1.00  0.00     0.102 A 
HETATM   22  O   UNL     1      -5.591  -2.503 -34.980  1.00  0.00    -0.346 OA
HETATM   23  O   UNL     1      -4.668  -5.143 -34.216  1.00  0.00    -0.346 OA
HETATM   24  C   UNL     1      -3.311  -4.134 -32.582  1.00  0.00     0.040 A 
HETATM   25  C   UNL     1      -5.867  -4.923 -34.969  1.00  0.00     0.202 C 
HETATM   26  C   UNL     1      -5.744  -3.664 -35.811  1.00  0.00     0.202 C 
HETATM   27  C   UNL     1      -2.851  -3.007 -31.893  1.00  0.00     0.012 A 
ENDBRANCH  17  18
ENDBRANCH   1  17
TORSDOF 5
ENDMDL
MODEL 10
REMARK VINA RESULT:      -7.3      3.420      6.360
REMARK  5 active torsions:
REMARK  status: ('A' for Active; 'I' for Inactive)
REMARK    1  A    between atoms: C_2  and  C_3 
REMARK    2  A    between atoms: C_3  and  N_4 
REMARK    3  A    between atoms: C_3  and  C_18 
REMARK    4  A    between atoms: N_4  and  C_7 
REMARK    5  A    between atoms: C_7  and  C_8 
ROOT
HETATM    1  N   UNL     1      -8.613   0.618 -34.260  1.00  0.00    -0.056 N 
HETATM    2  H   UNL     1      -8.415   1.476 -34.792  1.00  0.00     0.278 HD
HETATM    3  H   UNL     1      -8.500  -0.166 -34.911  1.00  0.00     0.278 HD
ENDROOT
BRANCH   1   4
HETATM    4  C   UNL     1      -7.579   0.531 -33.174  1.00  0.00     0.292 C 
BRANCH   4   5
HETATM    5  C   UNL     1      -6.601  -0.602 -33.437  1.00  0.00    -0.020 A 
HETATM    6  C   UNL     1      -5.368  -0.704 -32.762  1.00  0.00     0.011 A 
HETATM    7  C   UNL     1      -4.486  -1.754 -33.038  1.00  0.00     0.024 A 
HETATM    8  C   UNL     1      -4.821  -2.712 -33.989  1.00  0.00     0.034 A 
HETATM    9  C   UNL     1      -6.035  -2.632 -34.667  1.00  0.00     0.024 A 
HETATM   10 CL   UNL     1      -3.735  -4.001 -34.326  1.00  0.00    -0.084 Cl
HETATM   11  C   UNL     1      -6.920  -1.585 -34.394  1.00  0.00     0.011 A 
ENDBRANCH   4   5
BRANCH   4  12
HETATM   12  C   UNL     1      -6.745   1.774 -33.058  1.00  0.00     0.190 A 
HETATM   13  N   UNL     1      -6.495   2.387 -31.895  1.00  0.00    -0.109 NA
HETATM   14  O   UNL     1      -5.748   3.504 -32.281  1.00  0.00    -0.205 OA
HETATM   15  C   UNL     1      -5.668   3.465 -33.637  1.00  0.00     0.288 A 
HETATM   16  N   UNL     1      -6.294   2.444 -34.178  1.00  0.00    -0.215 NA
ENDBRANCH   4  12
ENDBRANCH   1   4
BRANCH   1  17
HETATM   17  C   UNL     1     -10.015   0.688 -33.780  1.00  0.00     0.272 C 
BRANCH  17  18
HETATM   18  C   UNL     1     -10.697   1.914 -34.314  1.00  0.00    -0.030 A 
HETATM   19  C   UNL     1     -10.047   3.158 -34.268  1.00  0.00     0.048 A 
HETATM   20  C   UNL     1     -10.659   4.293 -34.800  1.00  0.00     0.102 A 
HETATM   21  C   UNL     1     -11.935   4.204 -35.358  1.00  0.00     0.102 A 
HETATM   22  O   UNL     1      -9.947   5.460 -34.733  1.00  0.00    -0.346 OA
HETATM   23  O   UNL     1     -12.610   5.284 -35.863  1.00  0.00    -0.346 OA
HETATM   24  C   UNL     1     -12.580   2.973 -35.427  1.00  0.00     0.040 A 
HETATM   25  C   UNL     1     -12.032   6.517 -35.416  1.00  0.00     0.202 C 
HETATM   26  C   UNL     1     -10.520   6.481 -35.565  1.00  0.00     0.202 C 
HETATM   27  C   UNL     1     -11.964   1.829 -34.910  1.00  0.00     0.012 A 
ENDBRANCH  17  18
ENDBRANCH   1  17
TORSDOF 5
ENDMDL
