MODEL 1
REMARK VINA RESULT:      -9.8      0.000      0.000
REMARK  4 active torsions:
REMARK  status: ('A' for Active; 'I' for Inactive)
REMARK    1  A    between atoms: C_7  and  C_8 
REMARK    2  A    between atoms: N_9  and  C_10 
REMARK    3  A    between atoms: C_10  and  C_11 
REMARK       I    between atoms: C_11  and  N_12 
REMARK    4  A    between atoms: N_12  and  C_13 
ROOT
HETATM    1  C   UNL     1      -5.433   1.490 -32.934  1.00  0.00     0.158 C 
HETATM    2  N   UNL     1      -4.333   1.438 -31.985  1.00  0.00    -0.326 N 
HETATM    3  C   UNL     1      -3.607   0.271 -32.092  1.00  0.00     0.255 C 
HETATM    4  O   UNL     1      -2.539   0.016 -31.569  1.00  0.00    -0.267 OA
HETATM    5  C   UNL     1      -4.347  -0.610 -33.006  1.00  0.00     0.040 A 
HETATM    6  C   UNL     1      -5.454   0.093 -33.488  1.00  0.00    -0.015 A 
HETATM    7  C   UNL     1      -4.073  -1.917 -33.362  1.00  0.00     0.017 A 
HETATM    8  C   UNL     1      -4.960  -2.541 -34.238  1.00  0.00     0.001 A 
HETATM    9  C   UNL     1      -6.080  -1.850 -34.736  1.00  0.00     0.001 A 
HETATM   10  C   UNL     1      -6.329  -0.522 -34.369  1.00  0.00     0.011 A 
ENDROOT
BRANCH   1  11
HETATM   11  C   UNL     1      -6.764   1.755 -32.299  1.00  0.00     0.004 A 
HETATM   12  C   UNL     1      -7.260   1.090 -31.179  1.00  0.00     0.015 A 
HETATM   13  C   UNL     1      -6.660   0.023 -30.333  1.00  0.00     0.069 C 
HETATM   14  N   UNL     1      -8.515   1.573 -30.919  1.00  0.00    -0.359 N 
HETATM   15  H   UNL     1      -9.116   1.261 -30.169  1.00  0.00     0.166 HD
HETATM   16  C   UNL     1      -8.858   2.545 -31.824  1.00  0.00     0.043 A 
HETATM   17  C   UNL     1      -7.782   2.695 -32.698  1.00  0.00     0.001 A 
HETATM   18  C   UNL     1     -10.039   3.291 -31.929  1.00  0.00     0.030 A 
HETATM   19  C   UNL     1      -7.898   3.655 -33.728  1.00  0.00     0.014 A 
HETATM   20  C   UNL     1      -9.072   4.409 -33.850  1.00  0.00     0.001 A 
HETATM   21  C   UNL     1     -10.127   4.227 -32.963  1.00  0.00     0.002 A 
ENDBRANCH   1  11
BRANCH   2  22
HETATM   22  C   UNL     1      -3.939   2.577 -31.173  1.00  0.00     0.229 C 
BRANCH  22  23
HETATM   23  C   UNL     1      -2.919   3.504 -31.834  1.00  0.00     0.235 C 
HETATM   24  N   UNL     1      -2.337   4.433 -30.990  1.00  0.00    -0.355 N 
HETATM   25  H   UNL     1      -2.758   4.531 -30.067  1.00  0.00     0.162 HD
HETATM   26  O   UNL     1      -2.738   3.498 -33.050  1.00  0.00    -0.272 OA
BRANCH  24  27
HETATM   27  C   UNL     1      -1.571   5.555 -31.522  1.00  0.00     0.084 C 
HETATM   28  C   UNL     1      -1.886   6.849 -30.757  1.00  0.00     0.025 C 
HETATM   29  C   UNL     1      -1.246   6.888 -29.370  1.00  0.00     0.002 C 
HETATM   30  C   UNL     1       0.256   6.635 -29.441  1.00  0.00     0.000 C 
HETATM   31  C   UNL     1       0.564   5.314 -30.139  1.00  0.00     0.002 C 
HETATM   32  C   UNL     1      -0.069   5.250 -31.526  1.00  0.00     0.025 C 
ENDBRANCH  24  27
ENDBRANCH  22  23
ENDBRANCH   2  22
TORSDOF 4
ENDMDL
MODEL 2
REMARK VINA RESULT:      -9.4      3.480      7.943
REMARK  4 active torsions:
REMARK  status: ('A' for Active; 'I' for Inactive)
REMARK    1  A    between atoms: C_7  and  C_8 
REMARK    2  A    between atoms: N_9  and  C_10 
REMARK    3  A    between atoms: C_10  and  C_11 
REMARK       I    between atoms: C_11  and  N_12 
REMARK    4  A    between atoms: N_12  and  C_13 
ROOT
HETATM    1  C   UNL     1      -7.271   2.339 -33.316  1.00  0.00     0.158 C 
HETATM    2  N   UNL     1      -7.901   2.427 -32.009  1.00  0.00    -0.326 N 
HETATM    3  C   UNL     1      -7.664   3.639 -31.397  1.00  0.00     0.255 C 
HETATM    4  O   UNL     1      -8.196   4.076 -30.394  1.00  0.00    -0.267 OA
HETATM    5  C   UNL     1      -6.669   4.344 -32.216  1.00  0.00     0.040 A 
HETATM    6  C   UNL     1      -6.402   3.564 -33.344  1.00  0.00    -0.015 A 
HETATM    7  C   UNL     1      -6.046   5.553 -31.973  1.00  0.00     0.017 A 
HETATM    8  C   UNL     1      -5.108   5.990 -32.910  1.00  0.00     0.001 A 
HETATM    9  C   UNL     1      -4.827   5.220 -34.053  1.00  0.00     0.001 A 
HETATM   10  C   UNL     1      -5.480   4.003 -34.282  1.00  0.00     0.011 A 
ENDROOT
BRANCH   1  11
HETATM   11  C   UNL     1      -6.386   1.141 -33.479  1.00  0.00     0.004 A 
HETATM   12  C   UNL     1      -6.593   0.116 -34.400  1.00  0.00     0.015 A 
HETATM   13  C   UNL     1      -7.652  -0.072 -35.428  1.00  0.00     0.069 C 
HETATM   14  N   UNL     1      -5.606  -0.818 -34.226  1.00  0.00    -0.359 N 
HETATM   15  H   UNL     1      -5.517  -1.676 -34.752  1.00  0.00     0.166 HD
HETATM   16  C   UNL     1      -4.746  -0.436 -33.228  1.00  0.00     0.043 A 
HETATM   17  C   UNL     1      -5.196   0.792 -32.744  1.00  0.00     0.001 A 
HETATM   18  C   UNL     1      -3.615  -1.090 -32.724  1.00  0.00     0.030 A 
HETATM   19  C   UNL     1      -4.461   1.398 -31.701  1.00  0.00     0.014 A 
HETATM   20  C   UNL     1      -3.328   0.758 -31.182  1.00  0.00     0.001 A 
HETATM   21  C   UNL     1      -2.914  -0.470 -31.688  1.00  0.00     0.002 A 
ENDBRANCH   1  11
BRANCH   2  22
HETATM   22  C   UNL     1      -8.832   1.427 -31.514  1.00  0.00     0.229 C 
BRANCH  22  23
HETATM   23  C   UNL     1      -9.945   1.057 -32.494  1.00  0.00     0.235 C 
HETATM   24  N   UNL     1     -10.805   2.089 -32.821  1.00  0.00    -0.355 N 
HETATM   25  H   UNL     1     -10.730   2.935 -32.259  1.00  0.00     0.162 HD
HETATM   26  O   UNL     1     -10.126  -0.105 -32.852  1.00  0.00    -0.272 OA
BRANCH  24  27
HETATM   27  C   UNL     1     -12.065   1.827 -33.508  1.00  0.00     0.084 C 
HETATM   28  C   UNL     1     -13.167   2.781 -33.021  1.00  0.00     0.025 C 
HETATM   29  C   UNL     1     -13.005   4.200 -33.564  1.00  0.00     0.002 C 
HETATM   30  C   UNL     1     -12.894   4.207 -35.085  1.00  0.00     0.000 C 
HETATM   31  C   UNL     1     -11.754   3.314 -35.562  1.00  0.00     0.002 C 
HETATM   32  C   UNL     1     -11.892   1.890 -35.029  1.00  0.00     0.025 C 
ENDBRANCH  24  27
ENDBRANCH  22  23
ENDBRANCH   2  22
TORSDOF 4
ENDMDL
MODEL 3
REMARK VINA RESULT:      -9.2      2.387      4.300
REMARK  4 active torsions:
REMARK  status: ('A' for Active; 'I' for Inactive)
REMARK    1  A    between atoms: C_7  and  C_8 
REMARK    2  A    between atoms: N_9  and  C_10 
REMARK    3  A    between atoms: C_10  and  C_11 
REMARK       I    between atoms: C_11  and  N_12 
REMARK    4  A    between atoms: N_12  and  C_13 
ROOT
HETATM    1  C   UNL     1      -4.269   2.726 -31.672  1.00  0.00     0.158 C 
HETATM    2  N   UNL     1      -3.927   3.775 -32.618  1.00  0.00    -0.326 N 
HETATM    3  C   UNL     1      -4.691   4.909 -32.436  1.00  0.00     0.255 C 
HETATM    4  O   UNL     1      -4.521   6.001 -32.944  1.00  0.00    -0.267 OA
HETATM    5  C   UNL     1      -5.739   4.568 -31.465  1.00  0.00     0.040 A 
HETATM    6  C   UNL     1      -5.518   3.260 -31.028  1.00  0.00    -0.015 A 
HETATM    7  C   UNL     1      -6.797   5.340 -31.026  1.00  0.00     0.017 A 
HETATM    8  C   UNL     1      -7.674   4.760 -30.108  1.00  0.00     0.001 A 
HETATM    9  C   UNL     1      -7.469   3.445 -29.655  1.00  0.00     0.001 A 
HETATM   10  C   UNL     1      -6.381   2.688 -30.107  1.00  0.00     0.011 A 
ENDROOT
BRANCH   1  11
HETATM   11  C   UNL     1      -4.607   1.418 -32.319  1.00  0.00     0.004 A 
HETATM   12  C   UNL     1      -3.942   0.216 -32.083  1.00  0.00     0.015 A 
HETATM   13  C   UNL     1      -2.808  -0.109 -31.176  1.00  0.00     0.069 C 
HETATM   14  N   UNL     1      -4.504  -0.745 -32.882  1.00  0.00    -0.359 N 
HETATM   15  H   UNL     1      -4.210  -1.711 -32.926  1.00  0.00     0.166 HD
HETATM   16  C   UNL     1      -5.527  -0.218 -33.628  1.00  0.00     0.043 A 
HETATM   17  C   UNL     1      -5.629   1.132 -33.295  1.00  0.00     0.001 A 
HETATM   18  C   UNL     1      -6.358  -0.840 -34.569  1.00  0.00     0.030 A 
HETATM   19  C   UNL     1      -6.628   1.895 -33.938  1.00  0.00     0.014 A 
HETATM   20  C   UNL     1      -7.467   1.292 -34.884  1.00  0.00     0.001 A 
HETATM   21  C   UNL     1      -7.331  -0.057 -35.194  1.00  0.00     0.002 A 
ENDBRANCH   1  11
BRANCH   2  22
HETATM   22  C   UNL     1      -2.778   3.694 -33.504  1.00  0.00     0.229 C 
BRANCH  22  23
HETATM   23  C   UNL     1      -1.813   4.875 -33.401  1.00  0.00     0.235 C 
HETATM   24  N   UNL     1      -1.386   5.173 -32.120  1.00  0.00    -0.355 N 
HETATM   25  H   UNL     1      -1.875   4.704 -31.360  1.00  0.00     0.162 HD
HETATM   26  O   UNL     1      -1.552   5.578 -34.375  1.00  0.00    -0.272 OA
BRANCH  24  27
HETATM   27  C   UNL     1      -0.701   6.428 -31.829  1.00  0.00     0.084 C 
HETATM   28  C   UNL     1      -1.663   7.448 -31.201  1.00  0.00     0.025 C 
HETATM   29  C   UNL     1      -1.994   7.129 -29.743  1.00  0.00     0.002 C 
HETATM   30  C   UNL     1      -0.729   6.966 -28.906  1.00  0.00     0.000 C 
HETATM   31  C   UNL     1       0.192   5.904 -29.494  1.00  0.00     0.002 C 
HETATM   32  C   UNL     1       0.534   6.198 -30.952  1.00  0.00     0.025 C 
ENDBRANCH  24  27
ENDBRANCH  22  23
ENDBRANCH   2  22
TORSDOF 4
ENDMDL
MODEL 4
REMARK VINA RESULT:      -9.1      1.695      2.236
REMARK  4 active torsions:
REMARK  status: ('A' for Active; 'I' for Inactive)
REMARK    1  A    between atoms: C_7  and  C_8 
REMARK    2  A    between atoms: N_9  and  C_10 
REMARK    3  A    between atoms: C_10  and  C_11 
REMARK       I    between atoms: C_11  and  N_12 
REMARK    4  A    between atoms: N_12  and  C_13 
ROOT
HETATM    1  C   UNL     1      -5.425   1.294 -33.050  1.00  0.00     0.158 C 
HETATM    2  N   UNL     1      -4.271   1.107 -32.186  1.00  0.00    -0.326 N 
HETATM    3  C   UNL     1      -3.669  -0.118 -32.382  1.00  0.00     0.255 C 
HETATM    4  O   UNL     1      -2.595  -0.489 -31.946  1.00  0.00    -0.267 OA
HETATM    5  C   UNL     1      -4.550  -0.893 -33.265  1.00  0.00     0.040 A 
HETATM    6  C   UNL     1      -5.617  -0.073 -33.642  1.00  0.00    -0.015 A 
HETATM    7  C   UNL     1      -4.427  -2.205 -33.678  1.00  0.00     0.017 A 
HETATM    8  C   UNL     1      -5.430  -2.713 -34.505  1.00  0.00     0.001 A 
HETATM    9  C   UNL     1      -6.511  -1.904 -34.898  1.00  0.00     0.001 A 
HETATM   10  C   UNL     1      -6.607  -0.573 -34.474  1.00  0.00     0.011 A 
ENDROOT
BRANCH   1  11
HETATM   11  C   UNL     1      -6.677   1.657 -32.311  1.00  0.00     0.004 A 
HETATM   12  C   UNL     1      -7.103   1.064 -31.125  1.00  0.00     0.015 A 
HETATM   13  C   UNL     1      -6.486  -0.003 -30.291  1.00  0.00     0.069 C 
HETATM   14  N   UNL     1      -8.303   1.626 -30.775  1.00  0.00    -0.359 N 
HETATM   15  H   UNL     1      -8.849   1.376 -29.962  1.00  0.00     0.166 HD
HETATM   16  C   UNL     1      -8.675   2.582 -31.686  1.00  0.00     0.043 A 
HETATM   17  C   UNL     1      -7.676   2.638 -32.657  1.00  0.00     0.001 A 
HETATM   18  C   UNL     1      -9.819   3.388 -31.717  1.00  0.00     0.030 A 
HETATM   19  C   UNL     1      -7.835   3.563 -33.712  1.00  0.00     0.014 A 
HETATM   20  C   UNL     1      -8.973   4.377 -33.762  1.00  0.00     0.001 A 
HETATM   21  C   UNL     1      -9.952   4.288 -32.777  1.00  0.00     0.002 A 
ENDBRANCH   1  11
BRANCH   2  22
HETATM   22  C   UNL     1      -3.714   2.173 -31.372  1.00  0.00     0.229 C 
BRANCH  22  23
HETATM   23  C   UNL     1      -3.430   3.469 -32.132  1.00  0.00     0.235 C 
HETATM   24  N   UNL     1      -4.270   4.524 -31.827  1.00  0.00    -0.355 N 
HETATM   25  H   UNL     1      -5.092   4.301 -31.268  1.00  0.00     0.162 HD
HETATM   26  O   UNL     1      -2.599   3.513 -33.037  1.00  0.00    -0.272 OA
BRANCH  24  27
HETATM   27  C   UNL     1      -4.307   5.720 -32.662  1.00  0.00     0.084 C 
HETATM   28  C   UNL     1      -5.754   6.154 -32.939  1.00  0.00     0.025 C 
HETATM   29  C   UNL     1      -6.419   6.809 -31.729  1.00  0.00     0.002 C 
HETATM   30  C   UNL     1      -5.584   7.966 -31.191  1.00  0.00     0.000 C 
HETATM   31  C   UNL     1      -4.167   7.517 -30.851  1.00  0.00     0.002 C 
HETATM   32  C   UNL     1      -3.483   6.855 -32.044  1.00  0.00     0.025 C 
ENDBRANCH  24  27
ENDBRANCH  22  23
ENDBRANCH   2  22
TORSDOF 4
ENDMDL
MODEL 5
REMARK VINA RESULT:      -9.0      1.825      4.473
REMARK  4 active torsions:
REMARK  status: ('A' for Active; 'I' for Inactive)
REMARK    1  A    between atoms: C_7  and  C_8 
REMARK    2  A    between atoms: N_9  and  C_10 
REMARK    3  A    between atoms: C_10  and  C_11 
REMARK       I    between atoms: C_11  and  N_12 
REMARK    4  A    between atoms: N_12  and  C_13 
ROOT
HETATM    1  C   UNL     1      -6.119   3.090 -31.902  1.00  0.00     0.158 C 
HETATM    2  N   UNL     1      -5.243   3.677 -32.903  1.00  0.00    -0.326 N 
HETATM    3  C   UNL     1      -5.854   4.703 -33.592  1.00  0.00     0.255 C 
HETATM    4  O   UNL     1      -5.330   5.494 -34.352  1.00  0.00    -0.267 OA
HETATM    5  C   UNL     1      -7.269   4.698 -33.200  1.00  0.00     0.040 A 
HETATM    6  C   UNL     1      -7.447   3.719 -32.219  1.00  0.00    -0.015 A 
HETATM    7  C   UNL     1      -8.305   5.476 -33.683  1.00  0.00     0.017 A 
HETATM    8  C   UNL     1      -9.576   5.250 -33.153  1.00  0.00     0.001 A 
HETATM    9  C   UNL     1      -9.775   4.270 -32.164  1.00  0.00     0.001 A 
HETATM   10  C   UNL     1      -8.706   3.503 -31.683  1.00  0.00     0.011 A 
ENDROOT
BRANCH   1  11
HETATM   11  C   UNL     1      -6.270   1.605 -32.031  1.00  0.00     0.004 A 
HETATM   12  C   UNL     1      -6.100   0.693 -30.991  1.00  0.00     0.015 A 
HETATM   13  C   UNL     1      -5.768   0.902 -29.556  1.00  0.00     0.069 C 
HETATM   14  N   UNL     1      -6.279  -0.568 -31.497  1.00  0.00    -0.359 N 
HETATM   15  H   UNL     1      -6.202  -1.425 -30.968  1.00  0.00     0.166 HD
HETATM   16  C   UNL     1      -6.575  -0.516 -32.836  1.00  0.00     0.043 A 
HETATM   17  C   UNL     1      -6.590   0.829 -33.204  1.00  0.00     0.001 A 
HETATM   18  C   UNL     1      -6.825  -1.559 -33.736  1.00  0.00     0.030 A 
HETATM   19  C   UNL     1      -6.880   1.140 -34.551  1.00  0.00     0.014 A 
HETATM   20  C   UNL     1      -7.130   0.110 -35.467  1.00  0.00     0.001 A 
HETATM   21  C   UNL     1      -7.100  -1.220 -35.063  1.00  0.00     0.002 A 
ENDBRANCH   1  11
BRANCH   2  22
HETATM   22  C   UNL     1      -3.832   3.345 -33.007  1.00  0.00     0.229 C 
BRANCH  22  23
HETATM   23  C   UNL     1      -2.961   3.923 -31.890  1.00  0.00     0.235 C 
HETATM   24  N   UNL     1      -2.885   5.304 -31.862  1.00  0.00    -0.355 N 
HETATM   25  H   UNL     1      -3.262   5.794 -32.671  1.00  0.00     0.162 HD
HETATM   26  O   UNL     1      -2.283   3.199 -31.165  1.00  0.00    -0.272 OA
BRANCH  24  27
HETATM   27  C   UNL     1      -1.883   5.984 -31.048  1.00  0.00     0.084 C 
HETATM   28  C   UNL     1      -0.965   6.855 -31.919  1.00  0.00     0.025 C 
HETATM   29  C   UNL     1      -1.646   8.136 -32.400  1.00  0.00     0.002 C 
HETATM   30  C   UNL     1      -2.228   8.930 -31.235  1.00  0.00     0.000 C 
HETATM   31  C   UNL     1      -3.194   8.083 -30.413  1.00  0.00     0.002 C 
HETATM   32  C   UNL     1      -2.536   6.795 -29.924  1.00  0.00     0.025 C 
ENDBRANCH  24  27
ENDBRANCH  22  23
ENDBRANCH   2  22
TORSDOF 4
ENDMDL
MODEL 6
REMARK VINA RESULT:      -9.0      1.871      2.339
REMARK  4 active torsions:
REMARK  status: ('A' for Active; 'I' for Inactive)
REMARK    1  A    between atoms: C_7  and  C_8 
REMARK    2  A    between atoms: N_9  and  C_10 
REMARK    3  A    between atoms: C_10  and  C_11 
REMARK       I    between atoms: C_11  and  N_12 
REMARK    4  A    between atoms: N_12  and  C_13 
ROOT
HETATM    1  C   UNL     1      -7.264   2.196 -33.997  1.00  0.00     0.158 C 
HETATM    2  N   UNL     1      -6.250   2.660 -33.065  1.00  0.00    -0.326 N 
HETATM    3  C   UNL     1      -5.246   1.732 -32.884  1.00  0.00     0.255 C 
HETATM    4  O   UNL     1      -4.184   1.896 -32.315  1.00  0.00    -0.267 OA
HETATM    5  C   UNL     1      -5.678   0.498 -33.554  1.00  0.00     0.040 A 
HETATM    6  C   UNL     1      -6.895   0.753 -34.192  1.00  0.00    -0.015 A 
HETATM    7  C   UNL     1      -5.060  -0.737 -33.579  1.00  0.00     0.017 A 
HETATM    8  C   UNL     1      -5.702  -1.761 -34.276  1.00  0.00     0.001 A 
HETATM    9  C   UNL     1      -6.927  -1.524 -34.926  1.00  0.00     0.001 A 
HETATM   10  C   UNL     1      -7.528  -0.260 -34.895  1.00  0.00     0.011 A 
ENDROOT
BRANCH   1  11
HETATM   11  C   UNL     1      -8.656   2.246 -33.445  1.00  0.00     0.004 A 
HETATM   12  C   UNL     1      -9.091   1.559 -32.313  1.00  0.00     0.015 A 
HETATM   13  C   UNL     1      -8.360   0.663 -31.376  1.00  0.00     0.069 C 
HETATM   14  N   UNL     1     -10.426   1.818 -32.145  1.00  0.00    -0.359 N 
HETATM   15  H   UNL     1     -11.004   1.439 -31.408  1.00  0.00     0.166 HD
HETATM   16  C   UNL     1     -10.883   2.664 -33.122  1.00  0.00     0.043 A 
HETATM   17  C   UNL     1      -9.801   2.964 -33.949  1.00  0.00     0.001 A 
HETATM   18  C   UNL     1     -12.170   3.177 -33.329  1.00  0.00     0.030 A 
HETATM   19  C   UNL     1     -10.026   3.833 -35.039  1.00  0.00     0.014 A 
HETATM   20  C   UNL     1     -11.307   4.354 -35.264  1.00  0.00     0.001 A 
HETATM   21  C   UNL     1     -12.363   4.027 -34.420  1.00  0.00     0.002 A 
ENDBRANCH   1  11
BRANCH   2  22
HETATM   22  C   UNL     1      -6.210   4.020 -32.556  1.00  0.00     0.229 C 
BRANCH  22  23
HETATM   23  C   UNL     1      -5.245   4.946 -33.297  1.00  0.00     0.235 C 
HETATM   24  N   UNL     1      -4.062   5.213 -32.633  1.00  0.00    -0.355 N 
HETATM   25  H   UNL     1      -4.014   4.920 -31.659  1.00  0.00     0.162 HD
HETATM   26  O   UNL     1      -5.568   5.507 -34.342  1.00  0.00    -0.272 OA
BRANCH  24  27
HETATM   27  C   UNL     1      -3.179   6.288 -33.074  1.00  0.00     0.084 C 
HETATM   28  C   UNL     1      -2.985   7.332 -31.964  1.00  0.00     0.025 C 
HETATM   29  C   UNL     1      -2.064   6.845 -30.846  1.00  0.00     0.002 C 
HETATM   30  C   UNL     1      -0.726   6.361 -31.397  1.00  0.00     0.000 C 
HETATM   31  C   UNL     1      -0.919   5.274 -32.448  1.00  0.00     0.002 C 
HETATM   32  C   UNL     1      -1.839   5.737 -33.575  1.00  0.00     0.025 C 
ENDBRANCH  24  27
ENDBRANCH  22  23
ENDBRANCH   2  22
TORSDOF 4
ENDMDL
MODEL 7
REMARK VINA RESULT:      -8.9      2.659      4.039
REMARK  4 active torsions:
REMARK  status: ('A' for Active; 'I' for Inactive)
REMARK    1  A    between atoms: C_7  and  C_8 
REMARK    2  A    between atoms: N_9  and  C_10 
REMARK    3  A    between atoms: C_10  and  C_11 
REMARK       I    between atoms: C_11  and  N_12 
REMARK    4  A    between atoms: N_12  and  C_13 
ROOT
HETATM    1  C   UNL     1      -7.897   2.404 -33.232  1.00  0.00     0.158 C 
HETATM    2  N   UNL     1      -7.705   2.250 -31.799  1.00  0.00    -0.326 N 
HETATM    3  C   UNL     1      -7.044   1.081 -31.486  1.00  0.00     0.255 C 
HETATM    4  O   UNL     1      -6.585   0.761 -30.406  1.00  0.00    -0.267 OA
HETATM    5  C   UNL     1      -6.950   0.297 -32.725  1.00  0.00     0.040 A 
HETATM    6  C   UNL     1      -7.485   1.061 -33.765  1.00  0.00    -0.015 A 
HETATM    7  C   UNL     1      -6.454  -0.979 -32.907  1.00  0.00     0.017 A 
HETATM    8  C   UNL     1      -6.507  -1.508 -34.197  1.00  0.00     0.001 A 
HETATM    9  C   UNL     1      -7.040  -0.755 -35.258  1.00  0.00     0.001 A 
HETATM   10  C   UNL     1      -7.526   0.542 -35.049  1.00  0.00     0.011 A 
ENDROOT
BRANCH   1  11
HETATM   11  C   UNL     1      -9.323   2.641 -33.627  1.00  0.00     0.004 A 
HETATM   12  C   UNL     1      -9.829   3.849 -34.102  1.00  0.00     0.015 A 
HETATM   13  C   UNL     1      -9.160   5.152 -34.361  1.00  0.00     0.069 C 
HETATM   14  N   UNL     1     -11.173   3.692 -34.317  1.00  0.00    -0.359 N 
HETATM   15  H   UNL     1     -11.798   4.412 -34.651  1.00  0.00     0.166 HD
HETATM   16  C   UNL     1     -11.567   2.414 -34.012  1.00  0.00     0.043 A 
HETATM   17  C   UNL     1     -10.434   1.722 -33.586  1.00  0.00     0.001 A 
HETATM   18  C   UNL     1     -12.839   1.831 -34.079  1.00  0.00     0.030 A 
HETATM   19  C   UNL     1     -10.589   0.368 -33.217  1.00  0.00     0.014 A 
HETATM   20  C   UNL     1     -11.853  -0.231 -33.275  1.00  0.00     0.001 A 
HETATM   21  C   UNL     1     -12.962   0.493 -33.699  1.00  0.00     0.002 A 
ENDBRANCH   1  11
BRANCH   2  22
HETATM   22  C   UNL     1      -8.000   3.306 -30.846  1.00  0.00     0.229 C 
BRANCH  22  23
HETATM   23  C   UNL     1      -6.789   4.143 -30.433  1.00  0.00     0.235 C 
HETATM   24  N   UNL     1      -5.792   4.242 -31.387  1.00  0.00    -0.355 N 
HETATM   25  H   UNL     1      -5.872   3.620 -32.190  1.00  0.00     0.162 HD
HETATM   26  O   UNL     1      -6.668   4.578 -29.290  1.00  0.00    -0.272 OA
BRANCH  24  27
HETATM   27  C   UNL     1      -4.472   4.759 -31.043  1.00  0.00     0.084 C 
HETATM   28  C   UNL     1      -3.379   3.721 -31.342  1.00  0.00     0.025 C 
HETATM   29  C   UNL     1      -3.088   3.581 -32.836  1.00  0.00     0.002 C 
HETATM   30  C   UNL     1      -2.766   4.930 -33.471  1.00  0.00     0.000 C 
HETATM   31  C   UNL     1      -3.885   5.937 -33.232  1.00  0.00     0.002 C 
HETATM   32  C   UNL     1      -4.196   6.092 -31.746  1.00  0.00     0.025 C 
ENDBRANCH  24  27
ENDBRANCH  22  23
ENDBRANCH   2  22
TORSDOF 4
ENDMDL
MODEL 8
REMARK VINA RESULT:      -8.9      2.741      6.681
REMARK  4 active torsions:
REMARK  status: ('A' for Active; 'I' for Inactive)
REMARK    1  A    between atoms: C_7  and  C_8 
REMARK    2  A    between atoms: N_9  and  C_10 
REMARK    3  A    between atoms: C_10  and  C_11 
REMARK       I    between atoms: C_11  and  N_12 
REMARK    4  A    between atoms: N_12  and  C_13 
ROOT
HETATM    1  C   UNL     1      -4.312   3.768 -32.277  1.00  0.00     0.158 C 
HETATM    2  N   UNL     1      -5.004   4.246 -33.463  1.00  0.00    -0.326 N 
HETATM    3  C   UNL     1      -4.160   4.912 -34.326  1.00  0.00     0.255 C 
HETATM    4  O   UNL     1      -4.400   5.264 -35.465  1.00  0.00    -0.267 OA
HETATM    5  C   UNL     1      -2.880   5.081 -33.627  1.00  0.00     0.040 A 
HETATM    6  C   UNL     1      -2.969   4.433 -32.392  1.00  0.00    -0.015 A 
HETATM    7  C   UNL     1      -1.750   5.761 -34.039  1.00  0.00     0.017 A 
HETATM    8  C   UNL     1      -0.665   5.792 -33.162  1.00  0.00     0.001 A 
HETATM    9  C   UNL     1      -0.735   5.145 -31.915  1.00  0.00     0.001 A 
HETATM   10  C   UNL     1      -1.887   4.452 -31.525  1.00  0.00     0.011 A 
ENDROOT
BRANCH   1  11
HETATM   11  C   UNL     1      -4.939   4.214 -30.992  1.00  0.00     0.004 A 
HETATM   12  C   UNL     1      -5.341   3.364 -29.964  1.00  0.00     0.015 A 
HETATM   13  C   UNL     1      -5.255   1.884 -29.832  1.00  0.00     0.069 C 
HETATM   14  N   UNL     1      -5.905   4.128 -28.976  1.00  0.00    -0.359 N 
HETATM   15  H   UNL     1      -6.295   3.771 -28.114  1.00  0.00     0.166 HD
HETATM   16  C   UNL     1      -5.875   5.457 -29.313  1.00  0.00     0.043 A 
HETATM   17  C   UNL     1      -5.267   5.551 -30.565  1.00  0.00     0.001 A 
HETATM   18  C   UNL     1      -6.344   6.569 -28.604  1.00  0.00     0.030 A 
HETATM   19  C   UNL     1      -5.117   6.838 -31.128  1.00  0.00     0.014 A 
HETATM   20  C   UNL     1      -5.581   7.963 -30.434  1.00  0.00     0.001 A 
HETATM   21  C   UNL     1      -6.188   7.827 -29.190  1.00  0.00     0.002 A 
ENDBRANCH   1  11
BRANCH   2  22
HETATM   22  C   UNL     1      -6.375   3.878 -33.776  1.00  0.00     0.229 C 
BRANCH  22  23
HETATM   23  C   UNL     1      -6.899   2.667 -33.004  1.00  0.00     0.235 C 
HETATM   24  N   UNL     1      -6.345   1.454 -33.369  1.00  0.00    -0.355 N 
HETATM   25  H   UNL     1      -5.782   1.452 -34.218  1.00  0.00     0.162 HD
HETATM   26  O   UNL     1      -7.836   2.766 -32.214  1.00  0.00    -0.272 OA
BRANCH  24  27
HETATM   27  C   UNL     1      -6.938   0.195 -32.930  1.00  0.00     0.084 C 
HETATM   28  C   UNL     1      -7.697  -0.486 -34.080  1.00  0.00     0.025 C 
HETATM   29  C   UNL     1      -6.764  -1.123 -35.109  1.00  0.00     0.002 C 
HETATM   30  C   UNL     1      -5.775  -2.078 -34.451  1.00  0.00     0.000 C 
HETATM   31  C   UNL     1      -4.973  -1.381 -33.357  1.00  0.00     0.002 C 
HETATM   32  C   UNL     1      -5.884  -0.733 -32.318  1.00  0.00     0.025 C 
ENDBRANCH  24  27
ENDBRANCH  22  23
ENDBRANCH   2  22
TORSDOF 4
ENDMDL
MODEL 9
REMARK VINA RESULT:      -8.8      3.229      7.708
REMARK  4 active torsions:
REMARK  status: ('A' for Active; 'I' for Inactive)
REMARK    1  A    between atoms: C_7  and  C_8 
REMARK    2  A    between atoms: N_9  and  C_10 
REMARK    3  A    between atoms: C_10  and  C_11 
REMARK       I    between atoms: C_11  and  N_12 
REMARK    4  A    between atoms: N_12  and  C_13 
ROOT
HETATM    1  C   UNL     1      -6.863   1.413 -31.908  1.00  0.00     0.158 C 
HETATM    2  N   UNL     1      -8.297   1.265 -32.100  1.00  0.00    -0.326 N 
HETATM    3  C   UNL     1      -8.621   0.069 -32.703  1.00  0.00     0.255 C 
HETATM    4  O   UNL     1      -9.729  -0.416 -32.830  1.00  0.00    -0.267 OA
HETATM    5  C   UNL     1      -7.359  -0.551 -33.130  1.00  0.00     0.040 A 
HETATM    6  C   UNL     1      -6.307   0.258 -32.692  1.00  0.00    -0.015 A 
HETATM    7  C   UNL     1      -7.165  -1.711 -33.855  1.00  0.00     0.017 A 
HETATM    8  C   UNL     1      -5.849  -2.066 -34.154  1.00  0.00     0.001 A 
HETATM    9  C   UNL     1      -4.776  -1.267 -33.721  1.00  0.00     0.001 A 
HETATM   10  C   UNL     1      -4.999  -0.101 -32.977  1.00  0.00     0.011 A 
ENDROOT
BRANCH   1  11
HETATM   11  C   UNL     1      -6.305   2.676 -32.489  1.00  0.00     0.004 A 
HETATM   12  C   UNL     1      -6.300   2.996 -33.845  1.00  0.00     0.015 A 
HETATM   13  C   UNL     1      -6.823   2.255 -35.024  1.00  0.00     0.069 C 
HETATM   14  N   UNL     1      -5.673   4.206 -33.994  1.00  0.00    -0.359 N 
HETATM   15  H   UNL     1      -5.516   4.676 -34.874  1.00  0.00     0.166 HD
HETATM   16  C   UNL     1      -5.277   4.700 -32.777  1.00  0.00     0.043 A 
HETATM   17  C   UNL     1      -5.665   3.775 -31.809  1.00  0.00     0.001 A 
HETATM   18  C   UNL     1      -4.603   5.890 -32.473  1.00  0.00     0.030 A 
HETATM   19  C   UNL     1      -5.366   4.069 -30.460  1.00  0.00     0.014 A 
HETATM   20  C   UNL     1      -4.692   5.253 -30.136  1.00  0.00     0.001 A 
HETATM   21  C   UNL     1      -4.315   6.149 -31.131  1.00  0.00     0.002 A 
ENDBRANCH   1  11
BRANCH   2  22
HETATM   22  C   UNL     1      -9.267   2.187 -31.532  1.00  0.00     0.229 C 
BRANCH  22  23
HETATM   23  C   UNL     1     -10.185   2.851 -32.558  1.00  0.00     0.235 C 
HETATM   24  N   UNL     1     -11.445   2.292 -32.666  1.00  0.00    -0.355 N 
HETATM   25  H   UNL     1     -11.586   1.401 -32.193  1.00  0.00     0.162 HD
HETATM   26  O   UNL     1      -9.774   3.730 -33.314  1.00  0.00    -0.272 OA
BRANCH  24  27
HETATM   27  C   UNL     1     -12.322   2.627 -33.784  1.00  0.00     0.084 C 
HETATM   28  C   UNL     1     -12.486   1.429 -34.732  1.00  0.00     0.025 C 
HETATM   29  C   UNL     1     -13.397   0.342 -34.162  1.00  0.00     0.002 C 
HETATM   30  C   UNL     1     -14.748   0.910 -33.741  1.00  0.00     0.000 C 
HETATM   31  C   UNL     1     -14.584   2.053 -32.745  1.00  0.00     0.002 C 
HETATM   32  C   UNL     1     -13.675   3.151 -33.292  1.00  0.00     0.025 C 
ENDBRANCH  24  27
ENDBRANCH  22  23
ENDBRANCH   2  22
TORSDOF 4
ENDMDL
MODEL 10
REMARK VINA RESULT:      -8.8      3.407      7.962
REMARK  4 active torsions:
REMARK  status: ('A' for Active; 'I' for Inactive)
REMARK    1  A    between atoms: C_7  and  C_8 
REMARK    2  A    between atoms: N_9  and  C_10 
REMARK    3  A    between atoms: C_10  and  C_11 
REMARK       I    between atoms: C_11  and  N_12 
REMARK    4  A    between atoms: N_12  and  C_13 
ROOT
HETATM    1  C   UNL     1      -7.051   2.178 -33.144  1.00  0.00     0.158 C 
HETATM    2  N   UNL     1      -7.949   2.390 -32.021  1.00  0.00    -0.326 N 
HETATM    3  C   UNL     1      -7.978   3.709 -31.620  1.00  0.00     0.255 C 
HETATM    4  O   UNL     1      -8.755   4.225 -30.838  1.00  0.00    -0.267 OA
HETATM    5  C   UNL     1      -6.914   4.404 -32.356  1.00  0.00     0.040 A 
HETATM    6  C   UNL     1      -6.332   3.494 -33.243  1.00  0.00    -0.015 A 
HETATM    7  C   UNL     1      -6.490   5.714 -32.237  1.00  0.00     0.017 A 
HETATM    8  C   UNL     1      -5.428   6.119 -33.045  1.00  0.00     0.001 A 
HETATM    9  C   UNL     1      -4.829   5.218 -33.945  1.00  0.00     0.001 A 
HETATM   10  C   UNL     1      -5.285   3.899 -34.056  1.00  0.00     0.011 A 
ENDROOT
BRANCH   1  11
HETATM   11  C   UNL     1      -6.028   1.110 -32.905  1.00  0.00     0.004 A 
HETATM   12  C   UNL     1      -4.998   1.188 -31.969  1.00  0.00     0.015 A 
HETATM   13  C   UNL     1      -4.646   2.254 -30.993  1.00  0.00     0.069 C 
HETATM   14  N   UNL     1      -4.247   0.046 -32.068  1.00  0.00    -0.359 N 
HETATM   15  H   UNL     1      -3.426  -0.161 -31.516  1.00  0.00     0.166 HD
HETATM   16  C   UNL     1      -4.757  -0.789 -33.029  1.00  0.00     0.043 A 
HETATM   17  C   UNL     1      -5.880  -0.162 -33.568  1.00  0.00     0.001 A 
HETATM   18  C   UNL     1      -4.301  -2.042 -33.457  1.00  0.00     0.030 A 
HETATM   19  C   UNL     1      -6.586  -0.838 -34.586  1.00  0.00     0.014 A 
HETATM   20  C   UNL     1      -6.145  -2.092 -35.029  1.00  0.00     0.001 A 
HETATM   21  C   UNL     1      -5.016  -2.683 -34.471  1.00  0.00     0.002 A 
ENDBRANCH   1  11
BRANCH   2  22
HETATM   22  C   UNL     1      -8.851   1.363 -31.528  1.00  0.00     0.229 C 
BRANCH  22  23
HETATM   23  C   UNL     1      -9.963   0.976 -32.503  1.00  0.00     0.235 C 
HETATM   24  N   UNL     1     -10.836   1.996 -32.831  1.00  0.00    -0.355 N 
HETATM   25  H   UNL     1     -10.768   2.846 -32.274  1.00  0.00     0.162 HD
HETATM   26  O   UNL     1     -10.132  -0.190 -32.854  1.00  0.00    -0.272 OA
BRANCH  24  27
HETATM   27  C   UNL     1     -12.096   1.717 -33.513  1.00  0.00     0.084 C 
HETATM   28  C   UNL     1     -13.199   2.679 -33.048  1.00  0.00     0.025 C 
HETATM   29  C   UNL     1     -13.039   4.086 -33.622  1.00  0.00     0.002 C 
HETATM   30  C   UNL     1     -12.928   4.059 -35.143  1.00  0.00     0.000 C 
HETATM   31  C   UNL     1     -11.786   3.158 -35.600  1.00  0.00     0.002 C 
HETATM   32  C   UNL     1     -11.922   1.746 -35.035  1.00  0.00     0.025 C 
ENDBRANCH  24  27
ENDBRANCH  22  23
ENDBRANCH   2  22
TORSDOF 4
ENDMDL
