MODEL 1
REMARK VINA RESULT:      -9.9      0.000      0.000
REMARK  3 active torsions:
REMARK  status: ('A' for Active; 'I' for Inactive)
REMARK    1  A    between atoms: C_3  and  N_4 
REMARK    2  A    between atoms: C_14  and  N_15 
REMARK       I    between atoms: N_15  and  C_16 
REMARK    3  A    between atoms: C_16  and  C_17 
ROOT
HETATM    1  N   UNL     1      -4.274  -1.308 -33.324  1.00  0.00    -0.237 N 
HETATM    2  N   UNL     1      -2.982  -0.879 -33.355  1.00  0.00    -0.179 NA
HETATM    3  C   UNL     1      -2.999   0.363 -32.882  1.00  0.00     0.150 A 
HETATM    4  C   UNL     1      -4.287   0.786 -32.544  1.00  0.00     0.008 A 
HETATM    5  C   UNL     1      -5.093  -0.306 -32.809  1.00  0.00     0.047 A 
HETATM    6  C   UNL     1      -6.549  -0.379 -32.473  1.00  0.00     0.069 C 
HETATM    7  C   UNL     1      -6.947   0.724 -31.440  1.00  0.00    -0.040 C 
HETATM    8  C   UNL     1      -6.525   0.309 -30.017  1.00  0.00     0.015 C 
HETATM    9  C   UNL     1      -8.479   0.881 -31.454  1.00  0.00     0.015 C 
HETATM   10  C   UNL     1      -6.300   2.087 -31.830  1.00  0.00     0.039 C 
HETATM   11  C   UNL     1      -4.755   2.052 -31.911  1.00  0.00     0.122 C 
ENDROOT
BRANCH  11  12
HETATM   12  N   UNL     1      -4.260   3.163 -32.699  1.00  0.00    -0.347 N 
HETATM   13  C   UNL     1      -3.113   3.824 -32.343  1.00  0.00     0.270 C 
HETATM   14  O   UNL     1      -2.398   3.491 -31.402  1.00  0.00    -0.266 OA
HETATM   15  H   UNL     1      -4.872   3.542 -33.407  1.00  0.00     0.163 HD
BRANCH  13  16
HETATM   16  C   UNL     1      -2.766   5.012 -33.165  1.00  0.00     0.120 A 
HETATM   17  N   UNL     1      -2.291   6.161 -32.571  1.00  0.00    -0.303 N 
HETATM   18  C   UNL     1      -2.038   7.123 -33.549  1.00  0.00     0.324 A 
HETATM   19  H   UNL     1      -2.144   6.278 -31.579  1.00  0.00     0.171 HD
HETATM   20  O   UNL     1      -1.613   8.252 -33.401  1.00  0.00    -0.247 OA
HETATM   21  N   UNL     1      -2.386   6.495 -34.754  1.00  0.00    -0.316 N 
HETATM   22  C   UNL     1      -2.820   5.217 -34.492  1.00  0.00     0.128 A 
HETATM   23  H   UNL     1      -2.307   6.946 -35.653  1.00  0.00     0.170 HD
ENDBRANCH  13  16
ENDBRANCH  11  12
BRANCH   1  24
HETATM   24  C   UNL     1      -4.614  -2.613 -33.812  1.00  0.00     0.064 A 
HETATM   25  C   UNL     1      -4.016  -3.789 -33.292  1.00  0.00    -0.033 A 
HETATM   26  C   UNL     1      -3.022  -3.808 -32.160  1.00  0.00     0.050 C 
HETATM   27  C   UNL     1      -4.377  -5.037 -33.841  1.00  0.00     0.009 A 
HETATM   28  C   UNL     1      -5.312  -5.135 -34.868  1.00  0.00     0.001 A 
HETATM   29  C   UNL     1      -5.895  -3.985 -35.378  1.00  0.00     0.002 A 
HETATM   30  C   UNL     1      -5.545  -2.735 -34.861  1.00  0.00     0.032 A 
ENDBRANCH   1  24
TORSDOF 3
ENDMDL
MODEL 2
REMARK VINA RESULT:      -9.7      4.569      6.393
REMARK  3 active torsions:
REMARK  status: ('A' for Active; 'I' for Inactive)
REMARK    1  A    between atoms: C_3  and  N_4 
REMARK    2  A    between atoms: C_14  and  N_15 
REMARK       I    between atoms: N_15  and  C_16 
REMARK    3  A    between atoms: C_16  and  C_17 
ROOT
HETATM    1  N   UNL     1      -6.907  -1.073 -34.170  1.00  0.00    -0.237 N 
HETATM    2  N   UNL     1      -7.600  -0.587 -35.237  1.00  0.00    -0.179 NA
HETATM    3  C   UNL     1      -8.191   0.525 -34.812  1.00  0.00     0.150 A 
HETATM    4  C   UNL     1      -7.918   0.792 -33.467  1.00  0.00     0.008 A 
HETATM    5  C   UNL     1      -7.072  -0.229 -33.075  1.00  0.00     0.047 A 
HETATM    6  C   UNL     1      -6.395  -0.296 -31.741  1.00  0.00     0.069 C 
HETATM    7  C   UNL     1      -6.423   1.091 -31.023  1.00  0.00    -0.040 C 
HETATM    8  C   UNL     1      -5.341   2.023 -31.605  1.00  0.00     0.015 C 
HETATM    9  C   UNL     1      -6.113   0.878 -29.529  1.00  0.00     0.015 C 
HETATM   10  C   UNL     1      -7.835   1.739 -31.154  1.00  0.00     0.039 C 
HETATM   11  C   UNL     1      -8.296   1.955 -32.615  1.00  0.00     0.122 C 
ENDROOT
BRANCH  11  12
HETATM   12  N   UNL     1      -9.735   2.113 -32.677  1.00  0.00    -0.347 N 
HETATM   13  C   UNL     1     -10.305   3.086 -33.457  1.00  0.00     0.270 C 
HETATM   14  O   UNL     1      -9.665   3.828 -34.198  1.00  0.00    -0.266 OA
HETATM   15  H   UNL     1     -10.290   1.607 -32.003  1.00  0.00     0.163 HD
BRANCH  13  16
HETATM   16  C   UNL     1     -11.781   3.220 -33.355  1.00  0.00     0.120 A 
HETATM   17  N   UNL     1     -12.543   2.200 -32.829  1.00  0.00    -0.303 N 
HETATM   18  C   UNL     1     -13.889   2.569 -32.840  1.00  0.00     0.324 A 
HETATM   19  H   UNL     1     -12.176   1.326 -32.483  1.00  0.00     0.171 HD
HETATM   20  O   UNL     1     -14.847   1.927 -32.455  1.00  0.00    -0.247 OA
HETATM   21  N   UNL     1     -13.894   3.854 -33.399  1.00  0.00    -0.316 N 
HETATM   22  C   UNL     1     -12.604   4.225 -33.698  1.00  0.00     0.128 A 
HETATM   23  H   UNL     1     -14.736   4.392 -33.536  1.00  0.00     0.170 HD
ENDBRANCH  13  16
ENDBRANCH  11  12
BRANCH   1  24
HETATM   24  C   UNL     1      -6.181  -2.305 -34.281  1.00  0.00     0.064 A 
HETATM   25  C   UNL     1      -4.780  -2.372 -34.073  1.00  0.00    -0.033 A 
HETATM   26  C   UNL     1      -3.923  -1.199 -33.670  1.00  0.00     0.050 C 
HETATM   27  C   UNL     1      -4.126  -3.612 -34.228  1.00  0.00     0.009 A 
HETATM   28  C   UNL     1      -4.828  -4.765 -34.565  1.00  0.00     0.001 A 
HETATM   29  C   UNL     1      -6.199  -4.700 -34.770  1.00  0.00     0.002 A 
HETATM   30  C   UNL     1      -6.868  -3.480 -34.636  1.00  0.00     0.032 A 
ENDBRANCH   1  24
TORSDOF 3
ENDMDL
MODEL 3
REMARK VINA RESULT:      -9.5      4.830      8.268
REMARK  3 active torsions:
REMARK  status: ('A' for Active; 'I' for Inactive)
REMARK    1  A    between atoms: C_3  and  N_4 
REMARK    2  A    between atoms: C_14  and  N_15 
REMARK       I    between atoms: N_15  and  C_16 
REMARK    3  A    between atoms: C_16  and  C_17 
ROOT
HETATM    1  N   UNL     1      -5.843   3.451 -33.006  1.00  0.00    -0.237 N 
HETATM    2  N   UNL     1      -6.714   4.211 -32.286  1.00  0.00    -0.179 NA
HETATM    3  C   UNL     1      -7.783   3.447 -32.084  1.00  0.00     0.150 A 
HETATM    4  C   UNL     1      -7.653   2.184 -32.669  1.00  0.00     0.008 A 
HETATM    5  C   UNL     1      -6.392   2.192 -33.236  1.00  0.00     0.047 A 
HETATM    6  C   UNL     1      -5.745   0.998 -33.864  1.00  0.00     0.069 C 
HETATM    7  C   UNL     1      -6.465  -0.322 -33.444  1.00  0.00    -0.040 C 
HETATM    8  C   UNL     1      -6.035  -0.747 -32.026  1.00  0.00     0.015 C 
HETATM    9  C   UNL     1      -6.052  -1.440 -34.421  1.00  0.00     0.015 C 
HETATM   10  C   UNL     1      -8.012  -0.140 -33.518  1.00  0.00     0.039 C 
HETATM   11  C   UNL     1      -8.555   0.999 -32.623  1.00  0.00     0.122 C 
ENDROOT
BRANCH  11  12
HETATM   12  N   UNL     1      -9.870   1.413 -33.068  1.00  0.00    -0.347 N 
HETATM   13  C   UNL     1     -10.908   0.519 -33.132  1.00  0.00     0.270 C 
HETATM   14  O   UNL     1     -10.825  -0.649 -32.761  1.00  0.00    -0.266 OA
HETATM   15  H   UNL     1      -9.955   2.326 -33.490  1.00  0.00     0.163 HD
BRANCH  13  16
HETATM   16  C   UNL     1     -12.177   1.035 -33.705  1.00  0.00     0.120 A 
HETATM   17  N   UNL     1     -13.257   0.198 -33.887  1.00  0.00    -0.303 N 
HETATM   18  C   UNL     1     -14.320   0.918 -34.432  1.00  0.00     0.324 A 
HETATM   19  H   UNL     1     -13.270  -0.783 -33.652  1.00  0.00     0.171 HD
HETATM   20  O   UNL     1     -15.429   0.514 -34.725  1.00  0.00    -0.247 OA
HETATM   21  N   UNL     1     -13.825   2.222 -34.568  1.00  0.00    -0.316 N 
HETATM   22  C   UNL     1     -12.527   2.265 -34.118  1.00  0.00     0.128 A 
HETATM   23  H   UNL     1     -14.374   2.984 -34.938  1.00  0.00     0.170 HD
ENDBRANCH  13  16
ENDBRANCH  11  12
BRANCH   1  24
HETATM   24  C   UNL     1      -4.588   3.999 -33.433  1.00  0.00     0.064 A 
HETATM   25  C   UNL     1      -3.381   3.747 -32.733  1.00  0.00    -0.033 A 
HETATM   26  C   UNL     1      -3.271   2.855 -31.523  1.00  0.00     0.050 C 
HETATM   27  C   UNL     1      -2.189   4.344 -33.193  1.00  0.00     0.009 A 
HETATM   28  C   UNL     1      -2.174   5.159 -34.322  1.00  0.00     0.001 A 
HETATM   29  C   UNL     1      -3.355   5.407 -35.006  1.00  0.00     0.002 A 
HETATM   30  C   UNL     1      -4.552   4.838 -34.562  1.00  0.00     0.032 A 
ENDBRANCH   1  24
TORSDOF 3
ENDMDL
MODEL 4
REMARK VINA RESULT:      -8.8      3.931      7.915
REMARK  3 active torsions:
REMARK  status: ('A' for Active; 'I' for Inactive)
REMARK    1  A    between atoms: C_3  and  N_4 
REMARK    2  A    between atoms: C_14  and  N_15 
REMARK       I    between atoms: N_15  and  C_16 
REMARK    3  A    between atoms: C_16  and  C_17 
ROOT
HETATM    1  N   UNL     1      -4.381   3.919 -32.433  1.00  0.00    -0.237 N 
HETATM    2  N   UNL     1      -5.489   4.649 -32.125  1.00  0.00    -0.179 NA
HETATM    3  C   UNL     1      -6.488   3.777 -32.044  1.00  0.00     0.150 A 
HETATM    4  C   UNL     1      -6.075   2.467 -32.307  1.00  0.00     0.008 A 
HETATM    5  C   UNL     1      -4.715   2.571 -32.530  1.00  0.00     0.047 A 
HETATM    6  C   UNL     1      -3.802   1.400 -32.719  1.00  0.00     0.069 C 
HETATM    7  C   UNL     1      -4.472   0.076 -32.231  1.00  0.00    -0.040 C 
HETATM    8  C   UNL     1      -4.406  -0.030 -30.695  1.00  0.00     0.015 C 
HETATM    9  C   UNL     1      -3.695  -1.116 -32.823  1.00  0.00     0.015 C 
HETATM   10  C   UNL     1      -5.949   0.005 -32.725  1.00  0.00     0.039 C 
HETATM   11  C   UNL     1      -6.830   1.184 -32.247  1.00  0.00     0.122 C 
ENDROOT
BRANCH  11  12
HETATM   12  N   UNL     1      -8.008   1.311 -33.081  1.00  0.00    -0.347 N 
HETATM   13  C   UNL     1      -9.241   1.546 -32.530  1.00  0.00     0.270 C 
HETATM   14  O   UNL     1      -9.427   1.735 -31.330  1.00  0.00    -0.266 OA
HETATM   15  H   UNL     1      -7.922   1.050 -34.052  1.00  0.00     0.163 HD
BRANCH  13  16
HETATM   16  C   UNL     1     -10.386   1.549 -33.475  1.00  0.00     0.120 A 
HETATM   17  N   UNL     1     -11.490   0.757 -33.243  1.00  0.00    -0.303 N 
HETATM   18  C   UNL     1     -12.421   0.941 -34.266  1.00  0.00     0.324 A 
HETATM   19  H   UNL     1     -11.603   0.147 -32.448  1.00  0.00     0.171 HD
HETATM   20  O   UNL     1     -13.508   0.413 -34.397  1.00  0.00    -0.247 OA
HETATM   21  N   UNL     1     -11.820   1.876 -35.120  1.00  0.00    -0.316 N 
HETATM   22  C   UNL     1     -10.591   2.229 -34.616  1.00  0.00     0.128 A 
HETATM   23  H   UNL     1     -12.261   2.216 -35.962  1.00  0.00     0.170 HD
ENDBRANCH  13  16
ENDBRANCH  11  12
BRANCH   1  24
HETATM   24  C   UNL     1      -3.120   4.571 -32.636  1.00  0.00     0.064 A 
HETATM   25  C   UNL     1      -2.770   5.161 -33.877  1.00  0.00    -0.033 A 
HETATM   26  C   UNL     1      -3.679   5.216 -35.078  1.00  0.00     0.050 C 
HETATM   27  C   UNL     1      -1.500   5.759 -34.015  1.00  0.00     0.009 A 
HETATM   28  C   UNL     1      -0.596   5.792 -32.957  1.00  0.00     0.001 A 
HETATM   29  C   UNL     1      -0.937   5.214 -31.743  1.00  0.00     0.002 A 
HETATM   30  C   UNL     1      -2.184   4.604 -31.585  1.00  0.00     0.032 A 
ENDBRANCH   1  24
TORSDOF 3
ENDMDL
MODEL 5
REMARK VINA RESULT:      -8.6      3.728      5.499
REMARK  3 active torsions:
REMARK  status: ('A' for Active; 'I' for Inactive)
REMARK    1  A    between atoms: C_3  and  N_4 
REMARK    2  A    between atoms: C_14  and  N_15 
REMARK       I    between atoms: N_15  and  C_16 
REMARK    3  A    between atoms: C_16  and  C_17 
ROOT
HETATM    1  N   UNL     1      -4.711   1.567 -31.568  1.00  0.00    -0.237 N 
HETATM    2  N   UNL     1      -5.624   1.734 -30.572  1.00  0.00    -0.179 NA
HETATM    3  C   UNL     1      -5.577   3.021 -30.245  1.00  0.00     0.150 A 
HETATM    4  C   UNL     1      -4.634   3.727 -30.998  1.00  0.00     0.008 A 
HETATM    5  C   UNL     1      -4.103   2.787 -31.860  1.00  0.00     0.047 A 
HETATM    6  C   UNL     1      -3.142   3.103 -32.963  1.00  0.00     0.069 C 
HETATM    7  C   UNL     1      -3.133   4.632 -33.283  1.00  0.00    -0.040 C 
HETATM    8  C   UNL     1      -4.355   5.012 -34.143  1.00  0.00     0.015 C 
HETATM    9  C   UNL     1      -1.863   4.958 -34.092  1.00  0.00     0.015 C 
HETATM   10  C   UNL     1      -3.110   5.460 -31.963  1.00  0.00     0.039 C 
HETATM   11  C   UNL     1      -4.309   5.181 -31.024  1.00  0.00     0.122 C 
ENDROOT
BRANCH  11  12
HETATM   12  N   UNL     1      -4.006   5.603 -29.672  1.00  0.00    -0.347 N 
HETATM   13  C   UNL     1      -4.857   6.428 -28.982  1.00  0.00     0.270 C 
HETATM   14  O   UNL     1      -5.943   6.804 -29.416  1.00  0.00    -0.266 OA
HETATM   15  H   UNL     1      -3.078   5.416 -29.321  1.00  0.00     0.163 HD
BRANCH  13  16
HETATM   16  C   UNL     1      -4.387   6.878 -27.647  1.00  0.00     0.120 A 
HETATM   17  N   UNL     1      -3.065   6.740 -27.285  1.00  0.00    -0.303 N 
HETATM   18  C   UNL     1      -2.879   7.236 -25.994  1.00  0.00     0.324 A 
HETATM   19  H   UNL     1      -2.345   6.346 -27.873  1.00  0.00     0.171 HD
HETATM   20  O   UNL     1      -1.850   7.282 -25.348  1.00  0.00    -0.247 OA
HETATM   21  N   UNL     1      -4.151   7.675 -25.602  1.00  0.00    -0.316 N 
HETATM   22  C   UNL     1      -5.044   7.449 -26.623  1.00  0.00     0.128 A 
HETATM   23  H   UNL     1      -4.337   8.093 -24.703  1.00  0.00     0.170 HD
ENDBRANCH  13  16
ENDBRANCH  11  12
BRANCH   1  24
HETATM   24  C   UNL     1      -4.479   0.267 -32.127  1.00  0.00     0.064 A 
HETATM   25  C   UNL     1      -5.195  -0.204 -33.256  1.00  0.00    -0.033 A 
HETATM   26  C   UNL     1      -6.217   0.605 -34.012  1.00  0.00     0.050 C 
HETATM   27  C   UNL     1      -4.936  -1.506 -33.733  1.00  0.00     0.009 A 
HETATM   28  C   UNL     1      -3.987  -2.325 -33.128  1.00  0.00     0.001 A 
HETATM   29  C   UNL     1      -3.287  -1.865 -32.022  1.00  0.00     0.002 A 
HETATM   30  C   UNL     1      -3.535  -0.584 -31.522  1.00  0.00     0.032 A 
ENDBRANCH   1  24
TORSDOF 3
ENDMDL
MODEL 6
REMARK VINA RESULT:      -8.2      4.374      7.825
REMARK  3 active torsions:
REMARK  status: ('A' for Active; 'I' for Inactive)
REMARK    1  A    between atoms: C_3  and  N_4 
REMARK    2  A    between atoms: C_14  and  N_15 
REMARK       I    between atoms: N_15  and  C_16 
REMARK    3  A    between atoms: C_16  and  C_17 
ROOT
HETATM    1  N   UNL     1      -5.774   3.097 -31.852  1.00  0.00    -0.237 N 
HETATM    2  N   UNL     1      -6.564   3.600 -30.862  1.00  0.00    -0.179 NA
HETATM    3  C   UNL     1      -7.639   2.820 -30.822  1.00  0.00     0.150 A 
HETATM    4  C   UNL     1      -7.595   1.803 -31.780  1.00  0.00     0.008 A 
HETATM    5  C   UNL     1      -6.381   1.978 -32.417  1.00  0.00     0.047 A 
HETATM    6  C   UNL     1      -5.822   1.036 -33.437  1.00  0.00     0.069 C 
HETATM    7  C   UNL     1      -6.553  -0.344 -33.392  1.00  0.00    -0.040 C 
HETATM    8  C   UNL     1      -6.032  -1.194 -32.217  1.00  0.00     0.015 C 
HETATM    9  C   UNL     1      -6.252  -1.103 -34.698  1.00  0.00     0.015 C 
HETATM   10  C   UNL     1      -8.094  -0.135 -33.279  1.00  0.00     0.039 C 
HETATM   11  C   UNL     1      -8.531   0.671 -32.033  1.00  0.00     0.122 C 
ENDROOT
BRANCH  11  12
HETATM   12  N   UNL     1      -9.861   1.215 -32.217  1.00  0.00    -0.347 N 
HETATM   13  C   UNL     1     -10.194   1.890 -33.363  1.00  0.00     0.270 C 
HETATM   14  O   UNL     1      -9.439   2.019 -34.323  1.00  0.00    -0.266 OA
HETATM   15  H   UNL     1     -10.473   1.233 -31.416  1.00  0.00     0.163 HD
BRANCH  13  16
HETATM   16  C   UNL     1     -11.552   2.493 -33.392  1.00  0.00     0.120 A 
HETATM   17  N   UNL     1     -12.227   2.755 -32.220  1.00  0.00    -0.303 N 
HETATM   18  C   UNL     1     -13.470   3.319 -32.513  1.00  0.00     0.324 A 
HETATM   19  H   UNL     1     -11.868   2.572 -31.295  1.00  0.00     0.171 HD
HETATM   20  O   UNL     1     -14.333   3.680 -31.736  1.00  0.00    -0.247 OA
HETATM   21  N   UNL     1     -13.505   3.378 -33.913  1.00  0.00    -0.316 N 
HETATM   22  C   UNL     1     -12.330   2.874 -34.418  1.00  0.00     0.128 A 
HETATM   23  H   UNL     1     -14.289   3.747 -34.429  1.00  0.00     0.170 HD
ENDBRANCH  13  16
ENDBRANCH  11  12
BRANCH   1  24
HETATM   24  C   UNL     1      -4.538   3.741 -32.187  1.00  0.00     0.064 A 
HETATM   25  C   UNL     1      -4.413   4.582 -33.322  1.00  0.00    -0.033 A 
HETATM   26  C   UNL     1      -5.547   4.930 -34.251  1.00  0.00     0.050 C 
HETATM   27  C   UNL     1      -3.158   5.158 -33.609  1.00  0.00     0.009 A 
HETATM   28  C   UNL     1      -2.051   4.929 -32.796  1.00  0.00     0.001 A 
HETATM   29  C   UNL     1      -2.173   4.105 -31.686  1.00  0.00     0.002 A 
HETATM   30  C   UNL     1      -3.402   3.511 -31.388  1.00  0.00     0.032 A 
ENDBRANCH   1  24
TORSDOF 3
ENDMDL
MODEL 7
REMARK VINA RESULT:      -8.2      6.175      7.394
REMARK  3 active torsions:
REMARK  status: ('A' for Active; 'I' for Inactive)
REMARK    1  A    between atoms: C_3  and  N_4 
REMARK    2  A    between atoms: C_14  and  N_15 
REMARK       I    between atoms: N_15  and  C_16 
REMARK    3  A    between atoms: C_16  and  C_17 
ROOT
HETATM    1  N   UNL     1      -8.456   2.698 -34.035  1.00  0.00    -0.237 N 
HETATM    2  N   UNL     1      -7.739   3.850 -33.926  1.00  0.00    -0.179 NA
HETATM    3  C   UNL     1      -8.604   4.839 -34.125  1.00  0.00     0.150 A 
HETATM    4  C   UNL     1      -9.897   4.372 -34.381  1.00  0.00     0.008 A 
HETATM    5  C   UNL     1      -9.792   2.996 -34.295  1.00  0.00     0.047 A 
HETATM    6  C   UNL     1     -10.956   2.058 -34.360  1.00  0.00     0.069 C 
HETATM    7  C   UNL     1     -12.304   2.812 -34.122  1.00  0.00    -0.040 C 
HETATM    8  C   UNL     1     -12.514   3.082 -32.619  1.00  0.00     0.015 C 
HETATM    9  C   UNL     1     -13.460   1.918 -34.611  1.00  0.00     0.015 C 
HETATM   10  C   UNL     1     -12.326   4.145 -34.929  1.00  0.00     0.039 C 
HETATM   11  C   UNL     1     -11.173   5.115 -34.575  1.00  0.00     0.122 C 
ENDROOT
BRANCH  11  12
HETATM   12  N   UNL     1     -10.978   6.083 -35.635  1.00  0.00    -0.347 N 
HETATM   13  C   UNL     1     -11.090   7.428 -35.391  1.00  0.00     0.270 C 
HETATM   14  O   UNL     1     -11.285   7.905 -34.277  1.00  0.00    -0.266 OA
HETATM   15  H   UNL     1     -10.931   5.736 -36.581  1.00  0.00     0.163 HD
BRANCH  13  16
HETATM   16  C   UNL     1     -10.975   8.315 -36.577  1.00  0.00     0.120 A 
HETATM   17  N   UNL     1      -9.778   8.923 -36.886  1.00  0.00    -0.303 N 
HETATM   18  C   UNL     1      -9.928   9.696 -38.037  1.00  0.00     0.324 A 
HETATM   19  H   UNL     1      -8.924   8.813 -36.358  1.00  0.00     0.171 HD
HETATM   20  O   UNL     1      -9.091  10.371 -38.604  1.00  0.00    -0.247 OA
HETATM   21  N   UNL     1     -11.272   9.524 -38.399  1.00  0.00    -0.316 N 
HETATM   22  C   UNL     1     -11.881   8.681 -37.500  1.00  0.00     0.128 A 
HETATM   23  H   UNL     1     -11.685   9.964 -39.208  1.00  0.00     0.170 HD
ENDBRANCH  13  16
ENDBRANCH  11  12
BRANCH   1  24
HETATM   24  C   UNL     1      -7.805   1.426 -33.914  1.00  0.00     0.064 A 
HETATM   25  C   UNL     1      -7.469   0.872 -32.652  1.00  0.00    -0.033 A 
HETATM   26  C   UNL     1      -7.797   1.513 -31.328  1.00  0.00     0.050 C 
HETATM   27  C   UNL     1      -6.801  -0.370 -32.609  1.00  0.00     0.009 A 
HETATM   28  C   UNL     1      -6.481  -1.062 -33.774  1.00  0.00     0.001 A 
HETATM   29  C   UNL     1      -6.808  -0.519 -35.008  1.00  0.00     0.002 A 
HETATM   30  C   UNL     1      -7.458   0.716 -35.078  1.00  0.00     0.032 A 
ENDBRANCH   1  24
TORSDOF 3
ENDMDL
MODEL 8
REMARK VINA RESULT:      -8.1      2.324      3.297
REMARK  3 active torsions:
REMARK  status: ('A' for Active; 'I' for Inactive)
REMARK    1  A    between atoms: C_3  and  N_4 
REMARK    2  A    between atoms: C_14  and  N_15 
REMARK       I    between atoms: N_15  and  C_16 
REMARK    3  A    between atoms: C_16  and  C_17 
ROOT
HETATM    1  N   UNL     1      -5.139   0.408 -32.251  1.00  0.00    -0.237 N 
HETATM    2  N   UNL     1      -4.417   0.193 -31.117  1.00  0.00    -0.179 NA
HETATM    3  C   UNL     1      -4.301   1.378 -30.527  1.00  0.00     0.150 A 
HETATM    4  C   UNL     1      -4.924   2.397 -31.254  1.00  0.00     0.008 A 
HETATM    5  C   UNL     1      -5.479   1.756 -32.346  1.00  0.00     0.047 A 
HETATM    6  C   UNL     1      -6.371   2.419 -33.347  1.00  0.00     0.069 C 
HETATM    7  C   UNL     1      -6.925   3.774 -32.801  1.00  0.00    -0.040 C 
HETATM    8  C   UNL     1      -8.089   3.528 -31.821  1.00  0.00     0.015 C 
HETATM    9  C   UNL     1      -7.466   4.597 -33.986  1.00  0.00     0.015 C 
HETATM   10  C   UNL     1      -5.785   4.583 -32.110  1.00  0.00     0.039 C 
HETATM   11  C   UNL     1      -5.111   3.840 -30.932  1.00  0.00     0.122 C 
ENDROOT
BRANCH  11  12
HETATM   12  N   UNL     1      -3.811   4.413 -30.645  1.00  0.00    -0.347 N 
HETATM   13  C   UNL     1      -2.904   4.642 -31.647  1.00  0.00     0.270 C 
HETATM   14  O   UNL     1      -3.141   4.454 -32.837  1.00  0.00    -0.266 OA
HETATM   15  H   UNL     1      -3.532   4.474 -29.677  1.00  0.00     0.163 HD
BRANCH  13  16
HETATM   16  C   UNL     1      -1.569   5.131 -31.217  1.00  0.00     0.120 A 
HETATM   17  N   UNL     1      -1.362   5.558 -29.923  1.00  0.00    -0.303 N 
HETATM   18  C   UNL     1      -0.035   5.962 -29.771  1.00  0.00     0.324 A 
HETATM   19  H   UNL     1      -2.065   5.566 -29.200  1.00  0.00     0.171 HD
HETATM   20  O   UNL     1       0.509   6.394 -28.773  1.00  0.00    -0.247 OA
HETATM   21  N   UNL     1       0.538   5.759 -31.034  1.00  0.00    -0.316 N 
HETATM   22  C   UNL     1      -0.412   5.253 -31.889  1.00  0.00     0.128 A 
HETATM   23  H   UNL     1       1.505   5.960 -31.239  1.00  0.00     0.170 HD
ENDBRANCH  13  16
ENDBRANCH  11  12
BRANCH   1  24
HETATM   24  C   UNL     1      -5.412  -0.674 -33.151  1.00  0.00     0.064 A 
HETATM   25  C   UNL     1      -6.735  -1.075 -33.465  1.00  0.00    -0.033 A 
HETATM   26  C   UNL     1      -7.975  -0.394 -32.945  1.00  0.00     0.050 C 
HETATM   27  C   UNL     1      -6.928  -2.168 -34.335  1.00  0.00     0.009 A 
HETATM   28  C   UNL     1      -5.851  -2.847 -34.898  1.00  0.00     0.001 A 
HETATM   29  C   UNL     1      -4.556  -2.456 -34.589  1.00  0.00     0.002 A 
HETATM   30  C   UNL     1      -4.338  -1.385 -33.719  1.00  0.00     0.032 A 
ENDBRANCH   1  24
TORSDOF 3
ENDMDL
MODEL 9
REMARK VINA RESULT:      -8.0      3.620      4.536
REMARK  3 active torsions:
REMARK  status: ('A' for Active; 'I' for Inactive)
REMARK    1  A    between atoms: C_3  and  N_4 
REMARK    2  A    between atoms: C_14  and  N_15 
REMARK       I    between atoms: N_15  and  C_16 
REMARK    3  A    between atoms: C_16  and  C_17 
ROOT
HETATM    1  N   UNL     1      -6.074   0.548 -31.742  1.00  0.00    -0.237 N 
HETATM    2  N   UNL     1      -5.647   0.342 -30.465  1.00  0.00    -0.179 NA
HETATM    3  C   UNL     1      -5.876   1.478 -29.816  1.00  0.00     0.150 A 
HETATM    4  C   UNL     1      -6.441   2.457 -30.639  1.00  0.00     0.008 A 
HETATM    5  C   UNL     1      -6.586   1.838 -31.866  1.00  0.00     0.047 A 
HETATM    6  C   UNL     1      -7.280   2.451 -33.042  1.00  0.00     0.069 C 
HETATM    7  C   UNL     1      -8.163   3.664 -32.607  1.00  0.00    -0.040 C 
HETATM    8  C   UNL     1      -9.487   3.176 -31.989  1.00  0.00     0.015 C 
HETATM    9  C   UNL     1      -8.500   4.500 -33.857  1.00  0.00     0.015 C 
HETATM   10  C   UNL     1      -7.384   4.564 -31.600  1.00  0.00     0.039 C 
HETATM   11  C   UNL     1      -6.930   3.827 -30.317  1.00  0.00     0.122 C 
ENDROOT
BRANCH  11  12
HETATM   12  N   UNL     1      -5.858   4.551 -29.666  1.00  0.00    -0.347 N 
HETATM   13  C   UNL     1      -6.105   5.356 -28.584  1.00  0.00     0.270 C 
HETATM   14  O   UNL     1      -7.207   5.467 -28.054  1.00  0.00    -0.266 OA
HETATM   15  H   UNL     1      -4.964   4.581 -30.133  1.00  0.00     0.163 HD
BRANCH  13  16
HETATM   16  C   UNL     1      -4.945   6.129 -28.070  1.00  0.00     0.120 A 
HETATM   17  N   UNL     1      -4.485   5.935 -26.786  1.00  0.00    -0.303 N 
HETATM   18  C   UNL     1      -3.395   6.771 -26.547  1.00  0.00     0.324 A 
HETATM   19  H   UNL     1      -4.879   5.279 -26.127  1.00  0.00     0.171 HD
HETATM   20  O   UNL     1      -2.734   6.874 -25.532  1.00  0.00    -0.247 OA
HETATM   21  N   UNL     1      -3.226   7.475 -27.748  1.00  0.00    -0.316 N 
HETATM   22  C   UNL     1      -4.176   7.064 -28.653  1.00  0.00     0.128 A 
HETATM   23  H   UNL     1      -2.501   8.163 -27.886  1.00  0.00     0.170 HD
ENDBRANCH  13  16
ENDBRANCH  11  12
BRANCH   1  24
HETATM   24  C   UNL     1      -5.929  -0.483 -32.728  1.00  0.00     0.064 A 
HETATM   25  C   UNL     1      -4.660  -0.880 -33.219  1.00  0.00    -0.033 A 
HETATM   26  C   UNL     1      -3.348  -0.318 -32.735  1.00  0.00     0.050 C 
HETATM   27  C   UNL     1      -4.594  -1.880 -34.211  1.00  0.00     0.009 A 
HETATM   28  C   UNL     1      -5.745  -2.490 -34.704  1.00  0.00     0.001 A 
HETATM   29  C   UNL     1      -6.987  -2.100 -34.225  1.00  0.00     0.002 A 
HETATM   30  C   UNL     1      -7.080  -1.102 -33.252  1.00  0.00     0.032 A 
ENDBRANCH   1  24
TORSDOF 3
ENDMDL
MODEL 10
REMARK VINA RESULT:      -8.0      5.671      8.825
REMARK  3 active torsions:
REMARK  status: ('A' for Active; 'I' for Inactive)
REMARK    1  A    between atoms: C_3  and  N_4 
REMARK    2  A    between atoms: C_14  and  N_15 
REMARK       I    between atoms: N_15  and  C_16 
REMARK    3  A    between atoms: C_16  and  C_17 
ROOT
HETATM    1  N   UNL     1      -3.803   6.326 -31.127  1.00  0.00    -0.237 N 
HETATM    2  N   UNL     1      -4.461   7.410 -30.630  1.00  0.00    -0.179 NA
HETATM    3  C   UNL     1      -3.631   7.973 -29.759  1.00  0.00     0.150 A 
HETATM    4  C   UNL     1      -2.423   7.278 -29.648  1.00  0.00     0.008 A 
HETATM    5  C   UNL     1      -2.538   6.236 -30.550  1.00  0.00     0.047 A 
HETATM    6  C   UNL     1      -1.429   5.290 -30.889  1.00  0.00     0.069 C 
HETATM    7  C   UNL     1      -0.045   5.855 -30.434  1.00  0.00    -0.040 C 
HETATM    8  C   UNL     1       0.461   6.917 -31.430  1.00  0.00     0.015 C 
HETATM    9  C   UNL     1       0.974   4.700 -30.411  1.00  0.00     0.015 C 
HETATM   10  C   UNL     1      -0.153   6.454 -28.999  1.00  0.00     0.039 C 
HETATM   11  C   UNL     1      -1.194   7.592 -28.868  1.00  0.00     0.122 C 
ENDROOT
BRANCH  11  12
HETATM   12  N   UNL     1      -1.572   7.780 -27.482  1.00  0.00    -0.347 N 
HETATM   13  C   UNL     1      -1.471   9.010 -26.884  1.00  0.00     0.270 C 
HETATM   14  O   UNL     1      -1.134  10.031 -27.477  1.00  0.00    -0.266 OA
HETATM   15  H   UNL     1      -1.742   6.954 -26.928  1.00  0.00     0.163 HD
BRANCH  13  16
HETATM   16  C   UNL     1      -1.785   9.055 -25.433  1.00  0.00     0.120 A 
HETATM   17  N   UNL     1      -1.011   9.800 -24.570  1.00  0.00    -0.303 N 
HETATM   18  C   UNL     1      -1.510   9.681 -23.272  1.00  0.00     0.324 A 
HETATM   19  H   UNL     1      -0.212  10.352 -24.844  1.00  0.00     0.171 HD
HETATM   20  O   UNL     1      -1.087  10.196 -22.255  1.00  0.00    -0.247 OA
HETATM   21  N   UNL     1      -2.615   8.829 -23.400  1.00  0.00    -0.316 N 
HETATM   22  C   UNL     1      -2.761   8.468 -24.719  1.00  0.00     0.128 A 
HETATM   23  H   UNL     1      -3.193   8.554 -22.620  1.00  0.00     0.170 HD
ENDBRANCH  13  16
ENDBRANCH  11  12
BRANCH   1  24
HETATM   24  C   UNL     1      -4.445   5.462 -32.074  1.00  0.00     0.064 A 
HETATM   25  C   UNL     1      -5.167   4.310 -31.671  1.00  0.00    -0.033 A 
HETATM   26  C   UNL     1      -5.384   3.901 -30.237  1.00  0.00     0.050 C 
HETATM   27  C   UNL     1      -5.748   3.488 -32.660  1.00  0.00     0.009 A 
HETATM   28  C   UNL     1      -5.636   3.794 -34.014  1.00  0.00     0.001 A 
HETATM   29  C   UNL     1      -4.928   4.920 -34.408  1.00  0.00     0.002 A 
HETATM   30  C   UNL     1      -4.333   5.742 -33.448  1.00  0.00     0.032 A 
ENDBRANCH   1  24
TORSDOF 3
ENDMDL
