MODEL 1
REMARK VINA RESULT:      -9.1      0.000      0.000
REMARK  7 active torsions:
REMARK  status: ('A' for Active; 'I' for Inactive)
REMARK    1  A    between atoms: O_2  and  C_3 
REMARK    2  A    between atoms: C_6  and  C_7 
REMARK    3  A    between atoms: C_11  and  C_12 
REMARK       I    between atoms: C_12  and  N_13 
REMARK    4  A    between atoms: N_13  and  N_14 
REMARK       I    between atoms: N_14  and  C_15 
REMARK    5  A    between atoms: C_15  and  C_16 
REMARK    6  A    between atoms: C_16  and  C_17 
REMARK    7  A    between atoms: C_17  and  C_18 
ROOT
HETATM    1  C   UNL     1      -4.089   3.982 -31.466  1.00  0.00     0.288 C 
HETATM    2  N   UNL     1      -2.733   3.841 -31.259  1.00  0.00    -0.262 N 
HETATM    3  O   UNL     1      -4.677   5.032 -31.211  1.00  0.00    -0.264 OA
HETATM    4  H   UNL     1      -2.217   2.978 -31.413  1.00  0.00     0.190 HD
ENDROOT
BRANCH   1   5
HETATM    5  C   UNL     1      -4.754   2.833 -32.008  1.00  0.00     0.121 A 
HETATM    6  N   UNL     1      -6.103   2.815 -32.228  1.00  0.00    -0.272 N 
HETATM    7  N   UNL     1      -6.560   1.668 -32.750  1.00  0.00    -0.174 NA
HETATM    8  H   UNL     1      -6.762   3.564 -32.036  1.00  0.00     0.189 HD
HETATM    9  C   UNL     1      -5.465   0.911 -32.917  1.00  0.00     0.089 A 
HETATM   10  C   UNL     1      -4.313   1.598 -32.441  1.00  0.00     0.071 A 
BRANCH   9  11
HETATM   11  C   UNL     1      -5.531  -0.426 -33.513  1.00  0.00    -0.005 A 
HETATM   12  C   UNL     1      -4.409  -1.265 -33.529  1.00  0.00     0.016 A 
HETATM   13  C   UNL     1      -4.487  -2.543 -34.090  1.00  0.00     0.037 A 
HETATM   14  C   UNL     1      -5.684  -3.011 -34.634  1.00  0.00     0.068 A 
HETATM   15  C   UNL     1      -6.800  -2.176 -34.642  1.00  0.00     0.037 A 
HETATM   16  C   UNL     1      -6.722  -0.892 -34.086  1.00  0.00     0.016 A 
BRANCH  14  17
HETATM   17  O   UNL     1      -5.628  -4.282 -35.134  1.00  0.00    -0.356 OA
HETATM   18  C   UNL     1      -4.805  -5.204 -34.431  1.00  0.00     0.210 C 
ENDBRANCH  14  17
ENDBRANCH   9  11
ENDBRANCH   1   5
BRANCH   2  19
HETATM   19  N   UNL     1      -1.997   4.940 -30.807  1.00  0.00    -0.267 N 
HETATM   20  C   UNL     1      -1.242   5.636 -31.724  1.00  0.00     0.236 C 
HETATM   21  O   UNL     1      -1.129   5.271 -32.893  1.00  0.00    -0.272 OA
HETATM   22  H   UNL     1      -2.222   5.278 -29.872  1.00  0.00     0.190 HD
BRANCH  20  23
HETATM   23  C   UNL     1      -0.640   6.929 -31.216  1.00  0.00     0.109 C 
BRANCH  23  24
HETATM   24  C   UNL     1       0.688   6.732 -30.486  1.00  0.00     0.048 C 
BRANCH  24  25
HETATM   25  C   UNL     1       0.680   7.043 -29.005  1.00  0.00    -0.055 A 
HETATM   26  C   UNL     1       0.061   6.133 -28.133  1.00  0.00     0.049 A 
HETATM   27  C   UNL     1      -0.009   6.399 -26.769  1.00  0.00     0.116 A 
HETATM   28  F   UNL     1      -0.604   5.517 -25.954  1.00  0.00    -0.206 F 
HETATM   29  C   UNL     1       0.520   7.568 -26.240  1.00  0.00     0.042 A 
HETATM   30  C   UNL     1       1.126   8.488 -27.092  1.00  0.00     0.003 A 
HETATM   31  C   UNL     1       1.200   8.230 -28.466  1.00  0.00     0.007 A 
ENDBRANCH  24  25
ENDBRANCH  23  24
ENDBRANCH  20  23
ENDBRANCH   2  19
TORSDOF 7
ENDMDL
MODEL 2
REMARK VINA RESULT:      -8.8      3.738     11.255
REMARK  7 active torsions:
REMARK  status: ('A' for Active; 'I' for Inactive)
REMARK    1  A    between atoms: O_2  and  C_3 
REMARK    2  A    between atoms: C_6  and  C_7 
REMARK    3  A    between atoms: C_11  and  C_12 
REMARK       I    between atoms: C_12  and  N_13 
REMARK    4  A    between atoms: N_13  and  N_14 
REMARK       I    between atoms: N_14  and  C_15 
REMARK    5  A    between atoms: C_15  and  C_16 
REMARK    6  A    between atoms: C_16  and  C_17 
REMARK    7  A    between atoms: C_17  and  C_18 
ROOT
HETATM    1  C   UNL     1      -2.566   3.884 -32.177  1.00  0.00     0.288 C 
HETATM    2  N   UNL     1      -3.098   2.970 -31.294  1.00  0.00    -0.262 N 
HETATM    3  O   UNL     1      -2.775   3.813 -33.387  1.00  0.00    -0.264 OA
HETATM    4  H   UNL     1      -2.913   2.965 -30.294  1.00  0.00     0.190 HD
ENDROOT
BRANCH   1   5
HETATM    5  C   UNL     1      -1.769   4.922 -31.587  1.00  0.00     0.121 A 
HETATM    6  N   UNL     1      -0.738   5.513 -32.262  1.00  0.00    -0.272 N 
HETATM    7  N   UNL     1      -0.107   6.471 -31.570  1.00  0.00    -0.174 NA
HETATM    8  H   UNL     1      -0.421   5.296 -33.202  1.00  0.00     0.189 HD
HETATM    9  C   UNL     1      -0.769   6.544 -30.406  1.00  0.00     0.089 A 
HETATM   10  C   UNL     1      -1.807   5.569 -30.369  1.00  0.00     0.071 A 
BRANCH   9  11
HETATM   11  C   UNL     1      -0.413   7.515 -29.369  1.00  0.00    -0.005 A 
HETATM   12  C   UNL     1      -1.341   8.463 -28.919  1.00  0.00     0.016 A 
HETATM   13  C   UNL     1      -0.993   9.378 -27.920  1.00  0.00     0.037 A 
HETATM   14  C   UNL     1       0.279   9.358 -27.348  1.00  0.00     0.068 A 
HETATM   15  C   UNL     1       1.217   8.434 -27.804  1.00  0.00     0.037 A 
HETATM   16  C   UNL     1       0.872   7.520 -28.809  1.00  0.00     0.016 A 
BRANCH  14  17
HETATM   17  O   UNL     1       0.483  10.294 -26.373  1.00  0.00    -0.356 OA
HETATM   18  C   UNL     1       0.634   9.806 -25.046  1.00  0.00     0.210 C 
ENDBRANCH  14  17
ENDBRANCH   9  11
ENDBRANCH   1   5
BRANCH   2  19
HETATM   19  N   UNL     1      -3.950   1.974 -31.779  1.00  0.00    -0.267 N 
HETATM   20  C   UNL     1      -3.599   0.660 -31.566  1.00  0.00     0.236 C 
HETATM   21  O   UNL     1      -2.531   0.342 -31.046  1.00  0.00    -0.272 OA
HETATM   22  H   UNL     1      -4.873   2.281 -32.083  1.00  0.00     0.190 HD
BRANCH  20  23
HETATM   23  C   UNL     1      -4.659  -0.358 -31.930  1.00  0.00     0.109 C 
BRANCH  23  24
HETATM   24  C   UNL     1      -4.649  -0.739 -33.411  1.00  0.00     0.048 C 
BRANCH  24  25
HETATM   25  C   UNL     1      -4.602  -2.222 -33.710  1.00  0.00    -0.055 A 
HETATM   26  C   UNL     1      -5.606  -2.773 -34.523  1.00  0.00     0.049 A 
HETATM   27  C   UNL     1      -5.627  -4.139 -34.789  1.00  0.00     0.116 A 
HETATM   28  F   UNL     1      -6.593  -4.644 -35.568  1.00  0.00    -0.206 F 
HETATM   29  C   UNL     1      -4.668  -4.987 -34.253  1.00  0.00     0.042 A 
HETATM   30  C   UNL     1      -3.674  -4.460 -33.434  1.00  0.00     0.003 A 
HETATM   31  C   UNL     1      -3.644  -3.087 -33.159  1.00  0.00     0.007 A 
ENDBRANCH  24  25
ENDBRANCH  23  24
ENDBRANCH  20  23
ENDBRANCH   2  19
TORSDOF 7
ENDMDL
MODEL 3
REMARK VINA RESULT:      -8.3      3.080      3.808
REMARK  7 active torsions:
REMARK  status: ('A' for Active; 'I' for Inactive)
REMARK    1  A    between atoms: O_2  and  C_3 
REMARK    2  A    between atoms: C_6  and  C_7 
REMARK    3  A    between atoms: C_11  and  C_12 
REMARK       I    between atoms: C_12  and  N_13 
REMARK    4  A    between atoms: N_13  and  N_14 
REMARK       I    between atoms: N_14  and  C_15 
REMARK    5  A    between atoms: C_15  and  C_16 
REMARK    6  A    between atoms: C_16  and  C_17 
REMARK    7  A    between atoms: C_17  and  C_18 
ROOT
HETATM    1  C   UNL     1      -3.736   2.742 -31.273  1.00  0.00     0.288 C 
HETATM    2  N   UNL     1      -3.348   4.046 -31.052  1.00  0.00    -0.262 N 
HETATM    3  O   UNL     1      -2.919   1.824 -31.328  1.00  0.00    -0.264 OA
HETATM    4  H   UNL     1      -3.984   4.839 -31.045  1.00  0.00     0.190 HD
ENDROOT
BRANCH   1   5
HETATM    5  C   UNL     1      -5.148   2.533 -31.420  1.00  0.00     0.121 A 
HETATM    6  N   UNL     1      -6.006   2.632 -30.361  1.00  0.00    -0.272 N 
HETATM    7  N   UNL     1      -7.292   2.420 -30.675  1.00  0.00    -0.174 NA
HETATM    8  H   UNL     1      -5.765   2.843 -29.397  1.00  0.00     0.189 HD
HETATM    9  C   UNL     1      -7.289   2.209 -32.000  1.00  0.00     0.089 A 
HETATM   10  C   UNL     1      -5.956   2.248 -32.501  1.00  0.00     0.071 A 
BRANCH   9  11
HETATM   11  C   UNL     1      -8.524   1.977 -32.751  1.00  0.00    -0.005 A 
HETATM   12  C   UNL     1      -9.308   0.840 -32.519  1.00  0.00     0.016 A 
HETATM   13  C   UNL     1     -10.492   0.636 -33.234  1.00  0.00     0.037 A 
HETATM   14  C   UNL     1     -10.920   1.564 -34.184  1.00  0.00     0.068 A 
HETATM   15  C   UNL     1     -10.137   2.688 -34.438  1.00  0.00     0.037 A 
HETATM   16  C   UNL     1      -8.947   2.892 -33.727  1.00  0.00     0.016 A 
BRANCH  14  17
HETATM   17  O   UNL     1     -12.100   1.251 -34.799  1.00  0.00    -0.356 OA
HETATM   18  C   UNL     1     -13.028   0.487 -34.039  1.00  0.00     0.210 C 
ENDBRANCH  14  17
ENDBRANCH   9  11
ENDBRANCH   1   5
BRANCH   2  19
HETATM   19  N   UNL     1      -1.997   4.322 -30.820  1.00  0.00    -0.267 N 
HETATM   20  C   UNL     1      -1.386   5.273 -31.605  1.00  0.00     0.236 C 
HETATM   21  O   UNL     1      -1.962   5.814 -32.548  1.00  0.00    -0.272 OA
HETATM   22  H   UNL     1      -1.604   3.950 -29.957  1.00  0.00     0.190 HD
BRANCH  20  23
HETATM   23  C   UNL     1       0.008   5.671 -31.170  1.00  0.00     0.109 C 
BRANCH  23  24
HETATM   24  C   UNL     1       0.083   7.088 -30.600  1.00  0.00     0.048 C 
BRANCH  24  25
HETATM   25  C   UNL     1       0.404   7.190 -29.125  1.00  0.00    -0.055 A 
HETATM   26  C   UNL     1      -0.233   6.307 -28.238  1.00  0.00     0.049 A 
HETATM   27  C   UNL     1      -0.001   6.395 -26.869  1.00  0.00     0.116 A 
HETATM   28  F   UNL     1      -0.618   5.542 -26.040  1.00  0.00    -0.206 F 
HETATM   29  C   UNL     1       0.853   7.357 -26.347  1.00  0.00     0.042 A 
HETATM   30  C   UNL     1       1.482   8.249 -27.211  1.00  0.00     0.003 A 
HETATM   31  C   UNL     1       1.254   8.170 -28.590  1.00  0.00     0.007 A 
ENDBRANCH  24  25
ENDBRANCH  23  24
ENDBRANCH  20  23
ENDBRANCH   2  19
TORSDOF 7
ENDMDL
MODEL 4
REMARK VINA RESULT:      -8.2      1.689      2.217
REMARK  7 active torsions:
REMARK  status: ('A' for Active; 'I' for Inactive)
REMARK    1  A    between atoms: O_2  and  C_3 
REMARK    2  A    between atoms: C_6  and  C_7 
REMARK    3  A    between atoms: C_11  and  C_12 
REMARK       I    between atoms: C_12  and  N_13 
REMARK    4  A    between atoms: N_13  and  N_14 
REMARK       I    between atoms: N_14  and  C_15 
REMARK    5  A    between atoms: C_15  and  C_16 
REMARK    6  A    between atoms: C_16  and  C_17 
REMARK    7  A    between atoms: C_17  and  C_18 
ROOT
HETATM    1  C   UNL     1      -3.050   3.899 -31.447  1.00  0.00     0.288 C 
HETATM    2  N   UNL     1      -3.748   4.814 -30.687  1.00  0.00    -0.262 N 
HETATM    3  O   UNL     1      -1.856   4.046 -31.702  1.00  0.00    -0.264 OA
HETATM    4  H   UNL     1      -4.744   4.754 -30.491  1.00  0.00     0.190 HD
ENDROOT
BRANCH   1   5
HETATM    5  C   UNL     1      -3.807   2.768 -31.902  1.00  0.00     0.121 A 
HETATM    6  N   UNL     1      -5.171   2.798 -31.986  1.00  0.00    -0.272 N 
HETATM    7  N   UNL     1      -5.718   1.663 -32.442  1.00  0.00    -0.174 NA
HETATM    8  H   UNL     1      -5.780   3.573 -31.742  1.00  0.00     0.189 HD
HETATM    9  C   UNL     1      -4.674   0.863 -32.704  1.00  0.00     0.089 A 
HETATM   10  C   UNL     1      -3.456   1.513 -32.356  1.00  0.00     0.071 A 
BRANCH   9  11
HETATM   11  C   UNL     1      -4.846  -0.478 -33.269  1.00  0.00    -0.005 A 
HETATM   12  C   UNL     1      -5.924  -0.772 -34.114  1.00  0.00     0.016 A 
HETATM   13  C   UNL     1      -6.071  -2.052 -34.656  1.00  0.00     0.037 A 
HETATM   14  C   UNL     1      -5.144  -3.056 -34.376  1.00  0.00     0.068 A 
HETATM   15  C   UNL     1      -4.080  -2.780 -33.519  1.00  0.00     0.037 A 
HETATM   16  C   UNL     1      -3.934  -1.499 -32.969  1.00  0.00     0.016 A 
BRANCH  14  17
HETATM   17  O   UNL     1      -5.396  -4.255 -34.982  1.00  0.00    -0.356 OA
HETATM   18  C   UNL     1      -6.733  -4.480 -35.411  1.00  0.00     0.210 C 
ENDBRANCH  14  17
ENDBRANCH   9  11
ENDBRANCH   1   5
BRANCH   2  19
HETATM   19  N   UNL     1      -3.065   5.903 -30.140  1.00  0.00    -0.267 N 
HETATM   20  C   UNL     1      -3.280   7.146 -30.689  1.00  0.00     0.236 C 
HETATM   21  O   UNL     1      -3.978   7.310 -31.688  1.00  0.00    -0.272 OA
HETATM   22  H   UNL     1      -2.606   5.741 -29.244  1.00  0.00     0.190 HD
BRANCH  20  23
HETATM   23  C   UNL     1      -2.675   8.304 -29.924  1.00  0.00     0.109 C 
BRANCH  23  24
HETATM   24  C   UNL     1      -2.477   8.009 -28.437  1.00  0.00     0.048 C 
BRANCH  24  25
HETATM   25  C   UNL     1      -1.071   8.194 -27.909  1.00  0.00    -0.055 A 
HETATM   26  C   UNL     1      -0.905   8.608 -26.577  1.00  0.00     0.049 A 
HETATM   27  C   UNL     1       0.368   8.832 -26.063  1.00  0.00     0.116 A 
HETATM   28  F   UNL     1       0.505   9.226 -24.789  1.00  0.00    -0.206 F 
HETATM   29  C   UNL     1       1.499   8.665 -26.850  1.00  0.00     0.042 A 
HETATM   30  C   UNL     1       1.352   8.269 -28.177  1.00  0.00     0.003 A 
HETATM   31  C   UNL     1       0.075   8.041 -28.704  1.00  0.00     0.007 A 
ENDBRANCH  24  25
ENDBRANCH  23  24
ENDBRANCH  20  23
ENDBRANCH   2  19
TORSDOF 7
ENDMDL
MODEL 5
REMARK VINA RESULT:      -8.1      2.272      3.223
REMARK  7 active torsions:
REMARK  status: ('A' for Active; 'I' for Inactive)
REMARK    1  A    between atoms: O_2  and  C_3 
REMARK    2  A    between atoms: C_6  and  C_7 
REMARK    3  A    between atoms: C_11  and  C_12 
REMARK       I    between atoms: C_12  and  N_13 
REMARK    4  A    between atoms: N_13  and  N_14 
REMARK       I    between atoms: N_14  and  C_15 
REMARK    5  A    between atoms: C_15  and  C_16 
REMARK    6  A    between atoms: C_16  and  C_17 
REMARK    7  A    between atoms: C_17  and  C_18 
ROOT
HETATM    1  C   UNL     1      -4.079   4.334 -31.278  1.00  0.00     0.288 C 
HETATM    2  N   UNL     1      -4.631   4.827 -30.115  1.00  0.00    -0.262 N 
HETATM    3  O   UNL     1      -3.106   4.867 -31.809  1.00  0.00    -0.264 OA
HETATM    4  H   UNL     1      -5.462   4.445 -29.669  1.00  0.00     0.190 HD
ENDROOT
BRANCH   1   5
HETATM    5  C   UNL     1      -4.708   3.160 -31.811  1.00  0.00     0.121 A 
HETATM    6  N   UNL     1      -6.066   3.060 -31.935  1.00  0.00    -0.272 N 
HETATM    7  N   UNL     1      -6.485   1.901 -32.463  1.00  0.00    -0.174 NA
HETATM    8  H   UNL     1      -6.755   3.758 -31.672  1.00  0.00     0.189 HD
HETATM    9  C   UNL     1      -5.359   1.223 -32.732  1.00  0.00     0.089 A 
HETATM   10  C   UNL     1      -4.222   1.970 -32.315  1.00  0.00     0.071 A 
BRANCH   9  11
HETATM   11  C   UNL     1      -5.383  -0.097 -33.367  1.00  0.00    -0.005 A 
HETATM   12  C   UNL     1      -6.446  -0.482 -34.194  1.00  0.00     0.016 A 
HETATM   13  C   UNL     1      -6.451  -1.740 -34.804  1.00  0.00     0.037 A 
HETATM   14  C   UNL     1      -5.395  -2.630 -34.610  1.00  0.00     0.068 A 
HETATM   15  C   UNL     1      -4.343  -2.267 -33.772  1.00  0.00     0.037 A 
HETATM   16  C   UNL     1      -4.338  -1.008 -33.154  1.00  0.00     0.016 A 
BRANCH  14  17
HETATM   17  O   UNL     1      -5.517  -3.818 -35.276  1.00  0.00    -0.356 OA
HETATM   18  C   UNL     1      -6.723  -4.542 -35.067  1.00  0.00     0.210 C 
ENDBRANCH  14  17
ENDBRANCH   9  11
ENDBRANCH   1   5
BRANCH   2  19
HETATM   19  N   UNL     1      -4.029   5.922 -29.489  1.00  0.00    -0.267 N 
HETATM   20  C   UNL     1      -4.539   7.175 -29.742  1.00  0.00     0.236 C 
HETATM   21  O   UNL     1      -5.439   7.364 -30.559  1.00  0.00    -0.272 OA
HETATM   22  H   UNL     1      -3.382   5.707 -28.732  1.00  0.00     0.190 HD
BRANCH  20  23
HETATM   23  C   UNL     1      -3.980   8.286 -28.879  1.00  0.00     0.109 C 
BRANCH  23  24
HETATM   24  C   UNL     1      -2.906   9.116 -29.582  1.00  0.00     0.048 C 
BRANCH  24  25
HETATM   25  C   UNL     1      -1.758   8.337 -30.185  1.00  0.00    -0.055 A 
HETATM   26  C   UNL     1      -1.741   8.136 -31.574  1.00  0.00     0.049 A 
HETATM   27  C   UNL     1      -0.728   7.388 -32.166  1.00  0.00     0.116 A 
HETATM   28  F   UNL     1      -0.731   7.209 -33.494  1.00  0.00    -0.206 F 
HETATM   29  C   UNL     1       0.279   6.816 -31.402  1.00  0.00     0.042 A 
HETATM   30  C   UNL     1       0.271   6.994 -30.022  1.00  0.00     0.003 A 
HETATM   31  C   UNL     1      -0.745   7.744 -29.416  1.00  0.00     0.007 A 
ENDBRANCH  24  25
ENDBRANCH  23  24
ENDBRANCH  20  23
ENDBRANCH   2  19
TORSDOF 7
ENDMDL
MODEL 6
REMARK VINA RESULT:      -8.1      8.389     12.152
REMARK  7 active torsions:
REMARK  status: ('A' for Active; 'I' for Inactive)
REMARK    1  A    between atoms: O_2  and  C_3 
REMARK    2  A    between atoms: C_6  and  C_7 
REMARK    3  A    between atoms: C_11  and  C_12 
REMARK       I    between atoms: C_12  and  N_13 
REMARK    4  A    between atoms: N_13  and  N_14 
REMARK       I    between atoms: N_14  and  C_15 
REMARK    5  A    between atoms: C_15  and  C_16 
REMARK    6  A    between atoms: C_16  and  C_17 
REMARK    7  A    between atoms: C_17  and  C_18 
ROOT
HETATM    1  C   UNL     1     -11.558   1.293 -33.778  1.00  0.00     0.288 C 
HETATM    2  N   UNL     1     -10.783   0.678 -32.818  1.00  0.00    -0.262 N 
HETATM    3  O   UNL     1     -11.119   1.547 -34.900  1.00  0.00    -0.264 OA
HETATM    4  H   UNL     1     -11.091   0.493 -31.867  1.00  0.00     0.190 HD
ENDROOT
BRANCH   1   5
HETATM    5  C   UNL     1     -12.902   1.601 -33.384  1.00  0.00     0.121 A 
HETATM    6  N   UNL     1     -13.879   0.646 -33.340  1.00  0.00    -0.272 N 
HETATM    7  N   UNL     1     -15.074   1.100 -32.939  1.00  0.00    -0.174 NA
HETATM    8  H   UNL     1     -13.782  -0.337 -33.577  1.00  0.00     0.189 HD
HETATM    9  C   UNL     1     -14.872   2.399 -32.670  1.00  0.00     0.089 A 
HETATM   10  C   UNL     1     -13.525   2.758 -32.960  1.00  0.00     0.071 A 
BRANCH   9  11
HETATM   11  C   UNL     1     -15.939   3.260 -32.155  1.00  0.00    -0.005 A 
HETATM   12  C   UNL     1     -15.673   4.573 -31.747  1.00  0.00     0.016 A 
HETATM   13  C   UNL     1     -16.703   5.389 -31.268  1.00  0.00     0.037 A 
HETATM   14  C   UNL     1     -18.013   4.916 -31.197  1.00  0.00     0.068 A 
HETATM   15  C   UNL     1     -18.285   3.604 -31.580  1.00  0.00     0.037 A 
HETATM   16  C   UNL     1     -17.253   2.782 -32.055  1.00  0.00     0.016 A 
BRANCH  14  17
HETATM   17  O   UNL     1     -18.924   5.820 -30.726  1.00  0.00    -0.356 OA
HETATM   18  C   UNL     1     -18.820   6.168 -29.352  1.00  0.00     0.210 C 
ENDBRANCH  14  17
ENDBRANCH   9  11
ENDBRANCH   1   5
BRANCH   2  19
HETATM   19  N   UNL     1      -9.486   0.275 -33.149  1.00  0.00    -0.267 N 
HETATM   20  C   UNL     1      -8.464   0.612 -32.291  1.00  0.00     0.236 C 
HETATM   21  O   UNL     1      -8.643   1.323 -31.304  1.00  0.00    -0.272 OA
HETATM   22  H   UNL     1      -9.406  -0.413 -33.896  1.00  0.00     0.190 HD
BRANCH  20  23
HETATM   23  C   UNL     1      -7.126  -0.028 -32.597  1.00  0.00     0.109 C 
BRANCH  23  24
HETATM   24  C   UNL     1      -7.028  -0.572 -34.022  1.00  0.00     0.048 C 
BRANCH  24  25
HETATM   25  C   UNL     1      -6.187  -1.818 -34.197  1.00  0.00    -0.055 A 
HETATM   26  C   UNL     1      -6.764  -2.932 -34.828  1.00  0.00     0.049 A 
HETATM   27  C   UNL     1      -6.043  -4.113 -34.970  1.00  0.00     0.116 A 
HETATM   28  F   UNL     1      -6.612  -5.165 -35.576  1.00  0.00    -0.206 F 
HETATM   29  C   UNL     1      -4.746  -4.223 -34.487  1.00  0.00     0.042 A 
HETATM   30  C   UNL     1      -4.164  -3.133 -33.847  1.00  0.00     0.003 A 
HETATM   31  C   UNL     1      -4.882  -1.940 -33.697  1.00  0.00     0.007 A 
ENDBRANCH  24  25
ENDBRANCH  23  24
ENDBRANCH  20  23
ENDBRANCH   2  19
TORSDOF 7
ENDMDL
MODEL 7
REMARK VINA RESULT:      -8.0      3.383     11.170
REMARK  7 active torsions:
REMARK  status: ('A' for Active; 'I' for Inactive)
REMARK    1  A    between atoms: O_2  and  C_3 
REMARK    2  A    between atoms: C_6  and  C_7 
REMARK    3  A    between atoms: C_11  and  C_12 
REMARK       I    between atoms: C_12  and  N_13 
REMARK    4  A    between atoms: N_13  and  N_14 
REMARK       I    between atoms: N_14  and  C_15 
REMARK    5  A    between atoms: C_15  and  C_16 
REMARK    6  A    between atoms: C_16  and  C_17 
REMARK    7  A    between atoms: C_17  and  C_18 
ROOT
HETATM    1  C   UNL     1      -2.376   4.883 -32.227  1.00  0.00     0.288 C 
HETATM    2  N   UNL     1      -3.606   4.372 -31.873  1.00  0.00    -0.262 N 
HETATM    3  O   UNL     1      -1.759   4.467 -33.207  1.00  0.00    -0.264 OA
HETATM    4  H   UNL     1      -4.127   4.655 -31.046  1.00  0.00     0.190 HD
ENDROOT
BRANCH   1   5
HETATM    5  C   UNL     1      -1.878   5.934 -31.386  1.00  0.00     0.121 A 
HETATM    6  N   UNL     1      -2.068   7.253 -31.688  1.00  0.00    -0.272 N 
HETATM    7  N   UNL     1      -1.550   8.103 -30.791  1.00  0.00    -0.174 NA
HETATM    8  H   UNL     1      -2.547   7.630 -32.501  1.00  0.00     0.189 HD
HETATM    9  C   UNL     1      -1.029   7.315 -29.838  1.00  0.00     0.089 A 
HETATM   10  C   UNL     1      -1.194   5.945 -30.187  1.00  0.00     0.071 A 
BRANCH   9  11
HETATM   11  C   UNL     1      -0.395   7.866 -28.637  1.00  0.00    -0.005 A 
HETATM   12  C   UNL     1       0.994   8.027 -28.564  1.00  0.00     0.016 A 
HETATM   13  C   UNL     1       1.586   8.565 -27.417  1.00  0.00     0.037 A 
HETATM   14  C   UNL     1       0.806   8.960 -26.330  1.00  0.00     0.068 A 
HETATM   15  C   UNL     1      -0.576   8.784 -26.384  1.00  0.00     0.037 A 
HETATM   16  C   UNL     1      -1.171   8.239 -27.531  1.00  0.00     0.016 A 
BRANCH  14  17
HETATM   17  O   UNL     1       1.508   9.484 -25.281  1.00  0.00    -0.356 OA
HETATM   18  C   UNL     1       2.559   8.682 -24.757  1.00  0.00     0.210 C 
ENDBRANCH  14  17
ENDBRANCH   9  11
ENDBRANCH   1   5
BRANCH   2  19
HETATM   19  N   UNL     1      -4.197   3.401 -32.686  1.00  0.00    -0.267 N 
HETATM   20  C   UNL     1      -4.259   2.110 -32.213  1.00  0.00     0.236 C 
HETATM   21  O   UNL     1      -3.740   1.775 -31.149  1.00  0.00    -0.272 OA
HETATM   22  H   UNL     1      -4.721   3.745 -33.489  1.00  0.00     0.190 HD
BRANCH  20  23
HETATM   23  C   UNL     1      -5.090   1.156 -33.046  1.00  0.00     0.109 C 
BRANCH  23  24
HETATM   24  C   UNL     1      -5.424  -0.147 -32.321  1.00  0.00     0.048 C 
BRANCH  24  25
HETATM   25  C   UNL     1      -5.574  -1.371 -33.198  1.00  0.00    -0.055 A 
HETATM   26  C   UNL     1      -4.444  -2.172 -33.428  1.00  0.00     0.049 A 
HETATM   27  C   UNL     1      -4.526  -3.282 -34.264  1.00  0.00     0.116 A 
HETATM   28  F   UNL     1      -3.437  -4.034 -34.470  1.00  0.00    -0.206 F 
HETATM   29  C   UNL     1      -5.717  -3.618 -34.894  1.00  0.00     0.042 A 
HETATM   30  C   UNL     1      -6.843  -2.826 -34.687  1.00  0.00     0.003 A 
HETATM   31  C   UNL     1      -6.771  -1.706 -33.849  1.00  0.00     0.007 A 
ENDBRANCH  24  25
ENDBRANCH  23  24
ENDBRANCH  20  23
ENDBRANCH   2  19
TORSDOF 7
ENDMDL
MODEL 8
REMARK VINA RESULT:      -8.0      7.114     11.053
REMARK  7 active torsions:
REMARK  status: ('A' for Active; 'I' for Inactive)
REMARK    1  A    between atoms: O_2  and  C_3 
REMARK    2  A    between atoms: C_6  and  C_7 
REMARK    3  A    between atoms: C_11  and  C_12 
REMARK       I    between atoms: C_12  and  N_13 
REMARK    4  A    between atoms: N_13  and  N_14 
REMARK       I    between atoms: N_14  and  C_15 
REMARK    5  A    between atoms: C_15  and  C_16 
REMARK    6  A    between atoms: C_16  and  C_17 
REMARK    7  A    between atoms: C_17  and  C_18 
ROOT
HETATM    1  C   UNL     1      -9.483   1.551 -33.570  1.00  0.00     0.288 C 
HETATM    2  N   UNL     1      -8.338   2.068 -33.002  1.00  0.00    -0.262 N 
HETATM    3  O   UNL     1      -9.456   0.548 -34.282  1.00  0.00    -0.264 OA
HETATM    4  H   UNL     1      -8.309   2.919 -32.446  1.00  0.00     0.190 HD
ENDROOT
BRANCH   1   5
HETATM    5  C   UNL     1     -10.696   2.253 -33.263  1.00  0.00     0.121 A 
HETATM    6  N   UNL     1     -10.741   3.617 -33.181  1.00  0.00    -0.272 N 
HETATM    7  N   UNL     1     -11.954   4.110 -32.898  1.00  0.00    -0.174 NA
HETATM    8  H   UNL     1      -9.966   4.261 -33.308  1.00  0.00     0.189 HD
HETATM    9  C   UNL     1     -12.752   3.033 -32.827  1.00  0.00     0.089 A 
HETATM   10  C   UNL     1     -11.993   1.845 -33.028  1.00  0.00     0.071 A 
BRANCH   9  11
HETATM   11  C   UNL     1     -14.190   3.149 -32.575  1.00  0.00    -0.005 A 
HETATM   12  C   UNL     1     -14.746   4.342 -32.098  1.00  0.00     0.016 A 
HETATM   13  C   UNL     1     -16.122   4.444 -31.872  1.00  0.00     0.037 A 
HETATM   14  C   UNL     1     -16.968   3.364 -32.127  1.00  0.00     0.068 A 
HETATM   15  C   UNL     1     -16.422   2.164 -32.581  1.00  0.00     0.037 A 
HETATM   16  C   UNL     1     -15.042   2.058 -32.802  1.00  0.00     0.016 A 
BRANCH  14  17
HETATM   17  O   UNL     1     -18.291   3.601 -31.880  1.00  0.00    -0.356 OA
HETATM   18  C   UNL     1     -19.182   3.429 -32.975  1.00  0.00     0.210 C 
ENDBRANCH  14  17
ENDBRANCH   9  11
ENDBRANCH   1   5
BRANCH   2  19
HETATM   19  N   UNL     1      -7.126   1.397 -33.188  1.00  0.00    -0.267 N 
HETATM   20  C   UNL     1      -6.659   0.606 -32.163  1.00  0.00     0.236 C 
HETATM   21  O   UNL     1      -7.226   0.542 -31.073  1.00  0.00    -0.272 OA
HETATM   22  H   UNL     1      -6.765   1.377 -34.140  1.00  0.00     0.190 HD
BRANCH  20  23
HETATM   23  C   UNL     1      -5.458  -0.250 -32.504  1.00  0.00     0.109 C 
BRANCH  23  24
HETATM   24  C   UNL     1      -5.427  -0.696 -33.965  1.00  0.00     0.048 C 
BRANCH  24  25
HETATM   25  C   UNL     1      -5.488  -2.189 -34.202  1.00  0.00    -0.055 A 
HETATM   26  C   UNL     1      -4.307  -2.937 -34.069  1.00  0.00     0.049 A 
HETATM   27  C   UNL     1      -4.307  -4.306 -34.320  1.00  0.00     0.116 A 
HETATM   28  F   UNL     1      -3.169  -5.000 -34.186  1.00  0.00    -0.206 F 
HETATM   29  C   UNL     1      -5.464  -4.961 -34.715  1.00  0.00     0.042 A 
HETATM   30  C   UNL     1      -6.641  -4.233 -34.866  1.00  0.00     0.003 A 
HETATM   31  C   UNL     1      -6.652  -2.855 -34.617  1.00  0.00     0.007 A 
ENDBRANCH  24  25
ENDBRANCH  23  24
ENDBRANCH  20  23
ENDBRANCH   2  19
TORSDOF 7
ENDMDL
MODEL 9
REMARK VINA RESULT:      -7.9      7.825     11.757
REMARK  7 active torsions:
REMARK  status: ('A' for Active; 'I' for Inactive)
REMARK    1  A    between atoms: O_2  and  C_3 
REMARK    2  A    between atoms: C_6  and  C_7 
REMARK    3  A    between atoms: C_11  and  C_12 
REMARK       I    between atoms: C_12  and  N_13 
REMARK    4  A    between atoms: N_13  and  N_14 
REMARK       I    between atoms: N_14  and  C_15 
REMARK    5  A    between atoms: C_15  and  C_16 
REMARK    6  A    between atoms: C_16  and  C_17 
REMARK    7  A    between atoms: C_17  and  C_18 
ROOT
HETATM    1  C   UNL     1     -10.927   2.013 -34.225  1.00  0.00     0.288 C 
HETATM    2  N   UNL     1      -9.721   1.868 -34.878  1.00  0.00    -0.262 N 
HETATM    3  O   UNL     1     -11.342   1.164 -33.437  1.00  0.00    -0.264 OA
HETATM    4  H   UNL     1      -9.363   2.521 -35.571  1.00  0.00     0.190 HD
ENDROOT
BRANCH   1   5
HETATM    5  C   UNL     1     -11.647   3.218 -34.518  1.00  0.00     0.121 A 
HETATM    6  N   UNL     1     -12.706   3.630 -33.758  1.00  0.00    -0.272 N 
HETATM    7  N   UNL     1     -13.257   4.783 -34.163  1.00  0.00    -0.174 NA
HETATM    8  H   UNL     1     -13.096   3.157 -32.949  1.00  0.00     0.189 HD
HETATM    9  C   UNL     1     -12.510   5.169 -35.209  1.00  0.00     0.089 A 
HETATM   10  C   UNL     1     -11.503   4.199 -35.479  1.00  0.00     0.071 A 
BRANCH   9  11
HETATM   11  C   UNL     1     -12.762   6.424 -35.920  1.00  0.00    -0.005 A 
HETATM   12  C   UNL     1     -11.789   7.430 -35.974  1.00  0.00     0.016 A 
HETATM   13  C   UNL     1     -12.037   8.619 -36.667  1.00  0.00     0.037 A 
HETATM   14  C   UNL     1     -13.250   8.822 -37.325  1.00  0.00     0.068 A 
HETATM   15  C   UNL     1     -14.233   7.836 -37.259  1.00  0.00     0.037 A 
HETATM   16  C   UNL     1     -13.990   6.646 -36.560  1.00  0.00     0.016 A 
BRANCH  14  17
HETATM   17  O   UNL     1     -13.356  10.019 -37.976  1.00  0.00    -0.356 OA
HETATM   18  C   UNL     1     -14.446  10.155 -38.880  1.00  0.00     0.210 C 
ENDBRANCH  14  17
ENDBRANCH   9  11
ENDBRANCH   1   5
BRANCH   2  19
HETATM   19  N   UNL     1      -8.922   0.759 -34.588  1.00  0.00    -0.267 N 
HETATM   20  C   UNL     1      -7.869   0.928 -33.718  1.00  0.00     0.236 C 
HETATM   21  O   UNL     1      -7.565   2.030 -33.263  1.00  0.00    -0.272 OA
HETATM   22  H   UNL     1      -9.285  -0.147 -34.881  1.00  0.00     0.190 HD
BRANCH  20  23
HETATM   23  C   UNL     1      -7.175  -0.347 -33.287  1.00  0.00     0.109 C 
BRANCH  23  24
HETATM   24  C   UNL     1      -6.054  -0.774 -34.234  1.00  0.00     0.048 C 
BRANCH  24  25
HETATM   25  C   UNL     1      -5.820  -2.265 -34.350  1.00  0.00    -0.055 A 
HETATM   26  C   UNL     1      -4.541  -2.767 -34.061  1.00  0.00     0.049 A 
HETATM   27  C   UNL     1      -4.269  -4.124 -34.197  1.00  0.00     0.116 A 
HETATM   28  F   UNL     1      -3.042  -4.583 -33.915  1.00  0.00    -0.206 F 
HETATM   29  C   UNL     1      -5.246  -5.010 -34.629  1.00  0.00     0.042 A 
HETATM   30  C   UNL     1      -6.516  -4.528 -34.934  1.00  0.00     0.003 A 
HETATM   31  C   UNL     1      -6.799  -3.163 -34.801  1.00  0.00     0.007 A 
ENDBRANCH  24  25
ENDBRANCH  23  24
ENDBRANCH  20  23
ENDBRANCH   2  19
TORSDOF 7
ENDMDL
MODEL 10
REMARK VINA RESULT:      -7.8      1.970      2.742
REMARK  7 active torsions:
REMARK  status: ('A' for Active; 'I' for Inactive)
REMARK    1  A    between atoms: O_2  and  C_3 
REMARK    2  A    between atoms: C_6  and  C_7 
REMARK    3  A    between atoms: C_11  and  C_12 
REMARK       I    between atoms: C_12  and  N_13 
REMARK    4  A    between atoms: N_13  and  N_14 
REMARK       I    between atoms: N_14  and  C_15 
REMARK    5  A    between atoms: C_15  and  C_16 
REMARK    6  A    between atoms: C_16  and  C_17 
REMARK    7  A    between atoms: C_17  and  C_18 
ROOT
HETATM    1  C   UNL     1      -5.316   4.435 -31.399  1.00  0.00     0.288 C 
HETATM    2  N   UNL     1      -4.605   4.490 -30.219  1.00  0.00    -0.262 N 
HETATM    3  O   UNL     1      -5.565   5.446 -32.053  1.00  0.00    -0.264 OA
HETATM    4  H   UNL     1      -4.418   3.686 -29.625  1.00  0.00     0.190 HD
ENDROOT
BRANCH   1   5
HETATM    5  C   UNL     1      -5.727   3.123 -31.811  1.00  0.00     0.121 A 
HETATM    6  N   UNL     1      -7.027   2.710 -31.714  1.00  0.00    -0.272 N 
HETATM    7  N   UNL     1      -7.240   1.463 -32.155  1.00  0.00    -0.174 NA
HETATM    8  H   UNL     1      -7.811   3.244 -31.351  1.00  0.00     0.189 HD
HETATM    9  C   UNL     1      -6.043   1.047 -32.594  1.00  0.00     0.089 A 
HETATM   10  C   UNL     1      -5.061   2.054 -32.374  1.00  0.00     0.071 A 
BRANCH   9  11
HETATM   11  C   UNL     1      -5.855  -0.272 -33.203  1.00  0.00    -0.005 A 
HETATM   12  C   UNL     1      -6.942  -0.993 -33.714  1.00  0.00     0.016 A 
HETATM   13  C   UNL     1      -6.749  -2.246 -34.303  1.00  0.00     0.037 A 
HETATM   14  C   UNL     1      -5.471  -2.797 -34.403  1.00  0.00     0.068 A 
HETATM   15  C   UNL     1      -4.385  -2.098 -33.878  1.00  0.00     0.037 A 
HETATM   16  C   UNL     1      -4.578  -0.845 -33.281  1.00  0.00     0.016 A 
BRANCH  14  17
HETATM   17  O   UNL     1      -5.420  -4.018 -35.014  1.00  0.00    -0.356 OA
HETATM   18  C   UNL     1      -6.647  -4.523 -35.526  1.00  0.00     0.210 C 
ENDBRANCH  14  17
ENDBRANCH   9  11
ENDBRANCH   1   5
BRANCH   2  19
HETATM   19  N   UNL     1      -4.100   5.721 -29.788  1.00  0.00    -0.267 N 
HETATM   20  C   UNL     1      -4.663   6.298 -28.673  1.00  0.00     0.236 C 
HETATM   21  O   UNL     1      -5.640   5.812 -28.105  1.00  0.00    -0.272 OA
HETATM   22  H   UNL     1      -3.219   6.015 -30.206  1.00  0.00     0.190 HD
BRANCH  20  23
HETATM   23  C   UNL     1      -3.939   7.517 -28.141  1.00  0.00     0.109 C 
BRANCH  23  24
HETATM   24  C   UNL     1      -2.879   7.181 -27.092  1.00  0.00     0.048 C 
BRANCH  24  25
HETATM   25  C   UNL     1      -1.460   7.580 -27.436  1.00  0.00    -0.055 A 
HETATM   26  C   UNL     1      -0.975   7.288 -28.721  1.00  0.00     0.049 A 
HETATM   27  C   UNL     1       0.337   7.596 -29.066  1.00  0.00     0.116 A 
HETATM   28  F   UNL     1       0.780   7.309 -30.298  1.00  0.00    -0.206 F 
HETATM   29  C   UNL     1       1.197   8.189 -28.152  1.00  0.00     0.042 A 
HETATM   30  C   UNL     1       0.737   8.473 -26.870  1.00  0.00     0.003 A 
HETATM   31  C   UNL     1      -0.581   8.165 -26.512  1.00  0.00     0.007 A 
ENDBRANCH  24  25
ENDBRANCH  23  24
ENDBRANCH  20  23
ENDBRANCH   2  19
TORSDOF 7
ENDMDL
