MODEL 1
REMARK VINA RESULT:      -9.1      0.000      0.000
REMARK  7 active torsions:
REMARK  status: ('A' for Active; 'I' for Inactive)
REMARK    1  A    between atoms: C_2  and  O_3 
REMARK    2  A    between atoms: O_3  and  C_4 
REMARK    3  A    between atoms: C_7  and  N_8 
REMARK       I    between atoms: N_8  and  C_9 
REMARK    4  A    between atoms: C_9  and  C_10 
REMARK    5  A    between atoms: C_10  and  S_11 
REMARK    6  A    between atoms: S_11  and  C_12 
REMARK    7  A    between atoms: N_13  and  C_14 
ROOT
HETATM    1  C   UNL     1      -8.773   2.638 -33.818  1.00  0.00     0.178 A 
HETATM    2  N   UNL     1      -8.879   1.385 -33.161  1.00  0.00    -0.255 N 
HETATM    3  C   UNL     1     -10.102   0.677 -33.118  1.00  0.00     0.270 A 
HETATM    4  O   UNL     1     -10.285  -0.423 -32.609  1.00  0.00    -0.266 OA
HETATM    5  C   UNL     1     -11.183   1.396 -33.729  1.00  0.00     0.099 A 
HETATM    6  C   UNL     1     -10.944   2.620 -34.284  1.00  0.00     0.164 A 
HETATM    7  N   UNL     1     -12.138   3.047 -34.785  1.00  0.00    -0.260 N 
HETATM    8  H   UNL     1     -12.330   3.908 -35.282  1.00  0.00     0.191 HD
HETATM    9  N   UNL     1     -13.147   2.175 -34.561  1.00  0.00    -0.184 NA
HETATM   10  C   UNL     1     -12.551   1.162 -33.916  1.00  0.00     0.159 A 
HETATM   11  N   UNL     1      -9.774   3.282 -34.357  1.00  0.00    -0.204 NA
ENDROOT
BRANCH   1  12
HETATM   12  S   UNL     1      -7.194   3.420 -33.915  1.00  0.00    -0.082 SA
BRANCH  12  13
HETATM   13  C   UNL     1      -7.506   4.986 -33.057  1.00  0.00     0.185 C 
BRANCH  13  14
HETATM   14  C   UNL     1      -7.555   4.761 -31.561  1.00  0.00     0.231 C 
HETATM   15  N   UNL     1      -6.435   4.491 -30.827  1.00  0.00    -0.327 N 
HETATM   16  H   UNL     1      -6.690   4.174 -29.897  1.00  0.00     0.169 HD
HETATM   17  O   UNL     1      -8.640   4.750 -30.965  1.00  0.00    -0.272 OA
BRANCH  15  18
HETATM   18  C   UNL     1      -5.054   4.599 -31.075  1.00  0.00     0.034 A 
HETATM   19  C   UNL     1      -4.317   5.778 -31.011  1.00  0.00     0.032 A 
HETATM   20  C   UNL     1      -2.936   5.769 -31.247  1.00  0.00     0.039 A 
HETATM   21  C   UNL     1      -2.262   4.580 -31.522  1.00  0.00     0.068 A 
HETATM   22  C   UNL     1      -2.986   3.394 -31.573  1.00  0.00     0.039 A 
HETATM   23  C   UNL     1      -4.369   3.405 -31.341  1.00  0.00     0.032 A 
BRANCH  21  24
HETATM   24  O   UNL     1      -0.917   4.717 -31.717  1.00  0.00    -0.352 OA
BRANCH  24  25
HETATM   25  C   UNL     1      -0.155   5.239 -30.630  1.00  0.00     0.171 C 
HETATM   26  C   UNL     1       0.548   6.495 -31.115  1.00  0.00     0.034 C 
ENDBRANCH  24  25
ENDBRANCH  21  24
ENDBRANCH  15  18
ENDBRANCH  13  14
ENDBRANCH  12  13
ENDBRANCH   1  12
BRANCH   2  27
HETATM   27  C   UNL     1      -7.768   0.753 -32.513  1.00  0.00     0.056 A 
HETATM   28  C   UNL     1      -6.941  -0.199 -33.178  1.00  0.00     0.002 A 
HETATM   29  C   UNL     1      -5.882  -0.795 -32.447  1.00  0.00    -0.024 A 
HETATM   30  C   UNL     1      -7.085  -0.574 -34.538  1.00  0.00     0.014 A 
HETATM   31  C   UNL     1      -5.063  -1.761 -33.054  1.00  0.00     0.012 A 
HETATM   32  C   UNL     1      -5.640  -0.408 -31.120  1.00  0.00     0.012 A 
HETATM   33  C   UNL     1      -5.258  -2.139 -34.381  1.00  0.00     0.001 A 
HETATM   34  C   UNL     1      -6.264  -1.538 -35.127  1.00  0.00     0.001 A 
HETATM   35  C   UNL     1      -6.423   0.562 -30.500  1.00  0.00     0.003 A 
HETATM   36  C   UNL     1      -7.481   1.139 -31.192  1.00  0.00     0.031 A 
ENDBRANCH   2  27
TORSDOF 7
ENDMDL
MODEL 2
REMARK VINA RESULT:      -9.0      3.538      5.252
REMARK  7 active torsions:
REMARK  status: ('A' for Active; 'I' for Inactive)
REMARK    1  A    between atoms: C_2  and  O_3 
REMARK    2  A    between atoms: O_3  and  C_4 
REMARK    3  A    between atoms: C_7  and  N_8 
REMARK       I    between atoms: N_8  and  C_9 
REMARK    4  A    between atoms: C_9  and  C_10 
REMARK    5  A    between atoms: C_10  and  S_11 
REMARK    6  A    between atoms: S_11  and  C_12 
REMARK    7  A    between atoms: N_13  and  C_14 
ROOT
HETATM    1  C   UNL     1      -4.151   3.885 -31.595  1.00  0.00     0.178 A 
HETATM    2  N   UNL     1      -4.920   2.763 -31.188  1.00  0.00    -0.255 N 
HETATM    3  C   UNL     1      -5.965   2.891 -30.245  1.00  0.00     0.270 A 
HETATM    4  O   UNL     1      -6.706   1.993 -29.858  1.00  0.00    -0.266 OA
HETATM    5  C   UNL     1      -6.085   4.222 -29.724  1.00  0.00     0.099 A 
HETATM    6  C   UNL     1      -5.242   5.197 -30.175  1.00  0.00     0.164 A 
HETATM    7  N   UNL     1      -5.596   6.336 -29.516  1.00  0.00    -0.260 N 
HETATM    8  H   UNL     1      -5.194   7.261 -29.616  1.00  0.00     0.191 HD
HETATM    9  N   UNL     1      -6.609   6.148 -28.640  1.00  0.00    -0.184 NA
HETATM   10  C   UNL     1      -6.906   4.848 -28.778  1.00  0.00     0.159 A 
HETATM   11  N   UNL     1      -4.268   5.087 -31.098  1.00  0.00    -0.204 NA
ENDROOT
BRANCH   1  12
HETATM   12  S   UNL     1      -2.926   3.670 -32.847  1.00  0.00    -0.082 SA
BRANCH  12  13
HETATM   13  C   UNL     1      -3.018   5.252 -33.727  1.00  0.00     0.185 C 
BRANCH  13  14
HETATM   14  C   UNL     1      -1.649   5.645 -34.239  1.00  0.00     0.231 C 
HETATM   15  N   UNL     1      -0.779   6.390 -33.495  1.00  0.00    -0.327 N 
HETATM   16  H   UNL     1      -0.012   6.718 -34.073  1.00  0.00     0.169 HD
HETATM   17  O   UNL     1      -1.303   5.351 -35.391  1.00  0.00    -0.272 OA
BRANCH  15  18
HETATM   18  C   UNL     1      -0.710   6.745 -32.135  1.00  0.00     0.034 A 
HETATM   19  C   UNL     1      -1.459   7.749 -31.529  1.00  0.00     0.032 A 
HETATM   20  C   UNL     1      -1.335   8.000 -30.156  1.00  0.00     0.039 A 
HETATM   21  C   UNL     1      -0.483   7.236 -29.360  1.00  0.00     0.068 A 
HETATM   22  C   UNL     1       0.258   6.220 -29.953  1.00  0.00     0.039 A 
HETATM   23  C   UNL     1       0.137   5.973 -31.328  1.00  0.00     0.032 A 
BRANCH  21  24
HETATM   24  O   UNL     1      -0.472   7.581 -28.039  1.00  0.00    -0.352 OA
BRANCH  24  25
HETATM   25  C   UNL     1       0.760   7.421 -27.338  1.00  0.00     0.171 C 
HETATM   26  C   UNL     1       1.615   8.646 -27.613  1.00  0.00     0.034 C 
ENDBRANCH  24  25
ENDBRANCH  21  24
ENDBRANCH  15  18
ENDBRANCH  13  14
ENDBRANCH  12  13
ENDBRANCH   1  12
BRANCH   2  27
HETATM   27  C   UNL     1      -4.700   1.445 -31.704  1.00  0.00     0.056 A 
HETATM   28  C   UNL     1      -5.411   0.943 -32.834  1.00  0.00     0.002 A 
HETATM   29  C   UNL     1      -5.150  -0.386 -33.256  1.00  0.00    -0.024 A 
HETATM   30  C   UNL     1      -6.347   1.694 -33.590  1.00  0.00     0.014 A 
HETATM   31  C   UNL     1      -5.850  -0.930 -34.345  1.00  0.00     0.012 A 
HETATM   32  C   UNL     1      -4.178  -1.153 -32.596  1.00  0.00     0.012 A 
HETATM   33  C   UNL     1      -6.795  -0.178 -35.041  1.00  0.00     0.001 A 
HETATM   34  C   UNL     1      -7.036   1.138 -34.670  1.00  0.00     0.001 A 
HETATM   35  C   UNL     1      -3.454  -0.632 -31.527  1.00  0.00     0.003 A 
HETATM   36  C   UNL     1      -3.714   0.659 -31.083  1.00  0.00     0.031 A 
ENDBRANCH   2  27
TORSDOF 7
ENDMDL
MODEL 3
REMARK VINA RESULT:      -8.8      2.361      3.198
REMARK  7 active torsions:
REMARK  status: ('A' for Active; 'I' for Inactive)
REMARK    1  A    between atoms: C_2  and  O_3 
REMARK    2  A    between atoms: O_3  and  C_4 
REMARK    3  A    between atoms: C_7  and  N_8 
REMARK       I    between atoms: N_8  and  C_9 
REMARK    4  A    between atoms: C_9  and  C_10 
REMARK    5  A    between atoms: C_10  and  S_11 
REMARK    6  A    between atoms: S_11  and  C_12 
REMARK    7  A    between atoms: N_13  and  C_14 
ROOT
HETATM    1  C   UNL     1      -6.980   4.187 -33.347  1.00  0.00     0.178 A 
HETATM    2  N   UNL     1      -7.813   3.093 -32.995  1.00  0.00    -0.255 N 
HETATM    3  C   UNL     1      -9.211   3.138 -33.195  1.00  0.00     0.270 A 
HETATM    4  O   UNL     1     -10.007   2.235 -32.957  1.00  0.00    -0.266 OA
HETATM    5  C   UNL     1      -9.661   4.401 -33.703  1.00  0.00     0.099 A 
HETATM    6  C   UNL     1      -8.748   5.385 -33.955  1.00  0.00     0.164 A 
HETATM    7  N   UNL     1      -9.459   6.447 -34.429  1.00  0.00    -0.260 N 
HETATM    8  H   UNL     1      -9.103   7.345 -34.734  1.00  0.00     0.191 HD
HETATM    9  N   UNL     1     -10.790   6.214 -34.474  1.00  0.00    -0.184 NA
HETATM   10  C   UNL     1     -10.904   4.954 -34.032  1.00  0.00     0.159 A 
HETATM   11  N   UNL     1      -7.412   5.334 -33.798  1.00  0.00    -0.204 NA
ENDROOT
BRANCH   1  12
HETATM   12  S   UNL     1      -5.233   4.025 -33.159  1.00  0.00    -0.082 SA
BRANCH  12  13
HETATM   13  C   UNL     1      -4.658   5.680 -33.624  1.00  0.00     0.185 C 
BRANCH  13  14
HETATM   14  C   UNL     1      -3.560   5.578 -34.660  1.00  0.00     0.231 C 
HETATM   15  N   UNL     1      -2.257   5.872 -34.373  1.00  0.00    -0.327 N 
HETATM   16  H   UNL     1      -1.714   5.942 -35.228  1.00  0.00     0.169 HD
HETATM   17  O   UNL     1      -3.830   5.284 -35.832  1.00  0.00    -0.272 OA
BRANCH  15  18
HETATM   18  C   UNL     1      -1.535   6.049 -33.178  1.00  0.00     0.034 A 
HETATM   19  C   UNL     1      -1.037   7.262 -32.713  1.00  0.00     0.032 A 
HETATM   20  C   UNL     1      -0.357   7.331 -31.490  1.00  0.00     0.039 A 
HETATM   21  C   UNL     1      -0.185   6.196 -30.698  1.00  0.00     0.068 A 
HETATM   22  C   UNL     1      -0.691   4.981 -31.147  1.00  0.00     0.039 A 
HETATM   23  C   UNL     1      -1.369   4.913 -32.373  1.00  0.00     0.032 A 
BRANCH  21  24
HETATM   24  O   UNL     1       0.484   6.411 -29.528  1.00  0.00    -0.352 OA
BRANCH  24  25
HETATM   25  C   UNL     1      -0.011   7.446 -28.679  1.00  0.00     0.171 C 
HETATM   26  C   UNL     1       1.180   8.229 -28.156  1.00  0.00     0.034 C 
ENDBRANCH  24  25
ENDBRANCH  21  24
ENDBRANCH  15  18
ENDBRANCH  13  14
ENDBRANCH  12  13
ENDBRANCH   1  12
BRANCH   2  27
HETATM   27  C   UNL     1      -7.300   1.880 -32.428  1.00  0.00     0.056 A 
HETATM   28  C   UNL     1      -7.007   0.734 -33.224  1.00  0.00     0.002 A 
HETATM   29  C   UNL     1      -6.531  -0.432 -32.573  1.00  0.00    -0.024 A 
HETATM   30  C   UNL     1      -7.129   0.687 -34.637  1.00  0.00     0.014 A 
HETATM   31  C   UNL     1      -6.259  -1.593 -33.314  1.00  0.00     0.012 A 
HETATM   32  C   UNL     1      -6.316  -0.423 -31.186  1.00  0.00     0.012 A 
HETATM   33  C   UNL     1      -6.430  -1.619 -34.697  1.00  0.00     0.001 A 
HETATM   34  C   UNL     1      -6.856  -0.476 -35.360  1.00  0.00     0.001 A 
HETATM   35  C   UNL     1      -6.557   0.720 -30.429  1.00  0.00     0.003 A 
HETATM   36  C   UNL     1      -7.047   1.865 -31.046  1.00  0.00     0.031 A 
ENDBRANCH   2  27
TORSDOF 7
ENDMDL
MODEL 4
REMARK VINA RESULT:      -8.8      3.340      5.478
REMARK  7 active torsions:
REMARK  status: ('A' for Active; 'I' for Inactive)
REMARK    1  A    between atoms: C_2  and  O_3 
REMARK    2  A    between atoms: O_3  and  C_4 
REMARK    3  A    between atoms: C_7  and  N_8 
REMARK       I    between atoms: N_8  and  C_9 
REMARK    4  A    between atoms: C_9  and  C_10 
REMARK    5  A    between atoms: C_10  and  S_11 
REMARK    6  A    between atoms: S_11  and  C_12 
REMARK    7  A    between atoms: N_13  and  C_14 
ROOT
HETATM    1  C   UNL     1      -4.808   4.726 -32.125  1.00  0.00     0.178 A 
HETATM    2  N   UNL     1      -5.548   3.601 -31.678  1.00  0.00    -0.255 N 
HETATM    3  C   UNL     1      -6.196   3.599 -30.421  1.00  0.00     0.270 A 
HETATM    4  O   UNL     1      -6.885   2.694 -29.963  1.00  0.00    -0.266 OA
HETATM    5  C   UNL     1      -5.952   4.795 -29.667  1.00  0.00     0.099 A 
HETATM    6  C   UNL     1      -5.178   5.781 -30.207  1.00  0.00     0.164 A 
HETATM    7  N   UNL     1      -5.133   6.777 -29.278  1.00  0.00    -0.260 N 
HETATM    8  H   UNL     1      -4.661   7.671 -29.349  1.00  0.00     0.191 HD
HETATM    9  N   UNL     1      -5.816   6.479 -28.150  1.00  0.00    -0.184 NA
HETATM   10  C   UNL     1      -6.320   5.262 -28.400  1.00  0.00     0.159 A 
HETATM   11  N   UNL     1      -4.587   5.801 -31.417  1.00  0.00    -0.204 NA
ENDROOT
BRANCH   1  12
HETATM   12  S   UNL     1      -4.105   4.696 -33.744  1.00  0.00    -0.082 SA
BRANCH  12  13
HETATM   13  C   UNL     1      -2.372   4.308 -33.386  1.00  0.00     0.185 C 
BRANCH  13  14
HETATM   14  C   UNL     1      -1.463   5.330 -34.034  1.00  0.00     0.231 C 
HETATM   15  N   UNL     1      -0.902   6.357 -33.329  1.00  0.00    -0.327 N 
HETATM   16  H   UNL     1      -0.499   7.041 -33.962  1.00  0.00     0.169 HD
HETATM   17  O   UNL     1      -1.256   5.299 -35.254  1.00  0.00    -0.272 OA
BRANCH  15  18
HETATM   18  C   UNL     1      -0.737   6.627 -31.958  1.00  0.00     0.034 A 
HETATM   19  C   UNL     1      -1.401   7.625 -31.251  1.00  0.00     0.032 A 
HETATM   20  C   UNL     1      -1.185   7.787 -29.876  1.00  0.00     0.039 A 
HETATM   21  C   UNL     1      -0.324   6.942 -29.179  1.00  0.00     0.068 A 
HETATM   22  C   UNL     1       0.334   5.932 -29.873  1.00  0.00     0.039 A 
HETATM   23  C   UNL     1       0.120   5.772 -31.250  1.00  0.00     0.032 A 
BRANCH  21  24
HETATM   24  O   UNL     1      -0.219   7.207 -27.843  1.00  0.00    -0.352 OA
BRANCH  24  25
HETATM   25  C   UNL     1       1.098   7.280 -27.299  1.00  0.00     0.171 C 
HETATM   26  C   UNL     1       1.619   8.688 -27.528  1.00  0.00     0.034 C 
ENDBRANCH  24  25
ENDBRANCH  21  24
ENDBRANCH  15  18
ENDBRANCH  13  14
ENDBRANCH  12  13
ENDBRANCH   1  12
BRANCH   2  27
HETATM   27  C   UNL     1      -5.696   2.409 -32.460  1.00  0.00     0.056 A 
HETATM   28  C   UNL     1      -4.844   1.279 -32.291  1.00  0.00     0.002 A 
HETATM   29  C   UNL     1      -5.046   0.154 -33.132  1.00  0.00    -0.024 A 
HETATM   30  C   UNL     1      -3.821   1.185 -31.314  1.00  0.00     0.014 A 
HETATM   31  C   UNL     1      -4.210  -0.968 -33.021  1.00  0.00     0.012 A 
HETATM   32  C   UNL     1      -6.093   0.156 -34.066  1.00  0.00     0.012 A 
HETATM   33  C   UNL     1      -3.185  -1.011 -32.078  1.00  0.00     0.001 A 
HETATM   34  C   UNL     1      -2.996   0.062 -31.217  1.00  0.00     0.001 A 
HETATM   35  C   UNL     1      -6.950   1.247 -34.184  1.00  0.00     0.003 A 
HETATM   36  C   UNL     1      -6.753   2.368 -33.386  1.00  0.00     0.031 A 
ENDBRANCH   2  27
TORSDOF 7
ENDMDL
MODEL 5
REMARK VINA RESULT:      -8.7      2.511      3.698
REMARK  7 active torsions:
REMARK  status: ('A' for Active; 'I' for Inactive)
REMARK    1  A    between atoms: C_2  and  O_3 
REMARK    2  A    between atoms: O_3  and  C_4 
REMARK    3  A    between atoms: C_7  and  N_8 
REMARK       I    between atoms: N_8  and  C_9 
REMARK    4  A    between atoms: C_9  and  C_10 
REMARK    5  A    between atoms: C_10  and  S_11 
REMARK    6  A    between atoms: S_11  and  C_12 
REMARK    7  A    between atoms: N_13  and  C_14 
ROOT
HETATM    1  C   UNL     1      -7.032   3.285 -33.040  1.00  0.00     0.178 A 
HETATM    2  N   UNL     1      -7.527   1.991 -32.733  1.00  0.00    -0.255 N 
HETATM    3  C   UNL     1      -8.628   1.812 -31.865  1.00  0.00     0.270 A 
HETATM    4  O   UNL     1      -9.149   0.742 -31.567  1.00  0.00    -0.266 OA
HETATM    5  C   UNL     1      -9.103   3.044 -31.306  1.00  0.00     0.099 A 
HETATM    6  C   UNL     1      -8.498   4.216 -31.657  1.00  0.00     0.164 A 
HETATM    7  N   UNL     1      -9.161   5.199 -30.984  1.00  0.00    -0.260 N 
HETATM    8  H   UNL     1      -8.992   6.198 -31.020  1.00  0.00     0.191 HD
HETATM    9  N   UNL     1     -10.149   4.725 -30.193  1.00  0.00    -0.184 NA
HETATM   10  C   UNL     1     -10.110   3.401 -30.400  1.00  0.00     0.159 A 
HETATM   11  N   UNL     1      -7.471   4.395 -32.509  1.00  0.00    -0.204 NA
ENDROOT
BRANCH   1  12
HETATM   12  S   UNL     1      -5.716   3.441 -34.206  1.00  0.00    -0.082 SA
BRANCH  12  13
HETATM   13  C   UNL     1      -4.826   4.884 -33.565  1.00  0.00     0.185 C 
BRANCH  13  14
HETATM   14  C   UNL     1      -3.771   5.328 -34.555  1.00  0.00     0.231 C 
HETATM   15  N   UNL     1      -2.613   5.936 -34.163  1.00  0.00    -0.327 N 
HETATM   16  H   UNL     1      -2.135   6.337 -34.965  1.00  0.00     0.169 HD
HETATM   17  O   UNL     1      -3.966   5.209 -35.773  1.00  0.00    -0.272 OA
BRANCH  15  18
HETATM   18  C   UNL     1      -1.951   6.077 -32.929  1.00  0.00     0.034 A 
HETATM   19  C   UNL     1      -1.128   5.119 -32.345  1.00  0.00     0.032 A 
HETATM   20  C   UNL     1      -0.492   5.375 -31.124  1.00  0.00     0.039 A 
HETATM   21  C   UNL     1      -0.643   6.601 -30.478  1.00  0.00     0.068 A 
HETATM   22  C   UNL     1      -1.451   7.572 -31.060  1.00  0.00     0.039 A 
HETATM   23  C   UNL     1      -2.091   7.312 -32.281  1.00  0.00     0.032 A 
BRANCH  21  24
HETATM   24  O   UNL     1       0.045   6.718 -29.304  1.00  0.00    -0.352 OA
BRANCH  24  25
HETATM   25  C   UNL     1      -0.090   7.949 -28.595  1.00  0.00     0.171 C 
HETATM   26  C   UNL     1       1.267   8.301 -28.011  1.00  0.00     0.034 C 
ENDBRANCH  24  25
ENDBRANCH  21  24
ENDBRANCH  15  18
ENDBRANCH  13  14
ENDBRANCH  12  13
ENDBRANCH   1  12
BRANCH   2  27
HETATM   27  C   UNL     1      -6.959   0.794 -33.280  1.00  0.00     0.056 A 
HETATM   28  C   UNL     1      -5.814   0.167 -32.709  1.00  0.00     0.002 A 
HETATM   29  C   UNL     1      -5.303  -0.998 -33.337  1.00  0.00    -0.024 A 
HETATM   30  C   UNL     1      -5.161   0.610 -31.531  1.00  0.00     0.014 A 
HETATM   31  C   UNL     1      -4.158  -1.630 -32.826  1.00  0.00     0.012 A 
HETATM   32  C   UNL     1      -5.952  -1.531 -34.461  1.00  0.00     0.012 A 
HETATM   33  C   UNL     1      -3.515  -1.144 -31.689  1.00  0.00     0.001 A 
HETATM   34  C   UNL     1      -4.022  -0.029 -31.036  1.00  0.00     0.001 A 
HETATM   35  C   UNL     1      -7.101  -0.937 -34.977  1.00  0.00     0.003 A 
HETATM   36  C   UNL     1      -7.602   0.219 -34.390  1.00  0.00     0.031 A 
ENDBRANCH   2  27
TORSDOF 7
ENDMDL
MODEL 6
REMARK VINA RESULT:      -8.7      2.450      7.154
REMARK  7 active torsions:
REMARK  status: ('A' for Active; 'I' for Inactive)
REMARK    1  A    between atoms: C_2  and  O_3 
REMARK    2  A    between atoms: O_3  and  C_4 
REMARK    3  A    between atoms: C_7  and  N_8 
REMARK       I    between atoms: N_8  and  C_9 
REMARK    4  A    between atoms: C_9  and  C_10 
REMARK    5  A    between atoms: C_10  and  S_11 
REMARK    6  A    between atoms: S_11  and  C_12 
REMARK    7  A    between atoms: N_13  and  C_14 
ROOT
HETATM    1  C   UNL     1      -5.258   4.461 -30.965  1.00  0.00     0.178 A 
HETATM    2  N   UNL     1      -4.185   3.924 -31.724  1.00  0.00    -0.255 N 
HETATM    3  C   UNL     1      -3.890   2.542 -31.704  1.00  0.00     0.270 A 
HETATM    4  O   UNL     1      -3.010   1.980 -32.349  1.00  0.00    -0.266 OA
HETATM    5  C   UNL     1      -4.726   1.807 -30.800  1.00  0.00     0.099 A 
HETATM    6  C   UNL     1      -5.693   2.465 -30.096  1.00  0.00     0.164 A 
HETATM    7  N   UNL     1      -6.320   1.519 -29.341  1.00  0.00    -0.260 N 
HETATM    8  H   UNL     1      -7.101   1.648 -28.709  1.00  0.00     0.191 HD
HETATM    9  N   UNL     1      -5.794   0.284 -29.498  1.00  0.00    -0.184 NA
HETATM   10  C   UNL     1      -4.819   0.469 -30.399  1.00  0.00     0.159 A 
HETATM   11  N   UNL     1      -6.000   3.775 -30.138  1.00  0.00    -0.204 NA
ENDROOT
BRANCH   1  12
HETATM   12  S   UNL     1      -5.631   6.180 -31.113  1.00  0.00    -0.082 SA
BRANCH  12  13
HETATM   13  C   UNL     1      -7.430   6.186 -30.898  1.00  0.00     0.185 C 
BRANCH  13  14
HETATM   14  C   UNL     1      -8.115   6.336 -32.239  1.00  0.00     0.231 C 
HETATM   15  N   UNL     1      -8.240   5.295 -33.115  1.00  0.00    -0.327 N 
HETATM   16  H   UNL     1      -8.539   5.632 -34.024  1.00  0.00     0.169 HD
HETATM   17  O   UNL     1      -8.529   7.443 -32.610  1.00  0.00    -0.272 OA
BRANCH  15  18
HETATM   18  C   UNL     1      -8.087   3.901 -33.004  1.00  0.00     0.034 A 
HETATM   19  C   UNL     1      -8.871   3.067 -32.212  1.00  0.00     0.032 A 
HETATM   20  C   UNL     1      -8.652   1.683 -32.200  1.00  0.00     0.039 A 
HETATM   21  C   UNL     1      -7.666   1.104 -32.997  1.00  0.00     0.068 A 
HETATM   22  C   UNL     1      -6.887   1.926 -33.805  1.00  0.00     0.039 A 
HETATM   23  C   UNL     1      -7.105   3.312 -33.813  1.00  0.00     0.032 A 
BRANCH  21  24
HETATM   24  O   UNL     1      -7.572  -0.254 -32.896  1.00  0.00    -0.352 OA
BRANCH  24  25
HETATM   25  C   UNL     1      -6.404  -0.865 -33.442  1.00  0.00     0.171 C 
HETATM   26  C   UNL     1      -6.843  -1.790 -34.563  1.00  0.00     0.034 C 
ENDBRANCH  24  25
ENDBRANCH  21  24
ENDBRANCH  15  18
ENDBRANCH  13  14
ENDBRANCH  12  13
ENDBRANCH   1  12
BRANCH   2  27
HETATM   27  C   UNL     1      -3.346   4.732 -32.559  1.00  0.00     0.056 A 
HETATM   28  C   UNL     1      -2.170   5.369 -32.064  1.00  0.00     0.002 A 
HETATM   29  C   UNL     1      -1.417   6.175 -32.956  1.00  0.00    -0.024 A 
HETATM   30  C   UNL     1      -1.678   5.229 -30.741  1.00  0.00     0.014 A 
HETATM   31  C   UNL     1      -0.269   6.845 -32.502  1.00  0.00     0.012 A 
HETATM   32  C   UNL     1      -1.809   6.290 -34.298  1.00  0.00     0.012 A 
HETATM   33  C   UNL     1       0.164   6.719 -31.183  1.00  0.00     0.001 A 
HETATM   34  C   UNL     1      -0.536   5.903 -30.305  1.00  0.00     0.001 A 
HETATM   35  C   UNL     1      -2.930   5.621 -34.780  1.00  0.00     0.003 A 
HETATM   36  C   UNL     1      -3.695   4.846 -33.915  1.00  0.00     0.031 A 
ENDBRANCH   2  27
TORSDOF 7
ENDMDL
MODEL 7
REMARK VINA RESULT:      -8.4      2.517      7.637
REMARK  7 active torsions:
REMARK  status: ('A' for Active; 'I' for Inactive)
REMARK    1  A    between atoms: C_2  and  O_3 
REMARK    2  A    between atoms: O_3  and  C_4 
REMARK    3  A    between atoms: C_7  and  N_8 
REMARK       I    between atoms: N_8  and  C_9 
REMARK    4  A    between atoms: C_9  and  C_10 
REMARK    5  A    between atoms: C_10  and  S_11 
REMARK    6  A    between atoms: S_11  and  C_12 
REMARK    7  A    between atoms: N_13  and  C_14 
ROOT
HETATM    1  C   UNL     1      -5.260   2.751 -32.964  1.00  0.00     0.178 A 
HETATM    2  N   UNL     1      -4.204   3.279 -32.175  1.00  0.00    -0.255 N 
HETATM    3  C   UNL     1      -3.267   2.433 -31.540  1.00  0.00     0.270 A 
HETATM    4  O   UNL     1      -2.303   2.792 -30.871  1.00  0.00    -0.266 OA
HETATM    5  C   UNL     1      -3.557   1.041 -31.727  1.00  0.00     0.099 A 
HETATM    6  C   UNL     1      -4.638   0.676 -32.476  1.00  0.00     0.164 A 
HETATM    7  N   UNL     1      -4.652  -0.687 -32.480  1.00  0.00    -0.260 N 
HETATM    8  H   UNL     1      -5.307  -1.299 -32.953  1.00  0.00     0.191 HD
HETATM    9  N   UNL     1      -3.650  -1.228 -31.751  1.00  0.00    -0.184 NA
HETATM   10  C   UNL     1      -2.980  -0.161 -31.296  1.00  0.00     0.159 A 
HETATM   11  N   UNL     1      -5.514   1.478 -33.110  1.00  0.00    -0.204 NA
ENDROOT
BRANCH   1  12
HETATM   12  S   UNL     1      -6.337   3.867 -33.805  1.00  0.00    -0.082 SA
BRANCH  12  13
HETATM   13  C   UNL     1      -7.900   3.604 -32.926  1.00  0.00     0.185 C 
BRANCH  13  14
HETATM   14  C   UNL     1      -9.003   3.276 -33.909  1.00  0.00     0.231 C 
HETATM   15  N   UNL     1      -9.082   2.066 -34.538  1.00  0.00    -0.327 N 
HETATM   16  H   UNL     1      -9.755   2.106 -35.297  1.00  0.00     0.169 HD
HETATM   17  O   UNL     1      -9.837   4.135 -34.223  1.00  0.00    -0.272 OA
BRANCH  15  18
HETATM   18  C   UNL     1      -8.477   0.813 -34.328  1.00  0.00     0.034 A 
HETATM   19  C   UNL     1      -8.709  -0.018 -33.237  1.00  0.00     0.032 A 
HETATM   20  C   UNL     1      -8.074  -1.263 -33.142  1.00  0.00     0.039 A 
HETATM   21  C   UNL     1      -7.219  -1.713 -34.147  1.00  0.00     0.068 A 
HETATM   22  C   UNL     1      -6.992  -0.897 -35.250  1.00  0.00     0.039 A 
HETATM   23  C   UNL     1      -7.624   0.352 -35.342  1.00  0.00     0.032 A 
BRANCH  21  24
HETATM   24  O   UNL     1      -6.681  -2.949 -33.931  1.00  0.00    -0.352 OA
BRANCH  24  25
HETATM   25  C   UNL     1      -5.759  -3.434 -34.905  1.00  0.00     0.171 C 
HETATM   26  C   UNL     1      -6.420  -4.585 -35.641  1.00  0.00     0.034 C 
ENDBRANCH  24  25
ENDBRANCH  21  24
ENDBRANCH  15  18
ENDBRANCH  13  14
ENDBRANCH  12  13
ENDBRANCH   1  12
BRANCH   2  27
HETATM   27  C   UNL     1      -4.013   4.685 -31.978  1.00  0.00     0.056 A 
HETATM   28  C   UNL     1      -3.051   5.432 -32.721  1.00  0.00     0.002 A 
HETATM   29  C   UNL     1      -2.911   6.815 -32.437  1.00  0.00    -0.024 A 
HETATM   30  C   UNL     1      -2.241   4.894 -33.752  1.00  0.00     0.014 A 
HETATM   31  C   UNL     1      -1.954   7.581 -33.122  1.00  0.00     0.012 A 
HETATM   32  C   UNL     1      -3.739   7.422 -31.481  1.00  0.00     0.012 A 
HETATM   33  C   UNL     1      -1.143   7.011 -34.102  1.00  0.00     0.001 A 
HETATM   34  C   UNL     1      -1.293   5.669 -34.424  1.00  0.00     0.001 A 
HETATM   35  C   UNL     1      -4.709   6.691 -30.801  1.00  0.00     0.003 A 
HETATM   36  C   UNL     1      -4.845   5.331 -31.048  1.00  0.00     0.031 A 
ENDBRANCH   2  27
TORSDOF 7
ENDMDL
MODEL 8
REMARK VINA RESULT:      -8.3      2.409      7.189
REMARK  7 active torsions:
REMARK  status: ('A' for Active; 'I' for Inactive)
REMARK    1  A    between atoms: C_2  and  O_3 
REMARK    2  A    between atoms: O_3  and  C_4 
REMARK    3  A    between atoms: C_7  and  N_8 
REMARK       I    between atoms: N_8  and  C_9 
REMARK    4  A    between atoms: C_9  and  C_10 
REMARK    5  A    between atoms: C_10  and  S_11 
REMARK    6  A    between atoms: S_11  and  C_12 
REMARK    7  A    between atoms: N_13  and  C_14 
ROOT
HETATM    1  C   UNL     1      -5.596   4.379 -33.439  1.00  0.00     0.178 A 
HETATM    2  N   UNL     1      -4.865   3.362 -32.772  1.00  0.00    -0.255 N 
HETATM    3  C   UNL     1      -3.455   3.405 -32.686  1.00  0.00     0.270 A 
HETATM    4  O   UNL     1      -2.740   2.597 -32.103  1.00  0.00    -0.266 OA
HETATM    5  C   UNL     1      -2.888   4.515 -33.395  1.00  0.00     0.099 A 
HETATM    6  C   UNL     1      -3.713   5.395 -34.035  1.00  0.00     0.164 A 
HETATM    7  N   UNL     1      -2.901   6.331 -34.601  1.00  0.00    -0.260 N 
HETATM    8  H   UNL     1      -3.174   7.145 -35.140  1.00  0.00     0.191 HD
HETATM    9  N   UNL     1      -1.588   6.092 -34.386  1.00  0.00    -0.184 NA
HETATM   10  C   UNL     1      -1.589   4.978 -33.640  1.00  0.00     0.159 A 
HETATM   11  N   UNL     1      -5.058   5.376 -34.090  1.00  0.00    -0.204 NA
ENDROOT
BRANCH   1  12
HETATM   12  S   UNL     1      -7.359   4.312 -33.425  1.00  0.00    -0.082 SA
BRANCH  12  13
HETATM   13  C   UNL     1      -7.759   5.435 -32.059  1.00  0.00     0.185 C 
BRANCH  13  14
HETATM   14  C   UNL     1      -8.119   4.643 -30.821  1.00  0.00     0.231 C 
HETATM   15  N   UNL     1      -9.144   3.740 -30.805  1.00  0.00    -0.327 N 
HETATM   16  H   UNL     1      -9.359   3.466 -29.852  1.00  0.00     0.169 HD
HETATM   17  O   UNL     1      -7.525   4.846 -29.753  1.00  0.00    -0.272 OA
BRANCH  15  18
HETATM   18  C   UNL     1      -9.903   3.105 -31.806  1.00  0.00     0.034 A 
HETATM   19  C   UNL     1      -9.636   1.848 -32.340  1.00  0.00     0.032 A 
HETATM   20  C   UNL     1     -10.478   1.295 -33.314  1.00  0.00     0.039 A 
HETATM   21  C   UNL     1     -11.614   1.972 -33.751  1.00  0.00     0.068 A 
HETATM   22  C   UNL     1     -11.900   3.223 -33.212  1.00  0.00     0.039 A 
HETATM   23  C   UNL     1     -11.054   3.778 -32.241  1.00  0.00     0.032 A 
BRANCH  21  24
HETATM   24  O   UNL     1     -12.350   1.310 -34.692  1.00  0.00    -0.352 OA
BRANCH  24  25
HETATM   25  C   UNL     1     -13.768   1.338 -34.543  1.00  0.00     0.171 C 
HETATM   26  C   UNL     1     -14.166   0.181 -33.645  1.00  0.00     0.034 C 
ENDBRANCH  24  25
ENDBRANCH  21  24
ENDBRANCH  15  18
ENDBRANCH  13  14
ENDBRANCH  12  13
ENDBRANCH   1  12
BRANCH   2  27
HETATM   27  C   UNL     1      -5.497   2.242 -32.139  1.00  0.00     0.056 A 
HETATM   28  C   UNL     1      -6.065   1.169 -32.886  1.00  0.00     0.002 A 
HETATM   29  C   UNL     1      -6.697   0.117 -32.175  1.00  0.00    -0.024 A 
HETATM   30  C   UNL     1      -6.016   1.061 -34.299  1.00  0.00     0.014 A 
HETATM   31  C   UNL     1      -7.297  -0.945 -32.872  1.00  0.00     0.012 A 
HETATM   32  C   UNL     1      -6.710   0.127 -30.772  1.00  0.00     0.012 A 
HETATM   33  C   UNL     1      -7.267  -0.999 -34.264  1.00  0.00     0.001 A 
HETATM   34  C   UNL     1      -6.618  -0.001 -34.978  1.00  0.00     0.001 A 
HETATM   35  C   UNL     1      -6.106   1.156 -30.055  1.00  0.00     0.003 A 
HETATM   36  C   UNL     1      -5.503   2.208 -30.734  1.00  0.00     0.031 A 
ENDBRANCH   2  27
TORSDOF 7
ENDMDL
MODEL 9
REMARK VINA RESULT:      -8.3      2.535      7.396
REMARK  7 active torsions:
REMARK  status: ('A' for Active; 'I' for Inactive)
REMARK    1  A    between atoms: C_2  and  O_3 
REMARK    2  A    between atoms: O_3  and  C_4 
REMARK    3  A    between atoms: C_7  and  N_8 
REMARK       I    between atoms: N_8  and  C_9 
REMARK    4  A    between atoms: C_9  and  C_10 
REMARK    5  A    between atoms: C_10  and  S_11 
REMARK    6  A    between atoms: S_11  and  C_12 
REMARK    7  A    between atoms: N_13  and  C_14 
ROOT
HETATM    1  C   UNL     1      -5.892   3.001 -31.523  1.00  0.00     0.178 A 
HETATM    2  N   UNL     1      -6.030   4.251 -32.182  1.00  0.00    -0.255 N 
HETATM    3  C   UNL     1      -7.237   4.984 -32.122  1.00  0.00     0.270 A 
HETATM    4  O   UNL     1      -7.442   6.084 -32.624  1.00  0.00    -0.266 OA
HETATM    5  C   UNL     1      -8.273   4.294 -31.410  1.00  0.00     0.099 A 
HETATM    6  C   UNL     1      -8.011   3.070 -30.865  1.00  0.00     0.164 A 
HETATM    7  N   UNL     1      -9.164   2.674 -30.255  1.00  0.00    -0.260 N 
HETATM    8  H   UNL     1      -9.328   1.820 -29.734  1.00  0.00     0.191 HD
HETATM    9  N   UNL     1     -10.171   3.565 -30.398  1.00  0.00    -0.184 NA
HETATM   10  C   UNL     1      -9.614   4.559 -31.104  1.00  0.00     0.159 A 
HETATM   11  N   UNL     1      -6.853   2.384 -30.890  1.00  0.00    -0.204 NA
ENDROOT
BRANCH   1  12
HETATM   12  S   UNL     1      -4.327   2.186 -31.560  1.00  0.00    -0.082 SA
BRANCH  12  13
HETATM   13  C   UNL     1      -4.821   0.442 -31.593  1.00  0.00     0.185 C 
BRANCH  13  14
HETATM   14  C   UNL     1      -4.765  -0.089 -33.010  1.00  0.00     0.231 C 
HETATM   15  N   UNL     1      -5.876  -0.175 -33.800  1.00  0.00    -0.327 N 
HETATM   16  H   UNL     1      -5.680  -0.734 -34.624  1.00  0.00     0.169 HD
HETATM   17  O   UNL     1      -3.704  -0.528 -33.471  1.00  0.00    -0.272 OA
BRANCH  15  18
HETATM   18  C   UNL     1      -7.172   0.368 -33.729  1.00  0.00     0.034 A 
HETATM   19  C   UNL     1      -7.600   1.513 -34.394  1.00  0.00     0.032 A 
HETATM   20  C   UNL     1      -8.926   1.951 -34.277  1.00  0.00     0.039 A 
HETATM   21  C   UNL     1      -9.853   1.240 -33.518  1.00  0.00     0.068 A 
HETATM   22  C   UNL     1      -9.440   0.085 -32.861  1.00  0.00     0.039 A 
HETATM   23  C   UNL     1      -8.112  -0.349 -32.976  1.00  0.00     0.032 A 
BRANCH  21  24
HETATM   24  O   UNL     1     -11.110   1.773 -33.504  1.00  0.00    -0.352 OA
BRANCH  24  25
HETATM   25  C   UNL     1     -12.188   0.899 -33.837  1.00  0.00     0.171 C 
HETATM   26  C   UNL     1     -13.205   1.697 -34.634  1.00  0.00     0.034 C 
ENDBRANCH  24  25
ENDBRANCH  21  24
ENDBRANCH  15  18
ENDBRANCH  13  14
ENDBRANCH  12  13
ENDBRANCH   1  12
BRANCH   2  27
HETATM   27  C   UNL     1      -4.968   4.852 -32.933  1.00  0.00     0.056 A 
HETATM   28  C   UNL     1      -3.982   5.682 -32.323  1.00  0.00     0.002 A 
HETATM   29  C   UNL     1      -2.985   6.259 -33.152  1.00  0.00    -0.024 A 
HETATM   30  C   UNL     1      -3.907   5.949 -30.933  1.00  0.00     0.014 A 
HETATM   31  C   UNL     1      -2.013   7.107 -32.598  1.00  0.00     0.012 A 
HETATM   32  C   UNL     1      -2.960   5.970 -34.524  1.00  0.00     0.012 A 
HETATM   33  C   UNL     1      -1.993   7.383 -31.232  1.00  0.00     0.001 A 
HETATM   34  C   UNL     1      -2.934   6.796 -30.397  1.00  0.00     0.001 A 
HETATM   35  C   UNL     1      -3.899   5.116 -35.097  1.00  0.00     0.003 A 
HETATM   36  C   UNL     1      -4.898   4.561 -34.306  1.00  0.00     0.031 A 
ENDBRANCH   2  27
TORSDOF 7
ENDMDL
MODEL 10
REMARK VINA RESULT:      -8.2      3.129      7.957
REMARK  7 active torsions:
REMARK  status: ('A' for Active; 'I' for Inactive)
REMARK    1  A    between atoms: C_2  and  O_3 
REMARK    2  A    between atoms: O_3  and  C_4 
REMARK    3  A    between atoms: C_7  and  N_8 
REMARK       I    between atoms: N_8  and  C_9 
REMARK    4  A    between atoms: C_9  and  C_10 
REMARK    5  A    between atoms: C_10  and  S_11 
REMARK    6  A    between atoms: S_11  and  C_12 
REMARK    7  A    between atoms: N_13  and  C_14 
ROOT
HETATM    1  C   UNL     1      -3.753   3.757 -31.940  1.00  0.00     0.178 A 
HETATM    2  N   UNL     1      -4.606   4.886 -31.823  1.00  0.00    -0.255 N 
HETATM    3  C   UNL     1      -4.294   6.112 -32.454  1.00  0.00     0.270 A 
HETATM    4  O   UNL     1      -4.982   7.128 -32.442  1.00  0.00    -0.266 OA
HETATM    5  C   UNL     1      -3.028   6.086 -33.127  1.00  0.00     0.099 A 
HETATM    6  C   UNL     1      -2.288   4.939 -33.118  1.00  0.00     0.164 A 
HETATM    7  N   UNL     1      -1.160   5.212 -33.833  1.00  0.00    -0.260 N 
HETATM    8  H   UNL     1      -0.394   4.584 -34.047  1.00  0.00     0.191 HD
HETATM    9  N   UNL     1      -1.116   6.486 -34.284  1.00  0.00    -0.184 NA
HETATM   10  C   UNL     1      -2.269   7.014 -33.851  1.00  0.00     0.159 A 
HETATM   11  N   UNL     1      -2.597   3.759 -32.548  1.00  0.00    -0.204 NA
ENDROOT
BRANCH   1  12
HETATM   12  S   UNL     1      -4.251   2.231 -31.207  1.00  0.00    -0.082 SA
BRANCH  12  13
HETATM   13  C   UNL     1      -3.711   1.031 -32.453  1.00  0.00     0.185 C 
BRANCH  13  14
HETATM   14  C   UNL     1      -4.131  -0.366 -32.048  1.00  0.00     0.231 C 
HETATM   15  N   UNL     1      -5.428  -0.787 -32.119  1.00  0.00    -0.327 N 
HETATM   16  H   UNL     1      -5.542  -1.665 -31.622  1.00  0.00     0.169 HD
HETATM   17  O   UNL     1      -3.303  -1.154 -31.571  1.00  0.00    -0.272 OA
BRANCH  15  18
HETATM   18  C   UNL     1      -6.583  -0.292 -32.752  1.00  0.00     0.034 A 
HETATM   19  C   UNL     1      -6.856  -0.388 -34.113  1.00  0.00     0.032 A 
HETATM   20  C   UNL     1      -8.056   0.113 -34.636  1.00  0.00     0.039 A 
HETATM   21  C   UNL     1      -9.015   0.692 -33.807  1.00  0.00     0.068 A 
HETATM   22  C   UNL     1      -8.760   0.779 -32.443  1.00  0.00     0.039 A 
HETATM   23  C   UNL     1      -7.557   0.281 -31.921  1.00  0.00     0.032 A 
BRANCH  21  24
HETATM   24  O   UNL     1     -10.140   1.124 -34.449  1.00  0.00    -0.352 OA
BRANCH  24  25
HETATM   25  C   UNL     1     -11.353   1.130 -33.696  1.00  0.00     0.171 C 
HETATM   26  C   UNL     1     -12.507   1.271 -34.673  1.00  0.00     0.034 C 
ENDBRANCH  24  25
ENDBRANCH  21  24
ENDBRANCH  15  18
ENDBRANCH  13  14
ENDBRANCH  12  13
ENDBRANCH   1  12
BRANCH   2  27
HETATM   27  C   UNL     1      -5.829   4.858 -31.077  1.00  0.00     0.056 A 
HETATM   28  C   UNL     1      -7.096   4.660 -31.702  1.00  0.00     0.002 A 
HETATM   29  C   UNL     1      -8.256   4.678 -30.886  1.00  0.00    -0.024 A 
HETATM   30  C   UNL     1      -7.277   4.415 -33.086  1.00  0.00     0.014 A 
HETATM   31  C   UNL     1      -9.526   4.519 -31.464  1.00  0.00     0.012 A 
HETATM   32  C   UNL     1      -8.135   4.839 -29.498  1.00  0.00     0.012 A 
HETATM   33  C   UNL     1      -9.673   4.321 -32.836  1.00  0.00     0.001 A 
HETATM   34  C   UNL     1      -8.547   4.259 -33.646  1.00  0.00     0.001 A 
HETATM   35  C   UNL     1      -6.888   4.979 -28.895  1.00  0.00     0.003 A 
HETATM   36  C   UNL     1      -5.741   4.989 -29.680  1.00  0.00     0.031 A 
ENDBRANCH   2  27
TORSDOF 7
ENDMDL
