MODEL 1
REMARK VINA RESULT:      -9.1      0.000      0.000
REMARK  7 active torsions:
REMARK  status: ('A' for Active; 'I' for Inactive)
REMARK    1  A    between atoms: C_3  and  N_4 
REMARK       I    between atoms: N_4  and  C_5 
REMARK    2  A    between atoms: C_5  and  C_6 
REMARK    3  A    between atoms: C_7  and  C_8 
REMARK    4  A    between atoms: C_20  and  C_21 
REMARK    5  A    between atoms: C_21  and  C_22 
REMARK    6  A    between atoms: C_22  and  C_23 
REMARK    7  A    between atoms: C_23  and  O_24 
ROOT
HETATM    1  C   UNL     1      -7.457   1.907 -32.893  1.00  0.00     0.062 C 
HETATM    2  C   UNL     1      -6.454   2.532 -31.916  1.00  0.00     0.202 C 
HETATM    3  N   UNL     1      -7.143   3.329 -30.895  1.00  0.00    -0.083 N 
HETATM    4  C   UNL     1      -8.454   3.705 -30.978  1.00  0.00     0.726 A 
HETATM    5  N   UNL     1      -9.210   3.235 -31.986  1.00  0.00    -0.192 N 
HETATM    6  N   UNL     1      -6.541   3.881 -29.820  1.00  0.00    -0.140 NA
HETATM    7  C   UNL     1      -7.537   4.640 -29.340  1.00  0.00     0.166 A 
HETATM    8  N   UNL     1      -8.735   4.534 -30.007  1.00  0.00    -0.046 NA
HETATM    9  C   UNL     1      -8.751   2.323 -32.929  1.00  0.00     0.037 C 
HETATM   10  C   UNL     1      -9.766   1.908 -33.966  1.00  0.00     0.070 C 
HETATM   11  H   UNL     1     -10.180   3.535 -32.044  1.00  0.00     0.184 HD
ENDROOT
BRANCH   1  12
HETATM   12  C   UNL     1      -6.881   0.854 -33.786  1.00  0.00     0.256 C 
HETATM   13  N   UNL     1      -6.402  -0.247 -33.114  1.00  0.00    -0.323 N 
HETATM   14  H   UNL     1      -6.214  -0.115 -32.128  1.00  0.00     0.169 HD
HETATM   15  O   UNL     1      -6.744   1.081 -34.980  1.00  0.00    -0.267 OA
BRANCH  13  16
HETATM   16  C   UNL     1      -6.000  -1.497 -33.640  1.00  0.00     0.041 A 
HETATM   17  C   UNL     1      -4.691  -2.014 -33.665  1.00  0.00    -0.035 A 
HETATM   18  C   UNL     1      -3.465  -1.296 -33.170  1.00  0.00     0.050 C 
HETATM   19  C   UNL     1      -4.477  -3.290 -34.230  1.00  0.00     0.009 A 
HETATM   20  C   UNL     1      -5.514  -4.016 -34.810  1.00  0.00     0.001 A 
HETATM   21  C   UNL     1      -6.792  -3.480 -34.837  1.00  0.00     0.002 A 
HETATM   22  C   UNL     1      -7.029  -2.231 -34.260  1.00  0.00     0.030 A 
ENDBRANCH  13  16
ENDBRANCH   1  12
BRANCH   2  23
HETATM   23  C   UNL     1      -5.406   3.415 -32.599  1.00  0.00    -0.026 A 
HETATM   24  C   UNL     1      -4.101   3.539 -32.088  1.00  0.00     0.035 A 
HETATM   25  C   UNL     1      -3.154   4.349 -32.726  1.00  0.00     0.056 A 
HETATM   26 CL   UNL     1      -1.580   4.451 -32.019  1.00  0.00    -0.083 Cl
HETATM   27  C   UNL     1      -3.499   5.043 -33.889  1.00  0.00     0.055 A 
HETATM   28 CL   UNL     1      -2.385   6.063 -34.727  1.00  0.00    -0.083 Cl
HETATM   29  C   UNL     1      -4.789   4.921 -34.410  1.00  0.00     0.026 A 
HETATM   30  C   UNL     1      -5.735   4.113 -33.772  1.00  0.00     0.011 A 
ENDBRANCH   2  23
BRANCH   7  31
HETATM   31  C   UNL     1      -7.346   5.609 -28.231  1.00  0.00     0.085 C 
BRANCH  31  32
HETATM   32  C   UNL     1      -6.034   6.387 -28.347  1.00  0.00     0.034 C 
BRANCH  32  33
HETATM   33  C   UNL     1      -5.202   6.353 -27.069  1.00  0.00     0.164 C 
BRANCH  33  34
HETATM   34  O   UNL     1      -4.943   5.003 -26.702  1.00  0.00    -0.401 OA
HETATM   35  H   UNL     1      -4.741   4.987 -25.751  1.00  0.00     0.209 HD
ENDBRANCH  33  34
ENDBRANCH  32  33
ENDBRANCH  31  32
ENDBRANCH   7  31
TORSDOF 7
ENDMDL
MODEL 2
REMARK VINA RESULT:      -9.0      1.473      1.875
REMARK  7 active torsions:
REMARK  status: ('A' for Active; 'I' for Inactive)
REMARK    1  A    between atoms: C_3  and  N_4 
REMARK       I    between atoms: N_4  and  C_5 
REMARK    2  A    between atoms: C_5  and  C_6 
REMARK    3  A    between atoms: C_7  and  C_8 
REMARK    4  A    between atoms: C_20  and  C_21 
REMARK    5  A    between atoms: C_21  and  C_22 
REMARK    6  A    between atoms: C_22  and  C_23 
REMARK    7  A    between atoms: C_23  and  O_24 
ROOT
HETATM    1  C   UNL     1      -7.636   1.452 -31.241  1.00  0.00     0.062 C 
HETATM    2  C   UNL     1      -6.741   2.420 -30.459  1.00  0.00     0.202 C 
HETATM    3  N   UNL     1      -7.511   3.571 -29.974  1.00  0.00    -0.083 N 
HETATM    4  C   UNL     1      -8.768   3.884 -30.408  1.00  0.00     0.726 A 
HETATM    5  N   UNL     1      -9.404   3.043 -31.243  1.00  0.00    -0.192 N 
HETATM    6  N   UNL     1      -7.031   4.515 -29.137  1.00  0.00    -0.140 NA
HETATM    7  C   UNL     1      -8.030   5.409 -29.170  1.00  0.00     0.166 A 
HETATM    8  N   UNL     1      -9.126   5.041 -29.917  1.00  0.00    -0.046 NA
HETATM    9  C   UNL     1      -8.880   1.821 -31.647  1.00  0.00     0.037 C 
HETATM   10  C   UNL     1      -9.764   1.019 -32.571  1.00  0.00     0.070 C 
HETATM   11  H   UNL     1     -10.333   3.296 -31.570  1.00  0.00     0.184 HD
ENDROOT
BRANCH   1  12
HETATM   12  C   UNL     1      -7.014   0.122 -31.525  1.00  0.00     0.256 C 
HETATM   13  N   UNL     1      -6.979  -0.206 -32.860  1.00  0.00    -0.323 N 
HETATM   14  H   UNL     1      -7.614   0.309 -33.458  1.00  0.00     0.169 HD
HETATM   15  O   UNL     1      -6.721  -0.620 -30.597  1.00  0.00    -0.267 OA
BRANCH  13  16
HETATM   16  C   UNL     1      -6.281  -1.260 -33.493  1.00  0.00     0.041 A 
HETATM   17  C   UNL     1      -4.883  -1.412 -33.572  1.00  0.00    -0.035 A 
HETATM   18  C   UNL     1      -3.873  -0.440 -33.028  1.00  0.00     0.050 C 
HETATM   19  C   UNL     1      -4.360  -2.538 -34.245  1.00  0.00     0.009 A 
HETATM   20  C   UNL     1      -5.188  -3.462 -34.877  1.00  0.00     0.001 A 
HETATM   21  C   UNL     1      -6.562  -3.280 -34.848  1.00  0.00     0.002 A 
HETATM   22  C   UNL     1      -7.100  -2.188 -34.165  1.00  0.00     0.030 A 
ENDBRANCH  13  16
ENDBRANCH   1  12
BRANCH   2  23
HETATM   23  C   UNL     1      -5.548   2.938 -31.268  1.00  0.00    -0.026 A 
HETATM   24  C   UNL     1      -5.725   3.641 -32.474  1.00  0.00     0.035 A 
HETATM   25  C   UNL     1      -4.624   4.109 -33.200  1.00  0.00     0.056 A 
HETATM   26 CL   UNL     1      -4.937   4.952 -34.676  1.00  0.00    -0.083 Cl
HETATM   27  C   UNL     1      -3.328   3.886 -32.725  1.00  0.00     0.055 A 
HETATM   28 CL   UNL     1      -1.923   4.430 -33.569  1.00  0.00    -0.083 Cl
HETATM   29  C   UNL     1      -3.141   3.195 -31.526  1.00  0.00     0.026 A 
HETATM   30  C   UNL     1      -4.241   2.726 -30.801  1.00  0.00     0.011 A 
ENDBRANCH   2  23
BRANCH   7  31
HETATM   31  C   UNL     1      -7.932   6.749 -28.538  1.00  0.00     0.085 C 
BRANCH  31  32
HETATM   32  C   UNL     1      -6.591   7.433 -28.811  1.00  0.00     0.034 C 
BRANCH  32  33
HETATM   33  C   UNL     1      -5.734   7.593 -27.559  1.00  0.00     0.164 C 
BRANCH  33  34
HETATM   34  O   UNL     1      -5.509   6.319 -26.967  1.00  0.00    -0.401 OA
HETATM   35  H   UNL     1      -6.099   6.239 -26.199  1.00  0.00     0.209 HD
ENDBRANCH  33  34
ENDBRANCH  32  33
ENDBRANCH  31  32
ENDBRANCH   7  31
TORSDOF 7
ENDMDL
MODEL 3
REMARK VINA RESULT:      -8.9     16.919     18.939
REMARK  7 active torsions:
REMARK  status: ('A' for Active; 'I' for Inactive)
REMARK    1  A    between atoms: C_3  and  N_4 
REMARK       I    between atoms: N_4  and  C_5 
REMARK    2  A    between atoms: C_5  and  C_6 
REMARK    3  A    between atoms: C_7  and  C_8 
REMARK    4  A    between atoms: C_20  and  C_21 
REMARK    5  A    between atoms: C_21  and  C_22 
REMARK    6  A    between atoms: C_22  and  C_23 
REMARK    7  A    between atoms: C_23  and  O_24 
ROOT
HETATM    1  C   UNL     1      -4.290 -12.969 -38.147  1.00  0.00     0.062 C 
HETATM    2  C   UNL     1      -4.998 -12.841 -39.501  1.00  0.00     0.202 C 
HETATM    3  N   UNL     1      -6.433 -12.589 -39.322  1.00  0.00    -0.083 N 
HETATM    4  C   UNL     1      -7.090 -12.744 -38.134  1.00  0.00     0.726 A 
HETATM    5  N   UNL     1      -6.387 -13.034 -37.025  1.00  0.00    -0.192 N 
HETATM    6  N   UNL     1      -7.289 -12.290 -40.322  1.00  0.00    -0.140 NA
HETATM    7  C   UNL     1      -8.460 -12.354 -39.674  1.00  0.00     0.166 A 
HETATM    8  N   UNL     1      -8.376 -12.601 -38.323  1.00  0.00    -0.046 NA
HETATM    9  C   UNL     1      -5.000 -13.121 -36.998  1.00  0.00     0.037 C 
HETATM   10  C   UNL     1      -4.405 -13.437 -35.647  1.00  0.00     0.070 C 
HETATM   11  H   UNL     1      -6.891 -13.162 -36.152  1.00  0.00     0.184 HD
ENDROOT
BRANCH   1  12
HETATM   12  C   UNL     1      -2.797 -12.938 -38.222  1.00  0.00     0.256 C 
HETATM   13  N   UNL     1      -2.207 -14.178 -38.134  1.00  0.00    -0.323 N 
HETATM   14  H   UNL     1      -2.782 -14.913 -37.741  1.00  0.00     0.169 HD
HETATM   15  O   UNL     1      -2.212 -11.863 -38.211  1.00  0.00    -0.267 OA
BRANCH  13  16
HETATM   16  C   UNL     1      -0.862 -14.536 -38.383  1.00  0.00     0.041 A 
HETATM   17  C   UNL     1      -0.175 -14.414 -39.606  1.00  0.00    -0.035 A 
HETATM   18  C   UNL     1      -0.776 -13.917 -40.893  1.00  0.00     0.050 C 
HETATM   19  C   UNL     1       1.176 -14.821 -39.669  1.00  0.00     0.009 A 
HETATM   20  C   UNL     1       1.820 -15.389 -38.573  1.00  0.00     0.001 A 
HETATM   21  C   UNL     1       1.125 -15.561 -37.386  1.00  0.00     0.002 A 
HETATM   22  C   UNL     1      -0.203 -15.141 -37.295  1.00  0.00     0.030 A 
ENDBRANCH  13  16
ENDBRANCH   1  12
BRANCH   2  23
HETATM   23  C   UNL     1      -4.828 -14.070 -40.398  1.00  0.00    -0.026 A 
HETATM   24  C   UNL     1      -4.470 -13.950 -41.754  1.00  0.00     0.035 A 
HETATM   25  C   UNL     1      -4.316 -15.084 -42.559  1.00  0.00     0.056 A 
HETATM   26 CL   UNL     1      -3.887 -14.839 -44.215  1.00  0.00    -0.083 Cl
HETATM   27  C   UNL     1      -4.513 -16.358 -42.017  1.00  0.00     0.055 A 
HETATM   28 CL   UNL     1      -4.344 -17.801 -42.950  1.00  0.00    -0.083 Cl
HETATM   29  C   UNL     1      -4.861 -16.490 -40.670  1.00  0.00     0.026 A 
HETATM   30  C   UNL     1      -5.016 -15.357 -39.866  1.00  0.00     0.011 A 
ENDBRANCH   2  23
BRANCH   7  31
HETATM   31  C   UNL     1      -9.770 -12.271 -40.371  1.00  0.00     0.085 C 
BRANCH  31  32
HETATM   32  C   UNL     1     -10.761 -13.332 -39.892  1.00  0.00     0.034 C 
BRANCH  32  33
HETATM   33  C   UNL     1     -11.116 -14.351 -40.970  1.00  0.00     0.164 C 
BRANCH  33  34
HETATM   34  O   UNL     1     -12.480 -14.197 -41.345  1.00  0.00    -0.401 OA
HETATM   35  H   UNL     1     -12.636 -14.745 -42.132  1.00  0.00     0.209 HD
ENDBRANCH  33  34
ENDBRANCH  32  33
ENDBRANCH  31  32
ENDBRANCH   7  31
TORSDOF 7
ENDMDL
MODEL 4
REMARK VINA RESULT:      -8.9      1.938      2.078
REMARK  7 active torsions:
REMARK  status: ('A' for Active; 'I' for Inactive)
REMARK    1  A    between atoms: C_3  and  N_4 
REMARK       I    between atoms: N_4  and  C_5 
REMARK    2  A    between atoms: C_5  and  C_6 
REMARK    3  A    between atoms: C_7  and  C_8 
REMARK    4  A    between atoms: C_20  and  C_21 
REMARK    5  A    between atoms: C_21  and  C_22 
REMARK    6  A    between atoms: C_22  and  C_23 
REMARK    7  A    between atoms: C_23  and  O_24 
ROOT
HETATM    1  C   UNL     1      -8.074   1.367 -31.565  1.00  0.00     0.062 C 
HETATM    2  C   UNL     1      -7.377   2.596 -30.968  1.00  0.00     0.202 C 
HETATM    3  N   UNL     1      -8.357   3.616 -30.576  1.00  0.00    -0.083 N 
HETATM    4  C   UNL     1      -9.668   3.599 -30.959  1.00  0.00     0.726 A 
HETATM    5  N   UNL     1     -10.141   2.540 -31.640  1.00  0.00    -0.192 N 
HETATM    6  N   UNL     1      -8.058   4.742 -29.894  1.00  0.00    -0.140 NA
HETATM    7  C   UNL     1      -9.227   5.395 -29.969  1.00  0.00     0.166 A 
HETATM    8  N   UNL     1     -10.247   4.711 -30.589  1.00  0.00    -0.046 NA
HETATM    9  C   UNL     1      -9.383   1.411 -31.927  1.00  0.00     0.037 C 
HETATM   10  C   UNL     1     -10.110   0.328 -32.685  1.00  0.00     0.070 C 
HETATM   11  H   UNL     1     -11.115   2.549 -31.932  1.00  0.00     0.184 HD
ENDROOT
BRANCH   1  12
HETATM   12  C   UNL     1      -7.191   0.170 -31.726  1.00  0.00     0.256 C 
HETATM   13  N   UNL     1      -7.139  -0.317 -33.011  1.00  0.00    -0.323 N 
HETATM   14  H   UNL     1      -7.894  -0.030 -33.623  1.00  0.00     0.169 HD
HETATM   15  O   UNL     1      -6.709  -0.364 -30.737  1.00  0.00    -0.267 OA
BRANCH  13  16
HETATM   16  C   UNL     1      -6.256  -1.278 -33.557  1.00  0.00     0.041 A 
HETATM   17  C   UNL     1      -4.849  -1.232 -33.533  1.00  0.00    -0.035 A 
HETATM   18  C   UNL     1      -4.028  -0.112 -32.956  1.00  0.00     0.050 C 
HETATM   19  C   UNL     1      -4.126  -2.289 -34.129  1.00  0.00     0.009 A 
HETATM   20  C   UNL     1      -4.769  -3.337 -34.783  1.00  0.00     0.001 A 
HETATM   21  C   UNL     1      -6.153  -3.351 -34.855  1.00  0.00     0.002 A 
HETATM   22  C   UNL     1      -6.887  -2.329 -34.250  1.00  0.00     0.030 A 
ENDBRANCH  13  16
ENDBRANCH   1  12
BRANCH   2  23
HETATM   23  C   UNL     1      -6.357   3.238 -31.913  1.00  0.00    -0.026 A 
HETATM   24  C   UNL     1      -4.999   3.355 -31.563  1.00  0.00     0.035 A 
HETATM   25  C   UNL     1      -4.080   3.943 -32.439  1.00  0.00     0.056 A 
HETATM   26 CL   UNL     1      -2.435   4.054 -31.919  1.00  0.00    -0.083 Cl
HETATM   27  C   UNL     1      -4.506   4.417 -33.683  1.00  0.00     0.055 A 
HETATM   28 CL   UNL     1      -3.430   5.157 -34.813  1.00  0.00    -0.083 Cl
HETATM   29  C   UNL     1      -5.850   4.300 -34.045  1.00  0.00     0.026 A 
HETATM   30  C   UNL     1      -6.769   3.714 -33.169  1.00  0.00     0.011 A 
ENDBRANCH   2  23
BRANCH   7  31
HETATM   31  C   UNL     1      -9.394   6.798 -29.512  1.00  0.00     0.085 C 
BRANCH  31  32
HETATM   32  C   UNL     1      -8.809   7.038 -28.119  1.00  0.00     0.034 C 
BRANCH  32  33
HETATM   33  C   UNL     1      -9.531   8.140 -27.348  1.00  0.00     0.164 C 
BRANCH  33  34
HETATM   34  O   UNL     1     -10.172   7.583 -26.206  1.00  0.00    -0.401 OA
HETATM   35  H   UNL     1     -10.225   8.277 -25.528  1.00  0.00     0.209 HD
ENDBRANCH  33  34
ENDBRANCH  32  33
ENDBRANCH  31  32
ENDBRANCH   7  31
TORSDOF 7
ENDMDL
MODEL 5
REMARK VINA RESULT:      -8.2      3.255      5.667
REMARK  7 active torsions:
REMARK  status: ('A' for Active; 'I' for Inactive)
REMARK    1  A    between atoms: C_3  and  N_4 
REMARK       I    between atoms: N_4  and  C_5 
REMARK    2  A    between atoms: C_5  and  C_6 
REMARK    3  A    between atoms: C_7  and  C_8 
REMARK    4  A    between atoms: C_20  and  C_21 
REMARK    5  A    between atoms: C_21  and  C_22 
REMARK    6  A    between atoms: C_22  and  C_23 
REMARK    7  A    between atoms: C_23  and  O_24 
ROOT
HETATM    1  C   UNL     1      -5.768   2.175 -33.089  1.00  0.00     0.062 C 
HETATM    2  C   UNL     1      -5.451   3.674 -33.033  1.00  0.00     0.202 C 
HETATM    3  N   UNL     1      -4.092   3.906 -32.529  1.00  0.00    -0.083 N 
HETATM    4  C   UNL     1      -3.333   2.947 -31.920  1.00  0.00     0.726 A 
HETATM    5  N   UNL     1      -3.787   1.683 -31.866  1.00  0.00    -0.192 N 
HETATM    6  N   UNL     1      -3.480   5.109 -32.502  1.00  0.00    -0.140 NA
HETATM    7  C   UNL     1      -2.382   4.813 -31.792  1.00  0.00     0.166 A 
HETATM    8  N   UNL     1      -2.243   3.490 -31.443  1.00  0.00    -0.046 NA
HETATM    9  C   UNL     1      -4.973   1.268 -32.462  1.00  0.00     0.037 C 
HETATM   10  C   UNL     1      -5.291  -0.199 -32.301  1.00  0.00     0.070 C 
HETATM   11  H   UNL     1      -3.218   0.984 -31.396  1.00  0.00     0.184 HD
ENDROOT
BRANCH   1  12
HETATM   12  C   UNL     1      -7.007   1.830 -33.852  1.00  0.00     0.256 C 
HETATM   13  N   UNL     1      -8.170   2.015 -33.141  1.00  0.00    -0.323 N 
HETATM   14  H   UNL     1      -8.069   2.067 -32.135  1.00  0.00     0.169 HD
HETATM   15  O   UNL     1      -6.914   1.297 -34.949  1.00  0.00    -0.267 OA
BRANCH  13  16
HETATM   16  C   UNL     1      -9.504   1.999 -33.610  1.00  0.00     0.041 A 
HETATM   17  C   UNL     1     -10.442   0.963 -33.437  1.00  0.00    -0.035 A 
HETATM   18  C   UNL     1     -10.170  -0.348 -32.752  1.00  0.00     0.050 C 
HETATM   19  C   UNL     1     -11.738   1.125 -33.975  1.00  0.00     0.009 A 
HETATM   20  C   UNL     1     -12.086   2.251 -34.716  1.00  0.00     0.001 A 
HETATM   21  C   UNL     1     -11.144   3.244 -34.934  1.00  0.00     0.002 A 
HETATM   22  C   UNL     1      -9.866   3.116 -34.389  1.00  0.00     0.030 A 
ENDBRANCH  13  16
ENDBRANCH   1  12
BRANCH   2  23
HETATM   23  C   UNL     1      -6.433   4.474 -32.171  1.00  0.00    -0.026 A 
HETATM   24  C   UNL     1      -7.252   5.476 -32.723  1.00  0.00     0.035 A 
HETATM   25  C   UNL     1      -8.145   6.196 -31.922  1.00  0.00     0.056 A 
HETATM   26 CL   UNL     1      -9.102   7.417 -32.685  1.00  0.00    -0.083 Cl
HETATM   27  C   UNL     1      -8.237   5.918 -30.555  1.00  0.00     0.055 A 
HETATM   28 CL   UNL     1      -9.312   6.767 -29.504  1.00  0.00    -0.083 Cl
HETATM   29  C   UNL     1      -7.434   4.920 -29.996  1.00  0.00     0.026 A 
HETATM   30  C   UNL     1      -6.540   4.202 -30.797  1.00  0.00     0.011 A 
ENDBRANCH   2  23
BRANCH   7  31
HETATM   31  C   UNL     1      -1.429   5.849 -31.319  1.00  0.00     0.085 C 
BRANCH  31  32
HETATM   32  C   UNL     1       0.010   5.334 -31.241  1.00  0.00     0.034 C 
BRANCH  32  33
HETATM   33  C   UNL     1       0.530   5.225 -29.811  1.00  0.00     0.164 C 
BRANCH  33  34
HETATM   34  O   UNL     1       0.897   3.877 -29.537  1.00  0.00    -0.401 OA
HETATM   35  H   UNL     1       1.055   3.433 -30.387  1.00  0.00     0.209 HD
ENDBRANCH  33  34
ENDBRANCH  32  33
ENDBRANCH  31  32
ENDBRANCH   7  31
TORSDOF 7
ENDMDL
MODEL 6
REMARK VINA RESULT:      -8.1      3.435      5.825
REMARK  7 active torsions:
REMARK  status: ('A' for Active; 'I' for Inactive)
REMARK    1  A    between atoms: C_3  and  N_4 
REMARK       I    between atoms: N_4  and  C_5 
REMARK    2  A    between atoms: C_5  and  C_6 
REMARK    3  A    between atoms: C_7  and  C_8 
REMARK    4  A    between atoms: C_20  and  C_21 
REMARK    5  A    between atoms: C_21  and  C_22 
REMARK    6  A    between atoms: C_22  and  C_23 
REMARK    7  A    between atoms: C_23  and  O_24 
ROOT
HETATM    1  C   UNL     1      -6.569   1.547 -33.442  1.00  0.00     0.062 C 
HETATM    2  C   UNL     1      -6.147   3.021 -33.424  1.00  0.00     0.202 C 
HETATM    3  N   UNL     1      -4.763   3.166 -32.958  1.00  0.00    -0.083 N 
HETATM    4  C   UNL     1      -4.057   2.168 -32.348  1.00  0.00     0.726 A 
HETATM    5  N   UNL     1      -4.597   0.939 -32.258  1.00  0.00    -0.192 N 
HETATM    6  N   UNL     1      -4.068   4.323 -32.970  1.00  0.00    -0.140 NA
HETATM    7  C   UNL     1      -2.976   3.964 -32.280  1.00  0.00     0.166 A 
HETATM    8  N   UNL     1      -2.920   2.641 -31.908  1.00  0.00    -0.046 NA
HETATM    9  C   UNL     1      -5.823   0.598 -32.816  1.00  0.00     0.037 C 
HETATM   10  C   UNL     1      -6.238  -0.839 -32.619  1.00  0.00     0.070 C 
HETATM   11  H   UNL     1      -4.066   0.211 -31.788  1.00  0.00     0.184 HD
ENDROOT
BRANCH   1  12
HETATM   12  C   UNL     1      -7.848   1.276 -34.168  1.00  0.00     0.256 C 
HETATM   13  N   UNL     1      -8.975   1.469 -33.404  1.00  0.00    -0.323 N 
HETATM   14  H   UNL     1      -8.833   1.476 -32.402  1.00  0.00     0.169 HD
HETATM   15  O   UNL     1      -7.816   0.786 -35.289  1.00  0.00    -0.267 OA
BRANCH  13  16
HETATM   16  C   UNL     1     -10.326   1.519 -33.820  1.00  0.00     0.041 A 
HETATM   17  C   UNL     1     -10.943   2.557 -34.543  1.00  0.00    -0.035 A 
HETATM   18  C   UNL     1     -10.274   3.836 -34.966  1.00  0.00     0.050 C 
HETATM   19  C   UNL     1     -12.310   2.432 -34.877  1.00  0.00     0.009 A 
HETATM   20  C   UNL     1     -13.067   1.341 -34.459  1.00  0.00     0.001 A 
HETATM   21  C   UNL     1     -12.472   0.347 -33.698  1.00  0.00     0.002 A 
HETATM   22  C   UNL     1     -11.116   0.439 -33.380  1.00  0.00     0.030 A 
ENDBRANCH  13  16
ENDBRANCH   1  12
BRANCH   2  23
HETATM   23  C   UNL     1      -7.049   3.903 -32.554  1.00  0.00    -0.026 A 
HETATM   24  C   UNL     1      -7.693   5.039 -33.077  1.00  0.00     0.035 A 
HETATM   25  C   UNL     1      -8.515   5.833 -32.269  1.00  0.00     0.056 A 
HETATM   26 CL   UNL     1      -9.256   7.217 -32.994  1.00  0.00    -0.083 Cl
HETATM   27  C   UNL     1      -8.710   5.497 -30.926  1.00  0.00     0.055 A 
HETATM   28 CL   UNL     1      -9.706   6.431 -29.870  1.00  0.00    -0.083 Cl
HETATM   29  C   UNL     1      -8.081   4.367 -30.398  1.00  0.00     0.026 A 
HETATM   30  C   UNL     1      -7.258   3.575 -31.205  1.00  0.00     0.011 A 
ENDBRANCH   2  23
BRANCH   7  31
HETATM   31  C   UNL     1      -1.941   4.939 -31.851  1.00  0.00     0.085 C 
BRANCH  31  32
HETATM   32  C   UNL     1      -2.237   6.362 -32.326  1.00  0.00     0.034 C 
BRANCH  32  33
HETATM   33  C   UNL     1      -1.340   6.809 -33.476  1.00  0.00     0.164 C 
BRANCH  33  34
HETATM   34  O   UNL     1      -2.139   7.334 -34.530  1.00  0.00    -0.401 OA
HETATM   35  H   UNL     1      -2.931   7.733 -34.133  1.00  0.00     0.209 HD
ENDBRANCH  33  34
ENDBRANCH  32  33
ENDBRANCH  31  32
ENDBRANCH   7  31
TORSDOF 7
ENDMDL
MODEL 7
REMARK VINA RESULT:      -8.0      4.810      7.059
REMARK  7 active torsions:
REMARK  status: ('A' for Active; 'I' for Inactive)
REMARK    1  A    between atoms: C_3  and  N_4 
REMARK       I    between atoms: N_4  and  C_5 
REMARK    2  A    between atoms: C_5  and  C_6 
REMARK    3  A    between atoms: C_7  and  C_8 
REMARK    4  A    between atoms: C_20  and  C_21 
REMARK    5  A    between atoms: C_21  and  C_22 
REMARK    6  A    between atoms: C_22  and  C_23 
REMARK    7  A    between atoms: C_23  and  O_24 
ROOT
HETATM    1  C   UNL     1      -9.040   3.430 -32.613  1.00  0.00     0.062 C 
HETATM    2  C   UNL     1      -9.815   3.678 -33.913  1.00  0.00     0.202 C 
HETATM    3  N   UNL     1     -10.051   5.112 -34.119  1.00  0.00    -0.083 N 
HETATM    4  C   UNL     1      -9.871   6.059 -33.151  1.00  0.00     0.726 A 
HETATM    5  N   UNL     1      -9.341   5.700 -31.968  1.00  0.00    -0.192 N 
HETATM    6  N   UNL     1     -10.579   5.648 -35.240  1.00  0.00    -0.140 NA
HETATM    7  C   UNL     1     -10.760   6.916 -34.847  1.00  0.00     0.166 A 
HETATM    8  N   UNL     1     -10.310   7.213 -33.581  1.00  0.00    -0.046 NA
HETATM    9  C   UNL     1      -8.895   4.414 -31.687  1.00  0.00     0.037 C 
HETATM   10  C   UNL     1      -8.315   4.225 -30.306  1.00  0.00     0.070 C 
HETATM   11  H   UNL     1      -9.228   6.412 -31.252  1.00  0.00     0.184 HD
ENDROOT
BRANCH   1  12
HETATM   12  C   UNL     1      -8.506   2.041 -32.464  1.00  0.00     0.256 C 
HETATM   13  N   UNL     1      -7.316   1.827 -33.120  1.00  0.00    -0.323 N 
HETATM   14  H   UNL     1      -7.087   2.493 -33.848  1.00  0.00     0.169 HD
HETATM   15  O   UNL     1      -9.190   1.184 -31.922  1.00  0.00    -0.267 OA
BRANCH  13  16
HETATM   16  C   UNL     1      -6.436   0.725 -33.016  1.00  0.00     0.041 A 
HETATM   17  C   UNL     1      -6.367  -0.378 -33.889  1.00  0.00    -0.035 A 
HETATM   18  C   UNL     1      -7.263  -0.602 -35.076  1.00  0.00     0.050 C 
HETATM   19  C   UNL     1      -5.416  -1.390 -33.629  1.00  0.00     0.009 A 
HETATM   20  C   UNL     1      -4.593  -1.349 -32.507  1.00  0.00     0.001 A 
HETATM   21  C   UNL     1      -4.703  -0.292 -31.617  1.00  0.00     0.002 A 
HETATM   22  C   UNL     1      -5.617   0.732 -31.870  1.00  0.00     0.030 A 
ENDBRANCH  13  16
ENDBRANCH   1  12
BRANCH   2  23
HETATM   23  C   UNL     1     -11.161   2.950 -33.970  1.00  0.00    -0.026 A 
HETATM   24  C   UNL     1     -12.152   3.154 -32.992  1.00  0.00     0.035 A 
HETATM   25  C   UNL     1     -13.377   2.482 -33.060  1.00  0.00     0.056 A 
HETATM   26 CL   UNL     1     -14.529   2.787 -31.807  1.00  0.00    -0.083 Cl
HETATM   27  C   UNL     1     -13.632   1.599 -34.113  1.00  0.00     0.055 A 
HETATM   28 CL   UNL     1     -15.119   0.733 -34.260  1.00  0.00    -0.083 Cl
HETATM   29  C   UNL     1     -12.659   1.394 -35.094  1.00  0.00     0.026 A 
HETATM   30  C   UNL     1     -11.434   2.064 -35.025  1.00  0.00     0.011 A 
ENDBRANCH   2  23
BRANCH   7  31
HETATM   31  C   UNL     1     -11.489   7.916 -35.669  1.00  0.00     0.085 C 
BRANCH  31  32
HETATM   32  C   UNL     1     -12.803   7.373 -36.230  1.00  0.00     0.034 C 
BRANCH  32  33
HETATM   33  C   UNL     1     -13.702   6.758 -35.162  1.00  0.00     0.164 C 
BRANCH  33  34
HETATM   34  O   UNL     1     -13.696   5.340 -35.289  1.00  0.00    -0.401 OA
HETATM   35  H   UNL     1     -13.715   4.961 -34.395  1.00  0.00     0.209 HD
ENDBRANCH  33  34
ENDBRANCH  32  33
ENDBRANCH  31  32
ENDBRANCH   7  31
TORSDOF 7
ENDMDL
MODEL 8
REMARK VINA RESULT:      -8.0      3.595      5.996
REMARK  7 active torsions:
REMARK  status: ('A' for Active; 'I' for Inactive)
REMARK    1  A    between atoms: C_3  and  N_4 
REMARK       I    between atoms: N_4  and  C_5 
REMARK    2  A    between atoms: C_5  and  C_6 
REMARK    3  A    between atoms: C_7  and  C_8 
REMARK    4  A    between atoms: C_20  and  C_21 
REMARK    5  A    between atoms: C_21  and  C_22 
REMARK    6  A    between atoms: C_22  and  C_23 
REMARK    7  A    between atoms: C_23  and  O_24 
ROOT
HETATM    1  C   UNL     1      -6.845   2.475 -31.694  1.00  0.00     0.062 C 
HETATM    2  C   UNL     1      -6.203   3.832 -32.007  1.00  0.00     0.202 C 
HETATM    3  N   UNL     1      -4.744   3.714 -32.103  1.00  0.00    -0.083 N 
HETATM    4  C   UNL     1      -4.039   2.622 -31.680  1.00  0.00     0.726 A 
HETATM    5  N   UNL     1      -4.704   1.535 -31.253  1.00  0.00    -0.192 N 
HETATM    6  N   UNL     1      -3.920   4.704 -32.507  1.00  0.00    -0.140 NA
HETATM    7  C   UNL     1      -2.726   4.163 -32.230  1.00  0.00     0.166 A 
HETATM    8  N   UNL     1      -2.758   2.874 -31.749  1.00  0.00    -0.046 NA
HETATM    9  C   UNL     1      -6.090   1.424 -31.277  1.00  0.00     0.037 C 
HETATM   10  C   UNL     1      -6.636   0.112 -30.771  1.00  0.00     0.070 C 
HETATM   11  H   UNL     1      -4.167   0.735 -30.928  1.00  0.00     0.184 HD
ENDROOT
BRANCH   1  12
HETATM   12  C   UNL     1      -8.330   2.437 -31.861  1.00  0.00     0.256 C 
HETATM   13  N   UNL     1      -8.743   2.346 -33.170  1.00  0.00    -0.323 N 
HETATM   14  H   UNL     1      -8.058   2.608 -33.868  1.00  0.00     0.169 HD
HETATM   15  O   UNL     1      -9.054   2.625 -30.892  1.00  0.00    -0.267 OA
BRANCH  13  16
HETATM   16  C   UNL     1     -10.037   2.072 -33.671  1.00  0.00     0.041 A 
HETATM   17  C   UNL     1     -10.775   0.888 -33.484  1.00  0.00    -0.035 A 
HETATM   18  C   UNL     1     -10.290  -0.329 -32.746  1.00  0.00     0.050 C 
HETATM   19  C   UNL     1     -12.062   0.793 -34.059  1.00  0.00     0.009 A 
HETATM   20  C   UNL     1     -12.587   1.813 -34.848  1.00  0.00     0.001 A 
HETATM   21  C   UNL     1     -11.835   2.954 -35.079  1.00  0.00     0.002 A 
HETATM   22  C   UNL     1     -10.572   3.079 -34.498  1.00  0.00     0.030 A 
ENDBRANCH  13  16
ENDBRANCH   1  12
BRANCH   2  23
HETATM   23  C   UNL     1      -6.538   4.918 -30.979  1.00  0.00    -0.026 A 
HETATM   24  C   UNL     1      -7.116   6.142 -31.362  1.00  0.00     0.035 A 
HETATM   25  C   UNL     1      -7.417   7.122 -30.410  1.00  0.00     0.056 A 
HETATM   26 CL   UNL     1      -8.115   8.600 -30.974  1.00  0.00    -0.083 Cl
HETATM   27  C   UNL     1      -7.150   6.888 -29.058  1.00  0.00     0.055 A 
HETATM   28 CL   UNL     1      -7.491   8.052 -27.828  1.00  0.00    -0.083 Cl
HETATM   29  C   UNL     1      -6.583   5.673 -28.665  1.00  0.00     0.026 A 
HETATM   30  C   UNL     1      -6.281   4.695 -29.617  1.00  0.00     0.011 A 
ENDBRANCH   2  23
BRANCH   7  31
HETATM   31  C   UNL     1      -1.455   4.926 -32.330  1.00  0.00     0.085 C 
BRANCH  31  32
HETATM   32  C   UNL     1      -1.456   5.923 -33.489  1.00  0.00     0.034 C 
BRANCH  32  33
HETATM   33  C   UNL     1      -1.755   5.274 -34.837  1.00  0.00     0.164 C 
BRANCH  33  34
HETATM   34  O   UNL     1      -2.990   5.769 -35.343  1.00  0.00    -0.401 OA
HETATM   35  H   UNL     1      -2.849   6.031 -36.268  1.00  0.00     0.209 HD
ENDBRANCH  33  34
ENDBRANCH  32  33
ENDBRANCH  31  32
ENDBRANCH   7  31
TORSDOF 7
ENDMDL
MODEL 9
REMARK VINA RESULT:      -7.9      3.520      5.703
REMARK  7 active torsions:
REMARK  status: ('A' for Active; 'I' for Inactive)
REMARK    1  A    between atoms: C_3  and  N_4 
REMARK       I    between atoms: N_4  and  C_5 
REMARK    2  A    between atoms: C_5  and  C_6 
REMARK    3  A    between atoms: C_7  and  C_8 
REMARK    4  A    between atoms: C_20  and  C_21 
REMARK    5  A    between atoms: C_21  and  C_22 
REMARK    6  A    between atoms: C_22  and  C_23 
REMARK    7  A    between atoms: C_23  and  O_24 
ROOT
HETATM    1  C   UNL     1      -6.346   2.799 -31.679  1.00  0.00     0.062 C 
HETATM    2  C   UNL     1      -5.778   4.193 -31.967  1.00  0.00     0.202 C 
HETATM    3  N   UNL     1      -4.320   4.145 -32.128  1.00  0.00    -0.083 N 
HETATM    4  C   UNL     1      -3.551   3.071 -31.776  1.00  0.00     0.726 A 
HETATM    5  N   UNL     1      -4.150   1.940 -31.363  1.00  0.00    -0.192 N 
HETATM    6  N   UNL     1      -3.558   5.185 -32.528  1.00  0.00    -0.140 NA
HETATM    7  C   UNL     1      -2.331   4.688 -32.320  1.00  0.00     0.166 A 
HETATM    8  N   UNL     1      -2.287   3.383 -31.887  1.00  0.00    -0.046 NA
HETATM    9  C   UNL     1      -5.529   1.769 -31.333  1.00  0.00     0.037 C 
HETATM   10  C   UNL     1      -5.995   0.415 -30.855  1.00  0.00     0.070 C 
HETATM   11  H   UNL     1      -3.564   1.155 -31.090  1.00  0.00     0.184 HD
ENDROOT
BRANCH   1  12
HETATM   12  C   UNL     1      -7.834   2.699 -31.786  1.00  0.00     0.256 C 
HETATM   13  N   UNL     1      -8.298   2.634 -33.079  1.00  0.00    -0.323 N 
HETATM   14  H   UNL     1      -7.655   2.951 -33.795  1.00  0.00     0.169 HD
HETATM   15  O   UNL     1      -8.523   2.822 -30.782  1.00  0.00    -0.267 OA
BRANCH  13  16
HETATM   16  C   UNL     1      -9.599   2.320 -33.536  1.00  0.00     0.041 A 
HETATM   17  C   UNL     1     -10.291   1.111 -33.329  1.00  0.00    -0.035 A 
HETATM   18  C   UNL     1      -9.740  -0.093 -32.615  1.00  0.00     0.050 C 
HETATM   19  C   UNL     1     -11.593   0.976 -33.859  1.00  0.00     0.009 A 
HETATM   20  C   UNL     1     -12.179   1.981 -34.624  1.00  0.00     0.001 A 
HETATM   21  C   UNL     1     -11.474   3.148 -34.875  1.00  0.00     0.002 A 
HETATM   22  C   UNL     1     -10.196   3.312 -34.338  1.00  0.00     0.030 A 
ENDBRANCH  13  16
ENDBRANCH   1  12
BRANCH   2  23
HETATM   23  C   UNL     1      -6.115   5.225 -30.886  1.00  0.00    -0.026 A 
HETATM   24  C   UNL     1      -5.624   5.104 -29.573  1.00  0.00     0.035 A 
HETATM   25  C   UNL     1      -5.940   6.057 -28.598  1.00  0.00     0.056 A 
HETATM   26 CL   UNL     1      -5.302   5.819 -27.009  1.00  0.00    -0.083 Cl
HETATM   27  C   UNL     1      -6.748   7.150 -28.925  1.00  0.00     0.055 A 
HETATM   28 CL   UNL     1      -7.182   8.362 -27.774  1.00  0.00    -0.083 Cl
HETATM   29  C   UNL     1      -7.234   7.285 -30.228  1.00  0.00     0.026 A 
HETATM   30  C   UNL     1      -6.920   6.332 -31.201  1.00  0.00     0.011 A 
ENDBRANCH   2  23
BRANCH   7  31
HETATM   31  C   UNL     1      -1.100   5.511 -32.444  1.00  0.00     0.085 C 
BRANCH  31  32
HETATM   32  C   UNL     1      -0.606   6.039 -31.097  1.00  0.00     0.034 C 
BRANCH  32  33
HETATM   33  C   UNL     1       0.580   5.255 -30.544  1.00  0.00     0.164 C 
BRANCH  33  34
HETATM   34  O   UNL     1       0.111   4.096 -29.862  1.00  0.00    -0.401 OA
HETATM   35  H   UNL     1      -0.856   4.070 -29.952  1.00  0.00     0.209 HD
ENDBRANCH  33  34
ENDBRANCH  32  33
ENDBRANCH  31  32
ENDBRANCH   7  31
TORSDOF 7
ENDMDL
MODEL 10
REMARK VINA RESULT:      -7.8     16.580     18.300
REMARK  7 active torsions:
REMARK  status: ('A' for Active; 'I' for Inactive)
REMARK    1  A    between atoms: C_3  and  N_4 
REMARK       I    between atoms: N_4  and  C_5 
REMARK    2  A    between atoms: C_5  and  C_6 
REMARK    3  A    between atoms: C_7  and  C_8 
REMARK    4  A    between atoms: C_20  and  C_21 
REMARK    5  A    between atoms: C_21  and  C_22 
REMARK    6  A    between atoms: C_22  and  C_23 
REMARK    7  A    between atoms: C_23  and  O_24 
ROOT
HETATM    1  C   UNL     1      -5.925 -14.862 -35.848  1.00  0.00     0.062 C 
HETATM    2  C   UNL     1      -5.823 -13.628 -36.752  1.00  0.00     0.202 C 
HETATM    3  N   UNL     1      -7.036 -13.468 -37.562  1.00  0.00    -0.083 N 
HETATM    4  C   UNL     1      -7.986 -14.440 -37.710  1.00  0.00     0.726 A 
HETATM    5  N   UNL     1      -7.885 -15.573 -36.993  1.00  0.00    -0.192 N 
HETATM    6  N   UNL     1      -7.299 -12.400 -38.344  1.00  0.00    -0.140 NA
HETATM    7  C   UNL     1      -8.390 -12.830 -38.994  1.00  0.00     0.166 A 
HETATM    8  N   UNL     1      -8.858 -14.065 -38.609  1.00  0.00    -0.046 NA
HETATM    9  C   UNL     1      -6.894 -15.795 -36.045  1.00  0.00     0.037 C 
HETATM   10  C   UNL     1      -6.972 -17.126 -35.337  1.00  0.00     0.070 C 
HETATM   11  H   UNL     1      -8.591 -16.293 -37.125  1.00  0.00     0.184 HD
ENDROOT
BRANCH   1  12
HETATM   12  C   UNL     1      -4.873 -14.944 -34.788  1.00  0.00     0.256 C 
HETATM   13  N   UNL     1      -3.862 -15.834 -35.071  1.00  0.00    -0.323 N 
HETATM   14  H   UNL     1      -4.071 -16.529 -35.777  1.00  0.00     0.169 HD
HETATM   15  O   UNL     1      -5.036 -14.360 -33.726  1.00  0.00    -0.267 OA
BRANCH  13  16
HETATM   16  C   UNL     1      -2.622 -16.000 -34.413  1.00  0.00     0.041 A 
HETATM   17  C   UNL     1      -1.363 -15.569 -34.874  1.00  0.00    -0.035 A 
HETATM   18  C   UNL     1      -1.109 -14.886 -36.189  1.00  0.00     0.050 C 
HETATM   19  C   UNL     1      -0.226 -15.821 -34.075  1.00  0.00     0.009 A 
HETATM   20  C   UNL     1      -0.314 -16.531 -32.881  1.00  0.00     0.001 A 
HETATM   21  C   UNL     1      -1.546 -17.005 -32.457  1.00  0.00     0.002 A 
HETATM   22  C   UNL     1      -2.686 -16.744 -33.218  1.00  0.00     0.030 A 
ENDBRANCH  13  16
ENDBRANCH   1  12
BRANCH   2  23
HETATM   23  C   UNL     1      -4.611 -13.655 -37.689  1.00  0.00    -0.026 A 
HETATM   24  C   UNL     1      -4.400 -14.714 -38.590  1.00  0.00     0.035 A 
HETATM   25  C   UNL     1      -3.289 -14.723 -39.441  1.00  0.00     0.056 A 
HETATM   26 CL   UNL     1      -3.105 -16.072 -40.506  1.00  0.00    -0.083 Cl
HETATM   27  C   UNL     1      -2.375 -13.666 -39.406  1.00  0.00     0.055 A 
HETATM   28 CL   UNL     1      -0.980 -13.610 -40.422  1.00  0.00    -0.083 Cl
HETATM   29  C   UNL     1      -2.578 -12.605 -38.520  1.00  0.00     0.026 A 
HETATM   30  C   UNL     1      -3.687 -12.597 -37.669  1.00  0.00     0.011 A 
ENDBRANCH   2  23
BRANCH   7  31
HETATM   31  C   UNL     1      -9.000 -12.083 -40.124  1.00  0.00     0.085 C 
BRANCH  31  32
HETATM   32  C   UNL     1     -10.499 -12.349 -40.265  1.00  0.00     0.034 C 
BRANCH  32  33
HETATM   33  C   UNL     1     -11.315 -11.078 -40.482  1.00  0.00     0.164 C 
BRANCH  33  34
HETATM   34  O   UNL     1     -10.746 -10.319 -41.543  1.00  0.00    -0.401 OA
HETATM   35  H   UNL     1      -9.867 -10.686 -41.733  1.00  0.00     0.209 HD
ENDBRANCH  33  34
ENDBRANCH  32  33
ENDBRANCH  31  32
ENDBRANCH   7  31
TORSDOF 7
ENDMDL
