MODEL 1
REMARK VINA RESULT:      -9.6      0.000      0.000
REMARK  2 active torsions:
REMARK  status: ('A' for Active; 'I' for Inactive)
REMARK    1  A    between atoms: C_7  and  C_8 
REMARK       I    between atoms: C_8  and  N_9 
REMARK    2  A    between atoms: N_9  and  C_10 
ROOT
HETATM    1  C   UNL     1      -8.451   0.766 -34.054  1.00  0.00     0.256 C 
HETATM    2  N   UNL     1      -9.579   0.295 -33.402  1.00  0.00    -0.323 N 
HETATM    3  O   UNL     1      -8.367   1.808 -34.693  1.00  0.00    -0.267 OA
HETATM    4  H   UNL     1      -9.481  -0.554 -32.863  1.00  0.00     0.169 HD
ENDROOT
BRANCH   1   5
HETATM    5  C   UNL     1      -7.225  -0.080 -33.917  1.00  0.00     0.033 A 
HETATM    6  C   UNL     1      -6.101   0.496 -33.312  1.00  0.00     0.019 A 
HETATM    7  C   UNL     1      -4.921  -0.230 -33.130  1.00  0.00     0.031 A 
HETATM    8  C   UNL     1      -4.904  -1.556 -33.575  1.00  0.00     0.043 A 
HETATM    9  C   UNL     1      -5.993  -2.164 -34.195  1.00  0.00    -0.001 A 
HETATM   10  N   UNL     1      -3.895  -2.488 -33.524  1.00  0.00    -0.359 N 
HETATM   11  C   UNL     1      -5.612  -3.508 -34.511  1.00  0.00    -0.027 A 
HETATM   12  C   UNL     1      -7.171  -1.406 -34.383  1.00  0.00     0.031 A 
HETATM   13  C   UNL     1      -6.451  -4.540 -35.179  1.00  0.00     0.051 C 
HETATM   14  C   UNL     1      -4.304  -3.672 -34.082  1.00  0.00     0.012 A 
HETATM   15  C   UNL     1      -3.401  -4.851 -34.154  1.00  0.00     0.068 C 
HETATM   16  H   UNL     1      -2.981  -2.316 -33.129  1.00  0.00     0.166 HD
ENDBRANCH   1   5
BRANCH   2  17
HETATM   17  C   UNL     1     -10.848   0.914 -33.334  1.00  0.00     0.037 A 
HETATM   18  C   UNL     1     -12.057   0.218 -33.454  1.00  0.00     0.061 A 
HETATM   19  C   UNL     1     -13.217   0.957 -33.393  1.00  0.00     0.065 A 
HETATM   20  C   UNL     1     -13.217   2.337 -33.208  1.00  0.00     0.063 A 
HETATM   21  N   UNL     1     -14.540   0.541 -33.500  1.00  0.00    -0.306 N 
HETATM   22  N   UNL     1     -14.537   2.770 -33.199  1.00  0.00    -0.307 N 
HETATM   23  C   UNL     1     -12.054   3.052 -33.079  1.00  0.00     0.034 A 
HETATM   24  C   UNL     1     -15.375   1.661 -33.385  1.00  0.00     0.325 A 
HETATM   25  H   UNL     1     -14.874   3.712 -33.092  1.00  0.00     0.170 HD
HETATM   26  O   UNL     1     -16.593   1.673 -33.437  1.00  0.00    -0.247 OA
HETATM   27  C   UNL     1     -10.858   2.323 -33.147  1.00  0.00     0.032 A 
HETATM   28  H   UNL     1     -14.870  -0.399 -33.646  1.00  0.00     0.170 HD
ENDBRANCH   2  17
TORSDOF 2
ENDMDL
MODEL 2
REMARK VINA RESULT:      -9.5      5.604      9.002
REMARK  2 active torsions:
REMARK  status: ('A' for Active; 'I' for Inactive)
REMARK    1  A    between atoms: C_7  and  C_8 
REMARK       I    between atoms: C_8  and  N_9 
REMARK    2  A    between atoms: N_9  and  C_10 
ROOT
HETATM    1  C   UNL     1      -3.500   1.563 -32.269  1.00  0.00     0.256 C 
HETATM    2  N   UNL     1      -3.357   2.767 -32.939  1.00  0.00    -0.323 N 
HETATM    3  O   UNL     1      -2.962   1.256 -31.211  1.00  0.00    -0.267 OA
HETATM    4  H   UNL     1      -3.911   2.900 -33.774  1.00  0.00     0.169 HD
ENDROOT
BRANCH   1   5
HETATM    5  C   UNL     1      -4.433   0.579 -32.899  1.00  0.00     0.033 A 
HETATM    6  C   UNL     1      -5.722   1.020 -33.225  1.00  0.00     0.019 A 
HETATM    7  C   UNL     1      -6.650   0.170 -33.832  1.00  0.00     0.031 A 
HETATM    8  C   UNL     1      -6.244  -1.141 -34.102  1.00  0.00     0.043 A 
HETATM    9  C   UNL     1      -4.978  -1.626 -33.781  1.00  0.00    -0.001 A 
HETATM   10  N   UNL     1      -6.938  -2.174 -34.684  1.00  0.00    -0.359 N 
HETATM   11  C   UNL     1      -4.924  -2.995 -34.200  1.00  0.00    -0.027 A 
HETATM   12  C   UNL     1      -4.061  -0.752 -33.154  1.00  0.00     0.031 A 
HETATM   13  C   UNL     1      -3.769  -3.924 -34.067  1.00  0.00     0.051 C 
HETATM   14  C   UNL     1      -6.158  -3.300 -34.753  1.00  0.00     0.012 A 
HETATM   15  C   UNL     1      -6.669  -4.566 -35.343  1.00  0.00     0.068 C 
HETATM   16  H   UNL     1      -7.892  -2.106 -35.011  1.00  0.00     0.166 HD
ENDBRANCH   1   5
BRANCH   2  17
HETATM   17  C   UNL     1      -2.577   3.878 -32.546  1.00  0.00     0.037 A 
HETATM   18  C   UNL     1      -2.365   4.243 -31.212  1.00  0.00     0.061 A 
HETATM   19  C   UNL     1      -1.602   5.366 -30.980  1.00  0.00     0.065 A 
HETATM   20  C   UNL     1      -1.044   6.117 -32.010  1.00  0.00     0.063 A 
HETATM   21  N   UNL     1      -1.249   5.966 -29.775  1.00  0.00    -0.306 N 
HETATM   22  N   UNL     1      -0.346   7.175 -31.442  1.00  0.00    -0.307 N 
HETATM   23  C   UNL     1      -1.222   5.786 -33.329  1.00  0.00     0.034 A 
HETATM   24  C   UNL     1      -0.468   7.097 -30.047  1.00  0.00     0.325 A 
HETATM   25  H   UNL     1       0.164   7.901 -31.917  1.00  0.00     0.170 HD
HETATM   26  O   UNL     1       0.011   7.867 -29.232  1.00  0.00    -0.247 OA
HETATM   27  C   UNL     1      -2.003   4.652 -33.591  1.00  0.00     0.032 A 
HETATM   28  H   UNL     1      -1.506   5.664 -28.849  1.00  0.00     0.170 HD
ENDBRANCH   2  17
TORSDOF 2
ENDMDL
MODEL 3
REMARK VINA RESULT:      -9.4      1.090      1.685
REMARK  2 active torsions:
REMARK  status: ('A' for Active; 'I' for Inactive)
REMARK    1  A    between atoms: C_7  and  C_8 
REMARK       I    between atoms: C_8  and  N_9 
REMARK    2  A    between atoms: N_9  and  C_10 
ROOT
HETATM    1  C   UNL     1      -8.405   0.737 -34.170  1.00  0.00     0.256 C 
HETATM    2  N   UNL     1      -9.502   0.421 -33.385  1.00  0.00    -0.323 N 
HETATM    3  O   UNL     1      -8.331   1.662 -34.971  1.00  0.00    -0.267 OA
HETATM    4  H   UNL     1      -9.395  -0.336 -32.725  1.00  0.00     0.169 HD
ENDROOT
BRANCH   1   5
HETATM    5  C   UNL     1      -7.199  -0.125 -33.973  1.00  0.00     0.033 A 
HETATM    6  C   UNL     1      -6.121   0.416 -33.261  1.00  0.00     0.019 A 
HETATM    7  C   UNL     1      -4.963  -0.328 -33.018  1.00  0.00     0.031 A 
HETATM    8  C   UNL     1      -4.921  -1.635 -33.513  1.00  0.00     0.043 A 
HETATM    9  C   UNL     1      -5.963  -2.208 -34.237  1.00  0.00    -0.001 A 
HETATM   10  N   UNL     1      -3.925  -2.579 -33.421  1.00  0.00    -0.359 N 
HETATM   11  C   UNL     1      -5.568  -3.543 -34.576  1.00  0.00    -0.027 A 
HETATM   12  C   UNL     1      -7.118  -1.432 -34.485  1.00  0.00     0.031 A 
HETATM   13  C   UNL     1      -6.360  -4.540 -35.346  1.00  0.00     0.051 C 
HETATM   14  C   UNL     1      -4.298  -3.736 -34.055  1.00  0.00     0.012 A 
HETATM   15  C   UNL     1      -3.400  -4.920 -34.103  1.00  0.00     0.068 C 
HETATM   16  H   UNL     1      -3.043  -2.430 -32.951  1.00  0.00     0.166 HD
ENDBRANCH   1   5
BRANCH   2  17
HETATM   17  C   UNL     1     -10.745   1.093 -33.341  1.00  0.00     0.037 A 
HETATM   18  C   UNL     1     -10.889   2.433 -32.963  1.00  0.00     0.061 A 
HETATM   19  C   UNL     1     -12.166   2.946 -32.942  1.00  0.00     0.065 A 
HETATM   20  C   UNL     1     -13.283   2.192 -33.292  1.00  0.00     0.063 A 
HETATM   21  N   UNL     1     -12.605   4.220 -32.593  1.00  0.00    -0.306 N 
HETATM   22  N   UNL     1     -14.406   2.999 -33.160  1.00  0.00    -0.307 N 
HETATM   23  C   UNL     1     -13.181   0.880 -33.676  1.00  0.00     0.034 A 
HETATM   24  C   UNL     1     -14.000   4.268 -32.721  1.00  0.00     0.325 A 
HETATM   25  H   UNL     1     -15.365   2.749 -33.331  1.00  0.00     0.170 HD
HETATM   26  O   UNL     1     -14.722   5.222 -32.493  1.00  0.00    -0.247 OA
HETATM   27  C   UNL     1     -11.891   0.330 -33.695  1.00  0.00     0.032 A 
HETATM   28  H   UNL     1     -12.037   4.994 -32.287  1.00  0.00     0.170 HD
ENDBRANCH   2  17
TORSDOF 2
ENDMDL
MODEL 4
REMARK VINA RESULT:      -9.1      4.203      8.945
REMARK  2 active torsions:
REMARK  status: ('A' for Active; 'I' for Inactive)
REMARK    1  A    between atoms: C_7  and  C_8 
REMARK       I    between atoms: C_8  and  N_9 
REMARK    2  A    between atoms: N_9  and  C_10 
ROOT
HETATM    1  C   UNL     1      -6.951   1.563 -33.836  1.00  0.00     0.256 C 
HETATM    2  N   UNL     1      -6.612   2.803 -33.319  1.00  0.00    -0.323 N 
HETATM    3  O   UNL     1      -6.183   0.762 -34.355  1.00  0.00    -0.267 OA
HETATM    4  H   UNL     1      -7.345   3.331 -32.866  1.00  0.00     0.169 HD
ENDROOT
BRANCH   1   5
HETATM    5  C   UNL     1      -8.389   1.177 -33.698  1.00  0.00     0.033 A 
HETATM    6  C   UNL     1      -8.700   0.124 -32.828  1.00  0.00     0.019 A 
HETATM    7  C   UNL     1     -10.020  -0.289 -32.628  1.00  0.00     0.031 A 
HETATM    8  C   UNL     1     -11.021   0.389 -33.330  1.00  0.00     0.043 A 
HETATM    9  C   UNL     1     -10.756   1.431 -34.216  1.00  0.00    -0.001 A 
HETATM   10  N   UNL     1     -12.383   0.199 -33.325  1.00  0.00    -0.359 N 
HETATM   11  C   UNL     1     -12.012   1.876 -34.744  1.00  0.00    -0.027 A 
HETATM   12  C   UNL     1      -9.413   1.822 -34.414  1.00  0.00     0.031 A 
HETATM   13  C   UNL     1     -12.229   2.972 -35.727  1.00  0.00     0.051 C 
HETATM   14  C   UNL     1     -12.997   1.087 -34.170  1.00  0.00     0.012 A 
HETATM   15  C   UNL     1     -14.473   1.096 -34.350  1.00  0.00     0.068 C 
HETATM   16  H   UNL     1     -12.856  -0.503 -32.773  1.00  0.00     0.166 HD
ENDBRANCH   1   5
BRANCH   2  17
HETATM   17  C   UNL     1      -5.327   3.392 -33.281  1.00  0.00     0.037 A 
HETATM   18  C   UNL     1      -4.958   4.497 -34.057  1.00  0.00     0.061 A 
HETATM   19  C   UNL     1      -3.662   4.947 -33.933  1.00  0.00     0.065 A 
HETATM   20  C   UNL     1      -2.743   4.355 -33.071  1.00  0.00     0.063 A 
HETATM   21  N   UNL     1      -3.022   5.996 -34.585  1.00  0.00    -0.306 N 
HETATM   22  N   UNL     1      -1.540   5.039 -33.190  1.00  0.00    -0.307 N 
HETATM   23  C   UNL     1      -3.070   3.277 -32.290  1.00  0.00     0.034 A 
HETATM   24  C   UNL     1      -1.696   6.065 -34.134  1.00  0.00     0.325 A 
HETATM   25  H   UNL     1      -0.677   4.854 -32.706  1.00  0.00     0.170 HD
HETATM   26  O   UNL     1      -0.842   6.857 -34.492  1.00  0.00    -0.247 OA
HETATM   27  C   UNL     1      -4.381   2.793 -32.405  1.00  0.00     0.032 A 
HETATM   28  H   UNL     1      -3.417   6.613 -35.275  1.00  0.00     0.170 HD
ENDBRANCH   2  17
TORSDOF 2
ENDMDL
MODEL 5
REMARK VINA RESULT:      -8.9      5.698      8.457
REMARK  2 active torsions:
REMARK  status: ('A' for Active; 'I' for Inactive)
REMARK    1  A    between atoms: C_7  and  C_8 
REMARK       I    between atoms: C_8  and  N_9 
REMARK    2  A    between atoms: N_9  and  C_10 
ROOT
HETATM    1  C   UNL     1      -3.893   2.228 -31.502  1.00  0.00     0.256 C 
HETATM    2  N   UNL     1      -3.014   3.077 -32.153  1.00  0.00    -0.323 N 
HETATM    3  O   UNL     1      -4.583   2.508 -30.529  1.00  0.00    -0.267 OA
HETATM    4  H   UNL     1      -2.556   2.723 -32.981  1.00  0.00     0.169 HD
ENDROOT
BRANCH   1   5
HETATM    5  C   UNL     1      -4.020   0.857 -32.088  1.00  0.00     0.033 A 
HETATM    6  C   UNL     1      -3.059  -0.096 -31.727  1.00  0.00     0.019 A 
HETATM    7  C   UNL     1      -3.114  -1.404 -32.216  1.00  0.00     0.031 A 
HETATM    8  C   UNL     1      -4.165  -1.727 -33.079  1.00  0.00     0.043 A 
HETATM    9  C   UNL     1      -5.134  -0.808 -33.474  1.00  0.00    -0.001 A 
HETATM   10  N   UNL     1      -4.462  -2.919 -33.697  1.00  0.00    -0.359 N 
HETATM   11  C   UNL     1      -6.039  -1.488 -34.352  1.00  0.00    -0.027 A 
HETATM   12  C   UNL     1      -5.050   0.514 -32.981  1.00  0.00     0.031 A 
HETATM   13  C   UNL     1      -7.236  -0.911 -35.023  1.00  0.00     0.051 C 
HETATM   14  C   UNL     1      -5.589  -2.794 -34.468  1.00  0.00     0.012 A 
HETATM   15  C   UNL     1      -6.130  -3.940 -35.246  1.00  0.00     0.068 C 
HETATM   16  H   UNL     1      -3.917  -3.763 -33.594  1.00  0.00     0.166 HD
ENDBRANCH   1   5
BRANCH   2  17
HETATM   17  C   UNL     1      -2.736   4.427 -31.838  1.00  0.00     0.037 A 
HETATM   18  C   UNL     1      -3.699   5.443 -31.864  1.00  0.00     0.061 A 
HETATM   19  C   UNL     1      -3.277   6.717 -31.557  1.00  0.00     0.065 A 
HETATM   20  C   UNL     1      -1.959   7.009 -31.220  1.00  0.00     0.063 A 
HETATM   21  N   UNL     1      -4.000   7.906 -31.523  1.00  0.00    -0.306 N 
HETATM   22  N   UNL     1      -1.868   8.373 -30.976  1.00  0.00    -0.307 N 
HETATM   23  C   UNL     1      -0.990   6.040 -31.175  1.00  0.00     0.034 A 
HETATM   24  C   UNL     1      -3.134   8.949 -31.165  1.00  0.00     0.325 A 
HETATM   25  H   UNL     1      -1.051   8.898 -30.717  1.00  0.00     0.170 HD
HETATM   26  O   UNL     1      -3.420  10.127 -31.044  1.00  0.00    -0.247 OA
HETATM   27  C   UNL     1      -1.392   4.735 -31.493  1.00  0.00     0.032 A 
HETATM   28  H   UNL     1      -4.978   8.027 -31.726  1.00  0.00     0.170 HD
ENDBRANCH   2  17
TORSDOF 2
ENDMDL
MODEL 6
REMARK VINA RESULT:      -8.9      1.327      2.037
REMARK  2 active torsions:
REMARK  status: ('A' for Active; 'I' for Inactive)
REMARK    1  A    between atoms: C_7  and  C_8 
REMARK       I    between atoms: C_8  and  N_9 
REMARK    2  A    between atoms: N_9  and  C_10 
ROOT
HETATM    1  C   UNL     1      -9.786   1.528 -34.109  1.00  0.00     0.256 C 
HETATM    2  N   UNL     1     -10.803   0.781 -33.538  1.00  0.00    -0.323 N 
HETATM    3  O   UNL     1      -9.903   2.631 -34.629  1.00  0.00    -0.267 OA
HETATM    4  H   UNL     1     -10.545  -0.088 -33.093  1.00  0.00     0.169 HD
ENDROOT
BRANCH   1   5
HETATM    5  C   UNL     1      -8.421   0.921 -34.037  1.00  0.00     0.033 A 
HETATM    6  C   UNL     1      -7.351   1.764 -33.708  1.00  0.00     0.019 A 
HETATM    7  C   UNL     1      -6.046   1.275 -33.603  1.00  0.00     0.031 A 
HETATM    8  C   UNL     1      -5.847  -0.089 -33.838  1.00  0.00     0.043 A 
HETATM    9  C   UNL     1      -6.879  -0.960 -34.181  1.00  0.00    -0.001 A 
HETATM   10  N   UNL     1      -4.689  -0.829 -33.802  1.00  0.00    -0.359 N 
HETATM   11  C   UNL     1      -6.306  -2.262 -34.345  1.00  0.00    -0.027 A 
HETATM   12  C   UNL     1      -8.189  -0.440 -34.297  1.00  0.00     0.031 A 
HETATM   13  C   UNL     1      -7.023  -3.514 -34.709  1.00  0.00     0.051 C 
HETATM   14  C   UNL     1      -4.946  -2.141 -34.104  1.00  0.00     0.012 A 
HETATM   15  C   UNL     1      -3.862  -3.159 -34.134  1.00  0.00     0.068 C 
HETATM   16  H   UNL     1      -3.778  -0.448 -33.585  1.00  0.00     0.166 HD
ENDBRANCH   1   5
BRANCH   2  17
HETATM   17  C   UNL     1     -12.168   1.134 -33.433  1.00  0.00     0.037 A 
HETATM   18  C   UNL     1     -12.624   2.276 -32.763  1.00  0.00     0.061 A 
HETATM   19  C   UNL     1     -13.985   2.478 -32.720  1.00  0.00     0.065 A 
HETATM   20  C   UNL     1     -14.891   1.608 -33.320  1.00  0.00     0.063 A 
HETATM   21  N   UNL     1     -14.712   3.501 -32.117  1.00  0.00    -0.306 N 
HETATM   22  N   UNL     1     -16.172   2.093 -33.089  1.00  0.00    -0.307 N 
HETATM   23  C   UNL     1     -14.483   0.484 -33.991  1.00  0.00     0.034 A 
HETATM   24  C   UNL     1     -16.077   3.273 -32.336  1.00  0.00     0.325 A 
HETATM   25  H   UNL     1     -17.045   1.690 -33.385  1.00  0.00     0.170 HD
HETATM   26  O   UNL     1     -17.004   3.962 -31.946  1.00  0.00    -0.247 OA
HETATM   27  C   UNL     1     -13.101   0.250 -34.041  1.00  0.00     0.032 A 
HETATM   28  H   UNL     1     -14.344   4.281 -31.597  1.00  0.00     0.170 HD
ENDBRANCH   2  17
TORSDOF 2
ENDMDL
MODEL 7
REMARK VINA RESULT:      -8.9      1.862      2.327
REMARK  2 active torsions:
REMARK  status: ('A' for Active; 'I' for Inactive)
REMARK    1  A    between atoms: C_7  and  C_8 
REMARK       I    between atoms: C_8  and  N_9 
REMARK    2  A    between atoms: N_9  and  C_10 
ROOT
HETATM    1  C   UNL     1      -7.732   1.346 -33.488  1.00  0.00     0.256 C 
HETATM    2  N   UNL     1      -8.946   0.957 -34.029  1.00  0.00    -0.323 N 
HETATM    3  O   UNL     1      -7.470   2.447 -33.018  1.00  0.00    -0.267 OA
HETATM    4  H   UNL     1      -9.033  -0.005 -34.325  1.00  0.00     0.169 HD
ENDROOT
BRANCH   1   5
HETATM    5  C   UNL     1      -6.672   0.292 -33.452  1.00  0.00     0.033 A 
HETATM    6  C   UNL     1      -5.469   0.600 -32.805  1.00  0.00     0.019 A 
HETATM    7  C   UNL     1      -4.434  -0.334 -32.712  1.00  0.00     0.031 A 
HETATM    8  C   UNL     1      -4.644  -1.590 -33.290  1.00  0.00     0.043 A 
HETATM    9  C   UNL     1      -5.818  -1.934 -33.955  1.00  0.00    -0.001 A 
HETATM   10  N   UNL     1      -3.812  -2.683 -33.346  1.00  0.00    -0.359 N 
HETATM   11  C   UNL     1      -5.674  -3.284 -34.411  1.00  0.00    -0.027 A 
HETATM   12  C   UNL     1      -6.846  -0.968 -34.051  1.00  0.00     0.031 A 
HETATM   13  C   UNL     1      -6.675  -4.082 -35.170  1.00  0.00     0.051 C 
HETATM   14  C   UNL     1      -4.417  -3.715 -34.017  1.00  0.00     0.012 A 
HETATM   15  C   UNL     1      -3.732  -5.019 -34.219  1.00  0.00     0.068 C 
HETATM   16  H   UNL     1      -2.884  -2.712 -32.947  1.00  0.00     0.166 HD
ENDBRANCH   1   5
BRANCH   2  17
HETATM   17  C   UNL     1     -10.120   1.736 -34.146  1.00  0.00     0.037 A 
HETATM   18  C   UNL     1     -10.147   3.017 -34.708  1.00  0.00     0.061 A 
HETATM   19  C   UNL     1     -11.360   3.668 -34.732  1.00  0.00     0.065 A 
HETATM   20  C   UNL     1     -12.528   3.095 -34.237  1.00  0.00     0.063 A 
HETATM   21  N   UNL     1     -11.676   4.939 -35.205  1.00  0.00    -0.306 N 
HETATM   22  N   UNL     1     -13.561   4.007 -34.406  1.00  0.00    -0.307 N 
HETATM   23  C   UNL     1     -12.543   1.839 -33.686  1.00  0.00     0.034 A 
HETATM   24  C   UNL     1     -13.045   5.166 -35.005  1.00  0.00     0.325 A 
HETATM   25  H   UNL     1     -14.527   3.898 -34.145  1.00  0.00     0.170 HD
HETATM   26  O   UNL     1     -13.668   6.173 -35.293  1.00  0.00    -0.247 OA
HETATM   27  C   UNL     1     -11.318   1.159 -33.642  1.00  0.00     0.032 A 
HETATM   28  H   UNL     1     -11.046   5.606 -35.617  1.00  0.00     0.170 HD
ENDBRANCH   2  17
TORSDOF 2
ENDMDL
MODEL 8
REMARK VINA RESULT:      -8.9      2.610      9.015
REMARK  2 active torsions:
REMARK  status: ('A' for Active; 'I' for Inactive)
REMARK    1  A    between atoms: C_7  and  C_8 
REMARK       I    between atoms: C_8  and  N_9 
REMARK    2  A    between atoms: N_9  and  C_10 
ROOT
HETATM    1  C   UNL     1      -9.433   0.500 -33.376  1.00  0.00     0.256 C 
HETATM    2  N   UNL     1      -8.314   0.415 -34.188  1.00  0.00    -0.323 N 
HETATM    3  O   UNL     1      -9.612  -0.105 -32.325  1.00  0.00    -0.267 OA
HETATM    4  H   UNL     1      -8.282   1.021 -34.996  1.00  0.00     0.169 HD
ENDROOT
BRANCH   1   5
HETATM    5  C   UNL     1     -10.490   1.457 -33.830  1.00  0.00     0.033 A 
HETATM    6  C   UNL     1     -11.821   1.025 -33.785  1.00  0.00     0.019 A 
HETATM    7  C   UNL     1     -12.870   1.861 -34.175  1.00  0.00     0.031 A 
HETATM    8  C   UNL     1     -12.541   3.148 -34.612  1.00  0.00     0.043 A 
HETATM    9  C   UNL     1     -11.230   3.613 -34.687  1.00  0.00    -0.001 A 
HETATM   10  N   UNL     1     -13.357   4.166 -35.046  1.00  0.00    -0.359 N 
HETATM   11  C   UNL     1     -11.280   4.960 -35.175  1.00  0.00    -0.027 A 
HETATM   12  C   UNL     1     -10.184   2.745 -34.302  1.00  0.00     0.031 A 
HETATM   13  C   UNL     1     -10.123   5.865 -35.416  1.00  0.00     0.051 C 
HETATM   14  C   UNL     1     -12.615   5.266 -35.388  1.00  0.00     0.012 A 
HETATM   15  C   UNL     1     -13.255   6.511 -35.890  1.00  0.00     0.068 C 
HETATM   16  H   UNL     1     -14.364   4.101 -35.104  1.00  0.00     0.166 HD
ENDBRANCH   1   5
BRANCH   2  17
HETATM   17  C   UNL     1      -7.160  -0.373 -33.974  1.00  0.00     0.037 A 
HETATM   18  C   UNL     1      -6.951  -1.621 -34.573  1.00  0.00     0.061 A 
HETATM   19  C   UNL     1      -5.790  -2.286 -34.251  1.00  0.00     0.065 A 
HETATM   20  C   UNL     1      -4.841  -1.758 -33.381  1.00  0.00     0.063 A 
HETATM   21  N   UNL     1      -5.335  -3.532 -34.673  1.00  0.00    -0.306 N 
HETATM   22  N   UNL     1      -3.802  -2.674 -33.268  1.00  0.00    -0.307 N 
HETATM   23  C   UNL     1      -5.005  -0.536 -32.782  1.00  0.00     0.034 A 
HETATM   24  C   UNL     1      -4.098  -3.790 -34.066  1.00  0.00     0.325 A 
HETATM   25  H   UNL     1      -2.969  -2.593 -32.711  1.00  0.00     0.170 HD
HETATM   26  O   UNL     1      -3.412  -4.788 -34.201  1.00  0.00    -0.247 OA
HETATM   27  C   UNL     1      -6.185   0.158 -33.086  1.00  0.00     0.032 A 
HETATM   28  H   UNL     1      -5.801  -4.167 -35.301  1.00  0.00     0.170 HD
ENDBRANCH   2  17
TORSDOF 2
ENDMDL
MODEL 9
REMARK VINA RESULT:      -8.8      5.100      7.740
REMARK  2 active torsions:
REMARK  status: ('A' for Active; 'I' for Inactive)
REMARK    1  A    between atoms: C_7  and  C_8 
REMARK       I    between atoms: C_8  and  N_9 
REMARK    2  A    between atoms: N_9  and  C_10 
ROOT
HETATM    1  C   UNL     1      -5.913   2.354 -33.241  1.00  0.00     0.256 C 
HETATM    2  N   UNL     1      -4.693   2.755 -32.723  1.00  0.00    -0.323 N 
HETATM    3  O   UNL     1      -6.906   3.058 -33.382  1.00  0.00    -0.267 OA
HETATM    4  H   UNL     1      -3.944   2.076 -32.724  1.00  0.00     0.169 HD
ENDROOT
BRANCH   1   5
HETATM    5  C   UNL     1      -5.984   0.932 -33.700  1.00  0.00     0.033 A 
HETATM    6  C   UNL     1      -6.966   0.601 -34.642  1.00  0.00     0.019 A 
HETATM    7  C   UNL     1      -7.090  -0.701 -35.136  1.00  0.00     0.031 A 
HETATM    8  C   UNL     1      -6.197  -1.662 -34.653  1.00  0.00     0.043 A 
HETATM    9  C   UNL     1      -5.216  -1.380 -33.705  1.00  0.00    -0.001 A 
HETATM   10  N   UNL     1      -6.090  -2.998 -34.960  1.00  0.00    -0.359 N 
HETATM   11  C   UNL     1      -4.500  -2.595 -33.453  1.00  0.00    -0.027 A 
HETATM   12  C   UNL     1      -5.118  -0.061 -33.209  1.00  0.00     0.031 A 
HETATM   13  C   UNL     1      -3.360  -2.782 -32.515  1.00  0.00     0.051 C 
HETATM   14  C   UNL     1      -5.072  -3.577 -34.248  1.00  0.00     0.012 A 
HETATM   15  C   UNL     1      -4.742  -5.019 -34.394  1.00  0.00     0.068 C 
HETATM   16  H   UNL     1      -6.687  -3.479 -35.620  1.00  0.00     0.166 HD
ENDBRANCH   1   5
BRANCH   2  17
HETATM   17  C   UNL     1      -4.342   4.043 -32.258  1.00  0.00     0.037 A 
HETATM   18  C   UNL     1      -3.574   4.951 -32.997  1.00  0.00     0.061 A 
HETATM   19  C   UNL     1      -3.289   6.161 -32.405  1.00  0.00     0.065 A 
HETATM   20  C   UNL     1      -3.744   6.498 -31.134  1.00  0.00     0.063 A 
HETATM   21  N   UNL     1      -2.542   7.231 -32.889  1.00  0.00    -0.306 N 
HETATM   22  N   UNL     1      -3.281   7.774 -30.835  1.00  0.00    -0.307 N 
HETATM   23  C   UNL     1      -4.506   5.640 -30.384  1.00  0.00     0.034 A 
HETATM   24  C   UNL     1      -2.526   8.243 -31.920  1.00  0.00     0.325 A 
HETATM   25  H   UNL     1      -3.432   8.300 -29.991  1.00  0.00     0.170 HD
HETATM   26  O   UNL     1      -1.963   9.321 -31.999  1.00  0.00    -0.247 OA
HETATM   27  C   UNL     1      -4.801   4.396 -30.960  1.00  0.00     0.032 A 
HETATM   28  H   UNL     1      -2.074   7.290 -33.778  1.00  0.00     0.170 HD
ENDBRANCH   2  17
TORSDOF 2
ENDMDL
MODEL 10
REMARK VINA RESULT:      -8.7      5.194      8.671
REMARK  2 active torsions:
REMARK  status: ('A' for Active; 'I' for Inactive)
REMARK    1  A    between atoms: C_7  and  C_8 
REMARK       I    between atoms: C_8  and  N_9 
REMARK    2  A    between atoms: N_9  and  C_10 
ROOT
HETATM    1  C   UNL     1      -5.172   1.660 -31.708  1.00  0.00     0.256 C 
HETATM    2  N   UNL     1      -5.151   1.225 -33.023  1.00  0.00    -0.323 N 
HETATM    3  O   UNL     1      -5.496   0.994 -30.731  1.00  0.00    -0.267 OA
HETATM    4  H   UNL     1      -4.803   1.871 -33.718  1.00  0.00     0.169 HD
ENDROOT
BRANCH   1   5
HETATM    5  C   UNL     1      -4.714   3.066 -31.485  1.00  0.00     0.033 A 
HETATM    6  C   UNL     1      -5.346   3.804 -30.476  1.00  0.00     0.019 A 
HETATM    7  C   UNL     1      -4.968   5.119 -30.191  1.00  0.00     0.031 A 
HETATM    8  C   UNL     1      -3.933   5.672 -30.953  1.00  0.00     0.043 A 
HETATM    9  C   UNL     1      -3.288   4.980 -31.975  1.00  0.00    -0.001 A 
HETATM   10  N   UNL     1      -3.365   6.922 -30.889  1.00  0.00    -0.359 N 
HETATM   11  C   UNL     1      -2.297   5.855 -32.527  1.00  0.00    -0.027 A 
HETATM   12  C   UNL     1      -3.697   3.657 -32.256  1.00  0.00     0.031 A 
HETATM   13  C   UNL     1      -1.358   5.551 -33.641  1.00  0.00     0.051 C 
HETATM   14  C   UNL     1      -2.376   7.050 -31.830  1.00  0.00     0.012 A 
HETATM   15  C   UNL     1      -1.598   8.309 -31.973  1.00  0.00     0.068 C 
HETATM   16  H   UNL     1      -3.647   7.642 -30.237  1.00  0.00     0.166 HD
ENDBRANCH   1   5
BRANCH   2  17
HETATM   17  C   UNL     1      -5.491  -0.060 -33.505  1.00  0.00     0.037 A 
HETATM   18  C   UNL     1      -4.637  -1.167 -33.428  1.00  0.00     0.061 A 
HETATM   19  C   UNL     1      -5.093  -2.351 -33.963  1.00  0.00     0.065 A 
HETATM   20  C   UNL     1      -6.350  -2.473 -34.549  1.00  0.00     0.063 A 
HETATM   21  N   UNL     1      -4.462  -3.589 -34.045  1.00  0.00    -0.306 N 
HETATM   22  N   UNL     1      -6.495  -3.783 -34.988  1.00  0.00    -0.307 N 
HETATM   23  C   UNL     1      -7.217  -1.414 -34.635  1.00  0.00     0.034 A 
HETATM   24  C   UNL     1      -5.323  -4.491 -34.685  1.00  0.00     0.325 A 
HETATM   25  H   UNL     1      -7.286  -4.189 -35.459  1.00  0.00     0.170 HD
HETATM   26  O   UNL     1      -5.099  -5.663 -34.933  1.00  0.00    -0.247 OA
HETATM   27  C   UNL     1      -6.772  -0.194 -34.107  1.00  0.00     0.032 A 
HETATM   28  H   UNL     1      -3.540  -3.821 -33.716  1.00  0.00     0.170 HD
ENDBRANCH   2  17
TORSDOF 2
ENDMDL
