MODEL 1
REMARK VINA RESULT:      -7.5      0.000      0.000
REMARK  5 active torsions:
REMARK  status: ('A' for Active; 'I' for Inactive)
REMARK    1  A    between atoms: C_4  and  N_5 
REMARK       I    between atoms: N_5  and  C_6 
REMARK    2  A    between atoms: C_6  and  C_7 
REMARK    3  A    between atoms: C_7  and  N_8 
REMARK    4  A    between atoms: N_8  and  C_11 
REMARK    5  A    between atoms: C_11  and  C_12 
ROOT
HETATM    1  N   UNL     1      -8.029   0.574 -34.112  1.00  0.00    -0.324 N 
HETATM    2  C   UNL     1      -9.239   0.587 -33.473  1.00  0.00     0.248 C 
HETATM    3  O   UNL     1      -9.721  -0.291 -32.759  1.00  0.00    -0.271 OA
HETATM    4  H   UNL     1      -7.761   1.331 -34.747  1.00  0.00     0.169 HD
ENDROOT
BRANCH   1   5
HETATM    5  C   UNL     1      -7.038  -0.443 -34.102  1.00  0.00     0.065 A 
HETATM    6  C   UNL     1      -7.229  -1.723 -34.633  1.00  0.00     0.038 A 
HETATM    7  C   UNL     1      -6.198  -2.666 -34.584  1.00  0.00    -0.059 A 
HETATM    8  C   UNL     1      -6.385  -4.047 -35.145  1.00  0.00     0.048 C 
HETATM    9  C   UNL     1      -4.976  -2.312 -34.003  1.00  0.00     0.020 A 
HETATM   10  C   UNL     1      -4.780  -1.028 -33.469  1.00  0.00    -0.005 A 
HETATM   11  C   UNL     1      -5.819  -0.078 -33.510  1.00  0.00     0.093 A 
HETATM   12  C   UNL     1      -3.564  -0.649 -32.887  1.00  0.00     0.015 A 
HETATM   13  N   UNL     1      -5.678   1.174 -33.008  1.00  0.00    -0.258 NA
HETATM   14  C   UNL     1      -4.485   1.498 -32.456  1.00  0.00     0.117 A 
HETATM   15  C   UNL     1      -3.412   0.632 -32.373  1.00  0.00     0.020 A 
ENDBRANCH   1   5
BRANCH   2  16
HETATM   16  C   UNL     1     -10.063   1.850 -33.729  1.00  0.00     0.335 C 
BRANCH  16  17
HETATM   17  N   UNL     1     -11.314   1.860 -32.880  1.00  0.00    -0.059 N 
HETATM   18  H   UNL     1     -11.456   0.952 -32.414  1.00  0.00     0.278 HD
HETATM   19  H   UNL     1     -11.150   2.556 -32.127  1.00  0.00     0.278 HD
BRANCH  17  20
HETATM   20  C   UNL     1     -12.588   2.288 -33.604  1.00  0.00     0.349 C 
BRANCH  20  21
HETATM   21  C   UNL     1     -13.152   1.152 -34.466  1.00  0.00     0.411 C 
HETATM   22  F   UNL     1     -12.548   1.173 -35.677  1.00  0.00    -0.169 F 
HETATM   23  F   UNL     1     -12.875  -0.039 -33.895  1.00  0.00    -0.169 F 
HETATM   24  F   UNL     1     -14.477   1.262 -34.639  1.00  0.00    -0.169 F 
ENDBRANCH  20  21
ENDBRANCH  17  20
ENDBRANCH  16  17
ENDBRANCH   2  16
TORSDOF 5
ENDMDL
MODEL 2
REMARK VINA RESULT:      -7.2      5.312      7.205
REMARK  5 active torsions:
REMARK  status: ('A' for Active; 'I' for Inactive)
REMARK    1  A    between atoms: C_4  and  N_5 
REMARK       I    between atoms: N_5  and  C_6 
REMARK    2  A    between atoms: C_6  and  C_7 
REMARK    3  A    between atoms: C_7  and  N_8 
REMARK    4  A    between atoms: N_8  and  C_11 
REMARK    5  A    between atoms: C_11  and  C_12 
ROOT
HETATM    1  N   UNL     1      -3.784   1.703 -32.429  1.00  0.00    -0.324 N 
HETATM    2  C   UNL     1      -4.163   2.480 -31.367  1.00  0.00     0.248 C 
HETATM    3  O   UNL     1      -4.861   2.154 -30.410  1.00  0.00    -0.271 OA
HETATM    4  H   UNL     1      -3.261   2.102 -33.213  1.00  0.00     0.169 HD
ENDROOT
BRANCH   1   5
HETATM    5  C   UNL     1      -4.096   0.341 -32.679  1.00  0.00     0.065 A 
HETATM    6  C   UNL     1      -3.366  -0.734 -32.162  1.00  0.00     0.038 A 
HETATM    7  C   UNL     1      -3.743  -2.048 -32.457  1.00  0.00    -0.059 A 
HETATM    8  C   UNL     1      -2.969  -3.216 -31.915  1.00  0.00     0.048 C 
HETATM    9  C   UNL     1      -4.861  -2.272 -33.267  1.00  0.00     0.020 A 
HETATM   10  C   UNL     1      -5.597  -1.195 -33.788  1.00  0.00    -0.005 A 
HETATM   11  C   UNL     1      -5.214   0.129 -33.499  1.00  0.00     0.093 A 
HETATM   12  C   UNL     1      -6.722  -1.395 -34.597  1.00  0.00     0.015 A 
HETATM   13  N   UNL     1      -5.894   1.202 -33.979  1.00  0.00    -0.258 NA
HETATM   14  C   UNL     1      -6.976   0.962 -34.756  1.00  0.00     0.117 A 
HETATM   15  C   UNL     1      -7.424  -0.301 -35.089  1.00  0.00     0.020 A 
ENDBRANCH   1   5
BRANCH   2  16
HETATM   16  C   UNL     1      -3.654   3.921 -31.440  1.00  0.00     0.335 C 
BRANCH  16  17
HETATM   17  N   UNL     1      -3.312   4.301 -32.862  1.00  0.00    -0.059 N 
HETATM   18  H   UNL     1      -3.503   3.526 -33.513  1.00  0.00     0.278 HD
HETATM   19  H   UNL     1      -3.957   5.071 -33.122  1.00  0.00     0.278 HD
BRANCH  17  20
HETATM   20  C   UNL     1      -1.894   4.828 -33.070  1.00  0.00     0.349 C 
BRANCH  20  21
HETATM   21  C   UNL     1      -1.781   5.640 -34.366  1.00  0.00     0.411 C 
HETATM   22  F   UNL     1      -1.568   4.795 -35.401  1.00  0.00    -0.169 F 
HETATM   23  F   UNL     1      -2.940   6.289 -34.603  1.00  0.00    -0.169 F 
HETATM   24  F   UNL     1      -0.778   6.528 -34.316  1.00  0.00    -0.169 F 
ENDBRANCH  20  21
ENDBRANCH  17  20
ENDBRANCH  16  17
ENDBRANCH   2  16
TORSDOF 5
ENDMDL
MODEL 3
REMARK VINA RESULT:      -7.2      5.049      7.164
REMARK  5 active torsions:
REMARK  status: ('A' for Active; 'I' for Inactive)
REMARK    1  A    between atoms: C_4  and  N_5 
REMARK       I    between atoms: N_5  and  C_6 
REMARK    2  A    between atoms: C_6  and  C_7 
REMARK    3  A    between atoms: C_7  and  N_8 
REMARK    4  A    between atoms: N_8  and  C_11 
REMARK    5  A    between atoms: C_11  and  C_12 
ROOT
HETATM    1  N   UNL     1      -4.717   1.746 -32.784  1.00  0.00    -0.324 N 
HETATM    2  C   UNL     1      -3.700   1.778 -31.868  1.00  0.00     0.248 C 
HETATM    3  O   UNL     1      -3.283   0.852 -31.175  1.00  0.00    -0.271 OA
HETATM    4  H   UNL     1      -5.033   2.600 -33.250  1.00  0.00     0.169 HD
ENDROOT
BRANCH   1   5
HETATM    5  C   UNL     1      -5.527   0.642 -33.162  1.00  0.00     0.065 A 
HETATM    6  C   UNL     1      -5.025  -0.535 -33.727  1.00  0.00     0.038 A 
HETATM    7  C   UNL     1      -5.894  -1.577 -34.069  1.00  0.00    -0.059 A 
HETATM    8  C   UNL     1      -5.375  -2.847 -34.681  1.00  0.00     0.048 C 
HETATM    9  C   UNL     1      -7.264  -1.428 -33.835  1.00  0.00     0.020 A 
HETATM   10  C   UNL     1      -7.771  -0.247 -33.268  1.00  0.00    -0.005 A 
HETATM   11  C   UNL     1      -6.900   0.807 -32.929  1.00  0.00     0.093 A 
HETATM   12  C   UNL     1      -9.139  -0.077 -33.019  1.00  0.00     0.015 A 
HETATM   13  N   UNL     1      -7.343   1.966 -32.379  1.00  0.00    -0.258 NA
HETATM   14  C   UNL     1      -8.672   2.086 -32.155  1.00  0.00     0.117 A 
HETATM   15  C   UNL     1      -9.598   1.106 -32.454  1.00  0.00     0.020 A 
ENDBRANCH   1   5
BRANCH   2  16
HETATM   16  C   UNL     1      -3.058   3.156 -31.702  1.00  0.00     0.335 C 
BRANCH  16  17
HETATM   17  N   UNL     1      -3.086   3.924 -33.003  1.00  0.00    -0.059 N 
HETATM   18  H   UNL     1      -3.222   3.294 -33.807  1.00  0.00     0.278 HD
HETATM   19  H   UNL     1      -3.922   4.538 -32.964  1.00  0.00     0.278 HD
BRANCH  17  20
HETATM   20  C   UNL     1      -1.884   4.835 -33.246  1.00  0.00     0.349 C 
BRANCH  20  21
HETATM   21  C   UNL     1      -1.946   5.489 -34.631  1.00  0.00     0.411 C 
HETATM   22  F   UNL     1      -2.060   6.829 -34.484  1.00  0.00    -0.169 F 
HETATM   23  F   UNL     1      -0.799   5.251 -35.302  1.00  0.00    -0.169 F 
HETATM   24  F   UNL     1      -2.982   5.041 -35.353  1.00  0.00    -0.169 F 
ENDBRANCH  20  21
ENDBRANCH  17  20
ENDBRANCH  16  17
ENDBRANCH   2  16
TORSDOF 5
ENDMDL
MODEL 4
REMARK VINA RESULT:      -7.1      3.402      3.876
REMARK  5 active torsions:
REMARK  status: ('A' for Active; 'I' for Inactive)
REMARK    1  A    between atoms: C_4  and  N_5 
REMARK       I    between atoms: N_5  and  C_6 
REMARK    2  A    between atoms: C_6  and  C_7 
REMARK    3  A    between atoms: C_7  and  N_8 
REMARK    4  A    between atoms: N_8  and  C_11 
REMARK    5  A    between atoms: C_11  and  C_12 
ROOT
HETATM    1  N   UNL     1      -7.908  -0.060 -32.662  1.00  0.00    -0.324 N 
HETATM    2  C   UNL     1      -8.497   0.981 -33.329  1.00  0.00     0.248 C 
HETATM    3  O   UNL     1      -8.199   1.431 -34.433  1.00  0.00    -0.271 OA
HETATM    4  H   UNL     1      -8.190  -0.301 -31.708  1.00  0.00     0.169 HD
ENDROOT
BRANCH   1   5
HETATM    5  C   UNL     1      -6.821  -0.872 -33.082  1.00  0.00     0.065 A 
HETATM    6  C   UNL     1      -6.926  -1.874 -34.052  1.00  0.00     0.038 A 
HETATM    7  C   UNL     1      -5.804  -2.628 -34.410  1.00  0.00    -0.059 A 
HETATM    8  C   UNL     1      -5.898  -3.711 -35.446  1.00  0.00     0.048 C 
HETATM    9  C   UNL     1      -4.579  -2.363 -33.790  1.00  0.00     0.020 A 
HETATM   10  C   UNL     1      -4.469  -1.358 -32.816  1.00  0.00    -0.005 A 
HETATM   11  C   UNL     1      -5.599  -0.602 -32.448  1.00  0.00     0.093 A 
HETATM   12  C   UNL     1      -3.251  -1.071 -32.186  1.00  0.00     0.015 A 
HETATM   13  N   UNL     1      -5.543   0.379 -31.513  1.00  0.00    -0.258 NA
HETATM   14  C   UNL     1      -4.346   0.623 -30.931  1.00  0.00     0.117 A 
HETATM   15  C   UNL     1      -3.186  -0.066 -31.230  1.00  0.00     0.020 A 
ENDBRANCH   1   5
BRANCH   2  16
HETATM   16  C   UNL     1      -9.638   1.645 -32.557  1.00  0.00     0.335 C 
BRANCH  16  17
HETATM   17  N   UNL     1      -9.343   1.672 -31.074  1.00  0.00    -0.059 N 
HETATM   18  H   UNL     1     -10.072   1.178 -30.539  1.00  0.00     0.278 HD
HETATM   19  H   UNL     1      -8.464   1.135 -30.941  1.00  0.00     0.278 HD
BRANCH  17  20
HETATM   20  C   UNL     1      -9.103   3.060 -30.485  1.00  0.00     0.349 C 
BRANCH  20  21
HETATM   21  C   UNL     1      -7.609   3.330 -30.275  1.00  0.00     0.411 C 
HETATM   22  F   UNL     1      -7.080   2.338 -29.523  1.00  0.00    -0.169 F 
HETATM   23  F   UNL     1      -6.970   3.323 -31.465  1.00  0.00    -0.169 F 
HETATM   24  F   UNL     1      -7.391   4.503 -29.663  1.00  0.00    -0.169 F 
ENDBRANCH  20  21
ENDBRANCH  17  20
ENDBRANCH  16  17
ENDBRANCH   2  16
TORSDOF 5
ENDMDL
MODEL 5
REMARK VINA RESULT:      -7.0      1.234      3.095
REMARK  5 active torsions:
REMARK  status: ('A' for Active; 'I' for Inactive)
REMARK    1  A    between atoms: C_4  and  N_5 
REMARK       I    between atoms: N_5  and  C_6 
REMARK    2  A    between atoms: C_6  and  C_7 
REMARK    3  A    between atoms: C_7  and  N_8 
REMARK    4  A    between atoms: N_8  and  C_11 
REMARK    5  A    between atoms: C_11  and  C_12 
ROOT
HETATM    1  N   UNL     1      -8.066  -0.125 -32.715  1.00  0.00    -0.324 N 
HETATM    2  C   UNL     1      -8.823   0.824 -33.348  1.00  0.00     0.248 C 
HETATM    3  O   UNL     1      -8.434   1.730 -34.081  1.00  0.00    -0.271 OA
HETATM    4  H   UNL     1      -8.491  -0.789 -32.063  1.00  0.00     0.169 HD
ENDROOT
BRANCH   1   5
HETATM    5  C   UNL     1      -6.658  -0.299 -32.757  1.00  0.00     0.065 A 
HETATM    6  C   UNL     1      -5.748   0.549 -32.116  1.00  0.00     0.038 A 
HETATM    7  C   UNL     1      -4.374   0.304 -32.207  1.00  0.00    -0.059 A 
HETATM    8  C   UNL     1      -3.381   1.206 -31.529  1.00  0.00     0.048 C 
HETATM    9  C   UNL     1      -3.924  -0.799 -32.939  1.00  0.00     0.020 A 
HETATM   10  C   UNL     1      -4.833  -1.652 -33.583  1.00  0.00    -0.005 A 
HETATM   11  C   UNL     1      -6.218  -1.404 -33.501  1.00  0.00     0.093 A 
HETATM   12  C   UNL     1      -4.407  -2.766 -34.317  1.00  0.00     0.015 A 
HETATM   13  N   UNL     1      -7.135  -2.200 -34.106  1.00  0.00    -0.258 NA
HETATM   14  C   UNL     1      -6.678  -3.266 -34.804  1.00  0.00     0.117 A 
HETATM   15  C   UNL     1      -5.341  -3.586 -34.937  1.00  0.00     0.020 A 
ENDBRANCH   1   5
BRANCH   2  16
HETATM   16  C   UNL     1     -10.321   0.719 -33.055  1.00  0.00     0.335 C 
BRANCH  16  17
HETATM   17  N   UNL     1     -11.058   1.935 -33.568  1.00  0.00    -0.059 N 
HETATM   18  H   UNL     1     -10.684   2.801 -33.153  1.00  0.00     0.278 HD
HETATM   19  H   UNL     1     -10.863   1.987 -34.586  1.00  0.00     0.278 HD
BRANCH  17  20
HETATM   20  C   UNL     1     -12.576   1.888 -33.414  1.00  0.00     0.349 C 
BRANCH  20  21
HETATM   21  C   UNL     1     -13.230   1.077 -34.539  1.00  0.00     0.411 C 
HETATM   22  F   UNL     1     -13.289  -0.223 -34.172  1.00  0.00    -0.169 F 
HETATM   23  F   UNL     1     -14.496   1.502 -34.734  1.00  0.00    -0.169 F 
HETATM   24  F   UNL     1     -12.549   1.174 -35.690  1.00  0.00    -0.169 F 
ENDBRANCH  20  21
ENDBRANCH  17  20
ENDBRANCH  16  17
ENDBRANCH   2  16
TORSDOF 5
ENDMDL
MODEL 6
REMARK VINA RESULT:      -7.0      5.096      7.330
REMARK  5 active torsions:
REMARK  status: ('A' for Active; 'I' for Inactive)
REMARK    1  A    between atoms: C_4  and  N_5 
REMARK       I    between atoms: N_5  and  C_6 
REMARK    2  A    between atoms: C_6  and  C_7 
REMARK    3  A    between atoms: C_7  and  N_8 
REMARK    4  A    between atoms: N_8  and  C_11 
REMARK    5  A    between atoms: C_11  and  C_12 
ROOT
HETATM    1  N   UNL     1      -4.886   1.606 -32.397  1.00  0.00    -0.324 N 
HETATM    2  C   UNL     1      -4.513   2.887 -32.706  1.00  0.00     0.248 C 
HETATM    3  O   UNL     1      -5.119   3.700 -33.400  1.00  0.00    -0.271 OA
HETATM    4  H   UNL     1      -4.263   0.989 -31.870  1.00  0.00     0.169 HD
ENDROOT
BRANCH   1   5
HETATM    5  C   UNL     1      -6.059   0.912 -32.795  1.00  0.00     0.065 A 
HETATM    6  C   UNL     1      -7.355   1.409 -32.625  1.00  0.00     0.038 A 
HETATM    7  C   UNL     1      -8.458   0.659 -33.048  1.00  0.00    -0.059 A 
HETATM    8  C   UNL     1      -9.857   1.174 -32.870  1.00  0.00     0.048 C 
HETATM    9  C   UNL     1      -8.246  -0.587 -33.645  1.00  0.00     0.020 A 
HETATM   10  C   UNL     1      -6.947  -1.090 -33.817  1.00  0.00    -0.005 A 
HETATM   11  C   UNL     1      -5.835  -0.341 -33.386  1.00  0.00     0.093 A 
HETATM   12  C   UNL     1      -6.711  -2.333 -34.418  1.00  0.00     0.015 A 
HETATM   13  N   UNL     1      -4.560  -0.784 -33.531  1.00  0.00    -0.258 NA
HETATM   14  C   UNL     1      -4.379  -1.990 -34.117  1.00  0.00     0.117 A 
HETATM   15  C   UNL     1      -5.408  -2.792 -34.572  1.00  0.00     0.020 A 
ENDBRANCH   1   5
BRANCH   2  16
HETATM   16  C   UNL     1      -3.163   3.299 -32.115  1.00  0.00     0.335 C 
BRANCH  16  17
HETATM   17  N   UNL     1      -2.864   4.750 -32.414  1.00  0.00    -0.059 N 
HETATM   18  H   UNL     1      -3.639   5.194 -32.928  1.00  0.00     0.278 HD
HETATM   19  H   UNL     1      -2.804   5.232 -31.496  1.00  0.00     0.278 HD
BRANCH  17  20
HETATM   20  C   UNL     1      -1.540   5.007 -33.130  1.00  0.00     0.349 C 
BRANCH  20  21
HETATM   21  C   UNL     1      -1.764   5.553 -34.545  1.00  0.00     0.411 C 
HETATM   22  F   UNL     1      -2.863   4.971 -35.076  1.00  0.00    -0.169 F 
HETATM   23  F   UNL     1      -1.993   6.882 -34.493  1.00  0.00    -0.169 F 
HETATM   24  F   UNL     1      -0.716   5.316 -35.348  1.00  0.00    -0.169 F 
ENDBRANCH  20  21
ENDBRANCH  17  20
ENDBRANCH  16  17
ENDBRANCH   2  16
TORSDOF 5
ENDMDL
MODEL 7
REMARK VINA RESULT:      -6.8      1.966      2.419
REMARK  5 active torsions:
REMARK  status: ('A' for Active; 'I' for Inactive)
REMARK    1  A    between atoms: C_4  and  N_5 
REMARK       I    between atoms: N_5  and  C_6 
REMARK    2  A    between atoms: C_6  and  C_7 
REMARK    3  A    between atoms: C_7  and  N_8 
REMARK    4  A    between atoms: N_8  and  C_11 
REMARK    5  A    between atoms: C_11  and  C_12 
ROOT
HETATM    1  N   UNL     1      -8.391   0.403 -34.140  1.00  0.00    -0.324 N 
HETATM    2  C   UNL     1      -9.507   0.421 -33.348  1.00  0.00     0.248 C 
HETATM    3  O   UNL     1      -9.803  -0.361 -32.447  1.00  0.00    -0.271 OA
HETATM    4  H   UNL     1      -8.284   1.062 -34.915  1.00  0.00     0.169 HD
ENDROOT
BRANCH   1   5
HETATM    5  C   UNL     1      -7.306  -0.513 -34.112  1.00  0.00     0.065 A 
HETATM    6  C   UNL     1      -7.376  -1.820 -34.605  1.00  0.00     0.038 A 
HETATM    7  C   UNL     1      -6.258  -2.658 -34.540  1.00  0.00    -0.059 A 
HETATM    8  C   UNL     1      -6.315  -4.066 -35.060  1.00  0.00     0.048 C 
HETATM    9  C   UNL     1      -5.072  -2.171 -33.982  1.00  0.00     0.020 A 
HETATM   10  C   UNL     1      -4.998  -0.860 -33.485  1.00  0.00    -0.005 A 
HETATM   11  C   UNL     1      -6.124  -0.016 -33.543  1.00  0.00     0.093 A 
HETATM   12  C   UNL     1      -3.820  -0.349 -32.927  1.00  0.00     0.015 A 
HETATM   13  N   UNL     1      -6.101   1.258 -33.077  1.00  0.00    -0.258 NA
HETATM   14  C   UNL     1      -4.941   1.711 -32.547  1.00  0.00     0.117 A 
HETATM   15  C   UNL     1      -3.788   0.956 -32.451  1.00  0.00     0.020 A 
ENDBRANCH   1   5
BRANCH   2  16
HETATM   16  C   UNL     1     -10.483   1.552 -33.678  1.00  0.00     0.335 C 
BRANCH  16  17
HETATM   17  N   UNL     1      -9.960   2.403 -34.812  1.00  0.00    -0.059 N 
HETATM   18  H   UNL     1      -9.114   1.989 -35.230  1.00  0.00     0.278 HD
HETATM   19  H   UNL     1     -10.690   2.389 -35.550  1.00  0.00     0.278 HD
BRANCH  17  20
HETATM   20  C   UNL     1      -9.714   3.869 -34.465  1.00  0.00     0.349 C 
BRANCH  20  21
HETATM   21  C   UNL     1     -10.752   4.784 -35.126  1.00  0.00     0.411 C 
HETATM   22  F   UNL     1     -11.500   5.373 -34.164  1.00  0.00    -0.169 F 
HETATM   23  F   UNL     1     -10.128   5.765 -35.813  1.00  0.00    -0.169 F 
HETATM   24  F   UNL     1     -11.562   4.110 -35.954  1.00  0.00    -0.169 F 
ENDBRANCH  20  21
ENDBRANCH  17  20
ENDBRANCH  16  17
ENDBRANCH   2  16
TORSDOF 5
ENDMDL
MODEL 8
REMARK VINA RESULT:      -6.6      6.854      8.913
REMARK  5 active torsions:
REMARK  status: ('A' for Active; 'I' for Inactive)
REMARK    1  A    between atoms: C_4  and  N_5 
REMARK       I    between atoms: N_5  and  C_6 
REMARK    2  A    between atoms: C_6  and  C_7 
REMARK    3  A    between atoms: C_7  and  N_8 
REMARK    4  A    between atoms: N_8  and  C_11 
REMARK    5  A    between atoms: C_11  and  C_12 
ROOT
HETATM    1  N   UNL     1      -3.668   2.905 -31.045  1.00  0.00    -0.324 N 
HETATM    2  C   UNL     1      -3.022   3.758 -31.900  1.00  0.00     0.248 C 
HETATM    3  O   UNL     1      -2.750   3.573 -33.084  1.00  0.00    -0.271 OA
HETATM    4  H   UNL     1      -3.773   3.133 -30.053  1.00  0.00     0.169 HD
ENDROOT
BRANCH   1   5
HETATM    5  C   UNL     1      -4.183   1.610 -31.318  1.00  0.00     0.065 A 
HETATM    6  C   UNL     1      -3.385   0.475 -31.498  1.00  0.00     0.038 A 
HETATM    7  C   UNL     1      -3.976  -0.765 -31.762  1.00  0.00    -0.059 A 
HETATM    8  C   UNL     1      -3.135  -1.994 -31.963  1.00  0.00     0.048 C 
HETATM    9  C   UNL     1      -5.369  -0.856 -31.835  1.00  0.00     0.020 A 
HETATM   10  C   UNL     1      -6.173   0.281 -31.654  1.00  0.00    -0.005 A 
HETATM   11  C   UNL     1      -5.582   1.533 -31.396  1.00  0.00     0.093 A 
HETATM   12  C   UNL     1      -7.570   0.213 -31.717  1.00  0.00     0.015 A 
HETATM   13  N   UNL     1      -6.317   2.659 -31.214  1.00  0.00    -0.258 NA
HETATM   14  C   UNL     1      -7.664   2.547 -31.283  1.00  0.00     0.117 A 
HETATM   15  C   UNL     1      -8.329   1.361 -31.529  1.00  0.00     0.020 A 
ENDBRANCH   1   5
BRANCH   2  16
HETATM   16  C   UNL     1      -2.585   5.073 -31.251  1.00  0.00     0.335 C 
BRANCH  16  17
HETATM   17  N   UNL     1      -1.266   4.906 -30.531  1.00  0.00    -0.059 N 
HETATM   18  H   UNL     1      -1.303   4.127 -29.858  1.00  0.00     0.278 HD
HETATM   19  H   UNL     1      -0.570   4.640 -31.254  1.00  0.00     0.278 HD
BRANCH  17  20
HETATM   20  C   UNL     1      -0.733   6.166 -29.852  1.00  0.00     0.349 C 
BRANCH  20  21
HETATM   21  C   UNL     1       0.389   6.814 -30.672  1.00  0.00     0.411 C 
HETATM   22  F   UNL     1       1.054   7.697 -29.893  1.00  0.00    -0.169 F 
HETATM   23  F   UNL     1       1.273   5.873 -31.065  1.00  0.00    -0.169 F 
HETATM   24  F   UNL     1      -0.083   7.455 -31.751  1.00  0.00    -0.169 F 
ENDBRANCH  20  21
ENDBRANCH  17  20
ENDBRANCH  16  17
ENDBRANCH   2  16
TORSDOF 5
ENDMDL
MODEL 9
REMARK VINA RESULT:      -6.6      4.653      6.717
REMARK  5 active torsions:
REMARK  status: ('A' for Active; 'I' for Inactive)
REMARK    1  A    between atoms: C_4  and  N_5 
REMARK       I    between atoms: N_5  and  C_6 
REMARK    2  A    between atoms: C_6  and  C_7 
REMARK    3  A    between atoms: C_7  and  N_8 
REMARK    4  A    between atoms: N_8  and  C_11 
REMARK    5  A    between atoms: C_11  and  C_12 
ROOT
HETATM    1  N   UNL     1      -6.874  -0.910 -32.874  1.00  0.00    -0.324 N 
HETATM    2  C   UNL     1      -6.807  -1.171 -34.216  1.00  0.00     0.248 C 
HETATM    3  O   UNL     1      -6.825  -0.361 -35.141  1.00  0.00    -0.271 OA
HETATM    4  H   UNL     1      -6.930  -1.671 -32.192  1.00  0.00     0.169 HD
ENDROOT
BRANCH   1   5
HETATM    5  C   UNL     1      -6.971   0.349 -32.225  1.00  0.00     0.065 A 
HETATM    6  C   UNL     1      -8.182   0.952 -31.870  1.00  0.00     0.038 A 
HETATM    7  C   UNL     1      -8.189   2.196 -31.230  1.00  0.00    -0.059 A 
HETATM    8  C   UNL     1      -9.479   2.861 -30.845  1.00  0.00     0.048 C 
HETATM    9  C   UNL     1      -6.972   2.824 -30.947  1.00  0.00     0.020 A 
HETATM   10  C   UNL     1      -5.754   2.222 -31.302  1.00  0.00    -0.005 A 
HETATM   11  C   UNL     1      -5.744   0.973 -31.953  1.00  0.00     0.093 A 
HETATM   12  C   UNL     1      -4.523   2.829 -31.024  1.00  0.00     0.015 A 
HETATM   13  N   UNL     1      -4.593   0.352 -32.316  1.00  0.00    -0.258 NA
HETATM   14  C   UNL     1      -3.427   0.974 -32.026  1.00  0.00     0.117 A 
HETATM   15  C   UNL     1      -3.341   2.197 -31.390  1.00  0.00     0.020 A 
ENDBRANCH   1   5
BRANCH   2  16
HETATM   16  C   UNL     1      -6.731  -2.660 -34.556  1.00  0.00     0.335 C 
BRANCH  16  17
HETATM   17  N   UNL     1      -5.367  -3.020 -35.099  1.00  0.00    -0.059 N 
HETATM   18  H   UNL     1      -5.395  -3.905 -35.626  1.00  0.00     0.278 HD
HETATM   19  H   UNL     1      -5.117  -2.278 -35.780  1.00  0.00     0.278 HD
BRANCH  17  20
HETATM   20  C   UNL     1      -4.245  -3.059 -34.063  1.00  0.00     0.349 C 
BRANCH  20  21
HETATM   21  C   UNL     1      -3.865  -4.500 -33.700  1.00  0.00     0.411 C 
HETATM   22  F   UNL     1      -4.918  -5.312 -33.952  1.00  0.00    -0.169 F 
HETATM   23  F   UNL     1      -2.839  -4.913 -34.474  1.00  0.00    -0.169 F 
HETATM   24  F   UNL     1      -3.523  -4.619 -32.409  1.00  0.00    -0.169 F 
ENDBRANCH  20  21
ENDBRANCH  17  20
ENDBRANCH  16  17
ENDBRANCH   2  16
TORSDOF 5
ENDMDL
MODEL 10
REMARK VINA RESULT:      -6.6      4.541      6.870
REMARK  5 active torsions:
REMARK  status: ('A' for Active; 'I' for Inactive)
REMARK    1  A    between atoms: C_4  and  N_5 
REMARK       I    between atoms: N_5  and  C_6 
REMARK    2  A    between atoms: C_6  and  C_7 
REMARK    3  A    between atoms: C_7  and  N_8 
REMARK    4  A    between atoms: N_8  and  C_11 
REMARK    5  A    between atoms: C_11  and  C_12 
ROOT
HETATM    1  N   UNL     1      -7.803  -1.148 -33.391  1.00  0.00    -0.324 N 
HETATM    2  C   UNL     1      -7.049  -1.370 -34.512  1.00  0.00     0.248 C 
HETATM    3  O   UNL     1      -6.643  -0.538 -35.321  1.00  0.00    -0.271 OA
HETATM    4  H   UNL     1      -8.151  -1.928 -32.828  1.00  0.00     0.169 HD
ENDROOT
BRANCH   1   5
HETATM    5  C   UNL     1      -8.291   0.087 -32.889  1.00  0.00     0.065 A 
HETATM    6  C   UNL     1      -9.464   0.703 -33.339  1.00  0.00     0.038 A 
HETATM    7  C   UNL     1      -9.875   1.921 -32.788  1.00  0.00    -0.059 A 
HETATM    8  C   UNL     1     -11.128   2.600 -33.262  1.00  0.00     0.048 C 
HETATM    9  C   UNL     1      -9.105   2.509 -31.780  1.00  0.00     0.020 A 
HETATM   10  C   UNL     1      -7.928   1.893 -31.325  1.00  0.00    -0.005 A 
HETATM   11  C   UNL     1      -7.506   0.671 -31.883  1.00  0.00     0.093 A 
HETATM   12  C   UNL     1      -7.143   2.460 -30.313  1.00  0.00     0.015 A 
HETATM   13  N   UNL     1      -6.377   0.038 -31.477  1.00  0.00    -0.258 NA
HETATM   14  C   UNL     1      -5.650   0.622 -30.495  1.00  0.00     0.117 A 
HETATM   15  C   UNL     1      -5.987   1.817 -29.890  1.00  0.00     0.020 A 
ENDBRANCH   1   5
BRANCH   2  16
HETATM   16  C   UNL     1      -6.720  -2.843 -34.757  1.00  0.00     0.335 C 
BRANCH  16  17
HETATM   17  N   UNL     1      -5.270  -3.015 -35.149  1.00  0.00    -0.059 N 
HETATM   18  H   UNL     1      -5.144  -3.830 -35.766  1.00  0.00     0.278 HD
HETATM   19  H   UNL     1      -5.017  -2.178 -35.708  1.00  0.00     0.278 HD
BRANCH  17  20
HETATM   20  C   UNL     1      -4.286  -3.079 -33.983  1.00  0.00     0.349 C 
BRANCH  20  21
HETATM   21  C   UNL     1      -3.839  -4.519 -33.703  1.00  0.00     0.411 C 
HETATM   22  F   UNL     1      -3.470  -4.624 -32.405  1.00  0.00    -0.169 F 
HETATM   23  F   UNL     1      -4.871  -5.366 -33.901  1.00  0.00    -0.169 F 
HETATM   24  F   UNL     1      -2.809  -4.886 -34.479  1.00  0.00    -0.169 F 
ENDBRANCH  20  21
ENDBRANCH  17  20
ENDBRANCH  16  17
ENDBRANCH   2  16
TORSDOF 5
ENDMDL
