MODEL 1
REMARK VINA RESULT:      -9.9      0.000      0.000
REMARK  4 active torsions:
REMARK  status: ('A' for Active; 'I' for Inactive)
REMARK    1  A    between atoms: C_3  and  C_4 
REMARK       I    between atoms: C_4  and  N_5 
REMARK    2  A    between atoms: N_5  and  N_6 
REMARK    3  A    between atoms: C_7  and  C_8 
REMARK    4  A    between atoms: C_23  and  C_24 
ROOT
HETATM    1  C   UNL     1      -2.098   4.413 -31.884  1.00  0.00     0.290 C 
HETATM    2  N   UNL     1      -2.880   3.346 -31.465  1.00  0.00    -0.242 N 
HETATM    3  O   UNL     1      -1.810   4.648 -33.054  1.00  0.00    -0.264 OA
HETATM    4  H   UNL     1      -3.028   3.212 -30.475  1.00  0.00     0.192 HD
ENDROOT
BRANCH   1   5
HETATM    5  C   UNL     1      -1.649   5.299 -30.831  1.00  0.00     0.127 A 
HETATM    6  C   UNL     1      -0.427   5.603 -30.238  1.00  0.00     0.003 A 
HETATM    7  C   UNL     1       0.931   5.112 -30.598  1.00  0.00     0.053 C 
HETATM    8  C   UNL     1      -0.744   6.554 -29.208  1.00  0.00     0.095 A 
HETATM    9  N   UNL     1      -2.046   6.867 -29.231  1.00  0.00    -0.173 NA
HETATM   10  N   UNL     1      -2.552   6.128 -30.220  1.00  0.00    -0.272 N 
HETATM   11  H   UNL     1      -3.541   6.211 -30.439  1.00  0.00     0.189 HD
BRANCH   8  12
HETATM   12  C   UNL     1       0.148   7.182 -28.232  1.00  0.00    -0.005 A 
HETATM   13  C   UNL     1       0.180   6.751 -26.899  1.00  0.00     0.014 A 
HETATM   14  C   UNL     1       1.038   7.358 -25.978  1.00  0.00     0.001 A 
HETATM   15  C   UNL     1       1.863   8.408 -26.379  1.00  0.00     0.000 A 
HETATM   16  C   UNL     1       1.829   8.855 -27.698  1.00  0.00     0.001 A 
HETATM   17  C   UNL     1       0.973   8.248 -28.619  1.00  0.00     0.014 A 
ENDBRANCH   8  12
ENDBRANCH   1   5
BRANCH   2  18
HETATM   18  N   UNL     1      -3.333   2.291 -32.218  1.00  0.00    -0.183 NA
HETATM   19  C   UNL     1      -4.005   1.336 -31.660  1.00  0.00     0.153 C 
BRANCH  19  20
HETATM   20  C   UNL     1      -4.530   0.251 -32.474  1.00  0.00     0.018 A 
HETATM   21  C   UNL     1      -5.637   0.347 -33.384  1.00  0.00     0.004 A 
HETATM   22  C   UNL     1      -5.812  -0.907 -33.968  1.00  0.00     0.043 A 
HETATM   23  C   UNL     1      -6.510   1.389 -33.769  1.00  0.00     0.014 A 
HETATM   24  C   UNL     1      -6.810  -1.176 -34.912  1.00  0.00     0.030 A 
HETATM   25  N   UNL     1      -4.853  -1.736 -33.438  1.00  0.00    -0.358 N 
HETATM   26  C   UNL     1      -7.660  -0.127 -35.274  1.00  0.00     0.002 A 
HETATM   27  C   UNL     1      -7.514   1.138 -34.712  1.00  0.00     0.001 A 
HETATM   28  H   UNL     1      -4.744  -2.709 -33.686  1.00  0.00     0.166 HD
HETATM   29  C   UNL     1      -4.069  -1.058 -32.537  1.00  0.00     0.018 A 
HETATM   30  C   UNL     1      -2.952  -1.741 -31.831  1.00  0.00     0.069 C 
ENDBRANCH  19  20
ENDBRANCH   2  18
TORSDOF 4
ENDMDL
MODEL 2
REMARK VINA RESULT:      -9.5      0.813      2.356
REMARK  4 active torsions:
REMARK  status: ('A' for Active; 'I' for Inactive)
REMARK    1  A    between atoms: C_3  and  C_4 
REMARK       I    between atoms: C_4  and  N_5 
REMARK    2  A    between atoms: N_5  and  N_6 
REMARK    3  A    between atoms: C_7  and  C_8 
REMARK    4  A    between atoms: C_23  and  C_24 
ROOT
HETATM    1  C   UNL     1      -2.170   4.332 -31.791  1.00  0.00     0.290 C 
HETATM    2  N   UNL     1      -2.756   3.167 -31.319  1.00  0.00    -0.242 N 
HETATM    3  O   UNL     1      -2.058   4.624 -32.979  1.00  0.00    -0.264 OA
HETATM    4  H   UNL     1      -2.764   2.997 -30.324  1.00  0.00     0.192 HD
ENDROOT
BRANCH   1   5
HETATM    5  C   UNL     1      -1.708   5.248 -30.770  1.00  0.00     0.127 A 
HETATM    6  C   UNL     1      -0.483   5.546 -30.180  1.00  0.00     0.003 A 
HETATM    7  C   UNL     1       0.865   5.010 -30.508  1.00  0.00     0.053 C 
HETATM    8  C   UNL     1      -0.785   6.544 -29.189  1.00  0.00     0.095 A 
HETATM    9  N   UNL     1      -2.080   6.886 -29.236  1.00  0.00    -0.173 NA
HETATM   10  N   UNL     1      -2.595   6.121 -30.200  1.00  0.00    -0.272 N 
HETATM   11  H   UNL     1      -3.580   6.218 -30.430  1.00  0.00     0.189 HD
BRANCH   8  12
HETATM   12  C   UNL     1       0.114   7.188 -28.231  1.00  0.00    -0.005 A 
HETATM   13  C   UNL     1       0.149   6.787 -26.889  1.00  0.00     0.014 A 
HETATM   14  C   UNL     1       1.013   7.410 -25.984  1.00  0.00     0.001 A 
HETATM   15  C   UNL     1       1.843   8.445 -26.412  1.00  0.00     0.000 A 
HETATM   16  C   UNL     1       1.807   8.863 -27.741  1.00  0.00     0.001 A 
HETATM   17  C   UNL     1       0.944   8.240 -28.645  1.00  0.00     0.014 A 
ENDBRANCH   8  12
ENDBRANCH   1   5
BRANCH   2  18
HETATM   18  N   UNL     1      -3.164   2.078 -32.049  1.00  0.00    -0.183 NA
HETATM   19  C   UNL     1      -4.394   1.677 -31.984  1.00  0.00     0.153 C 
BRANCH  19  20
HETATM   20  C   UNL     1      -4.831   0.557 -32.804  1.00  0.00     0.018 A 
HETATM   21  C   UNL     1      -4.324  -0.784 -32.729  1.00  0.00     0.004 A 
HETATM   22  C   UNL     1      -5.010  -1.547 -33.673  1.00  0.00     0.043 A 
HETATM   23  C   UNL     1      -3.341  -1.424 -31.942  1.00  0.00     0.014 A 
HETATM   24  C   UNL     1      -4.767  -2.911 -33.873  1.00  0.00     0.030 A 
HETATM   25  N   UNL     1      -5.900  -0.708 -34.299  1.00  0.00    -0.358 N 
HETATM   26  C   UNL     1      -3.789  -3.518 -33.081  1.00  0.00     0.002 A 
HETATM   27  C   UNL     1      -3.084  -2.788 -32.129  1.00  0.00     0.001 A 
HETATM   28  H   UNL     1      -6.533  -0.997 -35.032  1.00  0.00     0.166 HD
HETATM   29  C   UNL     1      -5.810   0.564 -33.791  1.00  0.00     0.018 A 
HETATM   30  C   UNL     1      -6.681   1.656 -34.303  1.00  0.00     0.069 C 
ENDBRANCH  19  20
ENDBRANCH   2  18
TORSDOF 4
ENDMDL
MODEL 3
REMARK VINA RESULT:      -9.3      1.549      2.709
REMARK  4 active torsions:
REMARK  status: ('A' for Active; 'I' for Inactive)
REMARK    1  A    between atoms: C_3  and  C_4 
REMARK       I    between atoms: C_4  and  N_5 
REMARK    2  A    between atoms: N_5  and  N_6 
REMARK    3  A    between atoms: C_7  and  C_8 
REMARK    4  A    between atoms: C_23  and  C_24 
ROOT
HETATM    1  C   UNL     1      -1.519   4.829 -31.736  1.00  0.00     0.290 C 
HETATM    2  N   UNL     1      -2.593   4.004 -31.436  1.00  0.00    -0.242 N 
HETATM    3  O   UNL     1      -1.197   5.166 -32.872  1.00  0.00    -0.264 OA
HETATM    4  H   UNL     1      -2.754   3.748 -30.472  1.00  0.00     0.192 HD
ENDROOT
BRANCH   1   5
HETATM    5  C   UNL     1      -0.786   5.329 -30.593  1.00  0.00     0.127 A 
HETATM    6  C   UNL     1      -0.762   6.515 -29.865  1.00  0.00     0.003 A 
HETATM    7  C   UNL     1      -1.623   7.719 -30.017  1.00  0.00     0.053 C 
HETATM    8  C   UNL     1       0.262   6.319 -28.876  1.00  0.00     0.095 A 
HETATM    9  N   UNL     1       0.760   5.077 -28.943  1.00  0.00    -0.173 NA
HETATM   10  N   UNL     1       0.101   4.506 -29.953  1.00  0.00    -0.272 N 
HETATM   11  H   UNL     1       0.303   3.538 -30.185  1.00  0.00     0.189 HD
BRANCH   8  12
HETATM   12  C   UNL     1       0.756   7.258 -27.867  1.00  0.00    -0.005 A 
HETATM   13  C   UNL     1       1.473   8.405 -28.235  1.00  0.00     0.014 A 
HETATM   14  C   UNL     1       1.937   9.294 -27.262  1.00  0.00     0.001 A 
HETATM   15  C   UNL     1       1.698   9.040 -25.913  1.00  0.00     0.000 A 
HETATM   16  C   UNL     1       0.999   7.895 -25.533  1.00  0.00     0.001 A 
HETATM   17  C   UNL     1       0.533   7.007 -26.506  1.00  0.00     0.014 A 
ENDBRANCH   8  12
ENDBRANCH   1   5
BRANCH   2  18
HETATM   18  N   UNL     1      -3.378   3.295 -32.312  1.00  0.00    -0.183 NA
HETATM   19  C   UNL     1      -4.484   2.760 -31.905  1.00  0.00     0.153 C 
BRANCH  19  20
HETATM   20  C   UNL     1      -5.337   2.059 -32.852  1.00  0.00     0.018 A 
HETATM   21  C   UNL     1      -5.269   0.658 -33.163  1.00  0.00     0.004 A 
HETATM   22  C   UNL     1      -6.259   0.389 -34.107  1.00  0.00     0.043 A 
HETATM   23  C   UNL     1      -4.456  -0.411 -32.727  1.00  0.00     0.014 A 
HETATM   24  C   UNL     1      -6.479  -0.888 -34.638  1.00  0.00     0.030 A 
HETATM   25  N   UNL     1      -6.906   1.574 -34.363  1.00  0.00    -0.358 N 
HETATM   26  C   UNL     1      -5.659  -1.927 -34.189  1.00  0.00     0.002 A 
HETATM   27  C   UNL     1      -4.660  -1.694 -33.247  1.00  0.00     0.001 A 
HETATM   28  H   UNL     1      -7.675   1.672 -35.011  1.00  0.00     0.166 HD
HETATM   29  C   UNL     1      -6.367   2.593 -33.617  1.00  0.00     0.018 A 
HETATM   30  C   UNL     1      -6.904   3.976 -33.713  1.00  0.00     0.069 C 
ENDBRANCH  19  20
ENDBRANCH   2  18
TORSDOF 4
ENDMDL
MODEL 4
REMARK VINA RESULT:      -8.9      2.352     10.275
REMARK  4 active torsions:
REMARK  status: ('A' for Active; 'I' for Inactive)
REMARK    1  A    between atoms: C_3  and  C_4 
REMARK       I    between atoms: C_4  and  N_5 
REMARK    2  A    between atoms: N_5  and  N_6 
REMARK    3  A    between atoms: C_7  and  C_8 
REMARK    4  A    between atoms: C_23  and  C_24 
ROOT
HETATM    1  C   UNL     1      -5.699   2.638 -32.372  1.00  0.00     0.290 C 
HETATM    2  N   UNL     1      -4.405   2.972 -32.001  1.00  0.00    -0.242 N 
HETATM    3  O   UNL     1      -6.683   3.350 -32.186  1.00  0.00    -0.264 OA
HETATM    4  H   UNL     1      -3.667   2.301 -32.159  1.00  0.00     0.192 HD
ENDROOT
BRANCH   1   5
HETATM    5  C   UNL     1      -5.838   1.369 -33.053  1.00  0.00     0.127 A 
HETATM    6  C   UNL     1      -5.535   0.042 -32.759  1.00  0.00     0.003 A 
HETATM    7  C   UNL     1      -4.991  -0.533 -31.499  1.00  0.00     0.053 C 
HETATM    8  C   UNL     1      -5.910  -0.691 -33.937  1.00  0.00     0.095 A 
HETATM    9  N   UNL     1      -6.477   0.118 -34.842  1.00  0.00    -0.173 NA
HETATM   10  N   UNL     1      -6.444   1.327 -34.279  1.00  0.00    -0.272 N 
HETATM   11  H   UNL     1      -6.841   2.115 -34.784  1.00  0.00     0.189 HD
BRANCH   8  12
HETATM   12  C   UNL     1      -5.769  -2.122 -34.212  1.00  0.00    -0.005 A 
HETATM   13  C   UNL     1      -4.523  -2.757 -34.118  1.00  0.00     0.014 A 
HETATM   14  C   UNL     1      -4.402  -4.124 -34.381  1.00  0.00     0.001 A 
HETATM   15  C   UNL     1      -5.523  -4.865 -34.752  1.00  0.00     0.000 A 
HETATM   16  C   UNL     1      -6.764  -4.242 -34.864  1.00  0.00     0.001 A 
HETATM   17  C   UNL     1      -6.886  -2.875 -34.599  1.00  0.00     0.014 A 
ENDBRANCH   8  12
ENDBRANCH   1   5
BRANCH   2  18
HETATM   18  N   UNL     1      -3.999   4.041 -31.241  1.00  0.00    -0.183 NA
HETATM   19  C   UNL     1      -3.442   5.064 -31.805  1.00  0.00     0.153 C 
BRANCH  19  20
HETATM   20  C   UNL     1      -3.066   6.216 -30.999  1.00  0.00     0.018 A 
HETATM   21  C   UNL     1      -1.784   6.430 -30.390  1.00  0.00     0.004 A 
HETATM   22  C   UNL     1      -1.836   7.650 -29.716  1.00  0.00     0.043 A 
HETATM   23  C   UNL     1      -0.577   5.697 -30.349  1.00  0.00     0.014 A 
HETATM   24  C   UNL     1      -0.750   8.175 -29.006  1.00  0.00     0.030 A 
HETATM   25  N   UNL     1      -3.097   8.161 -29.905  1.00  0.00    -0.358 N 
HETATM   26  C   UNL     1       0.432   7.428 -28.982  1.00  0.00     0.002 A 
HETATM   27  C   UNL     1       0.519   6.207 -29.643  1.00  0.00     0.001 A 
HETATM   28  H   UNL     1      -3.413   9.043 -29.528  1.00  0.00     0.166 HD
HETATM   29  C   UNL     1      -3.854   7.314 -30.676  1.00  0.00     0.018 A 
HETATM   30  C   UNL     1      -5.260   7.653 -31.027  1.00  0.00     0.069 C 
ENDBRANCH  19  20
ENDBRANCH   2  18
TORSDOF 4
ENDMDL
MODEL 5
REMARK VINA RESULT:      -8.8      6.554     10.404
REMARK  4 active torsions:
REMARK  status: ('A' for Active; 'I' for Inactive)
REMARK    1  A    between atoms: C_3  and  C_4 
REMARK       I    between atoms: C_4  and  N_5 
REMARK    2  A    between atoms: N_5  and  N_6 
REMARK    3  A    between atoms: C_7  and  C_8 
REMARK    4  A    between atoms: C_23  and  C_24 
ROOT
HETATM    1  C   UNL     1      -9.805   1.048 -34.143  1.00  0.00     0.290 C 
HETATM    2  N   UNL     1      -8.608   1.158 -34.835  1.00  0.00    -0.242 N 
HETATM    3  O   UNL     1     -10.030   0.217 -33.267  1.00  0.00    -0.264 OA
HETATM    4  H   UNL     1      -8.534   1.848 -35.569  1.00  0.00     0.192 HD
ENDROOT
BRANCH   1   5
HETATM    5  C   UNL     1     -10.812   2.028 -34.492  1.00  0.00     0.127 A 
HETATM    6  C   UNL     1     -11.060   3.359 -34.170  1.00  0.00     0.003 A 
HETATM    7  C   UNL     1     -10.240   4.287 -33.345  1.00  0.00     0.053 C 
HETATM    8  C   UNL     1     -12.282   3.682 -34.855  1.00  0.00     0.095 A 
HETATM    9  N   UNL     1     -12.696   2.651 -35.604  1.00  0.00    -0.173 NA
HETATM   10  N   UNL     1     -11.790   1.695 -35.389  1.00  0.00    -0.272 N 
HETATM   11  H   UNL     1     -11.889   0.807 -35.873  1.00  0.00     0.189 HD
BRANCH   8  12
HETATM   12  C   UNL     1     -13.042   4.933 -34.836  1.00  0.00    -0.005 A 
HETATM   13  C   UNL     1     -13.122   5.747 -35.974  1.00  0.00     0.014 A 
HETATM   14  C   UNL     1     -13.852   6.938 -35.943  1.00  0.00     0.001 A 
HETATM   15  C   UNL     1     -14.501   7.330 -34.773  1.00  0.00     0.000 A 
HETATM   16  C   UNL     1     -14.417   6.536 -33.631  1.00  0.00     0.001 A 
HETATM   17  C   UNL     1     -13.687   5.344 -33.662  1.00  0.00     0.014 A 
ENDBRANCH   8  12
ENDBRANCH   1   5
BRANCH   2  18
HETATM   18  N   UNL     1      -7.537   0.299 -34.801  1.00  0.00    -0.183 NA
HETATM   19  C   UNL     1      -6.898   0.103 -33.693  1.00  0.00     0.153 C 
BRANCH  19  20
HETATM   20  C   UNL     1      -5.800  -0.852 -33.653  1.00  0.00     0.018 A 
HETATM   21  C   UNL     1      -5.858  -2.213 -34.107  1.00  0.00     0.004 A 
HETATM   22  C   UNL     1      -4.601  -2.779 -33.900  1.00  0.00     0.043 A 
HETATM   23  C   UNL     1      -6.866  -3.020 -34.680  1.00  0.00     0.014 A 
HETATM   24  C   UNL     1      -4.297  -4.105 -34.232  1.00  0.00     0.030 A 
HETATM   25  N   UNL     1      -3.807  -1.806 -33.342  1.00  0.00    -0.358 N 
HETATM   26  C   UNL     1      -5.314  -4.880 -34.797  1.00  0.00     0.002 A 
HETATM   27  C   UNL     1      -6.581  -4.348 -35.017  1.00  0.00     0.001 A 
HETATM   28  H   UNL     1      -2.838  -1.940 -33.089  1.00  0.00     0.166 HD
HETATM   29  C   UNL     1      -4.509  -0.637 -33.185  1.00  0.00     0.018 A 
HETATM   30  C   UNL     1      -3.863   0.571 -32.606  1.00  0.00     0.069 C 
ENDBRANCH  19  20
ENDBRANCH   2  18
TORSDOF 4
ENDMDL
MODEL 6
REMARK VINA RESULT:      -8.6      6.507     10.430
REMARK  4 active torsions:
REMARK  status: ('A' for Active; 'I' for Inactive)
REMARK    1  A    between atoms: C_3  and  C_4 
REMARK       I    between atoms: C_4  and  N_5 
REMARK    2  A    between atoms: N_5  and  N_6 
REMARK    3  A    between atoms: C_7  and  C_8 
REMARK    4  A    between atoms: C_23  and  C_24 
ROOT
HETATM    1  C   UNL     1      -9.165   2.272 -34.191  1.00  0.00     0.290 C 
HETATM    2  N   UNL     1      -9.004   0.942 -34.551  1.00  0.00    -0.242 N 
HETATM    3  O   UNL     1      -8.242   3.060 -34.007  1.00  0.00    -0.264 OA
HETATM    4  H   UNL     1      -9.824   0.360 -34.639  1.00  0.00     0.192 HD
ENDROOT
BRANCH   1   5
HETATM    5  C   UNL     1     -10.537   2.717 -34.074  1.00  0.00     0.127 A 
HETATM    6  C   UNL     1     -11.321   3.275 -33.069  1.00  0.00     0.003 A 
HETATM    7  C   UNL     1     -10.921   3.690 -31.697  1.00  0.00     0.053 C 
HETATM    8  C   UNL     1     -12.626   3.418 -33.656  1.00  0.00     0.095 A 
HETATM    9  N   UNL     1     -12.611   3.056 -34.945  1.00  0.00    -0.173 NA
HETATM   10  N   UNL     1     -11.354   2.670 -35.172  1.00  0.00    -0.272 N 
HETATM   11  H   UNL     1     -11.096   2.361 -36.104  1.00  0.00     0.189 HD
BRANCH   8  12
HETATM   12  C   UNL     1     -13.861   3.907 -33.040  1.00  0.00    -0.005 A 
HETATM   13  C   UNL     1     -14.810   3.017 -32.520  1.00  0.00     0.014 A 
HETATM   14  C   UNL     1     -15.985   3.496 -31.933  1.00  0.00     0.001 A 
HETATM   15  C   UNL     1     -16.225   4.868 -31.871  1.00  0.00     0.000 A 
HETATM   16  C   UNL     1     -15.295   5.762 -32.399  1.00  0.00     0.001 A 
HETATM   17  C   UNL     1     -14.120   5.283 -32.984  1.00  0.00     0.014 A 
ENDBRANCH   8  12
ENDBRANCH   1   5
BRANCH   2  18
HETATM   18  N   UNL     1      -7.834   0.224 -34.612  1.00  0.00    -0.183 NA
HETATM   19  C   UNL     1      -7.258  -0.169 -33.522  1.00  0.00     0.153 C 
BRANCH  19  20
HETATM   20  C   UNL     1      -6.050  -0.977 -33.596  1.00  0.00     0.018 A 
HETATM   21  C   UNL     1      -5.970  -2.320 -34.100  1.00  0.00     0.004 A 
HETATM   22  C   UNL     1      -4.641  -2.728 -34.002  1.00  0.00     0.043 A 
HETATM   23  C   UNL     1      -6.909  -3.230 -34.635  1.00  0.00     0.014 A 
HETATM   24  C   UNL     1      -4.200  -3.992 -34.409  1.00  0.00     0.030 A 
HETATM   25  N   UNL     1      -3.936  -1.679 -33.461  1.00  0.00    -0.358 N 
HETATM   26  C   UNL     1      -5.150  -4.873 -34.933  1.00  0.00     0.002 A 
HETATM   27  C   UNL     1      -6.486  -4.500 -35.045  1.00  0.00     0.001 A 
HETATM   28  H   UNL     1      -2.942  -1.697 -33.280  1.00  0.00     0.166 HD
HETATM   29  C   UNL     1      -4.765  -0.615 -33.209  1.00  0.00     0.018 A 
HETATM   30  C   UNL     1      -4.234   0.647 -32.627  1.00  0.00     0.069 C 
ENDBRANCH  19  20
ENDBRANCH   2  18
TORSDOF 4
ENDMDL
MODEL 7
REMARK VINA RESULT:      -8.1      1.896     10.283
REMARK  4 active torsions:
REMARK  status: ('A' for Active; 'I' for Inactive)
REMARK    1  A    between atoms: C_3  and  C_4 
REMARK       I    between atoms: C_4  and  N_5 
REMARK    2  A    between atoms: N_5  and  N_6 
REMARK    3  A    between atoms: C_7  and  C_8 
REMARK    4  A    between atoms: C_23  and  C_24 
ROOT
HETATM    1  C   UNL     1      -2.672   4.411 -31.568  1.00  0.00     0.290 C 
HETATM    2  N   UNL     1      -3.156   5.500 -30.858  1.00  0.00    -0.242 N 
HETATM    3  O   UNL     1      -1.481   4.149 -31.716  1.00  0.00    -0.264 OA
HETATM    4  H   UNL     1      -4.153   5.656 -30.828  1.00  0.00     0.192 HD
ENDROOT
BRANCH   1   5
HETATM    5  C   UNL     1      -3.684   3.536 -32.121  1.00  0.00     0.127 A 
HETATM    6  C   UNL     1      -3.976   2.178 -32.045  1.00  0.00     0.003 A 
HETATM    7  C   UNL     1      -3.309   1.125 -31.232  1.00  0.00     0.053 C 
HETATM    8  C   UNL     1      -5.117   1.998 -32.902  1.00  0.00     0.095 A 
HETATM    9  N   UNL     1      -5.537   3.172 -33.390  1.00  0.00    -0.173 NA
HETATM   10  N   UNL     1      -4.684   4.069 -32.889  1.00  0.00    -0.272 N 
HETATM   11  H   UNL     1      -4.817   5.051 -33.114  1.00  0.00     0.189 HD
BRANCH   8  12
HETATM   12  C   UNL     1      -5.823   0.762 -33.243  1.00  0.00    -0.005 A 
HETATM   13  C   UNL     1      -7.213   0.661 -33.104  1.00  0.00     0.014 A 
HETATM   14  C   UNL     1      -7.875  -0.524 -33.435  1.00  0.00     0.001 A 
HETATM   15  C   UNL     1      -7.152  -1.622 -33.899  1.00  0.00     0.000 A 
HETATM   16  C   UNL     1      -5.767  -1.539 -34.027  1.00  0.00     0.001 A 
HETATM   17  C   UNL     1      -5.105  -0.353 -33.697  1.00  0.00     0.014 A 
ENDBRANCH   8  12
ENDBRANCH   1   5
BRANCH   2  18
HETATM   18  N   UNL     1      -2.438   6.549 -30.339  1.00  0.00    -0.183 NA
HETATM   19  C   UNL     1      -2.819   7.115 -29.239  1.00  0.00     0.153 C 
BRANCH  19  20
HETATM   20  C   UNL     1      -2.022   8.188 -28.665  1.00  0.00     0.018 A 
HETATM   21  C   UNL     1      -0.738   8.035 -28.040  1.00  0.00     0.004 A 
HETATM   22  C   UNL     1      -0.314   9.300 -27.633  1.00  0.00     0.043 A 
HETATM   23  C   UNL     1       0.109   6.934 -27.783  1.00  0.00     0.014 A 
HETATM   24  C   UNL     1       0.906   9.523 -26.985  1.00  0.00     0.030 A 
HETATM   25  N   UNL     1      -1.297  10.189 -27.994  1.00  0.00    -0.358 N 
HETATM   26  C   UNL     1       1.723   8.415 -26.742  1.00  0.00     0.002 A 
HETATM   27  C   UNL     1       1.332   7.138 -27.134  1.00  0.00     0.001 A 
HETATM   28  H   UNL     1      -1.253  11.184 -27.823  1.00  0.00     0.166 HD
HETATM   29  C   UNL     1      -2.335   9.541 -28.618  1.00  0.00     0.018 A 
HETATM   30  C   UNL     1      -3.520  10.293 -29.110  1.00  0.00     0.069 C 
ENDBRANCH  19  20
ENDBRANCH   2  18
TORSDOF 4
ENDMDL
MODEL 8
REMARK VINA RESULT:      -8.0      7.497     10.990
REMARK  4 active torsions:
REMARK  status: ('A' for Active; 'I' for Inactive)
REMARK    1  A    between atoms: C_3  and  C_4 
REMARK       I    between atoms: C_4  and  N_5 
REMARK    2  A    between atoms: N_5  and  N_6 
REMARK    3  A    between atoms: C_7  and  C_8 
REMARK    4  A    between atoms: C_23  and  C_24 
ROOT
HETATM    1  C   UNL     1      -8.659   2.346 -32.209  1.00  0.00     0.290 C 
HETATM    2  N   UNL     1     -10.034   2.165 -32.240  1.00  0.00    -0.242 N 
HETATM    3  O   UNL     1      -8.103   3.411 -31.955  1.00  0.00    -0.264 OA
HETATM    4  H   UNL     1     -10.398   1.259 -32.502  1.00  0.00     0.192 HD
ENDROOT
BRANCH   1   5
HETATM    5  C   UNL     1      -7.874   1.157 -32.465  1.00  0.00     0.127 A 
HETATM    6  C   UNL     1      -7.660   0.320 -33.556  1.00  0.00     0.003 A 
HETATM    7  C   UNL     1      -8.171   0.454 -34.947  1.00  0.00     0.053 C 
HETATM    8  C   UNL     1      -6.781  -0.707 -33.066  1.00  0.00     0.095 A 
HETATM    9  N   UNL     1      -6.421  -0.462 -31.800  1.00  0.00    -0.173 NA
HETATM   10  N   UNL     1      -7.063   0.663 -31.479  1.00  0.00    -0.272 N 
HETATM   11  H   UNL     1      -6.927   1.058 -30.553  1.00  0.00     0.189 HD
BRANCH   8  12
HETATM   12  C   UNL     1      -6.263  -1.883 -33.767  1.00  0.00    -0.005 A 
HETATM   13  C   UNL     1      -4.885  -2.089 -33.913  1.00  0.00     0.014 A 
HETATM   14  C   UNL     1      -4.404  -3.217 -34.582  1.00  0.00     0.001 A 
HETATM   15  C   UNL     1      -5.296  -4.143 -35.121  1.00  0.00     0.000 A 
HETATM   16  C   UNL     1      -6.669  -3.942 -34.995  1.00  0.00     0.001 A 
HETATM   17  C   UNL     1      -7.151  -2.814 -34.325  1.00  0.00     0.014 A 
ENDBRANCH   8  12
ENDBRANCH   1   5
BRANCH   2  18
HETATM   18  N   UNL     1     -11.009   3.128 -32.160  1.00  0.00    -0.183 NA
HETATM   19  C   UNL     1     -12.178   2.911 -32.672  1.00  0.00     0.153 C 
BRANCH  19  20
HETATM   20  C   UNL     1     -13.224   3.913 -32.533  1.00  0.00     0.018 A 
HETATM   21  C   UNL     1     -14.622   3.643 -32.341  1.00  0.00     0.004 A 
HETATM   22  C   UNL     1     -15.278   4.870 -32.249  1.00  0.00     0.043 A 
HETATM   23  C   UNL     1     -15.394   2.465 -32.234  1.00  0.00     0.014 A 
HETATM   24  C   UNL     1     -16.660   4.983 -32.057  1.00  0.00     0.030 A 
HETATM   25  N   UNL     1     -14.322   5.849 -32.379  1.00  0.00    -0.358 N 
HETATM   26  C   UNL     1     -17.399   3.801 -31.955  1.00  0.00     0.002 A 
HETATM   27  C   UNL     1     -16.777   2.559 -32.043  1.00  0.00     0.001 A 
HETATM   28  H   UNL     1     -14.518   6.840 -32.348  1.00  0.00     0.166 HD
HETATM   29  C   UNL     1     -13.078   5.295 -32.551  1.00  0.00     0.018 A 
HETATM   30  C   UNL     1     -11.874   6.153 -32.708  1.00  0.00     0.069 C 
ENDBRANCH  19  20
ENDBRANCH   2  18
TORSDOF 4
ENDMDL
MODEL 9
REMARK VINA RESULT:      -7.8      6.371      9.239
REMARK  4 active torsions:
REMARK  status: ('A' for Active; 'I' for Inactive)
REMARK    1  A    between atoms: C_3  and  C_4 
REMARK       I    between atoms: C_4  and  N_5 
REMARK    2  A    between atoms: N_5  and  N_6 
REMARK    3  A    between atoms: C_7  and  C_8 
REMARK    4  A    between atoms: C_23  and  C_24 
ROOT
HETATM    1  C   UNL     1      -9.824   1.325 -32.783  1.00  0.00     0.290 C 
HETATM    2  N   UNL     1      -8.468   1.430 -32.507  1.00  0.00    -0.242 N 
HETATM    3  O   UNL     1     -10.416   0.266 -32.975  1.00  0.00    -0.264 OA
HETATM    4  H   UNL     1      -8.063   2.349 -32.407  1.00  0.00     0.192 HD
ENDROOT
BRANCH   1   5
HETATM    5  C   UNL     1     -10.549   2.578 -32.798  1.00  0.00     0.127 A 
HETATM    6  C   UNL     1     -10.799   3.595 -31.882  1.00  0.00     0.003 A 
HETATM    7  C   UNL     1     -10.282   3.748 -30.495  1.00  0.00     0.053 C 
HETATM    8  C   UNL     1     -11.646   4.521 -32.582  1.00  0.00     0.095 A 
HETATM    9  N   UNL     1     -11.824   4.138 -33.853  1.00  0.00    -0.173 NA
HETATM   10  N   UNL     1     -11.141   2.997 -33.959  1.00  0.00    -0.272 N 
HETATM   11  H   UNL     1     -11.117   2.520 -34.856  1.00  0.00     0.189 HD
BRANCH   8  12
HETATM   12  C   UNL     1     -12.262   5.755 -32.091  1.00  0.00    -0.005 A 
HETATM   13  C   UNL     1     -13.377   5.719 -31.244  1.00  0.00     0.014 A 
HETATM   14  C   UNL     1     -13.954   6.904 -30.780  1.00  0.00     0.001 A 
HETATM   15  C   UNL     1     -13.428   8.136 -31.168  1.00  0.00     0.000 A 
HETATM   16  C   UNL     1     -12.328   8.184 -32.022  1.00  0.00     0.001 A 
HETATM   17  C   UNL     1     -11.750   7.000 -32.485  1.00  0.00     0.014 A 
ENDBRANCH   8  12
ENDBRANCH   1   5
BRANCH   2  18
HETATM   18  N   UNL     1      -7.523   0.434 -32.552  1.00  0.00    -0.183 NA
HETATM   19  C   UNL     1      -6.667   0.396 -33.523  1.00  0.00     0.153 C 
BRANCH  19  20
HETATM   20  C   UNL     1      -5.634  -0.628 -33.533  1.00  0.00     0.018 A 
HETATM   21  C   UNL     1      -5.791  -1.971 -34.015  1.00  0.00     0.004 A 
HETATM   22  C   UNL     1      -4.568  -2.622 -33.854  1.00  0.00     0.043 A 
HETATM   23  C   UNL     1      -6.863  -2.698 -34.577  1.00  0.00     0.014 A 
HETATM   24  C   UNL     1      -4.360  -3.956 -34.223  1.00  0.00     0.030 A 
HETATM   25  N   UNL     1      -3.699  -1.715 -33.297  1.00  0.00    -0.358 N 
HETATM   26  C   UNL     1      -5.438  -4.651 -34.776  1.00  0.00     0.002 A 
HETATM   27  C   UNL     1      -6.674  -4.034 -34.951  1.00  0.00     0.001 A 
HETATM   28  H   UNL     1      -2.735  -1.917 -33.073  1.00  0.00     0.166 HD
HETATM   29  C   UNL     1      -4.320  -0.507 -33.096  1.00  0.00     0.018 A 
HETATM   30  C   UNL     1      -3.582   0.643 -32.508  1.00  0.00     0.069 C 
ENDBRANCH  19  20
ENDBRANCH   2  18
TORSDOF 4
ENDMDL
MODEL 10
REMARK VINA RESULT:      -7.7      6.741     10.511
REMARK  4 active torsions:
REMARK  status: ('A' for Active; 'I' for Inactive)
REMARK    1  A    between atoms: C_3  and  C_4 
REMARK       I    between atoms: C_4  and  N_5 
REMARK    2  A    between atoms: N_5  and  N_6 
REMARK    3  A    between atoms: C_7  and  C_8 
REMARK    4  A    between atoms: C_23  and  C_24 
ROOT
HETATM    1  C   UNL     1     -10.272   0.572 -33.533  1.00  0.00     0.290 C 
HETATM    2  N   UNL     1      -8.909   0.686 -33.767  1.00  0.00    -0.242 N 
HETATM    3  O   UNL     1     -10.794  -0.333 -32.888  1.00  0.00    -0.264 OA
HETATM    4  H   UNL     1      -8.578   1.444 -34.346  1.00  0.00     0.192 HD
ENDROOT
BRANCH   1   5
HETATM    5  C   UNL     1     -11.083   1.638 -34.080  1.00  0.00     0.127 A 
HETATM    6  C   UNL     1     -11.325   2.971 -33.759  1.00  0.00     0.003 A 
HETATM    7  C   UNL     1     -10.702   3.801 -32.692  1.00  0.00     0.053 C 
HETATM    8  C   UNL     1     -12.294   3.413 -34.725  1.00  0.00     0.095 A 
HETATM    9  N   UNL     1     -12.554   2.447 -35.616  1.00  0.00    -0.173 NA
HETATM   10  N   UNL     1     -11.802   1.416 -35.223  1.00  0.00    -0.272 N 
HETATM   11  H   UNL     1     -11.822   0.559 -35.768  1.00  0.00     0.189 HD
BRANCH   8  12
HETATM   12  C   UNL     1     -12.951   4.716 -34.836  1.00  0.00    -0.005 A 
HETATM   13  C   UNL     1     -13.603   5.293 -33.739  1.00  0.00     0.014 A 
HETATM   14  C   UNL     1     -14.225   6.539 -33.858  1.00  0.00     0.001 A 
HETATM   15  C   UNL     1     -14.209   7.213 -35.079  1.00  0.00     0.000 A 
HETATM   16  C   UNL     1     -13.577   6.642 -36.181  1.00  0.00     0.001 A 
HETATM   17  C   UNL     1     -12.954   5.397 -36.062  1.00  0.00     0.014 A 
ENDBRANCH   8  12
ENDBRANCH   1   5
BRANCH   2  18
HETATM   18  N   UNL     1      -7.928  -0.231 -33.479  1.00  0.00    -0.183 NA
HETATM   19  C   UNL     1      -7.150  -0.664 -34.418  1.00  0.00     0.153 C 
BRANCH  19  20
HETATM   20  C   UNL     1      -6.077  -1.592 -34.095  1.00  0.00     0.018 A 
HETATM   21  C   UNL     1      -4.966  -1.318 -33.227  1.00  0.00     0.004 A 
HETATM   22  C   UNL     1      -4.175  -2.465 -33.180  1.00  0.00     0.043 A 
HETATM   23  C   UNL     1      -4.558  -0.196 -32.471  1.00  0.00     0.014 A 
HETATM   24  C   UNL     1      -3.002  -2.552 -32.421  1.00  0.00     0.030 A 
HETATM   25  N   UNL     1      -4.777  -3.402 -33.985  1.00  0.00    -0.358 N 
HETATM   26  C   UNL     1      -2.621  -1.427 -31.684  1.00  0.00     0.002 A 
HETATM   27  C   UNL     1      -3.386  -0.264 -31.708  1.00  0.00     0.001 A 
HETATM   28  H   UNL     1      -4.418  -4.335 -34.135  1.00  0.00     0.166 HD
HETATM   29  C   UNL     1      -5.924  -2.897 -34.545  1.00  0.00     0.018 A 
HETATM   30  C   UNL     1      -6.760  -3.727 -35.454  1.00  0.00     0.069 C 
ENDBRANCH  19  20
ENDBRANCH   2  18
TORSDOF 4
ENDMDL
