MODEL 1
REMARK VINA RESULT:      -8.5      0.000      0.000
REMARK  6 active torsions:
REMARK  status: ('A' for Active; 'I' for Inactive)
REMARK    1  A    between atoms: C_2  and  N_3 
REMARK    2  A    between atoms: C_10  and  N_11 
REMARK       I    between atoms: N_11  and  C_12 
REMARK       I    between atoms: C_12  and  N_13 
REMARK    3  A    between atoms: N_13  and  C_14 
REMARK    4  A    between atoms: C_14  and  C_15 
REMARK    5  A    between atoms: C_15  and  C_16 
REMARK    6  A    between atoms: C_19  and  O_20 
ROOT
HETATM    1  N   UNL     1      -7.650  -0.487 -33.814  1.00  0.00    -0.307 N 
HETATM    2  C   UNL     1      -7.901   0.379 -34.838  1.00  0.00     0.320 C 
HETATM    3  N   UNL     1      -9.073   1.075 -34.748  1.00  0.00    -0.343 N 
HETATM    4  O   UNL     1      -7.174   0.634 -35.791  1.00  0.00    -0.247 OA
HETATM    5  H   UNL     1      -8.260  -0.435 -33.019  1.00  0.00     0.170 HD
HETATM    6  H   UNL     1      -9.155   1.761 -35.489  1.00  0.00     0.164 HD
ENDROOT
BRANCH   1   7
HETATM    7  C   UNL     1      -6.491  -1.219 -33.607  1.00  0.00     0.064 A 
HETATM    8  C   UNL     1      -6.048  -2.504 -34.061  1.00  0.00     0.019 A 
HETATM    9  C   UNL     1      -4.746  -2.690 -33.568  1.00  0.00     0.046 A 
HETATM   10  C   UNL     1      -6.614  -3.555 -34.817  1.00  0.00     0.016 A 
HETATM   11  N   UNL     1      -4.426  -1.565 -32.840  1.00  0.00    -0.354 N 
HETATM   12  C   UNL     1      -4.002  -3.854 -33.830  1.00  0.00     0.030 A 
HETATM   13  C   UNL     1      -5.490  -0.705 -32.809  1.00  0.00     0.121 A 
HETATM   14  C   UNL     1      -4.589  -4.862 -34.595  1.00  0.00     0.002 A 
HETATM   15  C   UNL     1      -5.882  -4.718 -35.080  1.00  0.00     0.001 A 
BRANCH  11  16
HETATM   16  C   UNL     1      -3.143  -1.292 -32.215  1.00  0.00     0.124 C 
HETATM   17  C   UNL     1      -3.213  -0.147 -31.222  1.00  0.00     0.027 C 
ENDBRANCH  11  16
ENDBRANCH   1   7
BRANCH   3  18
HETATM   18  C   UNL     1     -10.104   1.076 -33.723  1.00  0.00     0.129 C 
BRANCH  18  19
HETATM   19  C   UNL     1     -10.918   2.373 -33.633  1.00  0.00     0.058 C 
BRANCH  19  20
HETATM   20  C   UNL     1     -12.398   2.175 -33.418  1.00  0.00    -0.057 A 
HETATM   21  C   UNL     1     -13.173   3.166 -32.808  1.00  0.00     0.010 A 
HETATM   22  C   UNL     1     -14.551   2.988 -32.656  1.00  0.00     0.037 A 
HETATM   23  C   UNL     1     -15.175   1.823 -33.109  1.00  0.00     0.068 A 
HETATM   24  C   UNL     1     -14.402   0.820 -33.692  1.00  0.00     0.037 A 
HETATM   25  C   UNL     1     -13.024   0.997 -33.847  1.00  0.00     0.010 A 
BRANCH  23  26
HETATM   26  O   UNL     1     -16.529   1.785 -32.921  1.00  0.00    -0.356 OA
HETATM   27  C   UNL     1     -17.053   2.635 -31.908  1.00  0.00     0.210 C 
ENDBRANCH  23  26
ENDBRANCH  19  20
ENDBRANCH  18  19
ENDBRANCH   3  18
TORSDOF 6
ENDMDL
MODEL 2
REMARK VINA RESULT:      -8.1      3.211      5.102
REMARK  6 active torsions:
REMARK  status: ('A' for Active; 'I' for Inactive)
REMARK    1  A    between atoms: C_2  and  N_3 
REMARK    2  A    between atoms: C_10  and  N_11 
REMARK       I    between atoms: N_11  and  C_12 
REMARK       I    between atoms: C_12  and  N_13 
REMARK    3  A    between atoms: N_13  and  C_14 
REMARK    4  A    between atoms: C_14  and  C_15 
REMARK    5  A    between atoms: C_15  and  C_16 
REMARK    6  A    between atoms: C_19  and  O_20 
ROOT
HETATM    1  N   UNL     1      -7.557  -0.444 -33.847  1.00  0.00    -0.307 N 
HETATM    2  C   UNL     1      -7.819   0.321 -34.946  1.00  0.00     0.320 C 
HETATM    3  N   UNL     1      -8.952   1.080 -34.879  1.00  0.00    -0.343 N 
HETATM    4  O   UNL     1      -7.129   0.438 -35.952  1.00  0.00    -0.247 OA
HETATM    5  H   UNL     1      -8.124  -0.279 -33.036  1.00  0.00     0.170 HD
HETATM    6  H   UNL     1      -9.040   1.688 -35.685  1.00  0.00     0.164 HD
ENDROOT
BRANCH   1   7
HETATM    7  C   UNL     1      -6.423  -1.207 -33.615  1.00  0.00     0.064 A 
HETATM    8  C   UNL     1      -6.006  -2.504 -34.060  1.00  0.00     0.019 A 
HETATM    9  C   UNL     1      -4.721  -2.726 -33.537  1.00  0.00     0.046 A 
HETATM   10  C   UNL     1      -6.583  -3.539 -34.829  1.00  0.00     0.016 A 
HETATM   11  N   UNL     1      -4.386  -1.610 -32.801  1.00  0.00    -0.354 N 
HETATM   12  C   UNL     1      -4.002  -3.909 -33.783  1.00  0.00     0.030 A 
HETATM   13  C   UNL     1      -5.427  -0.720 -32.794  1.00  0.00     0.121 A 
HETATM   14  C   UNL     1      -4.600  -4.901 -34.562  1.00  0.00     0.002 A 
HETATM   15  C   UNL     1      -5.877  -4.722 -35.076  1.00  0.00     0.001 A 
BRANCH  11  16
HETATM   16  C   UNL     1      -3.111  -1.372 -32.147  1.00  0.00     0.124 C 
HETATM   17  C   UNL     1      -3.120  -0.116 -31.296  1.00  0.00     0.027 C 
ENDBRANCH  11  16
ENDBRANCH   1   7
BRANCH   3  18
HETATM   18  C   UNL     1      -9.930   1.241 -33.816  1.00  0.00     0.129 C 
BRANCH  18  19
HETATM   19  C   UNL     1      -9.718   2.475 -32.929  1.00  0.00     0.058 C 
BRANCH  19  20
HETATM   20  C   UNL     1      -8.347   2.577 -32.310  1.00  0.00    -0.057 A 
HETATM   21  C   UNL     1      -7.378   3.429 -32.849  1.00  0.00     0.010 A 
HETATM   22  C   UNL     1      -6.127   3.548 -32.239  1.00  0.00     0.037 A 
HETATM   23  C   UNL     1      -5.823   2.822 -31.084  1.00  0.00     0.068 A 
HETATM   24  C   UNL     1      -6.775   1.950 -30.560  1.00  0.00     0.037 A 
HETATM   25  C   UNL     1      -8.028   1.830 -31.168  1.00  0.00     0.010 A 
BRANCH  23  26
HETATM   26  O   UNL     1      -4.574   3.047 -30.575  1.00  0.00    -0.356 OA
HETATM   27  C   UNL     1      -3.652   3.718 -31.427  1.00  0.00     0.210 C 
ENDBRANCH  23  26
ENDBRANCH  19  20
ENDBRANCH  18  19
ENDBRANCH   3  18
TORSDOF 6
ENDMDL
MODEL 3
REMARK VINA RESULT:      -8.0      5.776     10.186
REMARK  6 active torsions:
REMARK  status: ('A' for Active; 'I' for Inactive)
REMARK    1  A    between atoms: C_2  and  N_3 
REMARK    2  A    between atoms: C_10  and  N_11 
REMARK       I    between atoms: N_11  and  C_12 
REMARK       I    between atoms: C_12  and  N_13 
REMARK    3  A    between atoms: N_13  and  C_14 
REMARK    4  A    between atoms: C_14  and  C_15 
REMARK    5  A    between atoms: C_15  and  C_16 
REMARK    6  A    between atoms: C_19  and  O_20 
ROOT
HETATM    1  N   UNL     1      -3.449   1.777 -32.239  1.00  0.00    -0.307 N 
HETATM    2  C   UNL     1      -3.900   2.584 -31.235  1.00  0.00     0.320 C 
HETATM    3  N   UNL     1      -3.226   3.762 -31.077  1.00  0.00    -0.343 N 
HETATM    4  O   UNL     1      -4.863   2.391 -30.502  1.00  0.00    -0.247 OA
HETATM    5  H   UNL     1      -2.771   2.171 -32.864  1.00  0.00     0.170 HD
HETATM    6  H   UNL     1      -3.666   4.350 -30.379  1.00  0.00     0.164 HD
ENDROOT
BRANCH   1   7
HETATM    7  C   UNL     1      -4.023   0.595 -32.679  1.00  0.00     0.064 A 
HETATM    8  C   UNL     1      -5.200   0.302 -33.443  1.00  0.00     0.019 A 
HETATM    9  C   UNL     1      -5.235  -1.091 -33.628  1.00  0.00     0.046 A 
HETATM   10  C   UNL     1      -6.266   1.057 -33.980  1.00  0.00     0.016 A 
HETATM   11  N   UNL     1      -4.128  -1.610 -32.992  1.00  0.00    -0.354 N 
HETATM   12  C   UNL     1      -6.262  -1.729 -34.345  1.00  0.00     0.030 A 
HETATM   13  C   UNL     1      -3.429  -0.611 -32.371  1.00  0.00     0.121 A 
HETATM   14  C   UNL     1      -7.288  -0.946 -34.876  1.00  0.00     0.002 A 
HETATM   15  C   UNL     1      -7.294   0.430 -34.693  1.00  0.00     0.001 A 
BRANCH  11  16
HETATM   16  C   UNL     1      -3.721  -3.005 -32.995  1.00  0.00     0.124 C 
HETATM   17  C   UNL     1      -2.917  -3.378 -31.764  1.00  0.00     0.027 C 
ENDBRANCH  11  16
ENDBRANCH   1   7
BRANCH   3  18
HETATM   18  C   UNL     1      -2.114   4.330 -31.821  1.00  0.00     0.129 C 
BRANCH  18  19
HETATM   19  C   UNL     1      -1.916   5.839 -31.625  1.00  0.00     0.058 C 
BRANCH  19  20
HETATM   20  C   UNL     1      -0.992   6.212 -30.493  1.00  0.00    -0.057 A 
HETATM   21  C   UNL     1      -0.991   7.506 -29.965  1.00  0.00     0.010 A 
HETATM   22  C   UNL     1      -0.163   7.826 -28.885  1.00  0.00     0.037 A 
HETATM   23  C   UNL     1       0.675   6.862 -28.318  1.00  0.00     0.068 A 
HETATM   24  C   UNL     1       0.699   5.579 -28.860  1.00  0.00     0.037 A 
HETATM   25  C   UNL     1      -0.131   5.256 -29.938  1.00  0.00     0.010 A 
BRANCH  23  26
HETATM   26  O   UNL     1       1.416   7.298 -27.254  1.00  0.00    -0.356 OA
HETATM   27  C   UNL     1       1.715   8.689 -27.217  1.00  0.00     0.210 C 
ENDBRANCH  23  26
ENDBRANCH  19  20
ENDBRANCH  18  19
ENDBRANCH   3  18
TORSDOF 6
ENDMDL
MODEL 4
REMARK VINA RESULT:      -8.0      1.516      3.151
REMARK  6 active torsions:
REMARK  status: ('A' for Active; 'I' for Inactive)
REMARK    1  A    between atoms: C_2  and  N_3 
REMARK    2  A    between atoms: C_10  and  N_11 
REMARK       I    between atoms: N_11  and  C_12 
REMARK       I    between atoms: C_12  and  N_13 
REMARK    3  A    between atoms: N_13  and  C_14 
REMARK    4  A    between atoms: C_14  and  C_15 
REMARK    5  A    between atoms: C_15  and  C_16 
REMARK    6  A    between atoms: C_19  and  O_20 
ROOT
HETATM    1  N   UNL     1      -8.431   0.058 -33.549  1.00  0.00    -0.307 N 
HETATM    2  C   UNL     1      -9.184   0.375 -32.456  1.00  0.00     0.320 C 
HETATM    3  N   UNL     1     -10.387   0.966 -32.719  1.00  0.00    -0.343 N 
HETATM    4  O   UNL     1      -8.923   0.142 -31.281  1.00  0.00    -0.247 OA
HETATM    5  H   UNL     1      -8.876   0.146 -34.444  1.00  0.00     0.170 HD
HETATM    6  H   UNL     1     -10.930   1.093 -31.874  1.00  0.00     0.164 HD
ENDROOT
BRANCH   1   7
HETATM    7  C   UNL     1      -7.238  -0.646 -33.563  1.00  0.00     0.064 A 
HETATM    8  C   UNL     1      -6.026  -0.537 -32.806  1.00  0.00     0.019 A 
HETATM    9  C   UNL     1      -5.179  -1.575 -33.230  1.00  0.00     0.046 A 
HETATM   10  C   UNL     1      -5.529   0.346 -31.821  1.00  0.00     0.016 A 
HETATM   11  N   UNL     1      -5.855  -2.273 -34.207  1.00  0.00    -0.354 N 
HETATM   12  C   UNL     1      -3.897  -1.770 -32.687  1.00  0.00     0.030 A 
HETATM   13  C   UNL     1      -7.066  -1.685 -34.455  1.00  0.00     0.121 A 
HETATM   14  C   UNL     1      -3.450  -0.887 -31.703  1.00  0.00     0.002 A 
HETATM   15  C   UNL     1      -4.253   0.162 -31.278  1.00  0.00     0.001 A 
BRANCH  11  16
HETATM   16  C   UNL     1      -5.387  -3.478 -34.871  1.00  0.00     0.124 C 
HETATM   17  C   UNL     1      -6.503  -4.477 -35.113  1.00  0.00     0.027 C 
ENDBRANCH  11  16
ENDBRANCH   1   7
BRANCH   3  18
HETATM   18  C   UNL     1     -11.030   1.298 -33.980  1.00  0.00     0.129 C 
BRANCH  18  19
HETATM   19  C   UNL     1     -11.805   2.622 -33.976  1.00  0.00     0.058 C 
BRANCH  19  20
HETATM   20  C   UNL     1     -13.196   2.536 -33.403  1.00  0.00    -0.057 A 
HETATM   21  C   UNL     1     -14.101   1.571 -33.858  1.00  0.00     0.010 A 
HETATM   22  C   UNL     1     -15.372   1.472 -33.286  1.00  0.00     0.037 A 
HETATM   23  C   UNL     1     -15.760   2.331 -32.254  1.00  0.00     0.068 A 
HETATM   24  C   UNL     1     -14.873   3.312 -31.817  1.00  0.00     0.037 A 
HETATM   25  C   UNL     1     -13.600   3.412 -32.386  1.00  0.00     0.010 A 
BRANCH  23  26
HETATM   26  O   UNL     1     -17.020   2.113 -31.768  1.00  0.00    -0.356 OA
HETATM   27  C   UNL     1     -18.045   2.970 -32.257  1.00  0.00     0.210 C 
ENDBRANCH  23  26
ENDBRANCH  19  20
ENDBRANCH  18  19
ENDBRANCH   3  18
TORSDOF 6
ENDMDL
MODEL 5
REMARK VINA RESULT:      -7.7      2.797      8.458
REMARK  6 active torsions:
REMARK  status: ('A' for Active; 'I' for Inactive)
REMARK    1  A    between atoms: C_2  and  N_3 
REMARK    2  A    between atoms: C_10  and  N_11 
REMARK       I    between atoms: N_11  and  C_12 
REMARK       I    between atoms: C_12  and  N_13 
REMARK    3  A    between atoms: N_13  and  C_14 
REMARK    4  A    between atoms: C_14  and  C_15 
REMARK    5  A    between atoms: C_15  and  C_16 
REMARK    6  A    between atoms: C_19  and  O_20 
ROOT
HETATM    1  N   UNL     1      -9.028   1.559 -32.287  1.00  0.00    -0.307 N 
HETATM    2  C   UNL     1      -8.717   2.182 -31.113  1.00  0.00     0.320 C 
HETATM    3  N   UNL     1      -7.603   1.716 -30.475  1.00  0.00    -0.343 N 
HETATM    4  O   UNL     1      -9.294   3.135 -30.602  1.00  0.00    -0.247 OA
HETATM    5  H   UNL     1      -8.344   0.924 -32.656  1.00  0.00     0.170 HD
HETATM    6  H   UNL     1      -7.379   2.276 -29.662  1.00  0.00     0.164 HD
ENDROOT
BRANCH   1   7
HETATM    7  C   UNL     1     -10.029   1.913 -33.178  1.00  0.00     0.064 A 
HETATM    8  C   UNL     1     -11.284   1.317 -33.530  1.00  0.00     0.019 A 
HETATM    9  C   UNL     1     -11.900   2.171 -34.461  1.00  0.00     0.046 A 
HETATM   10  C   UNL     1     -11.965   0.128 -33.188  1.00  0.00     0.016 A 
HETATM   11  N   UNL     1     -11.043   3.231 -34.664  1.00  0.00    -0.354 N 
HETATM   12  C   UNL     1     -13.159   1.892 -35.019  1.00  0.00     0.030 A 
HETATM   13  C   UNL     1      -9.893   3.053 -33.943  1.00  0.00     0.121 A 
HETATM   14  C   UNL     1     -13.809   0.715 -34.643  1.00  0.00     0.002 A 
HETATM   15  C   UNL     1     -13.218  -0.160 -33.741  1.00  0.00     0.001 A 
BRANCH  11  16
HETATM   16  C   UNL     1     -11.311   4.396 -35.490  1.00  0.00     0.124 C 
HETATM   17  C   UNL     1     -10.952   5.695 -34.794  1.00  0.00     0.027 C 
ENDBRANCH  11  16
ENDBRANCH   1   7
BRANCH   3  18
HETATM   18  C   UNL     1      -6.657   0.675 -30.847  1.00  0.00     0.129 C 
BRANCH  18  19
HETATM   19  C   UNL     1      -5.952   0.899 -32.191  1.00  0.00     0.058 C 
BRANCH  19  20
HETATM   20  C   UNL     1      -5.795  -0.341 -33.034  1.00  0.00    -0.057 A 
HETATM   21  C   UNL     1      -4.591  -1.051 -33.048  1.00  0.00     0.010 A 
HETATM   22  C   UNL     1      -4.474  -2.224 -33.799  1.00  0.00     0.037 A 
HETATM   23  C   UNL     1      -5.553  -2.706 -34.544  1.00  0.00     0.068 A 
HETATM   24  C   UNL     1      -6.746  -1.987 -34.555  1.00  0.00     0.037 A 
HETATM   25  C   UNL     1      -6.867  -0.814 -33.804  1.00  0.00     0.010 A 
BRANCH  23  26
HETATM   26  O   UNL     1      -5.314  -3.875 -35.213  1.00  0.00    -0.356 OA
HETATM   27  C   UNL     1      -6.449  -4.679 -35.511  1.00  0.00     0.210 C 
ENDBRANCH  23  26
ENDBRANCH  19  20
ENDBRANCH  18  19
ENDBRANCH   3  18
TORSDOF 6
ENDMDL
MODEL 6
REMARK VINA RESULT:      -7.7      5.570      9.899
REMARK  6 active torsions:
REMARK  status: ('A' for Active; 'I' for Inactive)
REMARK    1  A    between atoms: C_2  and  N_3 
REMARK    2  A    between atoms: C_10  and  N_11 
REMARK       I    between atoms: N_11  and  C_12 
REMARK       I    between atoms: C_12  and  N_13 
REMARK    3  A    between atoms: N_13  and  C_14 
REMARK    4  A    between atoms: C_14  and  C_15 
REMARK    5  A    between atoms: C_15  and  C_16 
REMARK    6  A    between atoms: C_19  and  O_20 
ROOT
HETATM    1  N   UNL     1      -4.522   1.883 -32.416  1.00  0.00    -0.307 N 
HETATM    2  C   UNL     1      -4.551   2.364 -31.139  1.00  0.00     0.320 C 
HETATM    3  N   UNL     1      -3.628   3.330 -30.852  1.00  0.00    -0.343 N 
HETATM    4  O   UNL     1      -5.337   2.063 -30.249  1.00  0.00    -0.247 OA
HETATM    5  H   UNL     1      -3.939   2.373 -33.070  1.00  0.00     0.170 HD
HETATM    6  H   UNL     1      -3.762   3.705 -29.920  1.00  0.00     0.164 HD
ENDROOT
BRANCH   1   7
HETATM    7  C   UNL     1      -5.416   0.994 -32.991  1.00  0.00     0.064 A 
HETATM    8  C   UNL     1      -5.290  -0.351 -33.469  1.00  0.00     0.019 A 
HETATM    9  C   UNL     1      -6.565  -0.759 -33.895  1.00  0.00     0.046 A 
HETATM   10  C   UNL     1      -4.228  -1.271 -33.620  1.00  0.00     0.016 A 
HETATM   11  N   UNL     1      -7.418   0.303 -33.688  1.00  0.00    -0.354 N 
HETATM   12  C   UNL     1      -6.808  -2.040 -34.423  1.00  0.00     0.030 A 
HETATM   13  C   UNL     1      -6.724   1.377 -33.201  1.00  0.00     0.121 A 
HETATM   14  C   UNL     1      -5.737  -2.926 -34.540  1.00  0.00     0.002 A 
HETATM   15  C   UNL     1      -4.460  -2.547 -34.148  1.00  0.00     0.001 A 
BRANCH  11  16
HETATM   16  C   UNL     1      -8.854   0.297 -33.912  1.00  0.00     0.124 C 
HETATM   17  C   UNL     1      -9.638   0.624 -32.655  1.00  0.00     0.027 C 
ENDBRANCH  11  16
ENDBRANCH   1   7
BRANCH   3  18
HETATM   18  C   UNL     1      -2.624   3.967 -31.688  1.00  0.00     0.129 C 
BRANCH  18  19
HETATM   19  C   UNL     1      -2.700   5.499 -31.727  1.00  0.00     0.058 C 
BRANCH  19  20
HETATM   20  C   UNL     1      -1.657   6.202 -30.895  1.00  0.00    -0.057 A 
HETATM   21  C   UNL     1      -1.996   6.802 -29.678  1.00  0.00     0.010 A 
HETATM   22  C   UNL     1      -1.011   7.411 -28.895  1.00  0.00     0.037 A 
HETATM   23  C   UNL     1       0.323   7.430 -29.311  1.00  0.00     0.068 A 
HETATM   24  C   UNL     1       0.660   6.859 -30.536  1.00  0.00     0.037 A 
HETATM   25  C   UNL     1      -0.323   6.248 -31.321  1.00  0.00     0.010 A 
BRANCH  23  26
HETATM   26  O   UNL     1       1.188   8.036 -28.443  1.00  0.00    -0.356 OA
HETATM   27  C   UNL     1       1.212   7.528 -27.113  1.00  0.00     0.210 C 
ENDBRANCH  23  26
ENDBRANCH  19  20
ENDBRANCH  18  19
ENDBRANCH   3  18
TORSDOF 6
ENDMDL
MODEL 7
REMARK VINA RESULT:      -7.7      5.012      8.916
REMARK  6 active torsions:
REMARK  status: ('A' for Active; 'I' for Inactive)
REMARK    1  A    between atoms: C_2  and  N_3 
REMARK    2  A    between atoms: C_10  and  N_11 
REMARK       I    between atoms: N_11  and  C_12 
REMARK       I    between atoms: C_12  and  N_13 
REMARK    3  A    between atoms: N_13  and  C_14 
REMARK    4  A    between atoms: C_14  and  C_15 
REMARK    5  A    between atoms: C_15  and  C_16 
REMARK    6  A    between atoms: C_19  and  O_20 
ROOT
HETATM    1  N   UNL     1      -5.080   3.659 -32.419  1.00  0.00    -0.307 N 
HETATM    2  C   UNL     1      -5.957   3.658 -33.465  1.00  0.00     0.320 C 
HETATM    3  N   UNL     1      -6.863   2.636 -33.473  1.00  0.00    -0.343 N 
HETATM    4  O   UNL     1      -6.051   4.493 -34.357  1.00  0.00    -0.247 OA
HETATM    5  H   UNL     1      -5.263   3.010 -31.676  1.00  0.00     0.170 HD
HETATM    6  H   UNL     1      -7.537   2.744 -34.222  1.00  0.00     0.164 HD
ENDROOT
BRANCH   1   7
HETATM    7  C   UNL     1      -4.148   4.639 -32.114  1.00  0.00     0.064 A 
HETATM    8  C   UNL     1      -3.051   5.208 -32.841  1.00  0.00     0.019 A 
HETATM    9  C   UNL     1      -2.498   6.214 -32.031  1.00  0.00     0.046 A 
HETATM   10  C   UNL     1      -2.437   4.966 -34.090  1.00  0.00     0.016 A 
HETATM   11  N   UNL     1      -3.230   6.240 -30.864  1.00  0.00    -0.354 N 
HETATM   12  C   UNL     1      -1.398   6.988 -32.440  1.00  0.00     0.030 A 
HETATM   13  C   UNL     1      -4.183   5.259 -30.883  1.00  0.00     0.121 A 
HETATM   14  C   UNL     1      -0.830   6.731 -33.688  1.00  0.00     0.002 A 
HETATM   15  C   UNL     1      -1.339   5.730 -34.503  1.00  0.00     0.001 A 
BRANCH  11  16
HETATM   16  C   UNL     1      -3.058   7.184 -29.772  1.00  0.00     0.124 C 
HETATM   17  C   UNL     1      -4.354   7.460 -29.034  1.00  0.00     0.027 C 
ENDBRANCH  11  16
ENDBRANCH   1   7
BRANCH   3  18
HETATM   18  C   UNL     1      -7.080   1.547 -32.536  1.00  0.00     0.129 C 
BRANCH  18  19
HETATM   19  C   UNL     1      -7.676   0.276 -33.155  1.00  0.00     0.058 C 
BRANCH  19  20
HETATM   20  C   UNL     1      -6.672  -0.808 -33.459  1.00  0.00    -0.057 A 
HETATM   21  C   UNL     1      -6.983  -1.845 -34.344  1.00  0.00     0.010 A 
HETATM   22  C   UNL     1      -6.027  -2.817 -34.652  1.00  0.00     0.037 A 
HETATM   23  C   UNL     1      -4.751  -2.770 -34.085  1.00  0.00     0.068 A 
HETATM   24  C   UNL     1      -4.447  -1.755 -33.180  1.00  0.00     0.037 A 
HETATM   25  C   UNL     1      -5.400  -0.780 -32.872  1.00  0.00     0.010 A 
BRANCH  23  26
HETATM   26  O   UNL     1      -3.905  -3.767 -34.487  1.00  0.00    -0.356 OA
HETATM   27  C   UNL     1      -3.571  -4.747 -33.512  1.00  0.00     0.210 C 
ENDBRANCH  23  26
ENDBRANCH  19  20
ENDBRANCH  18  19
ENDBRANCH   3  18
TORSDOF 6
ENDMDL
MODEL 8
REMARK VINA RESULT:      -7.6      5.461      9.082
REMARK  6 active torsions:
REMARK  status: ('A' for Active; 'I' for Inactive)
REMARK    1  A    between atoms: C_2  and  N_3 
REMARK    2  A    between atoms: C_10  and  N_11 
REMARK       I    between atoms: N_11  and  C_12 
REMARK       I    between atoms: C_12  and  N_13 
REMARK    3  A    between atoms: N_13  and  C_14 
REMARK    4  A    between atoms: C_14  and  C_15 
REMARK    5  A    between atoms: C_15  and  C_16 
REMARK    6  A    between atoms: C_19  and  O_20 
ROOT
HETATM    1  N   UNL     1      -4.546   3.597 -31.593  1.00  0.00    -0.307 N 
HETATM    2  C   UNL     1      -4.010   2.376 -31.298  1.00  0.00     0.320 C 
HETATM    3  N   UNL     1      -4.875   1.321 -31.364  1.00  0.00    -0.343 N 
HETATM    4  O   UNL     1      -2.841   2.122 -31.034  1.00  0.00    -0.247 OA
HETATM    5  H   UNL     1      -5.474   3.602 -31.972  1.00  0.00     0.170 HD
HETATM    6  H   UNL     1      -4.396   0.440 -31.222  1.00  0.00     0.164 HD
ENDROOT
BRANCH   1   7
HETATM    7  C   UNL     1      -3.865   4.798 -31.712  1.00  0.00     0.064 A 
HETATM    8  C   UNL     1      -2.909   5.293 -32.658  1.00  0.00     0.019 A 
HETATM    9  C   UNL     1      -2.615   6.618 -32.293  1.00  0.00     0.046 A 
HETATM   10  C   UNL     1      -2.228   4.760 -33.775  1.00  0.00     0.016 A 
HETATM   11  N   UNL     1      -3.360   6.901 -31.169  1.00  0.00    -0.354 N 
HETATM   12  C   UNL     1      -1.708   7.414 -33.015  1.00  0.00     0.030 A 
HETATM   13  C   UNL     1      -4.066   5.795 -30.780  1.00  0.00     0.121 A 
HETATM   14  C   UNL     1      -1.069   6.857 -34.123  1.00  0.00     0.002 A 
HETATM   15  C   UNL     1      -1.321   5.544 -34.498  1.00  0.00     0.001 A 
BRANCH  11  16
HETATM   16  C   UNL     1      -3.430   8.187 -30.495  1.00  0.00     0.124 C 
HETATM   17  C   UNL     1      -4.602   9.026 -30.966  1.00  0.00     0.027 C 
ENDBRANCH  11  16
ENDBRANCH   1   7
BRANCH   3  18
HETATM   18  C   UNL     1      -6.282   1.264 -31.726  1.00  0.00     0.129 C 
BRANCH  18  19
HETATM   19  C   UNL     1      -6.552   0.981 -33.209  1.00  0.00     0.058 C 
BRANCH  19  20
HETATM   20  C   UNL     1      -6.222  -0.421 -33.654  1.00  0.00    -0.057 A 
HETATM   21  C   UNL     1      -7.231  -1.301 -34.058  1.00  0.00     0.010 A 
HETATM   22  C   UNL     1      -6.907  -2.583 -34.511  1.00  0.00     0.037 A 
HETATM   23  C   UNL     1      -5.577  -3.006 -34.568  1.00  0.00     0.068 A 
HETATM   24  C   UNL     1      -4.571  -2.143 -34.139  1.00  0.00     0.037 A 
HETATM   25  C   UNL     1      -4.891  -0.859 -33.687  1.00  0.00     0.010 A 
BRANCH  23  26
HETATM   26  O   UNL     1      -5.395  -4.272 -35.051  1.00  0.00    -0.356 OA
HETATM   27  C   UNL     1      -4.656  -5.166 -34.227  1.00  0.00     0.210 C 
ENDBRANCH  23  26
ENDBRANCH  19  20
ENDBRANCH  18  19
ENDBRANCH   3  18
TORSDOF 6
ENDMDL
MODEL 9
REMARK VINA RESULT:      -7.6      4.003      7.340
REMARK  6 active torsions:
REMARK  status: ('A' for Active; 'I' for Inactive)
REMARK    1  A    between atoms: C_2  and  N_3 
REMARK    2  A    between atoms: C_10  and  N_11 
REMARK       I    between atoms: N_11  and  C_12 
REMARK       I    between atoms: C_12  and  N_13 
REMARK    3  A    between atoms: N_13  and  C_14 
REMARK    4  A    between atoms: C_14  and  C_15 
REMARK    5  A    between atoms: C_15  and  C_16 
REMARK    6  A    between atoms: C_19  and  O_20 
ROOT
HETATM    1  N   UNL     1      -3.757   1.323 -32.492  1.00  0.00    -0.307 N 
HETATM    2  C   UNL     1      -3.159   0.281 -31.845  1.00  0.00     0.320 C 
HETATM    3  N   UNL     1      -3.292  -0.939 -32.446  1.00  0.00    -0.343 N 
HETATM    4  O   UNL     1      -2.482   0.328 -30.825  1.00  0.00    -0.247 OA
HETATM    5  H   UNL     1      -4.110   1.141 -33.413  1.00  0.00     0.170 HD
HETATM    6  H   UNL     1      -2.752  -1.649 -31.965  1.00  0.00     0.164 HD
ENDROOT
BRANCH   1   7
HETATM    7  C   UNL     1      -3.674   2.667 -32.159  1.00  0.00     0.064 A 
HETATM    8  C   UNL     1      -4.356   3.482 -31.198  1.00  0.00     0.019 A 
HETATM    9  C   UNL     1      -3.802   4.771 -31.283  1.00  0.00     0.046 A 
HETATM   10  C   UNL     1      -5.409   3.286 -30.277  1.00  0.00     0.016 A 
HETATM   11  N   UNL     1      -2.833   4.729 -32.262  1.00  0.00    -0.354 N 
HETATM   12  C   UNL     1      -4.237   5.832 -30.470  1.00  0.00     0.030 A 
HETATM   13  C   UNL     1      -2.792   3.486 -32.833  1.00  0.00     0.121 A 
HETATM   14  C   UNL     1      -5.267   5.594 -29.559  1.00  0.00     0.002 A 
HETATM   15  C   UNL     1      -5.850   4.338 -29.465  1.00  0.00     0.001 A 
BRANCH  11  16
HETATM   16  C   UNL     1      -1.947   5.820 -32.630  1.00  0.00     0.124 C 
HETATM   17  C   UNL     1      -1.420   5.688 -34.046  1.00  0.00     0.027 C 
ENDBRANCH  11  16
ENDBRANCH   1   7
BRANCH   3  18
HETATM   18  C   UNL     1      -3.944  -1.325 -33.687  1.00  0.00     0.129 C 
BRANCH  18  19
HETATM   19  C   UNL     1      -5.345  -1.926 -33.516  1.00  0.00     0.058 C 
BRANCH  19  20
HETATM   20  C   UNL     1      -6.477  -0.953 -33.726  1.00  0.00    -0.057 A 
HETATM   21  C   UNL     1      -7.041  -0.264 -32.647  1.00  0.00     0.010 A 
HETATM   22  C   UNL     1      -8.059   0.669 -32.862  1.00  0.00     0.037 A 
HETATM   23  C   UNL     1      -8.529   0.929 -34.151  1.00  0.00     0.068 A 
HETATM   24  C   UNL     1      -7.991   0.225 -35.226  1.00  0.00     0.037 A 
HETATM   25  C   UNL     1      -6.971  -0.707 -35.014  1.00  0.00     0.010 A 
BRANCH  23  26
HETATM   26  O   UNL     1      -9.510   1.880 -34.225  1.00  0.00    -0.356 OA
HETATM   27  C   UNL     1      -9.114   3.221 -33.964  1.00  0.00     0.210 C 
ENDBRANCH  23  26
ENDBRANCH  19  20
ENDBRANCH  18  19
ENDBRANCH   3  18
TORSDOF 6
ENDMDL
MODEL 10
REMARK VINA RESULT:      -7.6      7.185     11.648
REMARK  6 active torsions:
REMARK  status: ('A' for Active; 'I' for Inactive)
REMARK    1  A    between atoms: C_2  and  N_3 
REMARK    2  A    between atoms: C_10  and  N_11 
REMARK       I    between atoms: N_11  and  C_12 
REMARK       I    between atoms: C_12  and  N_13 
REMARK    3  A    between atoms: N_13  and  C_14 
REMARK    4  A    between atoms: C_14  and  C_15 
REMARK    5  A    between atoms: C_15  and  C_16 
REMARK    6  A    between atoms: C_19  and  O_20 
ROOT
HETATM    1  N   UNL     1      -2.858   3.867 -31.108  1.00  0.00    -0.307 N 
HETATM    2  C   UNL     1      -2.121   4.336 -32.156  1.00  0.00     0.320 C 
HETATM    3  N   UNL     1      -0.983   5.013 -31.821  1.00  0.00    -0.343 N 
HETATM    4  O   UNL     1      -2.340   4.172 -33.351  1.00  0.00    -0.247 OA
HETATM    5  H   UNL     1      -2.438   3.925 -30.199  1.00  0.00     0.170 HD
HETATM    6  H   UNL     1      -0.439   5.254 -32.641  1.00  0.00     0.164 HD
ENDROOT
BRANCH   1   7
HETATM    7  C   UNL     1      -3.981   3.057 -31.175  1.00  0.00     0.064 A 
HETATM    8  C   UNL     1      -4.201   1.725 -31.656  1.00  0.00     0.019 A 
HETATM    9  C   UNL     1      -5.548   1.414 -31.406  1.00  0.00     0.046 A 
HETATM   10  C   UNL     1      -3.417   0.746 -32.305  1.00  0.00     0.016 A 
HETATM   11  N   UNL     1      -6.114   2.520 -30.809  1.00  0.00    -0.354 N 
HETATM   12  C   UNL     1      -6.110   0.172 -31.750  1.00  0.00     0.030 A 
HETATM   13  C   UNL     1      -5.195   3.530 -30.721  1.00  0.00     0.121 A 
HETATM   14  C   UNL     1      -5.298  -0.776 -32.374  1.00  0.00     0.002 A 
HETATM   15  C   UNL     1      -3.968  -0.492 -32.654  1.00  0.00     0.001 A 
BRANCH  11  16
HETATM   16  C   UNL     1      -7.473   2.613 -30.304  1.00  0.00     0.124 C 
HETATM   17  C   UNL     1      -8.456   3.069 -31.367  1.00  0.00     0.027 C 
ENDBRANCH  11  16
ENDBRANCH   1   7
BRANCH   3  18
HETATM   18  C   UNL     1      -0.394   5.303 -30.524  1.00  0.00     0.129 C 
BRANCH  18  19
HETATM   19  C   UNL     1       0.123   6.738 -30.360  1.00  0.00     0.058 C 
BRANCH  19  20
HETATM   20  C   UNL     1       0.485   7.120 -28.947  1.00  0.00    -0.057 A 
HETATM   21  C   UNL     1       1.226   8.276 -28.684  1.00  0.00     0.010 A 
HETATM   22  C   UNL     1       1.515   8.643 -27.367  1.00  0.00     0.037 A 
HETATM   23  C   UNL     1       1.072   7.864 -26.295  1.00  0.00     0.068 A 
HETATM   24  C   UNL     1       0.357   6.696 -26.553  1.00  0.00     0.037 A 
HETATM   25  C   UNL     1       0.064   6.329 -27.869  1.00  0.00     0.010 A 
BRANCH  23  26
HETATM   26  O   UNL     1       1.402   8.346 -25.058  1.00  0.00    -0.356 OA
HETATM   27  C   UNL     1       2.731   8.832 -24.901  1.00  0.00     0.210 C 
ENDBRANCH  23  26
ENDBRANCH  19  20
ENDBRANCH  18  19
ENDBRANCH   3  18
TORSDOF 6
ENDMDL
