MODEL 1
REMARK VINA RESULT:      -8.3      0.000      0.000
REMARK  9 active torsions:
REMARK  status: ('A' for Active; 'I' for Inactive)
REMARK    1  A    between atoms: C_2  and  N_3 
REMARK    2  A    between atoms: N_3  and  C_4 
REMARK    3  A    between atoms: C_4  and  N_5 
REMARK    4  A    between atoms: N_8  and  C_10 
REMARK    5  A    between atoms: C_10  and  C_11 
REMARK    6  A    between atoms: C_11  and  N_12 
REMARK    7  A    between atoms: C_13  and  C_14 
REMARK    8  A    between atoms: N_17  and  C_18 
REMARK    9  A    between atoms: C_28  and  C_29 
ROOT
HETATM    1  C   UNL     1      -5.436   1.026 -33.147  1.00  0.00     0.085 C 
HETATM    2  C   UNL     1      -5.065   2.463 -32.918  1.00  0.00     0.278 C 
HETATM    3  O   UNL     1      -5.862   3.377 -33.035  1.00  0.00    -0.265 OA
HETATM    4  N   UNL     1      -3.732   2.464 -32.530  1.00  0.00    -0.212 N 
HETATM    5  N   UNL     1      -3.257   1.154 -32.542  1.00  0.00    -0.189 NA
HETATM    6  C   UNL     1      -4.335   0.316 -32.824  1.00  0.00     0.130 C 
HETATM    7  H   UNL     1      -2.627   0.896 -31.777  1.00  0.00     0.153 HD
ENDROOT
BRANCH   1   8
HETATM    8  C   UNL     1      -6.740   0.524 -33.654  1.00  0.00     0.042 C 
HETATM    9  N   UNL     1      -7.621   0.081 -32.809  1.00  0.00    -0.292 NA
HETATM   10  C   UNL     1      -6.951   0.572 -35.158  1.00  0.00     0.071 C 
BRANCH   9  11
HETATM   11  C   UNL     1      -8.886  -0.458 -33.327  1.00  0.00     0.176 C 
BRANCH  11  12
HETATM   12  C   UNL     1     -10.052   0.359 -32.756  1.00  0.00     0.256 C 
BRANCH  12  13
HETATM   13  N   UNL     1     -10.671   1.245 -33.819  1.00  0.00    -0.066 N 
HETATM   14  C   UNL     1     -12.196   1.176 -33.851  1.00  0.00     0.254 C 
HETATM   15  C   UNL     1     -12.763   2.135 -34.917  1.00  0.00     0.153 C 
HETATM   16  N   UNL     1     -12.290   3.505 -34.669  1.00  0.00    -0.355 N 
HETATM   17  C   UNL     1     -10.823   3.609 -34.700  1.00  0.00     0.153 C 
HETATM   18  C   UNL     1     -10.156   2.675 -33.679  1.00  0.00     0.254 C 
HETATM   19  H   UNL     1     -10.332   0.851 -34.717  1.00  0.00     0.280 HD
BRANCH  16  20
HETATM   20  C   UNL     1     -13.081   4.352 -33.871  1.00  0.00     0.169 C 
HETATM   21  S   UNL     1     -12.643   5.905 -33.427  1.00  0.00    -0.041 SA
BRANCH  20  22
HETATM   22  N   UNL     1     -14.249   3.726 -33.478  1.00  0.00    -0.367 N 
HETATM   23  H   UNL     1     -15.026   3.918 -34.096  1.00  0.00     0.161 HD
BRANCH  22  24
HETATM   24  C   UNL     1     -14.626   3.439 -32.095  1.00  0.00     0.117 C 
HETATM   25  C   UNL     1     -15.490   2.195 -32.005  1.00  0.00     0.026 C 
ENDBRANCH  22  24
ENDBRANCH  20  22
ENDBRANCH  16  20
ENDBRANCH  12  13
ENDBRANCH  11  12
ENDBRANCH   9  11
ENDBRANCH   1   8
BRANCH   6  26
HETATM   26  C   UNL     1      -4.209  -1.180 -32.782  1.00  0.00     0.430 C 
HETATM   27  F   UNL     1      -3.003  -1.564 -32.284  1.00  0.00    -0.165 F 
HETATM   28  F   UNL     1      -5.143  -1.774 -31.980  1.00  0.00    -0.165 F 
HETATM   29  F   UNL     1      -4.330  -1.753 -34.006  1.00  0.00    -0.165 F 
ENDBRANCH   6  26
BRANCH   4  30
HETATM   30  C   UNL     1      -2.903   3.545 -32.304  1.00  0.00     0.192 A 
HETATM   31  S   UNL     1      -2.800   4.811 -33.442  1.00  0.00    -0.048 SA
HETATM   32  C   UNL     1      -1.605   5.588 -32.483  1.00  0.00     0.037 A 
HETATM   33  C   UNL     1      -1.388   4.828 -31.332  1.00  0.00     0.076 A 
HETATM   34  C   UNL     1      -0.906   6.780 -32.734  1.00  0.00     0.021 A 
HETATM   35  N   UNL     1      -2.155   3.674 -31.231  1.00  0.00    -0.222 NA
HETATM   36  C   UNL     1      -0.431   5.277 -30.398  1.00  0.00     0.033 A 
HETATM   37  C   UNL     1       0.277   6.459 -30.641  1.00  0.00     0.002 A 
HETATM   38  C   UNL     1       0.041   7.200 -31.795  1.00  0.00     0.002 A 
ENDBRANCH   4  30
TORSDOF 9
ENDMDL
MODEL 2
REMARK VINA RESULT:      -8.2      4.399      9.981
REMARK  9 active torsions:
REMARK  status: ('A' for Active; 'I' for Inactive)
REMARK    1  A    between atoms: C_2  and  N_3 
REMARK    2  A    between atoms: N_3  and  C_4 
REMARK    3  A    between atoms: C_4  and  N_5 
REMARK    4  A    between atoms: N_8  and  C_10 
REMARK    5  A    between atoms: C_10  and  C_11 
REMARK    6  A    between atoms: C_11  and  N_12 
REMARK    7  A    between atoms: C_13  and  C_14 
REMARK    8  A    between atoms: N_17  and  C_18 
REMARK    9  A    between atoms: C_28  and  C_29 
ROOT
HETATM    1  C   UNL     1      -5.562   3.214 -33.002  1.00  0.00     0.085 C 
HETATM    2  C   UNL     1      -4.955   1.842 -33.024  1.00  0.00     0.278 C 
HETATM    3  O   UNL     1      -3.835   1.609 -32.602  1.00  0.00    -0.265 OA
HETATM    4  N   UNL     1      -5.922   0.995 -33.548  1.00  0.00    -0.212 N 
HETATM    5  N   UNL     1      -7.047   1.746 -33.879  1.00  0.00    -0.189 NA
HETATM    6  C   UNL     1      -6.826   3.053 -33.448  1.00  0.00     0.130 C 
HETATM    7  H   UNL     1      -7.953   1.314 -33.676  1.00  0.00     0.153 HD
ENDROOT
BRANCH   1   8
HETATM    8  C   UNL     1      -4.881   4.473 -32.599  1.00  0.00     0.042 C 
HETATM    9  N   UNL     1      -4.166   5.114 -33.473  1.00  0.00    -0.292 NA
HETATM   10  C   UNL     1      -5.081   4.927 -31.163  1.00  0.00     0.071 C 
BRANCH   9  11
HETATM   11  C   UNL     1      -3.459   6.330 -33.049  1.00  0.00     0.176 C 
BRANCH  11  12
HETATM   12  C   UNL     1      -2.052   6.334 -33.661  1.00  0.00     0.256 C 
BRANCH  12  13
HETATM   13  N   UNL     1      -0.991   6.182 -32.589  1.00  0.00    -0.066 N 
HETATM   14  C   UNL     1      -0.739   7.466 -31.802  1.00  0.00     0.254 C 
HETATM   15  C   UNL     1       0.312   7.231 -30.698  1.00  0.00     0.153 C 
HETATM   16  N   UNL     1      -0.116   6.135 -29.817  1.00  0.00    -0.355 N 
HETATM   17  C   UNL     1      -0.301   4.868 -30.542  1.00  0.00     0.153 C 
HETATM   18  C   UNL     1      -1.323   4.999 -31.681  1.00  0.00     0.254 C 
HETATM   19  H   UNL     1      -0.120   5.971 -33.111  1.00  0.00     0.280 HD
BRANCH  16  20
HETATM   20  C   UNL     1      -0.863   6.451 -28.668  1.00  0.00     0.169 C 
HETATM   21  S   UNL     1      -2.273   7.352 -28.680  1.00  0.00    -0.041 SA
BRANCH  20  22
HETATM   22  N   UNL     1      -0.266   5.950 -27.526  1.00  0.00    -0.367 N 
HETATM   23  H   UNL     1      -0.597   5.025 -27.282  1.00  0.00     0.161 HD
BRANCH  22  24
HETATM   24  C   UNL     1       0.193   6.752 -26.393  1.00  0.00     0.117 C 
HETATM   25  C   UNL     1       1.457   7.519 -26.734  1.00  0.00     0.026 C 
ENDBRANCH  22  24
ENDBRANCH  20  22
ENDBRANCH  16  20
ENDBRANCH  12  13
ENDBRANCH  11  12
ENDBRANCH   9  11
ENDBRANCH   1   8
BRANCH   6  26
HETATM   26  C   UNL     1      -7.895   4.105 -33.523  1.00  0.00     0.430 C 
HETATM   27  F   UNL     1      -8.302   4.492 -32.285  1.00  0.00    -0.165 F 
HETATM   28  F   UNL     1      -7.478   5.250 -34.145  1.00  0.00    -0.165 F 
HETATM   29  F   UNL     1      -9.001   3.687 -34.188  1.00  0.00    -0.165 F 
ENDBRANCH   6  26
BRANCH   4  30
HETATM   30  C   UNL     1      -5.812  -0.345 -33.865  1.00  0.00     0.192 A 
HETATM   31  S   UNL     1      -7.091  -1.159 -34.643  1.00  0.00    -0.048 SA
HETATM   32  C   UNL     1      -6.210  -2.632 -34.572  1.00  0.00     0.037 A 
HETATM   33  C   UNL     1      -4.972  -2.386 -33.975  1.00  0.00     0.076 A 
HETATM   34  C   UNL     1      -6.589  -3.913 -35.007  1.00  0.00     0.021 A 
HETATM   35  N   UNL     1      -4.748  -1.069 -33.597  1.00  0.00    -0.222 NA
HETATM   36  C   UNL     1      -4.081  -3.465 -33.804  1.00  0.00     0.033 A 
HETATM   37  C   UNL     1      -4.450  -4.747 -34.226  1.00  0.00     0.002 A 
HETATM   38  C   UNL     1      -5.689  -4.965 -34.820  1.00  0.00     0.002 A 
ENDBRANCH   4  30
TORSDOF 9
ENDMDL
MODEL 3
REMARK VINA RESULT:      -8.2      5.063      9.613
REMARK  9 active torsions:
REMARK  status: ('A' for Active; 'I' for Inactive)
REMARK    1  A    between atoms: C_2  and  N_3 
REMARK    2  A    between atoms: N_3  and  C_4 
REMARK    3  A    between atoms: C_4  and  N_5 
REMARK    4  A    between atoms: N_8  and  C_10 
REMARK    5  A    between atoms: C_10  and  C_11 
REMARK    6  A    between atoms: C_11  and  N_12 
REMARK    7  A    between atoms: C_13  and  C_14 
REMARK    8  A    between atoms: N_17  and  C_18 
REMARK    9  A    between atoms: C_28  and  C_29 
ROOT
HETATM    1  C   UNL     1      -5.171   3.073 -31.798  1.00  0.00     0.085 C 
HETATM    2  C   UNL     1      -5.828   1.768 -32.143  1.00  0.00     0.278 C 
HETATM    3  O   UNL     1      -7.014   1.558 -31.959  1.00  0.00    -0.265 OA
HETATM    4  N   UNL     1      -4.843   0.974 -32.713  1.00  0.00    -0.212 N 
HETATM    5  N   UNL     1      -3.639   1.674 -32.706  1.00  0.00    -0.189 NA
HETATM    6  C   UNL     1      -3.900   2.961 -32.238  1.00  0.00     0.130 C 
HETATM    7  H   UNL     1      -3.052   1.569 -33.539  1.00  0.00     0.153 HD
ENDROOT
BRANCH   1   8
HETATM    8  C   UNL     1      -5.803   4.218 -31.091  1.00  0.00     0.042 C 
HETATM    9  N   UNL     1      -5.582   4.379 -29.822  1.00  0.00    -0.292 NA
HETATM   10  C   UNL     1      -6.676   5.138 -31.928  1.00  0.00     0.071 C 
BRANCH   9  11
HETATM   11  C   UNL     1      -6.251   5.486 -29.125  1.00  0.00     0.176 C 
BRANCH  11  12
HETATM   12  C   UNL     1      -5.601   5.682 -27.749  1.00  0.00     0.256 C 
BRANCH  12  13
HETATM   13  N   UNL     1      -4.570   6.792 -27.785  1.00  0.00    -0.066 N 
HETATM   14  C   UNL     1      -3.625   6.778 -26.586  1.00  0.00     0.254 C 
HETATM   15  C   UNL     1      -2.572   7.899 -26.708  1.00  0.00     0.153 C 
HETATM   16  N   UNL     1      -1.838   7.768 -27.975  1.00  0.00    -0.355 N 
HETATM   17  C   UNL     1      -2.721   7.845 -29.149  1.00  0.00     0.153 C 
HETATM   18  C   UNL     1      -3.822   6.774 -29.116  1.00  0.00     0.254 C 
HETATM   19  H   UNL     1      -5.125   7.666 -27.722  1.00  0.00     0.280 HD
BRANCH  16  20
HETATM   20  C   UNL     1      -0.649   7.016 -27.985  1.00  0.00     0.169 C 
HETATM   21  S   UNL     1       0.654   7.302 -26.974  1.00  0.00    -0.041 SA
BRANCH  20  22
HETATM   22  N   UNL     1      -0.684   6.034 -28.957  1.00  0.00    -0.367 N 
HETATM   23  H   UNL     1      -1.318   5.278 -28.730  1.00  0.00     0.161 HD
BRANCH  22  24
HETATM   24  C   UNL     1       0.440   5.652 -29.810  1.00  0.00     0.117 C 
HETATM   25  C   UNL     1       0.466   6.469 -31.088  1.00  0.00     0.026 C 
ENDBRANCH  22  24
ENDBRANCH  20  22
ENDBRANCH  16  20
ENDBRANCH  12  13
ENDBRANCH  11  12
ENDBRANCH   9  11
ENDBRANCH   1   8
BRANCH   6  26
HETATM   26  C   UNL     1      -2.846   4.030 -32.228  1.00  0.00     0.430 C 
HETATM   27  F   UNL     1      -1.990   3.897 -33.276  1.00  0.00    -0.165 F 
HETATM   28  F   UNL     1      -3.362   5.292 -32.335  1.00  0.00    -0.165 F 
HETATM   29  F   UNL     1      -2.092   4.017 -31.100  1.00  0.00    -0.165 F 
ENDBRANCH   6  26
BRANCH   4  30
HETATM   30  C   UNL     1      -4.923  -0.349 -33.102  1.00  0.00     0.192 A 
HETATM   31  S   UNL     1      -3.638  -1.424 -32.786  1.00  0.00    -0.048 SA
HETATM   32  C   UNL     1      -4.477  -2.682 -33.602  1.00  0.00     0.037 A 
HETATM   33  C   UNL     1      -5.708  -2.190 -34.040  1.00  0.00     0.076 A 
HETATM   34  C   UNL     1      -4.073  -4.005 -33.844  1.00  0.00     0.021 A 
HETATM   35  N   UNL     1      -5.961  -0.861 -33.725  1.00  0.00    -0.222 NA
HETATM   36  C   UNL     1      -6.566  -3.055 -34.750  1.00  0.00     0.033 A 
HETATM   37  C   UNL     1      -6.171  -4.373 -35.003  1.00  0.00     0.002 A 
HETATM   38  C   UNL     1      -4.940  -4.840 -34.554  1.00  0.00     0.002 A 
ENDBRANCH   4  30
TORSDOF 9
ENDMDL
MODEL 4
REMARK VINA RESULT:      -8.2      4.532      6.792
REMARK  9 active torsions:
REMARK  status: ('A' for Active; 'I' for Inactive)
REMARK    1  A    between atoms: C_2  and  N_3 
REMARK    2  A    between atoms: N_3  and  C_4 
REMARK    3  A    between atoms: C_4  and  N_5 
REMARK    4  A    between atoms: N_8  and  C_10 
REMARK    5  A    between atoms: C_10  and  C_11 
REMARK    6  A    between atoms: C_11  and  N_12 
REMARK    7  A    between atoms: C_13  and  C_14 
REMARK    8  A    between atoms: N_17  and  C_18 
REMARK    9  A    between atoms: C_28  and  C_29 
ROOT
HETATM    1  C   UNL     1      -3.393   5.811 -31.927  1.00  0.00     0.085 C 
HETATM    2  C   UNL     1      -3.031   6.218 -30.529  1.00  0.00     0.278 C 
HETATM    3  O   UNL     1      -3.821   6.169 -29.602  1.00  0.00    -0.265 OA
HETATM    4  N   UNL     1      -1.690   6.574 -30.561  1.00  0.00    -0.212 N 
HETATM    5  N   UNL     1      -1.222   6.454 -31.868  1.00  0.00    -0.189 NA
HETATM    6  C   UNL     1      -2.248   5.903 -32.635  1.00  0.00     0.130 C 
HETATM    7  H   UNL     1      -0.278   6.075 -31.975  1.00  0.00     0.153 HD
ENDROOT
BRANCH   1   8
HETATM    8  C   UNL     1      -4.745   5.424 -32.410  1.00  0.00     0.042 C 
HETATM    9  N   UNL     1      -5.016   4.169 -32.598  1.00  0.00    -0.292 NA
HETATM   10  C   UNL     1      -5.734   6.554 -32.647  1.00  0.00     0.071 C 
BRANCH   9  11
HETATM   11  C   UNL     1      -6.340   3.804 -33.121  1.00  0.00     0.176 C 
BRANCH  11  12
HETATM   12  C   UNL     1      -7.234   3.352 -31.959  1.00  0.00     0.256 C 
BRANCH  12  13
HETATM   13  N   UNL     1      -7.407   1.846 -31.958  1.00  0.00    -0.066 N 
HETATM   14  C   UNL     1      -7.664   1.266 -33.347  1.00  0.00     0.254 C 
HETATM   15  C   UNL     1      -7.781  -0.270 -33.283  1.00  0.00     0.153 C 
HETATM   16  N   UNL     1      -6.573  -0.846 -32.674  1.00  0.00    -0.355 N 
HETATM   17  C   UNL     1      -6.341  -0.352 -31.307  1.00  0.00     0.153 C 
HETATM   18  C   UNL     1      -6.225   1.179 -31.258  1.00  0.00     0.254 C 
HETATM   19  H   UNL     1      -8.266   1.682 -31.399  1.00  0.00     0.280 HD
BRANCH  16  20
HETATM   20  C   UNL     1      -5.515  -1.228 -33.517  1.00  0.00     0.169 C 
HETATM   21  S   UNL     1      -3.920  -0.775 -33.291  1.00  0.00    -0.041 SA
BRANCH  20  22
HETATM   22  N   UNL     1      -5.966  -2.000 -34.572  1.00  0.00    -0.367 N 
HETATM   23  H   UNL     1      -6.966  -1.925 -34.715  1.00  0.00     0.161 HD
BRANCH  22  24
HETATM   24  C   UNL     1      -5.383  -3.271 -34.996  1.00  0.00     0.117 C 
HETATM   25  C   UNL     1      -6.446  -4.342 -35.158  1.00  0.00     0.026 C 
ENDBRANCH  22  24
ENDBRANCH  20  22
ENDBRANCH  16  20
ENDBRANCH  12  13
ENDBRANCH  11  12
ENDBRANCH   9  11
ENDBRANCH   1   8
BRANCH   6  26
HETATM   26  C   UNL     1      -2.042   5.510 -34.070  1.00  0.00     0.430 C 
HETATM   27  F   UNL     1      -2.981   6.067 -34.879  1.00  0.00    -0.165 F 
HETATM   28  F   UNL     1      -0.838   5.919 -34.571  1.00  0.00    -0.165 F 
HETATM   29  F   UNL     1      -2.103   4.168 -34.262  1.00  0.00    -0.165 F 
ENDBRANCH   6  26
BRANCH   4  30
HETATM   30  C   UNL     1      -0.919   7.115 -29.551  1.00  0.00     0.192 A 
HETATM   31  S   UNL     1       0.310   6.193 -28.810  1.00  0.00    -0.048 SA
HETATM   32  C   UNL     1       0.648   7.490 -27.736  1.00  0.00     0.037 A 
HETATM   33  C   UNL     1      -0.195   8.560 -28.043  1.00  0.00     0.076 A 
HETATM   34  C   UNL     1       1.586   7.554 -26.692  1.00  0.00     0.021 A 
HETATM   35  N   UNL     1      -1.070   8.340 -29.100  1.00  0.00    -0.222 NA
HETATM   36  C   UNL     1      -0.098   9.738 -27.274  1.00  0.00     0.033 A 
HETATM   37  C   UNL     1       0.828   9.811 -26.227  1.00  0.00     0.002 A 
HETATM   38  C   UNL     1       1.659   8.732 -25.942  1.00  0.00     0.002 A 
ENDBRANCH   4  30
TORSDOF 9
ENDMDL
MODEL 5
REMARK VINA RESULT:      -8.1      3.292      6.132
REMARK  9 active torsions:
REMARK  status: ('A' for Active; 'I' for Inactive)
REMARK    1  A    between atoms: C_2  and  N_3 
REMARK    2  A    between atoms: N_3  and  C_4 
REMARK    3  A    between atoms: C_4  and  N_5 
REMARK    4  A    between atoms: N_8  and  C_10 
REMARK    5  A    between atoms: C_10  and  C_11 
REMARK    6  A    between atoms: C_11  and  N_12 
REMARK    7  A    between atoms: C_13  and  C_14 
REMARK    8  A    between atoms: N_17  and  C_18 
REMARK    9  A    between atoms: C_28  and  C_29 
ROOT
HETATM    1  C   UNL     1      -5.602   2.966 -31.861  1.00  0.00     0.085 C 
HETATM    2  C   UNL     1      -6.172   1.618 -32.191  1.00  0.00     0.278 C 
HETATM    3  O   UNL     1      -7.338   1.326 -31.988  1.00  0.00    -0.265 OA
HETATM    4  N   UNL     1      -5.143   0.891 -32.773  1.00  0.00    -0.212 N 
HETATM    5  N   UNL     1      -3.990   1.674 -32.787  1.00  0.00    -0.189 NA
HETATM    6  C   UNL     1      -4.333   2.941 -32.319  1.00  0.00     0.130 C 
HETATM    7  H   UNL     1      -3.410   1.606 -33.628  1.00  0.00     0.153 HD
ENDROOT
BRANCH   1   8
HETATM    8  C   UNL     1      -6.302   4.068 -31.148  1.00  0.00     0.042 C 
HETATM    9  N   UNL     1      -7.117   4.833 -31.809  1.00  0.00    -0.292 NA
HETATM   10  C   UNL     1      -6.009   4.215 -29.665  1.00  0.00     0.071 C 
BRANCH   9  11
HETATM   11  C   UNL     1      -7.765   5.948 -31.104  1.00  0.00     0.176 C 
BRANCH  11  12
HETATM   12  C   UNL     1      -9.246   5.612 -30.884  1.00  0.00     0.256 C 
BRANCH  12  13
HETATM   13  N   UNL     1      -9.804   4.818 -32.048  1.00  0.00    -0.066 N 
HETATM   14  C   UNL     1     -10.293   3.427 -31.652  1.00  0.00     0.254 C 
HETATM   15  C   UNL     1     -10.893   2.693 -32.868  1.00  0.00     0.153 C 
HETATM   16  N   UNL     1     -11.974   3.494 -33.460  1.00  0.00    -0.355 N 
HETATM   17  C   UNL     1     -11.512   4.817 -33.911  1.00  0.00     0.153 C 
HETATM   18  C   UNL     1     -10.879   5.627 -32.771  1.00  0.00     0.254 C 
HETATM   19  H   UNL     1      -8.997   4.685 -32.685  1.00  0.00     0.280 HD
BRANCH  16  20
HETATM   20  C   UNL     1     -13.290   3.276 -33.016  1.00  0.00     0.169 C 
HETATM   21  S   UNL     1     -13.943   3.960 -31.635  1.00  0.00    -0.041 SA
BRANCH  20  22
HETATM   22  N   UNL     1     -13.964   2.402 -33.849  1.00  0.00    -0.367 N 
HETATM   23  H   UNL     1     -14.495   2.875 -34.569  1.00  0.00     0.161 HD
BRANCH  22  24
HETATM   24  C   UNL     1     -14.500   1.102 -33.449  1.00  0.00     0.117 C 
HETATM   25  C   UNL     1     -13.511  -0.014 -33.734  1.00  0.00     0.026 C 
ENDBRANCH  22  24
ENDBRANCH  20  22
ENDBRANCH  16  20
ENDBRANCH  12  13
ENDBRANCH  11  12
ENDBRANCH   9  11
ENDBRANCH   1   8
BRANCH   6  26
HETATM   26  C   UNL     1      -3.357   4.082 -32.329  1.00  0.00     0.430 C 
HETATM   27  F   UNL     1      -3.888   5.188 -32.915  1.00  0.00    -0.165 F 
HETATM   28  F   UNL     1      -2.982   4.478 -31.075  1.00  0.00    -0.165 F 
HETATM   29  F   UNL     1      -2.214   3.791 -32.999  1.00  0.00    -0.165 F 
ENDBRANCH   6  26
BRANCH   4  30
HETATM   30  C   UNL     1      -5.135  -0.436 -33.156  1.00  0.00     0.192 A 
HETATM   31  S   UNL     1      -3.785  -1.424 -32.831  1.00  0.00    -0.048 SA
HETATM   32  C   UNL     1      -4.538  -2.737 -33.644  1.00  0.00     0.037 A 
HETATM   33  C   UNL     1      -5.797  -2.328 -34.087  1.00  0.00     0.076 A 
HETATM   34  C   UNL     1      -4.048  -4.032 -33.878  1.00  0.00     0.021 A 
HETATM   35  N   UNL     1      -6.136  -1.016 -33.780  1.00  0.00    -0.222 NA
HETATM   36  C   UNL     1      -6.595  -3.250 -34.795  1.00  0.00     0.033 A 
HETATM   37  C   UNL     1      -6.115  -4.541 -35.042  1.00  0.00     0.002 A 
HETATM   38  C   UNL     1      -4.857  -4.925 -34.587  1.00  0.00     0.002 A 
ENDBRANCH   4  30
TORSDOF 9
ENDMDL
MODEL 6
REMARK VINA RESULT:      -8.1      4.365      9.866
REMARK  9 active torsions:
REMARK  status: ('A' for Active; 'I' for Inactive)
REMARK    1  A    between atoms: C_2  and  N_3 
REMARK    2  A    between atoms: N_3  and  C_4 
REMARK    3  A    between atoms: C_4  and  N_5 
REMARK    4  A    between atoms: N_8  and  C_10 
REMARK    5  A    between atoms: C_10  and  C_11 
REMARK    6  A    between atoms: C_11  and  N_12 
REMARK    7  A    between atoms: C_13  and  C_14 
REMARK    8  A    between atoms: N_17  and  C_18 
REMARK    9  A    between atoms: C_28  and  C_29 
ROOT
HETATM    1  C   UNL     1      -6.056   2.798 -31.850  1.00  0.00     0.085 C 
HETATM    2  C   UNL     1      -5.299   1.639 -32.430  1.00  0.00     0.278 C 
HETATM    3  O   UNL     1      -4.101   1.676 -32.647  1.00  0.00    -0.265 OA
HETATM    4  N   UNL     1      -6.219   0.611 -32.585  1.00  0.00    -0.212 N 
HETATM    5  N   UNL     1      -7.474   1.064 -32.185  1.00  0.00    -0.189 NA
HETATM    6  C   UNL     1      -7.314   2.347 -31.662  1.00  0.00     0.130 C 
HETATM    7  H   UNL     1      -8.050   0.396 -31.665  1.00  0.00     0.153 HD
ENDROOT
BRANCH   1   8
HETATM    8  C   UNL     1      -5.516   4.157 -31.581  1.00  0.00     0.042 C 
HETATM    9  N   UNL     1      -5.366   4.987 -32.568  1.00  0.00    -0.292 NA
HETATM   10  C   UNL     1      -5.175   4.481 -30.136  1.00  0.00     0.071 C 
BRANCH   9  11
HETATM   11  C   UNL     1      -4.786   6.309 -32.296  1.00  0.00     0.176 C 
BRANCH  11  12
HETATM   12  C   UNL     1      -3.493   6.468 -33.106  1.00  0.00     0.256 C 
BRANCH  12  13
HETATM   13  N   UNL     1      -2.409   7.131 -32.280  1.00  0.00    -0.066 N 
HETATM   14  C   UNL     1      -2.782   7.288 -30.808  1.00  0.00     0.254 C 
HETATM   15  C   UNL     1      -1.621   7.921 -30.015  1.00  0.00     0.153 C 
HETATM   16  N   UNL     1      -0.400   7.119 -30.179  1.00  0.00    -0.355 N 
HETATM   17  C   UNL     1       0.019   7.009 -31.585  1.00  0.00     0.153 C 
HETATM   18  C   UNL     1      -1.081   6.400 -32.468  1.00  0.00     0.254 C 
HETATM   19  H   UNL     1      -2.327   8.086 -32.674  1.00  0.00     0.280 HD
BRANCH  16  20
HETATM   20  C   UNL     1      -0.134   6.105 -29.241  1.00  0.00     0.169 C 
HETATM   21  S   UNL     1       0.819   4.764 -29.549  1.00  0.00    -0.041 SA
BRANCH  20  22
HETATM   22  N   UNL     1      -0.785   6.343 -28.045  1.00  0.00    -0.367 N 
HETATM   23  H   UNL     1      -1.567   6.979 -28.142  1.00  0.00     0.161 HD
BRANCH  22  24
HETATM   24  C   UNL     1      -0.150   6.353 -26.728  1.00  0.00     0.117 C 
HETATM   25  C   UNL     1       1.005   7.337 -26.678  1.00  0.00     0.026 C 
ENDBRANCH  22  24
ENDBRANCH  20  22
ENDBRANCH  16  20
ENDBRANCH  12  13
ENDBRANCH  11  12
ENDBRANCH   9  11
ENDBRANCH   1   8
BRANCH   6  26
HETATM   26  C   UNL     1      -8.447   3.085 -31.010  1.00  0.00     0.430 C 
HETATM   27  F   UNL     1      -9.595   2.357 -31.032  1.00  0.00    -0.165 F 
HETATM   28  F   UNL     1      -8.217   3.365 -29.691  1.00  0.00    -0.165 F 
HETATM   29  F   UNL     1      -8.721   4.270 -31.613  1.00  0.00    -0.165 F 
ENDBRANCH   6  26
BRANCH   4  30
HETATM   30  C   UNL     1      -6.037  -0.625 -33.174  1.00  0.00     0.192 A 
HETATM   31  S   UNL     1      -7.272  -1.326 -34.117  1.00  0.00    -0.048 SA
HETATM   32  C   UNL     1      -6.311  -2.732 -34.347  1.00  0.00     0.037 A 
HETATM   33  C   UNL     1      -5.087  -2.550 -33.701  1.00  0.00     0.076 A 
HETATM   34  C   UNL     1      -6.620  -3.912 -35.043  1.00  0.00     0.021 A 
HETATM   35  N   UNL     1      -4.934  -1.330 -33.054  1.00  0.00    -0.222 NA
HETATM   36  C   UNL     1      -4.137  -3.591 -33.750  1.00  0.00     0.033 A 
HETATM   37  C   UNL     1      -4.437  -4.774 -34.433  1.00  0.00     0.002 A 
HETATM   38  C   UNL     1      -5.663  -4.930 -35.072  1.00  0.00     0.002 A 
ENDBRANCH   4  30
TORSDOF 9
ENDMDL
MODEL 7
REMARK VINA RESULT:      -8.1      1.341      2.110
REMARK  9 active torsions:
REMARK  status: ('A' for Active; 'I' for Inactive)
REMARK    1  A    between atoms: C_2  and  N_3 
REMARK    2  A    between atoms: N_3  and  C_4 
REMARK    3  A    between atoms: C_4  and  N_5 
REMARK    4  A    between atoms: N_8  and  C_10 
REMARK    5  A    between atoms: C_10  and  C_11 
REMARK    6  A    between atoms: C_11  and  N_12 
REMARK    7  A    between atoms: C_13  and  C_14 
REMARK    8  A    between atoms: N_17  and  C_18 
REMARK    9  A    between atoms: C_28  and  C_29 
ROOT
HETATM    1  C   UNL     1      -5.766   1.418 -33.317  1.00  0.00     0.085 C 
HETATM    2  C   UNL     1      -5.240   2.816 -33.174  1.00  0.00     0.278 C 
HETATM    3  O   UNL     1      -5.875   3.799 -33.515  1.00  0.00    -0.265 OA
HETATM    4  N   UNL     1      -3.995   2.704 -32.570  1.00  0.00    -0.212 N 
HETATM    5  N   UNL     1      -3.709   1.355 -32.372  1.00  0.00    -0.189 NA
HETATM    6  C   UNL     1      -4.837   0.625 -32.745  1.00  0.00     0.130 C 
HETATM    7  H   UNL     1      -3.246   1.118 -31.490  1.00  0.00     0.153 HD
ENDROOT
BRANCH   1   8
HETATM    8  C   UNL     1      -7.034   1.018 -33.983  1.00  0.00     0.042 C 
HETATM    9  N   UNL     1      -8.165   1.271 -33.397  1.00  0.00    -0.292 NA
HETATM   10  C   UNL     1      -6.909   0.333 -35.333  1.00  0.00     0.071 C 
BRANCH   9  11
HETATM   11  C   UNL     1      -9.408   0.827 -34.043  1.00  0.00     0.176 C 
BRANCH  11  12
HETATM   12  C   UNL     1     -10.464   0.549 -32.965  1.00  0.00     0.256 C 
BRANCH  12  13
HETATM   13  N   UNL     1     -11.600   1.550 -33.042  1.00  0.00    -0.066 N 
HETATM   14  C   UNL     1     -11.195   2.958 -32.610  1.00  0.00     0.254 C 
HETATM   15  C   UNL     1     -12.379   3.935 -32.760  1.00  0.00     0.153 C 
HETATM   16  N   UNL     1     -12.877   3.919 -34.143  1.00  0.00    -0.355 N 
HETATM   17  C   UNL     1     -13.336   2.585 -34.561  1.00  0.00     0.153 C 
HETATM   18  C   UNL     1     -12.229   1.527 -34.434  1.00  0.00     0.254 C 
HETATM   19  H   UNL     1     -12.295   1.210 -32.352  1.00  0.00     0.280 HD
BRANCH  16  20
HETATM   20  C   UNL     1     -12.344   4.844 -35.058  1.00  0.00     0.169 C 
HETATM   21  S   UNL     1     -10.719   5.229 -35.168  1.00  0.00    -0.041 SA
BRANCH  20  22
HETATM   22  N   UNL     1     -13.337   5.415 -35.832  1.00  0.00    -0.367 N 
HETATM   23  H   UNL     1     -13.309   5.109 -36.796  1.00  0.00     0.161 HD
BRANCH  22  24
HETATM   24  C   UNL     1     -13.898   6.750 -35.631  1.00  0.00     0.117 C 
HETATM   25  C   UNL     1     -13.444   7.709 -36.715  1.00  0.00     0.026 C 
ENDBRANCH  22  24
ENDBRANCH  20  22
ENDBRANCH  16  20
ENDBRANCH  12  13
ENDBRANCH  11  12
ENDBRANCH   9  11
ENDBRANCH   1   8
BRANCH   6  26
HETATM   26  C   UNL     1      -4.927  -0.859 -32.532  1.00  0.00     0.430 C 
HETATM   27  F   UNL     1      -6.133  -1.216 -32.016  1.00  0.00    -0.165 F 
HETATM   28  F   UNL     1      -4.798  -1.575 -33.690  1.00  0.00    -0.165 F 
HETATM   29  F   UNL     1      -3.980  -1.328 -31.682  1.00  0.00    -0.165 F 
ENDBRANCH   6  26
BRANCH   4  30
HETATM   30  C   UNL     1      -3.068   3.697 -32.319  1.00  0.00     0.192 A 
HETATM   31  S   UNL     1      -2.869   4.993 -33.408  1.00  0.00    -0.048 SA
HETATM   32  C   UNL     1      -1.595   5.622 -32.443  1.00  0.00     0.037 A 
HETATM   33  C   UNL     1      -1.429   4.799 -31.326  1.00  0.00     0.076 A 
HETATM   34  C   UNL     1      -0.795   6.756 -32.660  1.00  0.00     0.021 A 
HETATM   35  N   UNL     1      -2.295   3.716 -31.256  1.00  0.00    -0.222 NA
HETATM   36  C   UNL     1      -0.422   5.123 -30.394  1.00  0.00     0.033 A 
HETATM   37  C   UNL     1       0.386   6.245 -30.604  1.00  0.00     0.002 A 
HETATM   38  C   UNL     1       0.200   7.051 -31.723  1.00  0.00     0.002 A 
ENDBRANCH   4  30
TORSDOF 9
ENDMDL
MODEL 8
REMARK VINA RESULT:      -8.1      2.651     10.146
REMARK  9 active torsions:
REMARK  status: ('A' for Active; 'I' for Inactive)
REMARK    1  A    between atoms: C_2  and  N_3 
REMARK    2  A    between atoms: N_3  and  C_4 
REMARK    3  A    between atoms: C_4  and  N_5 
REMARK    4  A    between atoms: N_8  and  C_10 
REMARK    5  A    between atoms: C_10  and  C_11 
REMARK    6  A    between atoms: C_11  and  N_12 
REMARK    7  A    between atoms: C_13  and  C_14 
REMARK    8  A    between atoms: N_17  and  C_18 
REMARK    9  A    between atoms: C_28  and  C_29 
ROOT
HETATM    1  C   UNL     1      -7.071   3.829 -33.397  1.00  0.00     0.085 C 
HETATM    2  C   UNL     1      -8.498   3.968 -33.841  1.00  0.00     0.278 C 
HETATM    3  O   UNL     1      -8.880   4.876 -34.559  1.00  0.00    -0.265 OA
HETATM    4  N   UNL     1      -9.178   2.878 -33.316  1.00  0.00    -0.212 N 
HETATM    5  N   UNL     1      -8.291   2.114 -32.561  1.00  0.00    -0.189 NA
HETATM    6  C   UNL     1      -7.020   2.666 -32.715  1.00  0.00     0.130 C 
HETATM    7  H   UNL     1      -8.393   1.099 -32.639  1.00  0.00     0.153 HD
ENDROOT
BRANCH   1   8
HETATM    8  C   UNL     1      -5.973   4.801 -33.643  1.00  0.00     0.042 C 
HETATM    9  N   UNL     1      -5.095   4.546 -34.565  1.00  0.00    -0.292 NA
HETATM   10  C   UNL     1      -5.964   6.052 -32.781  1.00  0.00     0.071 C 
BRANCH   9  11
HETATM   11  C   UNL     1      -3.988   5.490 -34.765  1.00  0.00     0.176 C 
BRANCH  11  12
HETATM   12  C   UNL     1      -2.678   4.836 -34.305  1.00  0.00     0.256 C 
BRANCH  12  13
HETATM   13  N   UNL     1      -1.815   5.821 -33.542  1.00  0.00    -0.066 N 
HETATM   14  C   UNL     1      -2.580   7.055 -33.069  1.00  0.00     0.254 C 
HETATM   15  C   UNL     1      -1.660   7.990 -32.259  1.00  0.00     0.153 C 
HETATM   16  N   UNL     1      -1.064   7.261 -31.130  1.00  0.00    -0.355 N 
HETATM   17  C   UNL     1      -0.265   6.104 -31.565  1.00  0.00     0.153 C 
HETATM   18  C   UNL     1      -1.091   5.113 -32.399  1.00  0.00     0.254 C 
HETATM   19  H   UNL     1      -1.115   6.146 -34.234  1.00  0.00     0.280 HD
BRANCH  16  20
HETATM   20  C   UNL     1      -1.731   7.283 -29.892  1.00  0.00     0.169 C 
HETATM   21  S   UNL     1      -2.986   8.324 -29.517  1.00  0.00    -0.041 SA
BRANCH  20  22
HETATM   22  N   UNL     1      -1.196   6.356 -29.017  1.00  0.00    -0.367 N 
HETATM   23  H   UNL     1      -1.638   5.448 -29.086  1.00  0.00     0.161 HD
BRANCH  22  24
HETATM   24  C   UNL     1      -0.638   6.664 -27.701  1.00  0.00     0.117 C 
HETATM   25  C   UNL     1       0.843   6.983 -27.790  1.00  0.00     0.026 C 
ENDBRANCH  22  24
ENDBRANCH  20  22
ENDBRANCH  16  20
ENDBRANCH  12  13
ENDBRANCH  11  12
ENDBRANCH   9  11
ENDBRANCH   1   8
BRANCH   6  26
HETATM   26  C   UNL     1      -5.796   2.010 -32.144  1.00  0.00     0.430 C 
HETATM   27  F   UNL     1      -6.099   0.830 -31.540  1.00  0.00    -0.165 F 
HETATM   28  F   UNL     1      -4.859   1.707 -33.092  1.00  0.00    -0.165 F 
HETATM   29  F   UNL     1      -5.171   2.778 -31.216  1.00  0.00    -0.165 F 
ENDBRANCH   6  26
BRANCH   4  30
HETATM   30  C   UNL     1     -10.532   2.608 -33.357  1.00  0.00     0.192 A 
HETATM   31  S   UNL     1     -11.635   3.573 -32.488  1.00  0.00    -0.048 SA
HETATM   32  C   UNL     1     -12.932   2.567 -32.996  1.00  0.00     0.037 A 
HETATM   33  C   UNL     1     -12.424   1.568 -33.829  1.00  0.00     0.076 A 
HETATM   34  C   UNL     1     -14.297   2.652 -32.677  1.00  0.00     0.021 A 
HETATM   35  N   UNL     1     -11.053   1.617 -34.047  1.00  0.00    -0.222 NA
HETATM   36  C   UNL     1     -13.318   0.614 -34.359  1.00  0.00     0.033 A 
HETATM   37  C   UNL     1     -14.678   0.683 -34.042  1.00  0.00     0.002 A 
HETATM   38  C   UNL     1     -15.160   1.691 -33.212  1.00  0.00     0.002 A 
ENDBRANCH   4  30
TORSDOF 9
ENDMDL
MODEL 9
REMARK VINA RESULT:      -8.0      5.107     10.164
REMARK  9 active torsions:
REMARK  status: ('A' for Active; 'I' for Inactive)
REMARK    1  A    between atoms: C_2  and  N_3 
REMARK    2  A    between atoms: N_3  and  C_4 
REMARK    3  A    between atoms: C_4  and  N_5 
REMARK    4  A    between atoms: N_8  and  C_10 
REMARK    5  A    between atoms: C_10  and  C_11 
REMARK    6  A    between atoms: C_11  and  N_12 
REMARK    7  A    between atoms: C_13  and  C_14 
REMARK    8  A    between atoms: N_17  and  C_18 
REMARK    9  A    between atoms: C_28  and  C_29 
ROOT
HETATM    1  C   UNL     1      -5.145   3.215 -31.620  1.00  0.00     0.085 C 
HETATM    2  C   UNL     1      -5.808   1.903 -31.921  1.00  0.00     0.278 C 
HETATM    3  O   UNL     1      -6.957   1.656 -31.599  1.00  0.00    -0.265 OA
HETATM    4  N   UNL     1      -4.882   1.151 -32.629  1.00  0.00    -0.212 N 
HETATM    5  N   UNL     1      -3.703   1.883 -32.749  1.00  0.00    -0.189 NA
HETATM    6  C   UNL     1      -3.935   3.150 -32.214  1.00  0.00     0.130 C 
HETATM    7  H   UNL     1      -3.220   1.816 -33.649  1.00  0.00     0.153 HD
ENDROOT
BRANCH   1   8
HETATM    8  C   UNL     1      -5.712   4.324 -30.808  1.00  0.00     0.042 C 
HETATM    9  N   UNL     1      -5.237   4.549 -29.621  1.00  0.00    -0.292 NA
HETATM   10  C   UNL     1      -6.830   5.133 -31.445  1.00  0.00     0.071 C 
BRANCH   9  11
HETATM   11  C   UNL     1      -5.839   5.615 -28.810  1.00  0.00     0.176 C 
BRANCH  11  12
HETATM   12  C   UNL     1      -4.970   6.876 -28.910  1.00  0.00     0.256 C 
BRANCH  12  13
HETATM   13  N   UNL     1      -3.549   6.597 -28.461  1.00  0.00    -0.066 N 
HETATM   14  C   UNL     1      -2.495   7.137 -29.425  1.00  0.00     0.254 C 
HETATM   15  C   UNL     1      -1.075   6.865 -28.887  1.00  0.00     0.153 C 
HETATM   16  N   UNL     1      -0.924   7.442 -27.543  1.00  0.00    -0.355 N 
HETATM   17  C   UNL     1      -1.887   6.888 -26.579  1.00  0.00     0.153 C 
HETATM   18  C   UNL     1      -3.341   7.094 -27.033  1.00  0.00     0.254 C 
HETATM   19  H   UNL     1      -3.470   5.563 -28.474  1.00  0.00     0.280 HD
BRANCH  16  20
HETATM   20  C   UNL     1      -0.427   8.753 -27.429  1.00  0.00     0.169 C 
HETATM   21  S   UNL     1      -1.387  10.123 -27.378  1.00  0.00    -0.041 SA
BRANCH  20  22
HETATM   22  N   UNL     1       0.955   8.766 -27.397  1.00  0.00    -0.367 N 
HETATM   23  H   UNL     1       1.368   8.977 -28.297  1.00  0.00     0.161 HD
BRANCH  22  24
HETATM   24  C   UNL     1       1.785   7.938 -26.523  1.00  0.00     0.117 C 
HETATM   25  C   UNL     1       2.379   8.754 -25.390  1.00  0.00     0.026 C 
ENDBRANCH  22  24
ENDBRANCH  20  22
ENDBRANCH  16  20
ENDBRANCH  12  13
ENDBRANCH  11  12
ENDBRANCH   9  11
ENDBRANCH   1   8
BRANCH   6  26
HETATM   26  C   UNL     1      -2.914   4.247 -32.301  1.00  0.00     0.430 C 
HETATM   27  F   UNL     1      -3.491   5.443 -32.591  1.00  0.00    -0.165 F 
HETATM   28  F   UNL     1      -2.235   4.442 -31.130  1.00  0.00    -0.165 F 
HETATM   29  F   UNL     1      -1.977   4.021 -33.256  1.00  0.00    -0.165 F 
ENDBRANCH   6  26
BRANCH   4  30
HETATM   30  C   UNL     1      -4.977  -0.163 -33.044  1.00  0.00     0.192 A 
HETATM   31  S   UNL     1      -3.704  -1.258 -32.753  1.00  0.00    -0.048 SA
HETATM   32  C   UNL     1      -4.558  -2.490 -33.592  1.00  0.00     0.037 A 
HETATM   33  C   UNL     1      -5.785  -1.976 -34.016  1.00  0.00     0.076 A 
HETATM   34  C   UNL     1      -4.169  -3.812 -33.861  1.00  0.00     0.021 A 
HETATM   35  N   UNL     1      -6.022  -0.651 -33.675  1.00  0.00    -0.222 NA
HETATM   36  C   UNL     1      -6.654  -2.818 -34.741  1.00  0.00     0.033 A 
HETATM   37  C   UNL     1      -6.274  -4.134 -35.022  1.00  0.00     0.002 A 
HETATM   38  C   UNL     1      -5.047  -4.624 -34.586  1.00  0.00     0.002 A 
ENDBRANCH   4  30
TORSDOF 9
ENDMDL
MODEL 10
REMARK VINA RESULT:      -7.9      4.392      9.048
REMARK  9 active torsions:
REMARK  status: ('A' for Active; 'I' for Inactive)
REMARK    1  A    between atoms: C_2  and  N_3 
REMARK    2  A    between atoms: N_3  and  C_4 
REMARK    3  A    between atoms: C_4  and  N_5 
REMARK    4  A    between atoms: N_8  and  C_10 
REMARK    5  A    between atoms: C_10  and  C_11 
REMARK    6  A    between atoms: C_11  and  N_12 
REMARK    7  A    between atoms: C_13  and  C_14 
REMARK    8  A    between atoms: N_17  and  C_18 
REMARK    9  A    between atoms: C_28  and  C_29 
ROOT
HETATM    1  C   UNL     1      -6.289   3.451 -31.854  1.00  0.00     0.085 C 
HETATM    2  C   UNL     1      -5.249   2.467 -32.304  1.00  0.00     0.278 C 
HETATM    3  O   UNL     1      -4.122   2.800 -32.626  1.00  0.00    -0.265 OA
HETATM    4  N   UNL     1      -5.835   1.212 -32.216  1.00  0.00    -0.212 N 
HETATM    5  N   UNL     1      -7.152   1.358 -31.786  1.00  0.00    -0.189 NA
HETATM    6  C   UNL     1      -7.353   2.705 -31.490  1.00  0.00     0.130 C 
HETATM    7  H   UNL     1      -7.488   0.658 -31.120  1.00  0.00     0.153 HD
ENDROOT
BRANCH   1   8
HETATM    8  C   UNL     1      -6.158   4.932 -31.850  1.00  0.00     0.042 C 
HETATM    9  N   UNL     1      -5.959   5.549 -30.725  1.00  0.00    -0.292 NA
HETATM   10  C   UNL     1      -6.265   5.629 -33.196  1.00  0.00     0.071 C 
BRANCH   9  11
HETATM   11  C   UNL     1      -5.880   7.016 -30.729  1.00  0.00     0.176 C 
BRANCH  11  12
HETATM   12  C   UNL     1      -5.105   7.482 -29.490  1.00  0.00     0.256 C 
BRANCH  12  13
HETATM   13  N   UNL     1      -3.723   7.980 -29.865  1.00  0.00    -0.066 N 
HETATM   14  C   UNL     1      -2.599   7.082 -29.355  1.00  0.00     0.254 C 
HETATM   15  C   UNL     1      -1.225   7.615 -29.812  1.00  0.00     0.153 C 
HETATM   16  N   UNL     1      -1.193   7.741 -31.276  1.00  0.00    -0.355 N 
HETATM   17  C   UNL     1      -2.227   8.655 -31.787  1.00  0.00     0.153 C 
HETATM   18  C   UNL     1      -3.640   8.219 -31.371  1.00  0.00     0.254 C 
HETATM   19  H   UNL     1      -3.630   8.888 -29.374  1.00  0.00     0.280 HD
BRANCH  16  20
HETATM   20  C   UNL     1      -0.722   6.651 -32.032  1.00  0.00     0.169 C 
HETATM   21  S   UNL     1      -0.017   5.284 -31.374  1.00  0.00    -0.041 SA
BRANCH  20  22
HETATM   22  N   UNL     1      -0.890   6.870 -33.387  1.00  0.00    -0.367 N 
HETATM   23  H   UNL     1      -1.244   7.795 -33.596  1.00  0.00     0.161 HD
BRANCH  22  24
HETATM   24  C   UNL     1      -1.243   5.846 -34.368  1.00  0.00     0.117 C 
HETATM   25  C   UNL     1      -2.747   5.734 -34.534  1.00  0.00     0.026 C 
ENDBRANCH  22  24
ENDBRANCH  20  22
ENDBRANCH  16  20
ENDBRANCH  12  13
ENDBRANCH  11  12
ENDBRANCH   9  11
ENDBRANCH   1   8
BRANCH   6  26
HETATM   26  C   UNL     1      -8.628   3.199 -30.868  1.00  0.00     0.430 C 
HETATM   27  F   UNL     1      -8.400   3.789 -29.665  1.00  0.00    -0.165 F 
HETATM   28  F   UNL     1      -9.263   4.144 -31.626  1.00  0.00    -0.165 F 
HETATM   29  F   UNL     1      -9.529   2.207 -30.656  1.00  0.00    -0.165 F 
ENDBRANCH   6  26
BRANCH   4  30
HETATM   30  C   UNL     1      -5.322  -0.007 -32.614  1.00  0.00     0.192 A 
HETATM   31  S   UNL     1      -5.825  -0.723 -34.077  1.00  0.00    -0.048 SA
HETATM   32  C   UNL     1      -4.847  -2.097 -33.753  1.00  0.00     0.037 A 
HETATM   33  C   UNL     1      -4.174  -1.895 -32.546  1.00  0.00     0.076 A 
HETATM   34  C   UNL     1      -4.690  -3.271 -34.507  1.00  0.00     0.021 A 
HETATM   35  N   UNL     1      -4.436  -0.684 -31.917  1.00  0.00    -0.222 NA
HETATM   36  C   UNL     1      -3.314  -2.908 -32.075  1.00  0.00     0.033 A 
HETATM   37  C   UNL     1      -3.157  -4.086 -32.814  1.00  0.00     0.002 A 
HETATM   38  C   UNL     1      -3.836  -4.262 -34.015  1.00  0.00     0.002 A 
ENDBRANCH   4  30
TORSDOF 9
ENDMDL
