MODEL 1
REMARK VINA RESULT:      -7.6      0.000      0.000
REMARK  6 active torsions:
REMARK  status: ('A' for Active; 'I' for Inactive)
REMARK    1  A    between atoms: N_4  and  C_5 
REMARK    2  A    between atoms: C_5  and  C_6 
REMARK    3  A    between atoms: C_6  and  C_7 
REMARK    4  A    between atoms: C_7  and  N_8 
REMARK       I    between atoms: N_8  and  C_9 
REMARK       I    between atoms: C_9  and  N_10 
REMARK    5  A    between atoms: N_10  and  C_11 
REMARK    6  A    between atoms: C_12  and  O_13 
ROOT
HETATM    1  N   UNL     1      -4.275   1.951 -32.164  1.00  0.00    -0.343 N 
HETATM    2  C   UNL     1      -3.823   3.243 -31.998  1.00  0.00     0.320 C 
HETATM    3  N   UNL     1      -2.557   3.384 -32.531  1.00  0.00    -0.306 N 
HETATM    4  O   UNL     1      -4.457   4.101 -31.397  1.00  0.00    -0.247 OA
HETATM    5  H   UNL     1      -3.960   1.486 -33.009  1.00  0.00     0.164 HD
HETATM    6  H   UNL     1      -1.969   2.589 -32.326  1.00  0.00     0.171 HD
ENDROOT
BRANCH   1   7
HETATM    7  C   UNL     1      -5.564   1.534 -31.654  1.00  0.00     0.126 C 
BRANCH   7   8
HETATM    8  C   UNL     1      -6.181   0.342 -32.391  1.00  0.00     0.041 C 
BRANCH   8   9
HETATM    9  C   UNL     1      -5.590   0.074 -33.771  1.00  0.00     0.152 C 
BRANCH   9  10
HETATM   10  N   UNL     1      -5.344  -1.332 -34.023  1.00  0.00    -0.279 N 
HETATM   11  N   UNL     1      -6.268  -2.070 -34.674  1.00  0.00    -0.176 NA
HETATM   12  C   UNL     1      -5.727  -3.299 -34.707  1.00  0.00     0.074 A 
HETATM   13  C   UNL     1      -6.459  -4.427 -35.332  1.00  0.00     0.074 C 
HETATM   14  C   UNL     1      -4.454  -3.323 -34.089  1.00  0.00     0.077 A 
HETATM   15  C   UNL     1      -4.235  -2.037 -33.661  1.00  0.00     0.138 A 
HETATM   16 CL   UNL     1      -3.427  -4.656 -33.915  1.00  0.00    -0.081 Cl
ENDBRANCH   9  10
ENDBRANCH   8   9
ENDBRANCH   7   8
ENDBRANCH   1   7
BRANCH   3  17
HETATM   17  C   UNL     1      -1.925   4.642 -32.662  1.00  0.00     0.071 A 
HETATM   18  C   UNL     1      -1.997   5.409 -33.846  1.00  0.00     0.095 A 
HETATM   19  C   UNL     1      -1.375   6.662 -33.886  1.00  0.00     0.041 A 
HETATM   20  C   UNL     1      -0.673   7.140 -32.777  1.00  0.00     0.026 A 
HETATM   21  C   UNL     1      -0.567   6.356 -31.632  1.00  0.00     0.036 A 
HETATM   22 CL   UNL     1       0.317   6.940 -30.276  1.00  0.00    -0.084 Cl
HETATM   23  C   UNL     1      -1.175   5.104 -31.573  1.00  0.00     0.056 A 
BRANCH  18  24
HETATM   24  O   UNL     1      -2.592   4.817 -34.931  1.00  0.00    -0.354 OA
HETATM   25  C   UNL     1      -3.920   5.211 -35.245  1.00  0.00     0.210 C 
ENDBRANCH  18  24
ENDBRANCH   3  17
TORSDOF 6
ENDMDL
MODEL 2
REMARK VINA RESULT:      -7.3      3.233      7.843
REMARK  6 active torsions:
REMARK  status: ('A' for Active; 'I' for Inactive)
REMARK    1  A    between atoms: N_4  and  C_5 
REMARK    2  A    between atoms: C_5  and  C_6 
REMARK    3  A    between atoms: C_6  and  C_7 
REMARK    4  A    between atoms: C_7  and  N_8 
REMARK       I    between atoms: N_8  and  C_9 
REMARK       I    between atoms: C_9  and  N_10 
REMARK    5  A    between atoms: N_10  and  C_11 
REMARK    6  A    between atoms: C_12  and  O_13 
ROOT
HETATM    1  N   UNL     1      -9.002   1.297 -33.454  1.00  0.00    -0.343 N 
HETATM    2  C   UNL     1      -7.969   0.614 -34.060  1.00  0.00     0.320 C 
HETATM    3  N   UNL     1      -7.404  -0.289 -33.181  1.00  0.00    -0.306 N 
HETATM    4  O   UNL     1      -7.588   0.851 -35.200  1.00  0.00    -0.247 OA
HETATM    5  H   UNL     1      -9.530   0.765 -32.770  1.00  0.00     0.164 HD
HETATM    6  H   UNL     1      -7.310   0.096 -32.252  1.00  0.00     0.171 HD
ENDROOT
BRANCH   1   7
HETATM    7  C   UNL     1      -9.732   2.332 -34.155  1.00  0.00     0.126 C 
BRANCH   7   8
HETATM    8  C   UNL     1      -9.080   3.715 -34.098  1.00  0.00     0.041 C 
BRANCH   8   9
HETATM    9  C   UNL     1      -8.257   3.978 -32.841  1.00  0.00     0.152 C 
BRANCH   9  10
HETATM   10  N   UNL     1      -6.830   4.014 -33.092  1.00  0.00    -0.279 N 
HETATM   11  N   UNL     1      -6.345   4.748 -34.116  1.00  0.00    -0.176 NA
HETATM   12  C   UNL     1      -5.020   4.531 -34.062  1.00  0.00     0.074 A 
HETATM   13  C   UNL     1      -4.114   5.157 -35.056  1.00  0.00     0.074 C 
HETATM   14  C   UNL     1      -4.677   3.674 -32.989  1.00  0.00     0.077 A 
HETATM   15  C   UNL     1      -5.866   3.361 -32.381  1.00  0.00     0.138 A 
HETATM   16 CL   UNL     1      -3.128   3.149 -32.556  1.00  0.00    -0.081 Cl
ENDBRANCH   9  10
ENDBRANCH   8   9
ENDBRANCH   7   8
ENDBRANCH   1   7
BRANCH   3  17
HETATM   17  C   UNL     1      -6.447  -1.248 -33.587  1.00  0.00     0.071 A 
HETATM   18  C   UNL     1      -5.073  -1.124 -33.283  1.00  0.00     0.095 A 
HETATM   19  C   UNL     1      -4.192  -2.134 -33.689  1.00  0.00     0.041 A 
HETATM   20  C   UNL     1      -4.661  -3.238 -34.404  1.00  0.00     0.026 A 
HETATM   21  C   UNL     1      -6.009  -3.325 -34.740  1.00  0.00     0.036 A 
HETATM   22 CL   UNL     1      -6.578  -4.677 -35.641  1.00  0.00    -0.084 Cl
HETATM   23  C   UNL     1      -6.901  -2.330 -34.350  1.00  0.00     0.056 A 
BRANCH  18  24
HETATM   24  O   UNL     1      -4.672   0.047 -32.694  1.00  0.00    -0.354 OA
HETATM   25  C   UNL     1      -4.206  -0.020 -31.353  1.00  0.00     0.210 C 
ENDBRANCH  18  24
ENDBRANCH   3  17
TORSDOF 6
ENDMDL
MODEL 3
REMARK VINA RESULT:      -7.2      2.461      8.052
REMARK  6 active torsions:
REMARK  status: ('A' for Active; 'I' for Inactive)
REMARK    1  A    between atoms: N_4  and  C_5 
REMARK    2  A    between atoms: C_5  and  C_6 
REMARK    3  A    between atoms: C_6  and  C_7 
REMARK    4  A    between atoms: C_7  and  N_8 
REMARK       I    between atoms: N_8  and  C_9 
REMARK       I    between atoms: C_9  and  N_10 
REMARK    5  A    between atoms: N_10  and  C_11 
REMARK    6  A    between atoms: C_12  and  O_13 
ROOT
HETATM    1  N   UNL     1      -6.590   2.075 -33.001  1.00  0.00    -0.343 N 
HETATM    2  C   UNL     1      -6.342   0.731 -32.816  1.00  0.00     0.320 C 
HETATM    3  N   UNL     1      -5.907   0.153 -33.993  1.00  0.00    -0.306 N 
HETATM    4  O   UNL     1      -6.554   0.151 -31.758  1.00  0.00    -0.247 OA
HETATM    5  H   UNL     1      -5.987   2.539 -33.672  1.00  0.00     0.164 HD
HETATM    6  H   UNL     1      -6.424   0.490 -34.793  1.00  0.00     0.171 HD
ENDROOT
BRANCH   1   7
HETATM    7  C   UNL     1      -7.096   2.901 -31.925  1.00  0.00     0.126 C 
BRANCH   7   8
HETATM    8  C   UNL     1      -6.173   4.054 -31.524  1.00  0.00     0.041 C 
BRANCH   8   9
HETATM    9  C   UNL     1      -4.816   3.619 -30.978  1.00  0.00     0.152 C 
BRANCH   9  10
HETATM   10  N   UNL     1      -3.704   4.077 -31.785  1.00  0.00    -0.279 N 
HETATM   11  N   UNL     1      -2.556   4.467 -31.191  1.00  0.00    -0.176 NA
HETATM   12  C   UNL     1      -1.776   4.839 -32.219  1.00  0.00     0.074 A 
HETATM   13  C   UNL     1      -0.410   5.364 -31.977  1.00  0.00     0.074 C 
HETATM   14  C   UNL     1      -2.434   4.664 -33.461  1.00  0.00     0.077 A 
HETATM   15  C   UNL     1      -3.674   4.167 -33.146  1.00  0.00     0.138 A 
HETATM   16 CL   UNL     1      -1.818   4.999 -35.000  1.00  0.00    -0.081 Cl
ENDBRANCH   9  10
ENDBRANCH   8   9
ENDBRANCH   7   8
ENDBRANCH   1   7
BRANCH   3  17
HETATM   17  C   UNL     1      -5.409  -1.169 -34.050  1.00  0.00     0.071 A 
HETATM   18  C   UNL     1      -4.154  -1.531 -33.512  1.00  0.00     0.095 A 
HETATM   19  C   UNL     1      -3.746  -2.869 -33.575  1.00  0.00     0.041 A 
HETATM   20  C   UNL     1      -4.559  -3.830 -34.183  1.00  0.00     0.026 A 
HETATM   21  C   UNL     1      -5.771  -3.452 -34.753  1.00  0.00     0.036 A 
HETATM   22 CL   UNL     1      -6.758  -4.635 -35.520  1.00  0.00    -0.084 Cl
HETATM   23  C   UNL     1      -6.194  -2.126 -34.704  1.00  0.00     0.056 A 
BRANCH  18  24
HETATM   24  O   UNL     1      -3.361  -0.513 -33.050  1.00  0.00    -0.354 OA
HETATM   25  C   UNL     1      -2.920  -0.586 -31.701  1.00  0.00     0.210 C 
ENDBRANCH  18  24
ENDBRANCH   3  17
TORSDOF 6
ENDMDL
MODEL 4
REMARK VINA RESULT:      -7.2      5.557      7.554
REMARK  6 active torsions:
REMARK  status: ('A' for Active; 'I' for Inactive)
REMARK    1  A    between atoms: N_4  and  C_5 
REMARK    2  A    between atoms: C_5  and  C_6 
REMARK    3  A    between atoms: C_6  and  C_7 
REMARK    4  A    between atoms: C_7  and  N_8 
REMARK       I    between atoms: N_8  and  C_9 
REMARK       I    between atoms: C_9  and  N_10 
REMARK    5  A    between atoms: N_10  and  C_11 
REMARK    6  A    between atoms: C_12  and  O_13 
ROOT
HETATM    1  N   UNL     1      -7.883   0.636 -31.550  1.00  0.00    -0.343 N 
HETATM    2  C   UNL     1      -8.800   0.612 -32.579  1.00  0.00     0.320 C 
HETATM    3  N   UNL     1      -9.757   1.591 -32.397  1.00  0.00    -0.306 N 
HETATM    4  O   UNL     1      -8.778  -0.222 -33.476  1.00  0.00    -0.247 OA
HETATM    5  H   UNL     1      -7.688   1.554 -31.164  1.00  0.00     0.164 HD
HETATM    6  H   UNL     1     -10.047   1.662 -31.432  1.00  0.00     0.171 HD
ENDROOT
BRANCH   1   7
HETATM    7  C   UNL     1      -6.798  -0.321 -31.487  1.00  0.00     0.126 C 
BRANCH   7   8
HETATM    8  C   UNL     1      -5.465   0.195 -32.034  1.00  0.00     0.041 C 
BRANCH   8   9
HETATM    9  C   UNL     1      -5.267  -0.023 -33.531  1.00  0.00     0.152 C 
BRANCH   9  10
HETATM   10  N   UNL     1      -5.226  -1.423 -33.902  1.00  0.00    -0.279 N 
HETATM   11  N   UNL     1      -4.205  -2.201 -33.484  1.00  0.00    -0.176 NA
HETATM   12  C   UNL     1      -4.478  -3.400 -34.023  1.00  0.00     0.074 A 
HETATM   13  C   UNL     1      -3.561  -4.546 -33.812  1.00  0.00     0.074 C 
HETATM   14  C   UNL     1      -5.683  -3.375 -34.765  1.00  0.00     0.077 A 
HETATM   15  C   UNL     1      -6.142  -2.086 -34.664  1.00  0.00     0.138 A 
HETATM   16 CL   UNL     1      -6.398  -4.662 -35.598  1.00  0.00    -0.081 Cl
ENDBRANCH   9  10
ENDBRANCH   8   9
ENDBRANCH   7   8
ENDBRANCH   1   7
BRANCH   3  17
HETATM   17  C   UNL     1     -10.714   1.911 -33.388  1.00  0.00     0.071 A 
HETATM   18  C   UNL     1     -10.517   2.949 -34.325  1.00  0.00     0.095 A 
HETATM   19  C   UNL     1     -11.495   3.182 -35.300  1.00  0.00     0.041 A 
HETATM   20  C   UNL     1     -12.661   2.412 -35.331  1.00  0.00     0.026 A 
HETATM   21  C   UNL     1     -12.866   1.424 -34.372  1.00  0.00     0.036 A 
HETATM   22 CL   UNL     1     -14.314   0.495 -34.402  1.00  0.00    -0.084 Cl
HETATM   23  C   UNL     1     -11.908   1.180 -33.392  1.00  0.00     0.056 A 
BRANCH  18  24
HETATM   24  O   UNL     1      -9.412   3.741 -34.150  1.00  0.00    -0.354 OA
HETATM   25  C   UNL     1      -9.622   5.063 -33.675  1.00  0.00     0.210 C 
ENDBRANCH  18  24
ENDBRANCH   3  17
TORSDOF 6
ENDMDL
MODEL 5
REMARK VINA RESULT:      -7.1      5.425      8.476
REMARK  6 active torsions:
REMARK  status: ('A' for Active; 'I' for Inactive)
REMARK    1  A    between atoms: N_4  and  C_5 
REMARK    2  A    between atoms: C_5  and  C_6 
REMARK    3  A    between atoms: C_6  and  C_7 
REMARK    4  A    between atoms: C_7  and  N_8 
REMARK       I    between atoms: N_8  and  C_9 
REMARK       I    between atoms: C_9  and  N_10 
REMARK    5  A    between atoms: N_10  and  C_11 
REMARK    6  A    between atoms: C_12  and  O_13 
ROOT
HETATM    1  N   UNL     1      -8.175   1.788 -33.059  1.00  0.00    -0.343 N 
HETATM    2  C   UNL     1      -7.175   1.032 -33.633  1.00  0.00     0.320 C 
HETATM    3  N   UNL     1      -7.042  -0.175 -32.975  1.00  0.00    -0.306 N 
HETATM    4  O   UNL     1      -6.477   1.437 -34.555  1.00  0.00    -0.247 OA
HETATM    5  H   UNL     1      -8.954   1.259 -32.679  1.00  0.00     0.164 HD
HETATM    6  H   UNL     1      -7.114  -0.069 -31.974  1.00  0.00     0.171 HD
ENDROOT
BRANCH   1   7
HETATM    7  C   UNL     1      -8.486   3.117 -33.542  1.00  0.00     0.126 C 
BRANCH   7   8
HETATM    8  C   UNL     1      -9.731   3.193 -34.428  1.00  0.00     0.041 C 
BRANCH   8   9
HETATM    9  C   UNL     1     -10.978   3.723 -33.727  1.00  0.00     0.152 C 
BRANCH   9  10
HETATM   10  N   UNL     1     -12.014   2.721 -33.572  1.00  0.00    -0.279 N 
HETATM   11  N   UNL     1     -13.245   3.085 -33.156  1.00  0.00    -0.176 NA
HETATM   12  C   UNL     1     -13.920   1.925 -33.106  1.00  0.00     0.074 A 
HETATM   13  C   UNL     1     -15.335   1.895 -32.662  1.00  0.00     0.074 C 
HETATM   14  C   UNL     1     -13.111   0.836 -33.510  1.00  0.00     0.077 A 
HETATM   15  C   UNL     1     -11.889   1.384 -33.808  1.00  0.00     0.138 A 
HETATM   16 CL   UNL     1     -13.561  -0.793 -33.603  1.00  0.00    -0.081 Cl
ENDBRANCH   9  10
ENDBRANCH   8   9
ENDBRANCH   7   8
ENDBRANCH   1   7
BRANCH   3  17
HETATM   17  C   UNL     1      -6.218  -1.217 -33.461  1.00  0.00     0.071 A 
HETATM   18  C   UNL     1      -4.826  -1.256 -33.226  1.00  0.00     0.095 A 
HETATM   19  C   UNL     1      -4.083  -2.341 -33.708  1.00  0.00     0.041 A 
HETATM   20  C   UNL     1      -4.707  -3.360 -34.432  1.00  0.00     0.026 A 
HETATM   21  C   UNL     1      -6.071  -3.287 -34.698  1.00  0.00     0.036 A 
HETATM   22 CL   UNL     1      -6.830  -4.534 -35.609  1.00  0.00    -0.084 Cl
HETATM   23  C   UNL     1      -6.827  -2.214 -34.231  1.00  0.00     0.056 A 
BRANCH  18  24
HETATM   24  O   UNL     1      -4.268  -0.158 -32.623  1.00  0.00    -0.354 OA
HETATM   25  C   UNL     1      -3.719  -0.332 -31.324  1.00  0.00     0.210 C 
ENDBRANCH  18  24
ENDBRANCH   3  17
TORSDOF 6
ENDMDL
MODEL 6
REMARK VINA RESULT:      -7.1      2.398      8.233
REMARK  6 active torsions:
REMARK  status: ('A' for Active; 'I' for Inactive)
REMARK    1  A    between atoms: N_4  and  C_5 
REMARK    2  A    between atoms: C_5  and  C_6 
REMARK    3  A    between atoms: C_6  and  C_7 
REMARK    4  A    between atoms: C_7  and  N_8 
REMARK       I    between atoms: N_8  and  C_9 
REMARK       I    between atoms: C_9  and  N_10 
REMARK    5  A    between atoms: N_10  and  C_11 
REMARK    6  A    between atoms: C_12  and  O_13 
ROOT
HETATM    1  N   UNL     1      -4.441   1.658 -32.092  1.00  0.00    -0.343 N 
HETATM    2  C   UNL     1      -5.014   0.409 -32.205  1.00  0.00     0.320 C 
HETATM    3  N   UNL     1      -4.928  -0.046 -33.506  1.00  0.00    -0.306 N 
HETATM    4  O   UNL     1      -5.572  -0.158 -31.274  1.00  0.00    -0.247 OA
HETATM    5  H   UNL     1      -3.649   1.828 -32.701  1.00  0.00     0.164 HD
HETATM    6  H   UNL     1      -5.120   0.686 -34.176  1.00  0.00     0.171 HD
ENDROOT
BRANCH   1   7
HETATM    7  C   UNL     1      -4.439   2.372 -30.832  1.00  0.00     0.126 C 
BRANCH   7   8
HETATM    8  C   UNL     1      -5.381   3.578 -30.786  1.00  0.00     0.041 C 
BRANCH   8   9
HETATM    9  C   UNL     1      -5.639   4.233 -32.139  1.00  0.00     0.152 C 
BRANCH   9  10
HETATM   10  N   UNL     1      -4.496   4.965 -32.645  1.00  0.00    -0.279 N 
HETATM   11  N   UNL     1      -3.749   4.443 -33.641  1.00  0.00    -0.176 NA
HETATM   12  C   UNL     1      -2.787   5.360 -33.831  1.00  0.00     0.074 A 
HETATM   13  C   UNL     1      -1.729   5.142 -34.848  1.00  0.00     0.074 C 
HETATM   14  C   UNL     1      -2.945   6.467 -32.964  1.00  0.00     0.077 A 
HETATM   15  C   UNL     1      -4.059   6.183 -32.214  1.00  0.00     0.138 A 
HETATM   16 CL   UNL     1      -1.965   7.844 -32.873  1.00  0.00    -0.081 Cl
ENDBRANCH   9  10
ENDBRANCH   8   9
ENDBRANCH   7   8
ENDBRANCH   1   7
BRANCH   3  17
HETATM   17  C   UNL     1      -5.272  -1.368 -33.873  1.00  0.00     0.071 A 
HETATM   18  C   UNL     1      -6.573  -1.726 -34.291  1.00  0.00     0.095 A 
HETATM   19  C   UNL     1      -6.827  -3.048 -34.674  1.00  0.00     0.041 A 
HETATM   20  C   UNL     1      -5.812  -4.008 -34.620  1.00  0.00     0.026 A 
HETATM   21  C   UNL     1      -4.547  -3.655 -34.160  1.00  0.00     0.036 A 
HETATM   22 CL   UNL     1      -3.307  -4.845 -34.075  1.00  0.00    -0.084 Cl
HETATM   23  C   UNL     1      -4.275  -2.346 -33.771  1.00  0.00     0.056 A 
BRANCH  18  24
HETATM   24  O   UNL     1      -7.542  -0.761 -34.193  1.00  0.00    -0.354 OA
HETATM   25  C   UNL     1      -7.779   0.049 -35.337  1.00  0.00     0.210 C 
ENDBRANCH  18  24
ENDBRANCH   3  17
TORSDOF 6
ENDMDL
MODEL 7
REMARK VINA RESULT:      -7.1      4.191      7.323
REMARK  6 active torsions:
REMARK  status: ('A' for Active; 'I' for Inactive)
REMARK    1  A    between atoms: N_4  and  C_5 
REMARK    2  A    between atoms: C_5  and  C_6 
REMARK    3  A    between atoms: C_6  and  C_7 
REMARK    4  A    between atoms: C_7  and  N_8 
REMARK       I    between atoms: N_8  and  C_9 
REMARK       I    between atoms: C_9  and  N_10 
REMARK    5  A    between atoms: N_10  and  C_11 
REMARK    6  A    between atoms: C_12  and  O_13 
ROOT
HETATM    1  N   UNL     1      -8.858   0.917 -34.821  1.00  0.00    -0.343 N 
HETATM    2  C   UNL     1      -8.094   0.050 -34.070  1.00  0.00     0.320 C 
HETATM    3  N   UNL     1      -6.917  -0.251 -34.727  1.00  0.00    -0.306 N 
HETATM    4  O   UNL     1      -8.469  -0.420 -33.003  1.00  0.00    -0.247 OA
HETATM    5  H   UNL     1      -8.335   1.582 -35.381  1.00  0.00     0.164 HD
HETATM    6  H   UNL     1      -7.063  -0.396 -35.716  1.00  0.00     0.171 HD
ENDROOT
BRANCH   1   7
HETATM    7  C   UNL     1     -10.162   1.356 -34.368  1.00  0.00     0.126 C 
BRANCH   7   8
HETATM    8  C   UNL     1     -10.255   2.853 -34.065  1.00  0.00     0.041 C 
BRANCH   8   9
HETATM    9  C   UNL     1     -10.007   3.221 -32.605  1.00  0.00     0.152 C 
BRANCH   9  10
HETATM   10  N   UNL     1      -8.634   3.013 -32.191  1.00  0.00    -0.279 N 
HETATM   11  N   UNL     1      -7.622   3.441 -32.974  1.00  0.00    -0.176 NA
HETATM   12  C   UNL     1      -6.521   3.066 -32.303  1.00  0.00     0.074 A 
HETATM   13  C   UNL     1      -5.172   3.340 -32.856  1.00  0.00     0.074 C 
HETATM   14  C   UNL     1      -6.847   2.417 -31.088  1.00  0.00     0.077 A 
HETATM   15  C   UNL     1      -8.219   2.402 -31.044  1.00  0.00     0.138 A 
HETATM   16 CL   UNL     1      -5.772   1.793 -29.941  1.00  0.00    -0.081 Cl
ENDBRANCH   9  10
ENDBRANCH   8   9
ENDBRANCH   7   8
ENDBRANCH   1   7
BRANCH   3  17
HETATM   17  C   UNL     1      -5.867  -0.972 -34.113  1.00  0.00     0.071 A 
HETATM   18  C   UNL     1      -5.638  -2.343 -34.366  1.00  0.00     0.095 A 
HETATM   19  C   UNL     1      -4.555  -2.979 -33.747  1.00  0.00     0.041 A 
HETATM   20  C   UNL     1      -3.725  -2.273 -32.872  1.00  0.00     0.026 A 
HETATM   21  C   UNL     1      -3.989  -0.935 -32.593  1.00  0.00     0.036 A 
HETATM   22 CL   UNL     1      -2.976  -0.076 -31.499  1.00  0.00    -0.084 Cl
HETATM   23  C   UNL     1      -5.063  -0.285 -33.195  1.00  0.00     0.056 A 
BRANCH  18  24
HETATM   24  O   UNL     1      -6.570  -2.996 -35.131  1.00  0.00    -0.354 OA
HETATM   25  C   UNL     1      -6.507  -4.414 -35.172  1.00  0.00     0.210 C 
ENDBRANCH  18  24
ENDBRANCH   3  17
TORSDOF 6
ENDMDL
MODEL 8
REMARK VINA RESULT:      -6.9     16.501     17.328
REMARK  6 active torsions:
REMARK  status: ('A' for Active; 'I' for Inactive)
REMARK    1  A    between atoms: N_4  and  C_5 
REMARK    2  A    between atoms: C_5  and  C_6 
REMARK    3  A    between atoms: C_6  and  C_7 
REMARK    4  A    between atoms: C_7  and  N_8 
REMARK       I    between atoms: N_8  and  C_9 
REMARK       I    between atoms: C_9  and  N_10 
REMARK    5  A    between atoms: N_10  and  C_11 
REMARK    6  A    between atoms: C_12  and  O_13 
ROOT
HETATM    1  N   UNL     1      -4.394 -12.936 -36.117  1.00  0.00    -0.343 N 
HETATM    2  C   UNL     1      -3.644 -13.766 -36.923  1.00  0.00     0.320 C 
HETATM    3  N   UNL     1      -3.037 -13.042 -37.931  1.00  0.00    -0.306 N 
HETATM    4  O   UNL     1      -3.599 -14.981 -36.775  1.00  0.00    -0.247 OA
HETATM    5  H   UNL     1      -4.026 -11.998 -36.000  1.00  0.00     0.164 HD
HETATM    6  H   UNL     1      -3.655 -12.345 -38.321  1.00  0.00     0.171 HD
ENDROOT
BRANCH   1   7
HETATM    7  C   UNL     1      -5.164 -13.460 -35.008  1.00  0.00     0.126 C 
BRANCH   7   8
HETATM    8  C   UNL     1      -6.674 -13.509 -35.253  1.00  0.00     0.041 C 
BRANCH   8   9
HETATM    9  C   UNL     1      -7.102 -14.427 -36.394  1.00  0.00     0.152 C 
BRANCH   9  10
HETATM   10  N   UNL     1      -7.453 -13.709 -37.602  1.00  0.00    -0.279 N 
HETATM   11  N   UNL     1      -6.481 -13.267 -38.429  1.00  0.00    -0.176 NA
HETATM   12  C   UNL     1      -7.156 -12.643 -39.408  1.00  0.00     0.074 A 
HETATM   13  C   UNL     1      -6.431 -11.987 -40.523  1.00  0.00     0.074 C 
HETATM   14  C   UNL     1      -8.554 -12.710 -39.200  1.00  0.00     0.077 A 
HETATM   15  C   UNL     1      -8.713 -13.407 -38.028  1.00  0.00     0.138 A 
HETATM   16 CL   UNL     1      -9.767 -12.064 -40.187  1.00  0.00    -0.081 Cl
ENDBRANCH   9  10
ENDBRANCH   8   9
ENDBRANCH   7   8
ENDBRANCH   1   7
BRANCH   3  17
HETATM   17  C   UNL     1      -2.068 -13.606 -38.793  1.00  0.00     0.071 A 
HETATM   18  C   UNL     1      -2.382 -14.060 -40.093  1.00  0.00     0.095 A 
HETATM   19  C   UNL     1      -1.360 -14.573 -40.902  1.00  0.00     0.041 A 
HETATM   20  C   UNL     1      -0.050 -14.656 -40.420  1.00  0.00     0.026 A 
HETATM   21  C   UNL     1       0.237 -14.251 -39.120  1.00  0.00     0.036 A 
HETATM   22 CL   UNL     1       1.847 -14.376 -38.525  1.00  0.00    -0.084 Cl
HETATM   23  C   UNL     1      -0.765 -13.741 -38.299  1.00  0.00     0.056 A 
BRANCH  18  24
HETATM   24  O   UNL     1      -3.707 -14.066 -40.445  1.00  0.00    -0.354 OA
HETATM   25  C   UNL     1      -4.371 -15.321 -40.475  1.00  0.00     0.210 C 
ENDBRANCH  18  24
ENDBRANCH   3  17
TORSDOF 6
ENDMDL
MODEL 9
REMARK VINA RESULT:      -6.9      5.394      7.493
REMARK  6 active torsions:
REMARK  status: ('A' for Active; 'I' for Inactive)
REMARK    1  A    between atoms: N_4  and  C_5 
REMARK    2  A    between atoms: C_5  and  C_6 
REMARK    3  A    between atoms: C_6  and  C_7 
REMARK    4  A    between atoms: C_7  and  N_8 
REMARK       I    between atoms: N_8  and  C_9 
REMARK       I    between atoms: C_9  and  N_10 
REMARK    5  A    between atoms: N_10  and  C_11 
REMARK    6  A    between atoms: C_12  and  O_13 
ROOT
HETATM    1  N   UNL     1      -7.975   0.364 -32.376  1.00  0.00    -0.343 N 
HETATM    2  C   UNL     1      -8.931   1.351 -32.483  1.00  0.00     0.320 C 
HETATM    3  N   UNL     1      -9.562   1.282 -33.710  1.00  0.00    -0.306 N 
HETATM    4  O   UNL     1      -9.119   2.197 -31.618  1.00  0.00    -0.247 OA
HETATM    5  H   UNL     1      -8.193  -0.504 -32.853  1.00  0.00     0.164 HD
HETATM    6  H   UNL     1      -8.912   1.092 -34.459  1.00  0.00     0.171 HD
ENDROOT
BRANCH   1   7
HETATM    7  C   UNL     1      -7.143   0.247 -31.196  1.00  0.00     0.126 C 
BRANCH   7   8
HETATM    8  C   UNL     1      -5.665  -0.019 -31.488  1.00  0.00     0.041 C 
BRANCH   8   9
HETATM    9  C   UNL     1      -5.308  -0.060 -32.971  1.00  0.00     0.152 C 
BRANCH   9  10
HETATM   10  N   UNL     1      -5.135  -1.406 -33.479  1.00  0.00    -0.279 N 
HETATM   11  N   UNL     1      -6.117  -1.983 -34.204  1.00  0.00    -0.176 NA
HETATM   12  C   UNL     1      -5.632  -3.205 -34.479  1.00  0.00     0.074 A 
HETATM   13  C   UNL     1      -6.438  -4.177 -35.257  1.00  0.00     0.074 C 
HETATM   14  C   UNL     1      -4.337  -3.384 -33.938  1.00  0.00     0.077 A 
HETATM   15  C   UNL     1      -4.044  -2.204 -33.302  1.00  0.00     0.138 A 
HETATM   16 CL   UNL     1      -3.363  -4.763 -34.053  1.00  0.00    -0.081 Cl
ENDBRANCH   9  10
ENDBRANCH   8   9
ENDBRANCH   7   8
ENDBRANCH   1   7
BRANCH   3  17
HETATM   17  C   UNL     1     -10.703   2.056 -34.021  1.00  0.00     0.071 A 
HETATM   18  C   UNL     1     -12.019   1.570 -33.853  1.00  0.00     0.095 A 
HETATM   19  C   UNL     1     -13.100   2.410 -34.148  1.00  0.00     0.041 A 
HETATM   20  C   UNL     1     -12.880   3.705 -34.625  1.00  0.00     0.026 A 
HETATM   21  C   UNL     1     -11.580   4.157 -34.832  1.00  0.00     0.036 A 
HETATM   22 CL   UNL     1     -11.316   5.745 -35.440  1.00  0.00    -0.084 Cl
HETATM   23  C   UNL     1     -10.492   3.336 -34.549  1.00  0.00     0.056 A 
BRANCH  18  24
HETATM   24  O   UNL     1     -12.152   0.250 -33.507  1.00  0.00    -0.354 OA
HETATM   25  C   UNL     1     -13.449  -0.323 -33.595  1.00  0.00     0.210 C 
ENDBRANCH  18  24
ENDBRANCH   3  17
TORSDOF 6
ENDMDL
MODEL 10
REMARK VINA RESULT:      -6.8      1.888      2.200
REMARK  6 active torsions:
REMARK  status: ('A' for Active; 'I' for Inactive)
REMARK    1  A    between atoms: N_4  and  C_5 
REMARK    2  A    between atoms: C_5  and  C_6 
REMARK    3  A    between atoms: C_6  and  C_7 
REMARK    4  A    between atoms: C_7  and  N_8 
REMARK       I    between atoms: N_8  and  C_9 
REMARK       I    between atoms: C_9  and  N_10 
REMARK    5  A    between atoms: N_10  and  C_11 
REMARK    6  A    between atoms: C_12  and  O_13 
ROOT
HETATM    1  N   UNL     1      -4.862   2.887 -30.947  1.00  0.00    -0.343 N 
HETATM    2  C   UNL     1      -3.804   3.523 -31.560  1.00  0.00     0.320 C 
HETATM    3  N   UNL     1      -3.447   4.656 -30.856  1.00  0.00    -0.306 N 
HETATM    4  O   UNL     1      -3.318   3.144 -32.619  1.00  0.00    -0.247 OA
HETATM    5  H   UNL     1      -4.881   2.956 -29.935  1.00  0.00     0.164 HD
HETATM    6  H   UNL     1      -4.254   5.169 -30.530  1.00  0.00     0.171 HD
ENDROOT
BRANCH   1   7
HETATM    7  C   UNL     1      -5.452   1.692 -31.512  1.00  0.00     0.126 C 
BRANCH   7   8
HETATM    8  C   UNL     1      -5.007   0.389 -30.843  1.00  0.00     0.041 C 
BRANCH   8   9
HETATM    9  C   UNL     1      -3.692  -0.178 -31.368  1.00  0.00     0.152 C 
BRANCH   9  10
HETATM   10  N   UNL     1      -3.871  -1.322 -32.239  1.00  0.00    -0.279 N 
HETATM   11  N   UNL     1      -4.716  -1.242 -33.289  1.00  0.00    -0.176 NA
HETATM   12  C   UNL     1      -4.649  -2.463 -33.843  1.00  0.00     0.074 A 
HETATM   13  C   UNL     1      -5.467  -2.795 -35.035  1.00  0.00     0.074 C 
HETATM   14  C   UNL     1      -3.747  -3.302 -33.147  1.00  0.00     0.077 A 
HETATM   15  C   UNL     1      -3.259  -2.534 -32.119  1.00  0.00     0.138 A 
HETATM   16 CL   UNL     1      -3.358  -4.909 -33.507  1.00  0.00    -0.081 Cl
ENDBRANCH   9  10
ENDBRANCH   8   9
ENDBRANCH   7   8
ENDBRANCH   1   7
BRANCH   3  17
HETATM   17  C   UNL     1      -2.283   5.401 -31.156  1.00  0.00     0.071 A 
HETATM   18  C   UNL     1      -2.334   6.704 -31.699  1.00  0.00     0.095 A 
HETATM   19  C   UNL     1      -1.138   7.392 -31.934  1.00  0.00     0.041 A 
HETATM   20  C   UNL     1       0.093   6.789 -31.657  1.00  0.00     0.026 A 
HETATM   21  C   UNL     1       0.132   5.487 -31.169  1.00  0.00     0.036 A 
HETATM   22 CL   UNL     1       1.650   4.741 -30.850  1.00  0.00    -0.084 Cl
HETATM   23  C   UNL     1      -1.046   4.784 -30.931  1.00  0.00     0.056 A 
BRANCH  18  24
HETATM   24  O   UNL     1      -3.569   7.175 -32.063  1.00  0.00    -0.354 OA
HETATM   25  C   UNL     1      -4.149   8.188 -31.253  1.00  0.00     0.210 C 
ENDBRANCH  18  24
ENDBRANCH   3  17
TORSDOF 6
ENDMDL
