MODEL 1
REMARK VINA RESULT:      -9.5      0.000      0.000
REMARK  6 active torsions:
REMARK  status: ('A' for Active; 'I' for Inactive)
REMARK    1  A    between atoms: O_2  and  C_3 
REMARK    2  A    between atoms: C_6  and  C_7 
REMARK    3  A    between atoms: C_9  and  N_10 
REMARK    4  A    between atoms: N_10  and  N_11 
REMARK       I    between atoms: N_10  and  C_22 
REMARK       I    between atoms: N_11  and  C_12 
REMARK       I    between atoms: C_12  and  N_13 
REMARK    5  A    between atoms: N_13  and  C_14 
REMARK       I    between atoms: C_22  and  N_23 
REMARK    6  A    between atoms: N_23  and  C_24 
ROOT
HETATM    1  N   UNL     1      -9.229   3.297 -33.743  1.00  0.00    -0.195 N 
HETATM    2  C   UNL     1      -8.454   4.463 -33.833  1.00  0.00     0.340 C 
HETATM    3  N   UNL     1      -7.142   4.374 -33.421  1.00  0.00    -0.337 N 
HETATM    4  O   UNL     1      -8.901   5.503 -34.329  1.00  0.00    -0.245 OA
HETATM    5  H   UNL     1      -6.788   3.448 -33.233  1.00  0.00     0.164 HD
ENDROOT
BRANCH   1   6
HETATM    6  C   UNL     1      -8.746   2.134 -33.159  1.00  0.00     0.193 A 
HETATM    7  N   UNL     1      -8.039   1.230 -33.797  1.00  0.00    -0.222 NA
HETATM    8  C   UNL     1      -7.630   0.247 -32.910  1.00  0.00     0.076 A 
HETATM    9  C   UNL     1      -8.152   0.362 -31.635  1.00  0.00     0.085 A 
HETATM   10  S   UNL     1      -9.114   1.782 -31.526  1.00  0.00    -0.060 SA
BRANCH   8  11
HETATM   11  C   UNL     1      -6.662  -0.760 -33.322  1.00  0.00    -0.007 A 
HETATM   12  C   UNL     1      -7.092  -1.810 -34.146  1.00  0.00     0.016 A 
HETATM   13  C   UNL     1      -6.199  -2.791 -34.589  1.00  0.00     0.037 A 
HETATM   14  C   UNL     1      -4.861  -2.741 -34.204  1.00  0.00     0.068 A 
HETATM   15  C   UNL     1      -4.427  -1.695 -33.385  1.00  0.00     0.037 A 
HETATM   16  C   UNL     1      -5.317  -0.710 -32.942  1.00  0.00     0.016 A 
BRANCH  14  17
HETATM   17  O   UNL     1      -3.892  -3.637 -34.559  1.00  0.00    -0.356 OA
HETATM   18  C   UNL     1      -3.744  -4.780 -33.723  1.00  0.00     0.210 C 
ENDBRANCH  14  17
ENDBRANCH   8  11
ENDBRANCH   1   6
BRANCH   1  19
HETATM   19  N   UNL     1     -10.105   3.060 -34.857  1.00  0.00    -0.142 NA
HETATM   20  C   UNL     1     -11.402   2.641 -34.641  1.00  0.00     0.317 C 
HETATM   21  N   UNL     1     -12.044   3.275 -33.610  1.00  0.00    -0.312 N 
HETATM   22  O   UNL     1     -11.880   1.796 -35.393  1.00  0.00    -0.252 OA
HETATM   23  H   UNL     1     -11.582   4.127 -33.297  1.00  0.00     0.170 HD
HETATM   24  H   UNL     1      -9.655   2.516 -35.592  1.00  0.00     0.158 HD
BRANCH  21  25
HETATM   25  C   UNL     1     -13.355   3.060 -33.146  1.00  0.00     0.036 A 
HETATM   26  C   UNL     1     -14.021   1.836 -33.239  1.00  0.00     0.031 A 
HETATM   27  C   UNL     1     -15.331   1.704 -32.764  1.00  0.00     0.026 A 
HETATM   28  C   UNL     1     -15.975   2.797 -32.190  1.00  0.00     0.034 A 
HETATM   29 CL   UNL     1     -17.588   2.635 -31.614  1.00  0.00    -0.084 Cl
HETATM   30  C   UNL     1     -15.318   4.018 -32.081  1.00  0.00     0.026 A 
HETATM   31  C   UNL     1     -14.010   4.148 -32.554  1.00  0.00     0.031 A 
ENDBRANCH  21  25
ENDBRANCH   1  19
BRANCH   3  32
HETATM   32  C   UNL     1      -6.138   5.344 -33.846  1.00  0.00     0.086 C 
HETATM   33  C   UNL     1      -5.827   6.329 -32.712  1.00  0.00     0.025 C 
HETATM   34  C   UNL     1      -5.065   5.683 -31.553  1.00  0.00     0.002 C 
HETATM   35  C   UNL     1      -3.814   4.948 -32.026  1.00  0.00     0.000 C 
HETATM   36  C   UNL     1      -4.122   3.955 -33.143  1.00  0.00     0.002 C 
HETATM   37  C   UNL     1      -4.858   4.626 -34.305  1.00  0.00     0.025 C 
ENDBRANCH   3  32
TORSDOF 6
ENDMDL
MODEL 2
REMARK VINA RESULT:      -9.5      4.487      9.402
REMARK  6 active torsions:
REMARK  status: ('A' for Active; 'I' for Inactive)
REMARK    1  A    between atoms: O_2  and  C_3 
REMARK    2  A    between atoms: C_6  and  C_7 
REMARK    3  A    between atoms: C_9  and  N_10 
REMARK    4  A    between atoms: N_10  and  N_11 
REMARK       I    between atoms: N_10  and  C_22 
REMARK       I    between atoms: N_11  and  C_12 
REMARK       I    between atoms: C_12  and  N_13 
REMARK    5  A    between atoms: N_13  and  C_14 
REMARK       I    between atoms: C_22  and  N_23 
REMARK    6  A    between atoms: N_23  and  C_24 
ROOT
HETATM    1  N   UNL     1      -4.947   4.080 -32.893  1.00  0.00    -0.195 N 
HETATM    2  C   UNL     1      -4.667   2.767 -32.483  1.00  0.00     0.340 C 
HETATM    3  N   UNL     1      -5.722   1.879 -32.468  1.00  0.00    -0.337 N 
HETATM    4  O   UNL     1      -3.517   2.400 -32.220  1.00  0.00    -0.245 OA
HETATM    5  H   UNL     1      -6.580   2.190 -32.898  1.00  0.00     0.164 HD
ENDROOT
BRANCH   1   6
HETATM    6  C   UNL     1      -6.239   4.509 -33.159  1.00  0.00     0.193 A 
HETATM    7  N   UNL     1      -7.134   3.793 -33.801  1.00  0.00    -0.222 NA
HETATM    8  C   UNL     1      -8.346   4.464 -33.814  1.00  0.00     0.076 A 
HETATM    9  C   UNL     1      -8.307   5.744 -33.291  1.00  0.00     0.085 A 
HETATM   10  S   UNL     1      -6.729   6.081 -32.696  1.00  0.00    -0.060 SA
BRANCH   8  11
HETATM   11  C   UNL     1      -9.553   3.797 -34.281  1.00  0.00    -0.007 A 
HETATM   12  C   UNL     1      -9.760   2.455 -33.926  1.00  0.00     0.016 A 
HETATM   13  C   UNL     1     -10.913   1.773 -34.328  1.00  0.00     0.037 A 
HETATM   14  C   UNL     1     -11.872   2.421 -35.104  1.00  0.00     0.068 A 
HETATM   15  C   UNL     1     -11.671   3.758 -35.458  1.00  0.00     0.037 A 
HETATM   16  C   UNL     1     -10.520   4.445 -35.054  1.00  0.00     0.016 A 
BRANCH  14  17
HETATM   17  O   UNL     1     -13.033   1.869 -35.568  1.00  0.00    -0.356 OA
HETATM   18  C   UNL     1     -13.917   1.330 -34.591  1.00  0.00     0.210 C 
ENDBRANCH  14  17
ENDBRANCH   8  11
ENDBRANCH   1   6
BRANCH   1  19
HETATM   19  N   UNL     1      -3.955   4.676 -33.745  1.00  0.00    -0.142 NA
HETATM   20  C   UNL     1      -3.040   5.567 -33.224  1.00  0.00     0.317 C 
HETATM   21  N   UNL     1      -2.522   5.209 -32.007  1.00  0.00    -0.312 N 
HETATM   22  O   UNL     1      -2.735   6.554 -33.888  1.00  0.00    -0.252 OA
HETATM   23  H   UNL     1      -2.685   4.236 -31.758  1.00  0.00     0.170 HD
HETATM   24  H   UNL     1      -4.354   5.019 -34.618  1.00  0.00     0.158 HD
BRANCH  21  25
HETATM   25  C   UNL     1      -1.585   5.912 -31.226  1.00  0.00     0.036 A 
HETATM   26  C   UNL     1      -0.211   5.916 -31.478  1.00  0.00     0.031 A 
HETATM   27  C   UNL     1       0.660   6.631 -30.648  1.00  0.00     0.026 A 
HETATM   28  C   UNL     1       0.156   7.347 -29.566  1.00  0.00     0.034 A 
HETATM   29 CL   UNL     1       1.228   8.219 -28.541  1.00  0.00    -0.084 Cl
HETATM   30  C   UNL     1      -1.212   7.361 -29.310  1.00  0.00     0.026 A 
HETATM   31  C   UNL     1      -2.080   6.647 -30.141  1.00  0.00     0.031 A 
ENDBRANCH  21  25
ENDBRANCH   1  19
BRANCH   3  32
HETATM   32  C   UNL     1      -5.508   0.436 -32.485  1.00  0.00     0.086 C 
HETATM   33  C   UNL     1      -6.639  -0.284 -31.740  1.00  0.00     0.025 C 
HETATM   34  C   UNL     1      -7.976  -0.227 -32.484  1.00  0.00     0.002 C 
HETATM   35  C   UNL     1      -7.850  -0.706 -33.927  1.00  0.00     0.000 C 
HETATM   36  C   UNL     1      -6.737   0.019 -34.677  1.00  0.00     0.002 C 
HETATM   37  C   UNL     1      -5.404  -0.074 -33.932  1.00  0.00     0.025 C 
ENDBRANCH   3  32
TORSDOF 6
ENDMDL
MODEL 3
REMARK VINA RESULT:      -9.4      3.714      7.441
REMARK  6 active torsions:
REMARK  status: ('A' for Active; 'I' for Inactive)
REMARK    1  A    between atoms: O_2  and  C_3 
REMARK    2  A    between atoms: C_6  and  C_7 
REMARK    3  A    between atoms: C_9  and  N_10 
REMARK    4  A    between atoms: N_10  and  N_11 
REMARK       I    between atoms: N_10  and  C_22 
REMARK       I    between atoms: N_11  and  C_12 
REMARK       I    between atoms: C_12  and  N_13 
REMARK    5  A    between atoms: N_13  and  C_14 
REMARK       I    between atoms: C_22  and  N_23 
REMARK    6  A    between atoms: N_23  and  C_24 
ROOT
HETATM    1  N   UNL     1      -3.844   2.888 -31.932  1.00  0.00    -0.195 N 
HETATM    2  C   UNL     1      -3.096   4.074 -31.996  1.00  0.00     0.340 C 
HETATM    3  N   UNL     1      -3.715   5.226 -31.559  1.00  0.00    -0.337 N 
HETATM    4  O   UNL     1      -1.914   4.078 -32.355  1.00  0.00    -0.245 OA
HETATM    5  H   UNL     1      -4.597   5.114 -31.082  1.00  0.00     0.164 HD
ENDROOT
BRANCH   1   6
HETATM    6  C   UNL     1      -5.182   2.879 -31.561  1.00  0.00     0.193 A 
HETATM    7  N   UNL     1      -6.173   2.648 -32.391  1.00  0.00    -0.222 NA
HETATM    8  C   UNL     1      -7.368   2.613 -31.691  1.00  0.00     0.076 A 
HETATM    9  C   UNL     1      -7.268   2.954 -30.355  1.00  0.00     0.085 A 
HETATM   10  S   UNL     1      -5.623   3.245 -29.950  1.00  0.00    -0.060 SA
BRANCH   8  11
HETATM   11  C   UNL     1      -8.591   2.169 -32.343  1.00  0.00    -0.007 A 
HETATM   12  C   UNL     1      -8.924   0.807 -32.295  1.00  0.00     0.016 A 
HETATM   13  C   UNL     1     -10.099   0.329 -32.885  1.00  0.00     0.037 A 
HETATM   14  C   UNL     1     -10.955   1.209 -33.544  1.00  0.00     0.068 A 
HETATM   15  C   UNL     1     -10.629   2.568 -33.594  1.00  0.00     0.037 A 
HETATM   16  C   UNL     1      -9.456   3.049 -33.001  1.00  0.00     0.016 A 
BRANCH  14  17
HETATM   17  O   UNL     1     -12.124   0.872 -34.167  1.00  0.00    -0.356 OA
HETATM   18  C   UNL     1     -12.661   1.828 -35.074  1.00  0.00     0.210 C 
ENDBRANCH  14  17
ENDBRANCH   8  11
ENDBRANCH   1   6
BRANCH   1  19
HETATM   19  N   UNL     1      -3.116   1.732 -31.487  1.00  0.00    -0.142 NA
HETATM   20  C   UNL     1      -3.603   0.467 -31.743  1.00  0.00     0.317 C 
HETATM   21  N   UNL     1      -4.119   0.295 -33.001  1.00  0.00    -0.312 N 
HETATM   22  O   UNL     1      -3.498  -0.391 -30.871  1.00  0.00    -0.252 OA
HETATM   23  H   UNL     1      -3.862   1.030 -33.656  1.00  0.00     0.170 HD
HETATM   24  H   UNL     1      -2.802   1.823 -30.522  1.00  0.00     0.158 HD
BRANCH  21  25
HETATM   25  C   UNL     1      -4.693  -0.868 -33.548  1.00  0.00     0.036 A 
HETATM   26  C   UNL     1      -3.991  -2.058 -33.754  1.00  0.00     0.031 A 
HETATM   27  C   UNL     1      -4.630  -3.169 -34.315  1.00  0.00     0.026 A 
HETATM   28  C   UNL     1      -5.974  -3.093 -34.667  1.00  0.00     0.034 A 
HETATM   29 CL   UNL     1      -6.757  -4.458 -35.364  1.00  0.00    -0.084 Cl
HETATM   30  C   UNL     1      -6.688  -1.917 -34.457  1.00  0.00     0.026 A 
HETATM   31  C   UNL     1      -6.048  -0.809 -33.895  1.00  0.00     0.031 A 
ENDBRANCH  21  25
ENDBRANCH   1  19
BRANCH   3  32
HETATM   32  C   UNL     1      -2.949   6.406 -31.172  1.00  0.00     0.086 C 
HETATM   33  C   UNL     1      -3.552   7.669 -31.803  1.00  0.00     0.025 C 
HETATM   34  C   UNL     1      -4.906   8.049 -31.201  1.00  0.00     0.002 C 
HETATM   35  C   UNL     1      -4.852   8.144 -29.678  1.00  0.00     0.000 C 
HETATM   36  C   UNL     1      -4.269   6.884 -29.046  1.00  0.00     0.002 C 
HETATM   37  C   UNL     1      -2.903   6.537 -29.641  1.00  0.00     0.025 C 
ENDBRANCH   3  32
TORSDOF 6
ENDMDL
MODEL 4
REMARK VINA RESULT:      -9.4      3.291      7.157
REMARK  6 active torsions:
REMARK  status: ('A' for Active; 'I' for Inactive)
REMARK    1  A    between atoms: O_2  and  C_3 
REMARK    2  A    between atoms: C_6  and  C_7 
REMARK    3  A    between atoms: C_9  and  N_10 
REMARK    4  A    between atoms: N_10  and  N_11 
REMARK       I    between atoms: N_10  and  C_22 
REMARK       I    between atoms: N_11  and  C_12 
REMARK       I    between atoms: C_12  and  N_13 
REMARK    5  A    between atoms: N_13  and  C_14 
REMARK       I    between atoms: C_22  and  N_23 
REMARK    6  A    between atoms: N_23  and  C_24 
ROOT
HETATM    1  N   UNL     1      -8.648   3.787 -33.683  1.00  0.00    -0.195 N 
HETATM    2  C   UNL     1      -9.701   4.040 -34.576  1.00  0.00     0.340 C 
HETATM    3  N   UNL     1     -10.554   2.992 -34.849  1.00  0.00    -0.337 N 
HETATM    4  O   UNL     1      -9.901   5.168 -35.040  1.00  0.00    -0.245 OA
HETATM    5  H   UNL     1     -10.459   2.169 -34.273  1.00  0.00     0.164 HD
ENDROOT
BRANCH   1   6
HETATM    6  C   UNL     1      -8.397   2.517 -33.182  1.00  0.00     0.193 A 
HETATM    7  N   UNL     1      -7.699   1.602 -33.815  1.00  0.00    -0.222 NA
HETATM    8  C   UNL     1      -7.550   0.487 -33.007  1.00  0.00     0.076 A 
HETATM    9  C   UNL     1      -8.257   0.532 -31.820  1.00  0.00     0.085 A 
HETATM   10  S   UNL     1      -9.063   2.044 -31.680  1.00  0.00    -0.060 SA
BRANCH   8  11
HETATM   11  C   UNL     1      -6.644  -0.586 -33.391  1.00  0.00    -0.007 A 
HETATM   12  C   UNL     1      -7.107  -1.576 -34.271  1.00  0.00     0.016 A 
HETATM   13  C   UNL     1      -6.271  -2.616 -34.691  1.00  0.00     0.037 A 
HETATM   14  C   UNL     1      -4.960  -2.687 -34.226  1.00  0.00     0.068 A 
HETATM   15  C   UNL     1      -4.493  -1.702 -33.351  1.00  0.00     0.037 A 
HETATM   16  C   UNL     1      -5.325  -0.658 -32.932  1.00  0.00     0.016 A 
BRANCH  14  17
HETATM   17  O   UNL     1      -4.047  -3.651 -34.551  1.00  0.00    -0.356 OA
HETATM   18  C   UNL     1      -3.571  -4.463 -33.483  1.00  0.00     0.210 C 
ENDBRANCH  14  17
ENDBRANCH   8  11
ENDBRANCH   1   6
BRANCH   1  19
HETATM   19  N   UNL     1      -8.381   4.840 -32.742  1.00  0.00    -0.142 NA
HETATM   20  C   UNL     1      -7.133   4.952 -32.166  1.00  0.00     0.317 C 
HETATM   21  N   UNL     1      -6.085   4.755 -33.026  1.00  0.00    -0.312 N 
HETATM   22  O   UNL     1      -7.058   5.256 -30.979  1.00  0.00    -0.252 OA
HETATM   23  H   UNL     1      -6.345   4.793 -34.010  1.00  0.00     0.170 HD
HETATM   24  H   UNL     1      -9.122   4.934 -32.049  1.00  0.00     0.158 HD
BRANCH  21  25
HETATM   25  C   UNL     1      -4.708   4.793 -32.735  1.00  0.00     0.036 A 
HETATM   26  C   UNL     1      -4.017   3.751 -32.112  1.00  0.00     0.031 A 
HETATM   27  C   UNL     1      -2.648   3.869 -31.846  1.00  0.00     0.026 A 
HETATM   28  C   UNL     1      -1.968   5.029 -32.206  1.00  0.00     0.034 A 
HETATM   29 CL   UNL     1      -0.287   5.175 -31.871  1.00  0.00    -0.084 Cl
HETATM   30  C   UNL     1      -2.642   6.069 -32.838  1.00  0.00     0.026 A 
HETATM   31  C   UNL     1      -4.008   5.949 -33.105  1.00  0.00     0.031 A 
ENDBRANCH  21  25
ENDBRANCH   1  19
BRANCH   3  32
HETATM   32  C   UNL     1     -11.890   3.215 -35.393  1.00  0.00     0.086 C 
HETATM   33  C   UNL     1     -12.545   1.880 -35.774  1.00  0.00     0.025 C 
HETATM   34  C   UNL     1     -12.916   1.029 -34.557  1.00  0.00     0.002 C 
HETATM   35  C   UNL     1     -13.754   1.806 -33.546  1.00  0.00     0.000 C 
HETATM   36  C   UNL     1     -13.099   3.127 -33.152  1.00  0.00     0.002 C 
HETATM   37  C   UNL     1     -12.762   3.975 -34.380  1.00  0.00     0.025 C 
ENDBRANCH   3  32
TORSDOF 6
ENDMDL
MODEL 5
REMARK VINA RESULT:      -8.9      4.366      8.228
REMARK  6 active torsions:
REMARK  status: ('A' for Active; 'I' for Inactive)
REMARK    1  A    between atoms: O_2  and  C_3 
REMARK    2  A    between atoms: C_6  and  C_7 
REMARK    3  A    between atoms: C_9  and  N_10 
REMARK    4  A    between atoms: N_10  and  N_11 
REMARK       I    between atoms: N_10  and  C_22 
REMARK       I    between atoms: N_11  and  C_12 
REMARK       I    between atoms: C_12  and  N_13 
REMARK    5  A    between atoms: N_13  and  C_14 
REMARK       I    between atoms: C_22  and  N_23 
REMARK    6  A    between atoms: N_23  and  C_24 
ROOT
HETATM    1  N   UNL     1      -5.043   2.901 -31.508  1.00  0.00    -0.195 N 
HETATM    2  C   UNL     1      -3.707   3.277 -31.715  1.00  0.00     0.340 C 
HETATM    3  N   UNL     1      -3.430   4.628 -31.703  1.00  0.00    -0.337 N 
HETATM    4  O   UNL     1      -2.806   2.439 -31.828  1.00  0.00    -0.245 OA
HETATM    5  H   UNL     1      -4.170   5.239 -31.393  1.00  0.00     0.164 HD
ENDROOT
BRANCH   1   6
HETATM    6  C   UNL     1      -6.065   3.835 -31.412  1.00  0.00     0.193 A 
HETATM    7  N   UNL     1      -6.669   4.372 -32.447  1.00  0.00    -0.222 NA
HETATM    8  C   UNL     1      -7.703   5.186 -32.013  1.00  0.00     0.076 A 
HETATM    9  C   UNL     1      -7.775   5.351 -30.642  1.00  0.00     0.085 A 
HETATM   10  S   UNL     1      -6.566   4.398 -29.877  1.00  0.00    -0.060 SA
BRANCH   8  11
HETATM   11  C   UNL     1      -8.657   5.735 -32.965  1.00  0.00    -0.007 A 
HETATM   12  C   UNL     1      -8.971   4.989 -34.111  1.00  0.00     0.016 A 
HETATM   13  C   UNL     1      -9.899   5.458 -35.046  1.00  0.00     0.037 A 
HETATM   14  C   UNL     1     -10.519   6.690 -34.854  1.00  0.00     0.068 A 
HETATM   15  C   UNL     1     -10.213   7.437 -33.713  1.00  0.00     0.037 A 
HETATM   16  C   UNL     1      -9.287   6.968 -32.773  1.00  0.00     0.016 A 
BRANCH  14  17
HETATM   17  O   UNL     1     -11.434   7.265 -35.692  1.00  0.00    -0.356 OA
HETATM   18  C   UNL     1     -11.067   8.509 -36.278  1.00  0.00     0.210 C 
ENDBRANCH  14  17
ENDBRANCH   8  11
ENDBRANCH   1   6
BRANCH   1  19
HETATM   19  N   UNL     1      -5.228   1.756 -30.659  1.00  0.00    -0.142 NA
HETATM   20  C   UNL     1      -5.712   0.576 -31.186  1.00  0.00     0.317 C 
HETATM   21  N   UNL     1      -5.184   0.233 -32.403  1.00  0.00    -0.312 N 
HETATM   22  O   UNL     1      -6.515  -0.077 -30.525  1.00  0.00    -0.252 OA
HETATM   23  H   UNL     1      -4.341   0.749 -32.648  1.00  0.00     0.170 HD
HETATM   24  H   UNL     1      -5.696   1.995 -29.786  1.00  0.00     0.158 HD
BRANCH  21  25
HETATM   25  C   UNL     1      -5.484  -0.896 -33.188  1.00  0.00     0.036 A 
HETATM   26  C   UNL     1      -6.748  -1.155 -33.725  1.00  0.00     0.031 A 
HETATM   27  C   UNL     1      -6.971  -2.307 -34.487  1.00  0.00     0.026 A 
HETATM   28  C   UNL     1      -5.929  -3.200 -34.718  1.00  0.00     0.034 A 
HETATM   29 CL   UNL     1      -6.207  -4.620 -35.649  1.00  0.00    -0.084 Cl
HETATM   30  C   UNL     1      -4.663  -2.948 -34.199  1.00  0.00     0.026 A 
HETATM   31  C   UNL     1      -4.441  -1.797 -33.439  1.00  0.00     0.031 A 
ENDBRANCH  21  25
ENDBRANCH   1  19
BRANCH   3  32
HETATM   32  C   UNL     1      -2.079   5.130 -31.478  1.00  0.00     0.086 C 
HETATM   33  C   UNL     1      -1.291   5.166 -32.795  1.00  0.00     0.025 C 
HETATM   34  C   UNL     1      -1.793   6.241 -33.762  1.00  0.00     0.002 C 
HETATM   35  C   UNL     1      -1.864   7.616 -33.104  1.00  0.00     0.000 C 
HETATM   36  C   UNL     1      -2.660   7.590 -31.803  1.00  0.00     0.002 C 
HETATM   37  C   UNL     1      -2.125   6.528 -30.839  1.00  0.00     0.025 C 
ENDBRANCH   3  32
TORSDOF 6
ENDMDL
MODEL 6
REMARK VINA RESULT:      -8.9      5.223      8.921
REMARK  6 active torsions:
REMARK  status: ('A' for Active; 'I' for Inactive)
REMARK    1  A    between atoms: O_2  and  C_3 
REMARK    2  A    between atoms: C_6  and  C_7 
REMARK    3  A    between atoms: C_9  and  N_10 
REMARK    4  A    between atoms: N_10  and  N_11 
REMARK       I    between atoms: N_10  and  C_22 
REMARK       I    between atoms: N_11  and  C_12 
REMARK       I    between atoms: C_12  and  N_13 
REMARK    5  A    between atoms: N_13  and  C_14 
REMARK       I    between atoms: C_22  and  N_23 
REMARK    6  A    between atoms: N_23  and  C_24 
ROOT
HETATM    1  N   UNL     1      -4.895   2.861 -31.483  1.00  0.00    -0.195 N 
HETATM    2  C   UNL     1      -3.556   3.209 -31.718  1.00  0.00     0.340 C 
HETATM    3  N   UNL     1      -3.247   4.552 -31.698  1.00  0.00    -0.337 N 
HETATM    4  O   UNL     1      -2.678   2.351 -31.862  1.00  0.00    -0.245 OA
HETATM    5  H   UNL     1      -3.966   5.177 -31.364  1.00  0.00     0.164 HD
ENDROOT
BRANCH   1   6
HETATM    6  C   UNL     1      -5.893   3.817 -31.353  1.00  0.00     0.193 A 
HETATM    7  N   UNL     1      -6.131   4.485 -30.249  1.00  0.00    -0.222 NA
HETATM    8  C   UNL     1      -7.121   5.427 -30.477  1.00  0.00     0.076 A 
HETATM    9  C   UNL     1      -7.707   5.360 -31.728  1.00  0.00     0.085 A 
HETATM   10  S   UNL     1      -6.942   4.139 -32.665  1.00  0.00    -0.060 SA
BRANCH   8  11
HETATM   11  C   UNL     1      -7.424   6.436 -29.473  1.00  0.00    -0.007 A 
HETATM   12  C   UNL     1      -8.711   6.467 -28.916  1.00  0.00     0.016 A 
HETATM   13  C   UNL     1      -9.050   7.400 -27.931  1.00  0.00     0.037 A 
HETATM   14  C   UNL     1      -8.105   8.326 -27.495  1.00  0.00     0.068 A 
HETATM   15  C   UNL     1      -6.820   8.298 -28.044  1.00  0.00     0.037 A 
HETATM   16  C   UNL     1      -6.477   7.363 -29.028  1.00  0.00     0.016 A 
BRANCH  14  17
HETATM   17  O   UNL     1      -8.308   9.292 -26.549  1.00  0.00    -0.356 OA
HETATM   18  C   UNL     1      -8.022  10.632 -26.934  1.00  0.00     0.210 C 
ENDBRANCH  14  17
ENDBRANCH   8  11
ENDBRANCH   1   6
BRANCH   1  19
HETATM   19  N   UNL     1      -5.087   1.710 -30.644  1.00  0.00    -0.142 NA
HETATM   20  C   UNL     1      -5.595   0.543 -31.176  1.00  0.00     0.317 C 
HETATM   21  N   UNL     1      -5.087   0.203 -32.402  1.00  0.00    -0.312 N 
HETATM   22  O   UNL     1      -6.399  -0.104 -30.512  1.00  0.00    -0.252 OA
HETATM   23  H   UNL     1      -4.240   0.709 -32.653  1.00  0.00     0.170 HD
HETATM   24  H   UNL     1      -5.541   1.948 -29.763  1.00  0.00     0.158 HD
BRANCH  21  25
HETATM   25  C   UNL     1      -5.414  -0.913 -33.195  1.00  0.00     0.036 A 
HETATM   26  C   UNL     1      -6.665  -1.107 -33.785  1.00  0.00     0.031 A 
HETATM   27  C   UNL     1      -6.917  -2.250 -34.551  1.00  0.00     0.026 A 
HETATM   28  C   UNL     1      -5.916  -3.200 -34.731  1.00  0.00     0.034 A 
HETATM   29 CL   UNL     1      -6.230  -4.610 -35.667  1.00  0.00    -0.084 Cl
HETATM   30  C   UNL     1      -4.662  -3.014 -34.158  1.00  0.00     0.026 A 
HETATM   31  C   UNL     1      -4.412  -1.870 -33.395  1.00  0.00     0.031 A 
ENDBRANCH  21  25
ENDBRANCH   1  19
BRANCH   3  32
HETATM   32  C   UNL     1      -1.880   5.021 -31.499  1.00  0.00     0.086 C 
HETATM   33  C   UNL     1      -1.187   5.247 -32.849  1.00  0.00     0.025 C 
HETATM   34  C   UNL     1      -1.748   6.449 -33.614  1.00  0.00     0.002 C 
HETATM   35  C   UNL     1      -1.762   7.715 -32.762  1.00  0.00     0.000 C 
HETATM   36  C   UNL     1      -2.464   7.500 -31.425  1.00  0.00     0.002 C 
HETATM   37  C   UNL     1      -1.871   6.312 -30.664  1.00  0.00     0.025 C 
ENDBRANCH   3  32
TORSDOF 6
ENDMDL
MODEL 7
REMARK VINA RESULT:      -8.8      4.387      6.370
REMARK  6 active torsions:
REMARK  status: ('A' for Active; 'I' for Inactive)
REMARK    1  A    between atoms: O_2  and  C_3 
REMARK    2  A    between atoms: C_6  and  C_7 
REMARK    3  A    between atoms: C_9  and  N_10 
REMARK    4  A    between atoms: N_10  and  N_11 
REMARK       I    between atoms: N_10  and  C_22 
REMARK       I    between atoms: N_11  and  C_12 
REMARK       I    between atoms: C_12  and  N_13 
REMARK    5  A    between atoms: N_13  and  C_14 
REMARK       I    between atoms: C_22  and  N_23 
REMARK    6  A    between atoms: N_23  and  C_24 
ROOT
HETATM    1  N   UNL     1      -8.679   3.206 -32.387  1.00  0.00    -0.195 N 
HETATM    2  C   UNL     1      -8.079   3.239 -31.119  1.00  0.00     0.340 C 
HETATM    3  N   UNL     1      -7.212   2.211 -30.812  1.00  0.00    -0.337 N 
HETATM    4  O   UNL     1      -8.258   4.181 -30.340  1.00  0.00    -0.245 OA
HETATM    5  H   UNL     1      -6.950   1.599 -31.569  1.00  0.00     0.164 HD
ENDROOT
BRANCH   1   6
HETATM    6  C   UNL     1      -8.510   2.136 -33.255  1.00  0.00     0.193 A 
HETATM    7  N   UNL     1      -7.441   1.374 -33.282  1.00  0.00    -0.222 NA
HETATM    8  C   UNL     1      -7.626   0.343 -34.189  1.00  0.00     0.076 A 
HETATM    9  C   UNL     1      -8.790   0.424 -34.930  1.00  0.00     0.085 A 
HETATM   10  S   UNL     1      -9.711   1.783 -34.420  1.00  0.00    -0.060 SA
BRANCH   8  11
HETATM   11  C   UNL     1      -6.676  -0.758 -34.257  1.00  0.00    -0.007 A 
HETATM   12  C   UNL     1      -7.117  -2.000 -34.739  1.00  0.00     0.016 A 
HETATM   13  C   UNL     1      -6.240  -3.084 -34.847  1.00  0.00     0.037 A 
HETATM   14  C   UNL     1      -4.908  -2.944 -34.463  1.00  0.00     0.068 A 
HETATM   15  C   UNL     1      -4.463  -1.709 -33.985  1.00  0.00     0.037 A 
HETATM   16  C   UNL     1      -5.337  -0.620 -33.879  1.00  0.00     0.016 A 
BRANCH  14  17
HETATM   17  O   UNL     1      -3.955  -3.923 -34.511  1.00  0.00    -0.356 OA
HETATM   18  C   UNL     1      -4.323  -5.197 -33.995  1.00  0.00     0.210 C 
ENDBRANCH  14  17
ENDBRANCH   8  11
ENDBRANCH   1   6
BRANCH   1  19
HETATM   19  N   UNL     1      -8.770   4.477 -33.051  1.00  0.00    -0.142 NA
HETATM   20  C   UNL     1      -7.651   5.275 -33.173  1.00  0.00     0.317 C 
HETATM   21  N   UNL     1      -6.502   4.605 -33.502  1.00  0.00    -0.312 N 
HETATM   22  O   UNL     1      -7.776   6.488 -33.027  1.00  0.00    -0.252 OA
HETATM   23  H   UNL     1      -6.659   3.661 -33.849  1.00  0.00     0.170 HD
HETATM   24  H   UNL     1      -9.580   5.014 -32.746  1.00  0.00     0.158 HD
BRANCH  21  25
HETATM   25  C   UNL     1      -5.212   5.138 -33.684  1.00  0.00     0.036 A 
HETATM   26  C   UNL     1      -4.436   4.922 -34.825  1.00  0.00     0.031 A 
HETATM   27  C   UNL     1      -3.156   5.478 -34.927  1.00  0.00     0.026 A 
HETATM   28  C   UNL     1      -2.652   6.255 -33.889  1.00  0.00     0.034 A 
HETATM   29 CL   UNL     1      -1.075   6.932 -34.012  1.00  0.00    -0.084 Cl
HETATM   30  C   UNL     1      -3.419   6.488 -32.751  1.00  0.00     0.026 A 
HETATM   31  C   UNL     1      -4.698   5.934 -32.652  1.00  0.00     0.031 A 
ENDBRANCH  21  25
ENDBRANCH   1  19
BRANCH   3  32
HETATM   32  C   UNL     1      -6.221   2.338 -29.748  1.00  0.00     0.086 C 
HETATM   33  C   UNL     1      -5.715   0.956 -29.317  1.00  0.00     0.025 C 
HETATM   34  C   UNL     1      -4.846   0.280 -30.380  1.00  0.00     0.002 C 
HETATM   35  C   UNL     1      -3.708   1.181 -30.849  1.00  0.00     0.000 C 
HETATM   36  C   UNL     1      -4.208   2.552 -31.295  1.00  0.00     0.002 C 
HETATM   37  C   UNL     1      -5.051   3.223 -30.209  1.00  0.00     0.025 C 
ENDBRANCH   3  32
TORSDOF 6
ENDMDL
MODEL 8
REMARK VINA RESULT:      -8.6      5.230      9.235
REMARK  6 active torsions:
REMARK  status: ('A' for Active; 'I' for Inactive)
REMARK    1  A    between atoms: O_2  and  C_3 
REMARK    2  A    between atoms: C_6  and  C_7 
REMARK    3  A    between atoms: C_9  and  N_10 
REMARK    4  A    between atoms: N_10  and  N_11 
REMARK       I    between atoms: N_10  and  C_22 
REMARK       I    between atoms: N_11  and  C_12 
REMARK       I    between atoms: C_12  and  N_13 
REMARK    5  A    between atoms: N_13  and  C_14 
REMARK       I    between atoms: C_22  and  N_23 
REMARK    6  A    between atoms: N_23  and  C_24 
ROOT
HETATM    1  N   UNL     1      -4.680   4.431 -31.331  1.00  0.00    -0.195 N 
HETATM    2  C   UNL     1      -5.509   4.446 -30.199  1.00  0.00     0.340 C 
HETATM    3  N   UNL     1      -5.055   5.148 -29.102  1.00  0.00    -0.337 N 
HETATM    4  O   UNL     1      -6.627   3.920 -30.205  1.00  0.00    -0.245 OA
HETATM    5  H   UNL     1      -4.240   5.727 -29.241  1.00  0.00     0.164 HD
ENDROOT
BRANCH   1   6
HETATM    6  C   UNL     1      -3.410   4.991 -31.323  1.00  0.00     0.193 A 
HETATM    7  N   UNL     1      -3.037   5.955 -30.513  1.00  0.00    -0.222 NA
HETATM    8  C   UNL     1      -1.689   6.218 -30.691  1.00  0.00     0.076 A 
HETATM    9  C   UNL     1      -1.096   5.530 -31.733  1.00  0.00     0.085 A 
HETATM   10  S   UNL     1      -2.240   4.469 -32.455  1.00  0.00    -0.060 SA
BRANCH   8  11
HETATM   11  C   UNL     1      -0.983   7.099 -29.772  1.00  0.00    -0.007 A 
HETATM   12  C   UNL     1      -1.705   8.108 -29.117  1.00  0.00     0.016 A 
HETATM   13  C   UNL     1      -1.081   8.967 -28.206  1.00  0.00     0.037 A 
HETATM   14  C   UNL     1       0.281   8.836 -27.946  1.00  0.00     0.068 A 
HETATM   15  C   UNL     1       1.005   7.831 -28.594  1.00  0.00     0.037 A 
HETATM   16  C   UNL     1       0.383   6.967 -29.502  1.00  0.00     0.016 A 
BRANCH  14  17
HETATM   17  O   UNL     1       1.010   9.612 -27.089  1.00  0.00    -0.356 OA
HETATM   18  C   UNL     1       1.619   8.947 -25.988  1.00  0.00     0.210 C 
ENDBRANCH  14  17
ENDBRANCH   8  11
ENDBRANCH   1   6
BRANCH   1  19
HETATM   19  N   UNL     1      -5.363   4.573 -32.588  1.00  0.00    -0.142 NA
HETATM   20  C   UNL     1      -5.522   3.481 -33.416  1.00  0.00     0.317 C 
HETATM   21  N   UNL     1      -5.863   2.319 -32.774  1.00  0.00    -0.312 N 
HETATM   22  O   UNL     1      -5.394   3.638 -34.627  1.00  0.00    -0.252 OA
HETATM   23  H   UNL     1      -6.192   2.456 -31.820  1.00  0.00     0.170 HD
HETATM   24  H   UNL     1      -5.050   5.392 -33.105  1.00  0.00     0.158 HD
BRANCH  21  25
HETATM   25  C   UNL     1      -6.081   1.050 -33.342  1.00  0.00     0.036 A 
HETATM   26  C   UNL     1      -7.065   0.785 -34.298  1.00  0.00     0.031 A 
HETATM   27  C   UNL     1      -7.228  -0.508 -34.807  1.00  0.00     0.026 A 
HETATM   28  C   UNL     1      -6.403  -1.538 -34.364  1.00  0.00     0.034 A 
HETATM   29 CL   UNL     1      -6.609  -3.129 -34.985  1.00  0.00    -0.084 Cl
HETATM   30  C   UNL     1      -5.411  -1.285 -33.421  1.00  0.00     0.026 A 
HETATM   31  C   UNL     1      -5.250   0.007 -32.915  1.00  0.00     0.031 A 
ENDBRANCH  21  25
ENDBRANCH   1  19
BRANCH   3  32
HETATM   32  C   UNL     1      -5.962   5.600 -28.053  1.00  0.00     0.086 C 
HETATM   33  C   UNL     1      -5.214   5.746 -26.721  1.00  0.00     0.025 C 
HETATM   34  C   UNL     1      -4.231   6.919 -26.714  1.00  0.00     0.002 C 
HETATM   35  C   UNL     1      -4.893   8.226 -27.141  1.00  0.00     0.000 C 
HETATM   36  C   UNL     1      -5.625   8.090 -28.473  1.00  0.00     0.002 C 
HETATM   37  C   UNL     1      -6.623   6.930 -28.451  1.00  0.00     0.025 C 
ENDBRANCH   3  32
TORSDOF 6
ENDMDL
MODEL 9
REMARK VINA RESULT:      -8.6      3.892      7.621
REMARK  6 active torsions:
REMARK  status: ('A' for Active; 'I' for Inactive)
REMARK    1  A    between atoms: O_2  and  C_3 
REMARK    2  A    between atoms: C_6  and  C_7 
REMARK    3  A    between atoms: C_9  and  N_10 
REMARK    4  A    between atoms: N_10  and  N_11 
REMARK       I    between atoms: N_10  and  C_22 
REMARK       I    between atoms: N_11  and  C_12 
REMARK       I    between atoms: C_12  and  N_13 
REMARK    5  A    between atoms: N_13  and  C_14 
REMARK       I    between atoms: C_22  and  N_23 
REMARK    6  A    between atoms: N_23  and  C_24 
ROOT
HETATM    1  N   UNL     1      -7.443   4.265 -32.073  1.00  0.00    -0.195 N 
HETATM    2  C   UNL     1      -8.174   5.150 -32.880  1.00  0.00     0.340 C 
HETATM    3  N   UNL     1      -9.183   4.607 -33.647  1.00  0.00    -0.337 N 
HETATM    4  O   UNL     1      -7.977   6.370 -32.851  1.00  0.00    -0.245 OA
HETATM    5  H   UNL     1      -9.427   3.647 -33.459  1.00  0.00     0.164 HD
ENDROOT
BRANCH   1   6
HETATM    6  C   UNL     1      -7.636   2.892 -32.123  1.00  0.00     0.193 A 
HETATM    7  N   UNL     1      -6.929   2.077 -32.870  1.00  0.00    -0.222 NA
HETATM    8  C   UNL     1      -7.304   0.767 -32.618  1.00  0.00     0.076 A 
HETATM    9  C   UNL     1      -8.390   0.628 -31.773  1.00  0.00     0.085 A 
HETATM   10  S   UNL     1      -8.899   2.174 -31.220  1.00  0.00    -0.060 SA
BRANCH   8  11
HETATM   11  C   UNL     1      -6.531  -0.339 -33.163  1.00  0.00    -0.007 A 
HETATM   12  C   UNL     1      -5.238  -0.565 -32.668  1.00  0.00     0.016 A 
HETATM   13  C   UNL     1      -4.460  -1.628 -33.140  1.00  0.00     0.037 A 
HETATM   14  C   UNL     1      -4.963  -2.476 -34.124  1.00  0.00     0.068 A 
HETATM   15  C   UNL     1      -6.252  -2.257 -34.619  1.00  0.00     0.037 A 
HETATM   16  C   UNL     1      -7.034  -1.196 -34.146  1.00  0.00     0.016 A 
BRANCH  14  17
HETATM   17  O   UNL     1      -4.306  -3.541 -34.675  1.00  0.00    -0.356 OA
HETATM   18  C   UNL     1      -3.726  -4.470 -33.766  1.00  0.00     0.210 C 
ENDBRANCH  14  17
ENDBRANCH   8  11
ENDBRANCH   1   6
BRANCH   1  19
HETATM   19  N   UNL     1      -7.132   4.755 -30.758  1.00  0.00    -0.142 NA
HETATM   20  C   UNL     1      -5.819   4.961 -30.389  1.00  0.00     0.317 C 
HETATM   21  N   UNL     1      -5.038   5.545 -31.352  1.00  0.00    -0.312 N 
HETATM   22  O   UNL     1      -5.474   4.659 -29.250  1.00  0.00    -0.252 OA
HETATM   23  H   UNL     1      -5.567   5.969 -32.111  1.00  0.00     0.170 HD
HETATM   24  H   UNL     1      -7.652   4.265 -30.032  1.00  0.00     0.158 HD
BRANCH  21  25
HETATM   25  C   UNL     1      -3.670   5.868 -31.277  1.00  0.00     0.036 A 
HETATM   26  C   UNL     1      -3.170   6.971 -30.581  1.00  0.00     0.031 A 
HETATM   27  C   UNL     1      -1.796   7.233 -30.562  1.00  0.00     0.026 A 
HETATM   28  C   UNL     1      -0.918   6.388 -31.237  1.00  0.00     0.034 A 
HETATM   29 CL   UNL     1       0.771   6.716 -31.220  1.00  0.00    -0.084 Cl
HETATM   30  C   UNL     1      -1.403   5.279 -31.924  1.00  0.00     0.026 A 
HETATM   31  C   UNL     1      -2.775   5.019 -31.940  1.00  0.00     0.031 A 
ENDBRANCH  21  25
ENDBRANCH   1  19
BRANCH   3  32
HETATM   32  C   UNL     1     -10.266   5.428 -34.180  1.00  0.00     0.086 C 
HETATM   33  C   UNL     1     -10.683   4.932 -35.570  1.00  0.00     0.025 C 
HETATM   34  C   UNL     1     -11.398   3.579 -35.533  1.00  0.00     0.002 C 
HETATM   35  C   UNL     1     -12.568   3.575 -34.553  1.00  0.00     0.000 C 
HETATM   36  C   UNL     1     -12.155   4.052 -33.164  1.00  0.00     0.002 C 
HETATM   37  C   UNL     1     -11.468   5.418 -33.220  1.00  0.00     0.025 C 
ENDBRANCH   3  32
TORSDOF 6
ENDMDL
MODEL 10
REMARK VINA RESULT:      -8.5      5.606     10.618
REMARK  6 active torsions:
REMARK  status: ('A' for Active; 'I' for Inactive)
REMARK    1  A    between atoms: O_2  and  C_3 
REMARK    2  A    between atoms: C_6  and  C_7 
REMARK    3  A    between atoms: C_9  and  N_10 
REMARK    4  A    between atoms: N_10  and  N_11 
REMARK       I    between atoms: N_10  and  C_22 
REMARK       I    between atoms: N_11  and  C_12 
REMARK       I    between atoms: C_12  and  N_13 
REMARK    5  A    between atoms: N_13  and  C_14 
REMARK       I    between atoms: C_22  and  N_23 
REMARK    6  A    between atoms: N_23  and  C_24 
ROOT
HETATM    1  N   UNL     1      -3.791   3.321 -32.296  1.00  0.00    -0.195 N 
HETATM    2  C   UNL     1      -4.153   1.974 -32.453  1.00  0.00     0.340 C 
HETATM    3  N   UNL     1      -5.492   1.706 -32.649  1.00  0.00    -0.337 N 
HETATM    4  O   UNL     1      -3.308   1.074 -32.489  1.00  0.00    -0.245 OA
HETATM    5  H   UNL     1      -6.091   2.499 -32.822  1.00  0.00     0.164 HD
ENDROOT
BRANCH   1   6
HETATM    6  C   UNL     1      -4.737   4.334 -32.222  1.00  0.00     0.193 A 
HETATM    7  N   UNL     1      -5.394   4.647 -31.130  1.00  0.00    -0.222 NA
HETATM    8  C   UNL     1      -6.186   5.760 -31.364  1.00  0.00     0.076 A 
HETATM    9  C   UNL     1      -6.209   6.188 -32.679  1.00  0.00     0.085 A 
HETATM   10  S   UNL     1      -5.150   5.220 -33.625  1.00  0.00    -0.060 SA
BRANCH   8  11
HETATM   11  C   UNL     1      -6.856   6.434 -30.261  1.00  0.00    -0.007 A 
HETATM   12  C   UNL     1      -7.608   5.665 -29.360  1.00  0.00     0.016 A 
HETATM   13  C   UNL     1      -8.253   6.258 -28.270  1.00  0.00     0.037 A 
HETATM   14  C   UNL     1      -8.164   7.634 -28.071  1.00  0.00     0.068 A 
HETATM   15  C   UNL     1      -7.413   8.404 -28.964  1.00  0.00     0.037 A 
HETATM   16  C   UNL     1      -6.764   7.813 -30.054  1.00  0.00     0.016 A 
BRANCH  14  17
HETATM   17  O   UNL     1      -8.750   8.336 -27.055  1.00  0.00    -0.356 OA
HETATM   18  C   UNL     1     -10.158   8.186 -26.907  1.00  0.00     0.210 C 
ENDBRANCH  14  17
ENDBRANCH   8  11
ENDBRANCH   1   6
BRANCH   1  19
HETATM   19  N   UNL     1      -2.583   3.709 -32.971  1.00  0.00    -0.142 NA
HETATM   20  C   UNL     1      -1.824   4.753 -32.484  1.00  0.00     0.317 C 
HETATM   21  N   UNL     1      -1.678   4.770 -31.122  1.00  0.00    -0.312 N 
HETATM   22  O   UNL     1      -1.316   5.533 -33.285  1.00  0.00    -0.252 OA
HETATM   23  H   UNL     1      -1.935   3.895 -30.668  1.00  0.00     0.170 HD
HETATM   24  H   UNL     1      -2.711   3.778 -33.979  1.00  0.00     0.158 HD
BRANCH  21  25
HETATM   25  C   UNL     1      -0.977   5.705 -30.339  1.00  0.00     0.036 A 
HETATM   26  C   UNL     1      -1.342   7.049 -30.221  1.00  0.00     0.031 A 
HETATM   27  C   UNL     1      -0.586   7.921 -29.431  1.00  0.00     0.026 A 
HETATM   28  C   UNL     1       0.535   7.450 -28.753  1.00  0.00     0.034 A 
HETATM   29 CL   UNL     1       1.468   8.526 -27.788  1.00  0.00    -0.084 Cl
HETATM   30  C   UNL     1       0.902   6.112 -28.852  1.00  0.00     0.026 A 
HETATM   31  C   UNL     1       0.145   5.242 -29.641  1.00  0.00     0.031 A 
ENDBRANCH  21  25
ENDBRANCH   1  19
BRANCH   3  32
HETATM   32  C   UNL     1      -5.942   0.450 -33.238  1.00  0.00     0.086 C 
HETATM   33  C   UNL     1      -6.856  -0.304 -32.263  1.00  0.00     0.025 C 
HETATM   34  C   UNL     1      -8.214   0.375 -32.070  1.00  0.00     0.002 C 
HETATM   35  C   UNL     1      -8.909   0.657 -33.399  1.00  0.00     0.000 C 
HETATM   36  C   UNL     1      -8.010   1.421 -34.366  1.00  0.00     0.002 C 
HETATM   37  C   UNL     1      -6.670   0.711 -34.567  1.00  0.00     0.025 C 
ENDBRANCH   3  32
TORSDOF 6
ENDMDL
