MODEL 1
REMARK VINA RESULT:      -8.9      0.000      0.000
REMARK  7 active torsions:
REMARK  status: ('A' for Active; 'I' for Inactive)
REMARK    1  A    between atoms: C_8  and  C_9 
REMARK    2  A    between atoms: C_9  and  N_10 
REMARK    3  A    between atoms: C_9  and  C_14 
REMARK       I    between atoms: C_14  and  N_15 
REMARK    4  A    between atoms: N_15  and  C_16 
REMARK    5  A    between atoms: C_16  and  C_17 
REMARK    6  A    between atoms: C_17  and  C_18 
REMARK    7  A    between atoms: C_17  and  C_24 
ROOT
HETATM    1  C   UNL     1      -9.553   1.278 -32.620  1.00  0.00     0.253 C 
HETATM    2  N   UNL     1      -9.104   0.533 -33.688  1.00  0.00    -0.358 N 
HETATM    3  O   UNL     1      -9.460   0.908 -31.451  1.00  0.00    -0.271 OA
HETATM    4  H   UNL     1      -8.987   0.987 -34.588  1.00  0.00     0.162 HD
ENDROOT
BRANCH   2   5
HETATM    5  C   UNL     1      -8.384  -0.741 -33.540  1.00  0.00     0.141 C 
BRANCH   5   6
HETATM    6  C   UNL     1      -6.861  -0.702 -33.976  1.00  0.00     0.026 C 
HETATM    7  C   UNL     1      -6.838   0.056 -35.342  1.00  0.00     0.027 C 
BRANCH   6   8
HETATM    8  C   UNL     1      -6.098   0.071 -32.867  1.00  0.00    -0.044 A 
HETATM    9  C   UNL     1      -6.193  -0.354 -31.525  1.00  0.00     0.008 A 
HETATM   10  C   UNL     1      -5.539   0.330 -30.496  1.00  0.00     0.001 A 
HETATM   11  C   UNL     1      -4.771   1.453 -30.783  1.00  0.00     0.000 A 
HETATM   12  C   UNL     1      -4.655   1.889 -32.098  1.00  0.00     0.001 A 
HETATM   13  C   UNL     1      -5.311   1.208 -33.128  1.00  0.00     0.008 A 
ENDBRANCH   6   8
BRANCH   6  14
HETATM   14  C   UNL     1      -6.212  -2.099 -34.184  1.00  0.00    -0.044 A 
HETATM   15  C   UNL     1      -6.983  -3.187 -34.644  1.00  0.00     0.008 A 
HETATM   16  C   UNL     1      -6.418  -4.447 -34.870  1.00  0.00     0.001 A 
HETATM   17  C   UNL     1      -5.059  -4.649 -34.667  1.00  0.00     0.000 A 
HETATM   18  C   UNL     1      -4.265  -3.586 -34.253  1.00  0.00     0.001 A 
HETATM   19  C   UNL     1      -4.834  -2.327 -34.025  1.00  0.00     0.008 A 
ENDBRANCH   6  14
ENDBRANCH   5   6
ENDBRANCH   2   5
BRANCH   1  20
HETATM   20  C   UNL     1     -10.422   2.515 -32.941  1.00  0.00     0.311 C 
BRANCH  20  21
HETATM   21  C   UNL     1     -11.405   2.315 -34.050  1.00  0.00     0.031 A 
HETATM   22  C   UNL     1     -12.359   1.324 -34.264  1.00  0.00     0.035 A 
HETATM   23  C   UNL     1     -12.771   0.108 -33.523  1.00  0.00     0.070 C 
HETATM   24  N   UNL     1     -12.986   1.654 -35.440  1.00  0.00    -0.282 N 
HETATM   25  H   UNL     1     -13.738   1.165 -35.921  1.00  0.00     0.189 HD
HETATM   26  N   UNL     1     -12.513   2.770 -35.993  1.00  0.00    -0.179 NA
HETATM   27  C   UNL     1     -11.557   3.190 -35.168  1.00  0.00     0.061 A 
HETATM   28  C   UNL     1     -10.820   4.446 -35.480  1.00  0.00     0.073 C 
ENDBRANCH  20  21
BRANCH  20  29
HETATM   29  N   UNL     1     -11.049   3.005 -31.677  1.00  0.00    -0.062 N 
HETATM   30  H   UNL     1     -10.366   3.514 -31.106  1.00  0.00     0.275 HD
HETATM   31  H   UNL     1     -11.796   3.673 -31.912  1.00  0.00     0.275 HD
HETATM   32  H   UNL     1     -11.444   2.231 -31.134  1.00  0.00     0.275 HD
ENDBRANCH  20  29
ENDBRANCH   1  20
TORSDOF 7
ENDMDL
MODEL 2
REMARK VINA RESULT:      -8.9      0.423      1.621
REMARK  7 active torsions:
REMARK  status: ('A' for Active; 'I' for Inactive)
REMARK    1  A    between atoms: C_8  and  C_9 
REMARK    2  A    between atoms: C_9  and  N_10 
REMARK    3  A    between atoms: C_9  and  C_14 
REMARK       I    between atoms: C_14  and  N_15 
REMARK    4  A    between atoms: N_15  and  C_16 
REMARK    5  A    between atoms: C_16  and  C_17 
REMARK    6  A    between atoms: C_17  and  C_18 
REMARK    7  A    between atoms: C_17  and  C_24 
ROOT
HETATM    1  C   UNL     1      -9.604   1.624 -32.547  1.00  0.00     0.253 C 
HETATM    2  N   UNL     1      -9.263   0.827 -33.618  1.00  0.00    -0.358 N 
HETATM    3  O   UNL     1      -9.396   1.310 -31.377  1.00  0.00    -0.271 OA
HETATM    4  H   UNL     1      -9.236   1.237 -34.546  1.00  0.00     0.162 HD
ENDROOT
BRANCH   2   5
HETATM    5  C   UNL     1      -8.532  -0.441 -33.481  1.00  0.00     0.141 C 
BRANCH   5   6
HETATM    6  C   UNL     1      -7.012  -0.388 -33.930  1.00  0.00     0.026 C 
HETATM    7  C   UNL     1      -7.004   0.405 -35.276  1.00  0.00     0.027 C 
BRANCH   6   8
HETATM    8  C   UNL     1      -6.240   0.356 -32.809  1.00  0.00    -0.044 A 
HETATM    9  C   UNL     1      -6.253  -0.152 -31.493  1.00  0.00     0.008 A 
HETATM   10  C   UNL     1      -5.588   0.503 -30.452  1.00  0.00     0.001 A 
HETATM   11  C   UNL     1      -4.891   1.680 -30.701  1.00  0.00     0.000 A 
HETATM   12  C   UNL     1      -4.857   2.199 -31.990  1.00  0.00     0.001 A 
HETATM   13  C   UNL     1      -5.524   1.547 -33.032  1.00  0.00     0.008 A 
ENDBRANCH   6   8
BRANCH   6  14
HETATM   14  C   UNL     1      -6.364  -1.779 -34.182  1.00  0.00    -0.044 A 
HETATM   15  C   UNL     1      -7.159  -2.886 -34.542  1.00  0.00     0.008 A 
HETATM   16  C   UNL     1      -6.597  -4.141 -34.805  1.00  0.00     0.001 A 
HETATM   17  C   UNL     1      -5.221  -4.318 -34.738  1.00  0.00     0.000 A 
HETATM   18  C   UNL     1      -4.408  -3.235 -34.426  1.00  0.00     0.001 A 
HETATM   19  C   UNL     1      -4.973  -1.982 -34.161  1.00  0.00     0.008 A 
ENDBRANCH   6  14
ENDBRANCH   5   6
ENDBRANCH   2   5
BRANCH   1  20
HETATM   20  C   UNL     1     -10.501   2.848 -32.839  1.00  0.00     0.311 C 
BRANCH  20  21
HETATM   21  C   UNL     1     -11.221   2.794 -34.149  1.00  0.00     0.031 A 
HETATM   22  C   UNL     1     -11.146   3.611 -35.272  1.00  0.00     0.035 A 
HETATM   23  C   UNL     1     -10.364   4.823 -35.620  1.00  0.00     0.070 C 
HETATM   24  N   UNL     1     -12.026   3.080 -36.183  1.00  0.00    -0.282 N 
HETATM   25  H   UNL     1     -12.246   3.407 -37.122  1.00  0.00     0.189 HD
HETATM   26  N   UNL     1     -12.655   1.996 -35.735  1.00  0.00    -0.179 NA
HETATM   27  C   UNL     1     -12.183   1.800 -34.506  1.00  0.00     0.061 A 
HETATM   28  C   UNL     1     -12.669   0.639 -33.711  1.00  0.00     0.073 C 
ENDBRANCH  20  21
BRANCH  20  29
HETATM   29  N   UNL     1     -11.409   3.070 -31.674  1.00  0.00    -0.062 N 
HETATM   30  H   UNL     1     -11.461   4.065 -31.437  1.00  0.00     0.275 HD
HETATM   31  H   UNL     1     -12.362   2.776 -31.933  1.00  0.00     0.275 HD
HETATM   32  H   UNL     1     -11.100   2.535 -30.856  1.00  0.00     0.275 HD
ENDBRANCH  20  29
ENDBRANCH   1  20
TORSDOF 7
ENDMDL
MODEL 3
REMARK VINA RESULT:      -8.7      1.498      2.179
REMARK  7 active torsions:
REMARK  status: ('A' for Active; 'I' for Inactive)
REMARK    1  A    between atoms: C_8  and  C_9 
REMARK    2  A    between atoms: C_9  and  N_10 
REMARK    3  A    between atoms: C_9  and  C_14 
REMARK       I    between atoms: C_14  and  N_15 
REMARK    4  A    between atoms: N_15  and  C_16 
REMARK    5  A    between atoms: C_16  and  C_17 
REMARK    6  A    between atoms: C_17  and  C_18 
REMARK    7  A    between atoms: C_17  and  C_24 
ROOT
HETATM    1  C   UNL     1     -10.406   1.214 -33.073  1.00  0.00     0.253 C 
HETATM    2  N   UNL     1      -9.063   0.908 -33.055  1.00  0.00    -0.358 N 
HETATM    3  O   UNL     1     -11.268   0.453 -33.508  1.00  0.00    -0.271 OA
HETATM    4  H   UNL     1      -8.442   1.459 -32.473  1.00  0.00     0.162 HD
ENDROOT
BRANCH   2   5
HETATM    5  C   UNL     1      -8.526  -0.397 -33.470  1.00  0.00     0.141 C 
BRANCH   5   6
HETATM    6  C   UNL     1      -7.006  -0.382 -33.918  1.00  0.00     0.026 C 
HETATM    7  C   UNL     1      -6.975   0.420 -35.259  1.00  0.00     0.027 C 
BRANCH   6   8
HETATM    8  C   UNL     1      -6.215   0.335 -32.791  1.00  0.00    -0.044 A 
HETATM    9  C   UNL     1      -5.517   1.527 -33.074  1.00  0.00     0.008 A 
HETATM   10  C   UNL     1      -4.775   2.189 -32.091  1.00  0.00     0.001 A 
HETATM   11  C   UNL     1      -4.714   1.677 -30.800  1.00  0.00     0.000 A 
HETATM   12  C   UNL     1      -5.399   0.506 -30.492  1.00  0.00     0.001 A 
HETATM   13  C   UNL     1      -6.139  -0.158 -31.475  1.00  0.00     0.008 A 
ENDBRANCH   6   8
BRANCH   6  14
HETATM   14  C   UNL     1      -6.394  -1.787 -34.178  1.00  0.00    -0.044 A 
HETATM   15  C   UNL     1      -7.221  -2.876 -34.522  1.00  0.00     0.008 A 
HETATM   16  C   UNL     1      -6.693  -4.144 -34.792  1.00  0.00     0.001 A 
HETATM   17  C   UNL     1      -5.321  -4.353 -34.750  1.00  0.00     0.000 A 
HETATM   18  C   UNL     1      -4.477  -3.289 -34.454  1.00  0.00     0.001 A 
HETATM   19  C   UNL     1      -5.008  -2.023 -34.182  1.00  0.00     0.008 A 
ENDBRANCH   6  14
ENDBRANCH   5   6
ENDBRANCH   2   5
BRANCH   1  20
HETATM   20  C   UNL     1     -10.798   2.674 -32.752  1.00  0.00     0.311 C 
BRANCH  20  21
HETATM   21  C   UNL     1     -10.400   3.670 -33.793  1.00  0.00     0.031 A 
HETATM   22  C   UNL     1     -10.971   3.995 -35.020  1.00  0.00     0.035 A 
HETATM   23  C   UNL     1     -12.151   3.505 -35.774  1.00  0.00     0.070 C 
HETATM   24  N   UNL     1     -10.189   4.992 -35.547  1.00  0.00    -0.282 N 
HETATM   25  H   UNL     1     -10.292   5.482 -36.434  1.00  0.00     0.189 HD
HETATM   26  N   UNL     1      -9.167   5.330 -34.762  1.00  0.00    -0.179 NA
HETATM   27  C   UNL     1      -9.276   4.546 -33.692  1.00  0.00     0.061 A 
HETATM   28  C   UNL     1      -8.288   4.676 -32.585  1.00  0.00     0.073 C 
ENDBRANCH  20  21
BRANCH  20  29
HETATM   29  N   UNL     1     -12.253   2.720 -32.416  1.00  0.00    -0.062 N 
HETATM   30  H   UNL     1     -12.794   2.132 -33.058  1.00  0.00     0.275 HD
HETATM   31  H   UNL     1     -12.389   2.331 -31.472  1.00  0.00     0.275 HD
HETATM   32  H   UNL     1     -12.610   3.680 -32.442  1.00  0.00     0.275 HD
ENDBRANCH  20  29
ENDBRANCH   1  20
TORSDOF 7
ENDMDL
MODEL 4
REMARK VINA RESULT:      -8.7      1.453      2.312
REMARK  7 active torsions:
REMARK  status: ('A' for Active; 'I' for Inactive)
REMARK    1  A    between atoms: C_8  and  C_9 
REMARK    2  A    between atoms: C_9  and  N_10 
REMARK    3  A    between atoms: C_9  and  C_14 
REMARK       I    between atoms: C_14  and  N_15 
REMARK    4  A    between atoms: N_15  and  C_16 
REMARK    5  A    between atoms: C_16  and  C_17 
REMARK    6  A    between atoms: C_17  and  C_18 
REMARK    7  A    between atoms: C_17  and  C_24 
ROOT
HETATM    1  C   UNL     1     -10.373   0.554 -33.467  1.00  0.00     0.253 C 
HETATM    2  N   UNL     1      -9.007   0.589 -33.648  1.00  0.00    -0.358 N 
HETATM    3  O   UNL     1     -10.954  -0.357 -32.880  1.00  0.00    -0.271 OA
HETATM    4  H   UNL     1      -8.571   1.465 -33.917  1.00  0.00     0.162 HD
ENDROOT
BRANCH   2   5
HETATM    5  C   UNL     1      -8.090  -0.410 -33.081  1.00  0.00     0.141 C 
BRANCH   5   6
HETATM    6  C   UNL     1      -6.677  -0.501 -33.795  1.00  0.00     0.026 C 
HETATM    7  C   UNL     1      -6.839   0.277 -35.140  1.00  0.00     0.027 C 
BRANCH   6   8
HETATM    8  C   UNL     1      -5.653   0.178 -32.847  1.00  0.00    -0.044 A 
HETATM    9  C   UNL     1      -5.157   1.461 -33.155  1.00  0.00     0.008 A 
HETATM   10  C   UNL     1      -4.216   2.095 -32.338  1.00  0.00     0.001 A 
HETATM   11  C   UNL     1      -3.751   1.464 -31.191  1.00  0.00     0.000 A 
HETATM   12  C   UNL     1      -4.228   0.200 -30.860  1.00  0.00     0.001 A 
HETATM   13  C   UNL     1      -5.167  -0.437 -31.678  1.00  0.00     0.008 A 
ENDBRANCH   6   8
BRANCH   6  14
HETATM   14  C   UNL     1      -6.212  -1.947 -34.124  1.00  0.00    -0.044 A 
HETATM   15  C   UNL     1      -7.150  -2.944 -34.460  1.00  0.00     0.008 A 
HETATM   16  C   UNL     1      -6.756  -4.246 -34.792  1.00  0.00     0.001 A 
HETATM   17  C   UNL     1      -5.409  -4.580 -34.819  1.00  0.00     0.000 A 
HETATM   18  C   UNL     1      -4.457  -3.609 -34.532  1.00  0.00     0.001 A 
HETATM   19  C   UNL     1      -4.855  -2.309 -34.199  1.00  0.00     0.008 A 
ENDBRANCH   6  14
ENDBRANCH   5   6
ENDBRANCH   2   5
BRANCH   1  20
HETATM   20  C   UNL     1     -11.213   1.588 -34.251  1.00  0.00     0.311 C 
BRANCH  20  21
HETATM   21  C   UNL     1     -12.293   2.246 -33.453  1.00  0.00     0.031 A 
HETATM   22  C   UNL     1     -12.255   3.314 -32.562  1.00  0.00     0.035 A 
HETATM   23  C   UNL     1     -11.179   4.196 -32.049  1.00  0.00     0.070 C 
HETATM   24  N   UNL     1     -13.548   3.494 -32.136  1.00  0.00    -0.282 N 
HETATM   25  H   UNL     1     -13.913   4.180 -31.479  1.00  0.00     0.189 HD
HETATM   26  N   UNL     1     -14.406   2.631 -32.679  1.00  0.00    -0.179 NA
HETATM   27  C   UNL     1     -13.670   1.867 -33.483  1.00  0.00     0.061 A 
HETATM   28  C   UNL     1     -14.328   0.792 -34.275  1.00  0.00     0.073 C 
ENDBRANCH  20  21
BRANCH  20  29
HETATM   29  N   UNL     1     -10.289   2.559 -34.910  1.00  0.00    -0.062 N 
HETATM   30  H   UNL     1      -9.587   2.069 -35.473  1.00  0.00     0.275 HD
HETATM   31  H   UNL     1     -10.832   3.147 -35.559  1.00  0.00     0.275 HD
HETATM   32  H   UNL     1      -9.824   3.156 -34.220  1.00  0.00     0.275 HD
ENDBRANCH  20  29
ENDBRANCH   1  20
TORSDOF 7
ENDMDL
MODEL 5
REMARK VINA RESULT:      -8.4      1.653      2.724
REMARK  7 active torsions:
REMARK  status: ('A' for Active; 'I' for Inactive)
REMARK    1  A    between atoms: C_8  and  C_9 
REMARK    2  A    between atoms: C_9  and  N_10 
REMARK    3  A    between atoms: C_9  and  C_14 
REMARK       I    between atoms: C_14  and  N_15 
REMARK    4  A    between atoms: N_15  and  C_16 
REMARK    5  A    between atoms: C_16  and  C_17 
REMARK    6  A    between atoms: C_17  and  C_18 
REMARK    7  A    between atoms: C_17  and  C_24 
ROOT
HETATM    1  C   UNL     1     -10.171   1.340 -32.960  1.00  0.00     0.253 C 
HETATM    2  N   UNL     1      -8.868   0.895 -32.900  1.00  0.00    -0.358 N 
HETATM    3  O   UNL     1     -11.064   0.741 -33.555  1.00  0.00    -0.271 OA
HETATM    4  H   UNL     1      -8.245   1.294 -32.205  1.00  0.00     0.162 HD
ENDROOT
BRANCH   2   5
HETATM    5  C   UNL     1      -8.426  -0.389 -33.462  1.00  0.00     0.141 C 
BRANCH   5   6
HETATM    6  C   UNL     1      -6.931  -0.409 -33.989  1.00  0.00     0.026 C 
HETATM    7  C   UNL     1      -6.951   0.398 -35.327  1.00  0.00     0.027 C 
BRANCH   6   8
HETATM    8  C   UNL     1      -6.065   0.282 -32.903  1.00  0.00    -0.044 A 
HETATM    9  C   UNL     1      -5.418   1.501 -33.194  1.00  0.00     0.008 A 
HETATM   10  C   UNL     1      -4.611   2.142 -32.249  1.00  0.00     0.001 A 
HETATM   11  C   UNL     1      -4.434   1.583 -30.989  1.00  0.00     0.000 A 
HETATM   12  C   UNL     1      -5.066   0.385 -30.673  1.00  0.00     0.001 A 
HETATM   13  C   UNL     1      -5.871  -0.259 -31.619  1.00  0.00     0.008 A 
ENDBRANCH   6   8
BRANCH   6  14
HETATM   14  C   UNL     1      -6.369  -1.828 -34.286  1.00  0.00    -0.044 A 
HETATM   15  C   UNL     1      -4.983  -2.079 -34.215  1.00  0.00     0.008 A 
HETATM   16  C   UNL     1      -4.453  -3.354 -34.446  1.00  0.00     0.001 A 
HETATM   17  C   UNL     1      -5.297  -4.419 -34.732  1.00  0.00     0.000 A 
HETATM   18  C   UNL     1      -6.671  -4.211 -34.769  1.00  0.00     0.001 A 
HETATM   19  C   UNL     1      -7.198  -2.935 -34.539  1.00  0.00     0.008 A 
ENDBRANCH   6  14
ENDBRANCH   5   6
ENDBRANCH   2   5
BRANCH   1  20
HETATM   20  C   UNL     1     -10.447   2.776 -32.458  1.00  0.00     0.311 C 
BRANCH  20  21
HETATM   21  C   UNL     1      -9.712   3.847 -33.198  1.00  0.00     0.031 A 
HETATM   22  C   UNL     1      -8.572   4.574 -32.869  1.00  0.00     0.035 A 
HETATM   23  C   UNL     1      -7.660   4.595 -31.700  1.00  0.00     0.070 C 
HETATM   24  N   UNL     1      -8.343   5.415 -33.930  1.00  0.00    -0.282 N 
HETATM   25  H   UNL     1      -7.600   6.100 -34.052  1.00  0.00     0.189 HD
HETATM   26  N   UNL     1      -9.241   5.286 -34.906  1.00  0.00    -0.179 NA
HETATM   27  C   UNL     1     -10.078   4.341 -34.488  1.00  0.00     0.061 A 
HETATM   28  C   UNL     1     -11.211   3.927 -35.361  1.00  0.00     0.073 C 
ENDBRANCH  20  21
BRANCH  20  29
HETATM   29  N   UNL     1     -11.924   2.995 -32.413  1.00  0.00    -0.062 N 
HETATM   30  H   UNL     1     -12.153   3.973 -32.616  1.00  0.00     0.275 HD
HETATM   31  H   UNL     1     -12.367   2.427 -33.148  1.00  0.00     0.275 HD
HETATM   32  H   UNL     1     -12.310   2.731 -31.501  1.00  0.00     0.275 HD
ENDBRANCH  20  29
ENDBRANCH   1  20
TORSDOF 7
ENDMDL
MODEL 6
REMARK VINA RESULT:      -8.4      1.323      2.178
REMARK  7 active torsions:
REMARK  status: ('A' for Active; 'I' for Inactive)
REMARK    1  A    between atoms: C_8  and  C_9 
REMARK    2  A    between atoms: C_9  and  N_10 
REMARK    3  A    between atoms: C_9  and  C_14 
REMARK       I    between atoms: C_14  and  N_15 
REMARK    4  A    between atoms: N_15  and  C_16 
REMARK    5  A    between atoms: C_16  and  C_17 
REMARK    6  A    between atoms: C_17  and  C_18 
REMARK    7  A    between atoms: C_17  and  C_24 
ROOT
HETATM    1  C   UNL     1     -10.586   0.856 -33.510  1.00  0.00     0.253 C 
HETATM    2  N   UNL     1      -9.240   0.707 -33.763  1.00  0.00    -0.358 N 
HETATM    3  O   UNL     1     -11.315  -0.069 -33.158  1.00  0.00    -0.271 OA
HETATM    4  H   UNL     1      -8.655   1.535 -33.810  1.00  0.00     0.162 HD
ENDROOT
BRANCH   2   5
HETATM    5  C   UNL     1      -8.512  -0.553 -33.550  1.00  0.00     0.141 C 
BRANCH   5   6
HETATM    6  C   UNL     1      -6.975  -0.510 -33.936  1.00  0.00     0.026 C 
HETATM    7  C   UNL     1      -6.906   0.284 -35.280  1.00  0.00     0.027 C 
BRANCH   6   8
HETATM    8  C   UNL     1      -6.244   0.228 -32.783  1.00  0.00    -0.044 A 
HETATM    9  C   UNL     1      -6.430  -0.196 -31.451  1.00  0.00     0.008 A 
HETATM   10  C   UNL     1      -5.807   0.458 -30.384  1.00  0.00     0.001 A 
HETATM   11  C   UNL     1      -4.979   1.549 -30.622  1.00  0.00     0.000 A 
HETATM   12  C   UNL     1      -4.773   1.984 -31.927  1.00  0.00     0.001 A 
HETATM   13  C   UNL     1      -5.398   1.332 -32.995  1.00  0.00     0.008 A 
ENDBRANCH   6   8
BRANCH   6  14
HETATM   14  C   UNL     1      -6.326  -1.905 -34.163  1.00  0.00    -0.044 A 
HETATM   15  C   UNL     1      -7.116  -3.010 -34.543  1.00  0.00     0.008 A 
HETATM   16  C   UNL     1      -6.553  -4.268 -34.784  1.00  0.00     0.001 A 
HETATM   17  C   UNL     1      -5.181  -4.451 -34.676  1.00  0.00     0.000 A 
HETATM   18  C   UNL     1      -4.371  -3.372 -34.342  1.00  0.00     0.001 A 
HETATM   19  C   UNL     1      -4.938  -2.115 -34.099  1.00  0.00     0.008 A 
ENDBRANCH   6  14
ENDBRANCH   5   6
ENDBRANCH   2   5
BRANCH   1  20
HETATM   20  C   UNL     1     -11.235   2.196 -33.926  1.00  0.00     0.311 C 
BRANCH  20  21
HETATM   21  C   UNL     1     -11.553   3.113 -32.789  1.00  0.00     0.031 A 
HETATM   22  C   UNL     1     -12.768   3.497 -32.232  1.00  0.00     0.035 A 
HETATM   23  C   UNL     1     -14.187   3.178 -32.524  1.00  0.00     0.070 C 
HETATM   24  N   UNL     1     -12.457   4.350 -31.201  1.00  0.00    -0.282 N 
HETATM   25  H   UNL     1     -13.084   4.834 -30.563  1.00  0.00     0.189 HD
HETATM   26  N   UNL     1     -11.147   4.542 -31.056  1.00  0.00    -0.179 NA
HETATM   27  C   UNL     1     -10.578   3.802 -32.005  1.00  0.00     0.061 A 
HETATM   28  C   UNL     1      -9.094   3.769 -32.116  1.00  0.00     0.073 C 
ENDBRANCH  20  21
BRANCH  20  29
HETATM   29  N   UNL     1     -10.391   2.832 -34.982  1.00  0.00    -0.062 N 
HETATM   30  H   UNL     1      -9.556   2.269 -35.170  1.00  0.00     0.275 HD
HETATM   31  H   UNL     1     -10.928   2.870 -35.860  1.00  0.00     0.275 HD
HETATM   32  H   UNL     1     -10.114   3.782 -34.713  1.00  0.00     0.275 HD
ENDBRANCH  20  29
ENDBRANCH   1  20
TORSDOF 7
ENDMDL
MODEL 7
REMARK VINA RESULT:      -8.3      4.329      7.033
REMARK  7 active torsions:
REMARK  status: ('A' for Active; 'I' for Inactive)
REMARK    1  A    between atoms: C_8  and  C_9 
REMARK    2  A    between atoms: C_9  and  N_10 
REMARK    3  A    between atoms: C_9  and  C_14 
REMARK       I    between atoms: C_14  and  N_15 
REMARK    4  A    between atoms: N_15  and  C_16 
REMARK    5  A    between atoms: C_16  and  C_17 
REMARK    6  A    between atoms: C_17  and  C_18 
REMARK    7  A    between atoms: C_17  and  C_24 
ROOT
HETATM    1  C   UNL     1      -4.477   4.009 -33.062  1.00  0.00     0.253 C 
HETATM    2  N   UNL     1      -4.918   2.708 -32.963  1.00  0.00    -0.358 N 
HETATM    3  O   UNL     1      -5.097   4.891 -33.653  1.00  0.00    -0.271 OA
HETATM    4  H   UNL     1      -4.495   2.098 -32.270  1.00  0.00     0.162 HD
ENDROOT
BRANCH   2   5
HETATM    5  C   UNL     1      -6.219   2.254 -33.474  1.00  0.00     0.141 C 
BRANCH   5   6
HETATM    6  C   UNL     1      -6.744   0.893 -32.853  1.00  0.00     0.026 C 
HETATM    7  C   UNL     1      -6.407   0.974 -31.329  1.00  0.00     0.027 C 
BRANCH   6   8
HETATM    8  C   UNL     1      -8.273   0.844 -33.111  1.00  0.00    -0.044 A 
HETATM    9  C   UNL     1      -8.864   1.762 -34.004  1.00  0.00     0.008 A 
HETATM   10  C   UNL     1     -10.241   1.763 -34.244  1.00  0.00     0.001 A 
HETATM   11  C   UNL     1     -11.062   0.844 -33.601  1.00  0.00     0.000 A 
HETATM   12  C   UNL     1     -10.505  -0.077 -32.721  1.00  0.00     0.001 A 
HETATM   13  C   UNL     1      -9.128  -0.077 -32.477  1.00  0.00     0.008 A 
ENDBRANCH   6   8
BRANCH   6  14
HETATM   14  C   UNL     1      -6.071  -0.383 -33.432  1.00  0.00    -0.044 A 
HETATM   15  C   UNL     1      -4.904  -0.909 -32.841  1.00  0.00     0.008 A 
HETATM   16  C   UNL     1      -4.296  -2.075 -33.323  1.00  0.00     0.001 A 
HETATM   17  C   UNL     1      -4.853  -2.761 -34.393  1.00  0.00     0.000 A 
HETATM   18  C   UNL     1      -6.026  -2.290 -34.971  1.00  0.00     0.001 A 
HETATM   19  C   UNL     1      -6.630  -1.123 -34.489  1.00  0.00     0.008 A 
ENDBRANCH   6  14
ENDBRANCH   5   6
ENDBRANCH   2   5
BRANCH   1  20
HETATM   20  C   UNL     1      -3.026   4.296 -32.612  1.00  0.00     0.311 C 
BRANCH  20  21
HETATM   21  C   UNL     1      -2.579   5.709 -32.812  1.00  0.00     0.031 A 
HETATM   22  C   UNL     1      -2.832   6.864 -32.080  1.00  0.00     0.035 A 
HETATM   23  C   UNL     1      -3.619   7.164 -30.860  1.00  0.00     0.070 C 
HETATM   24  N   UNL     1      -2.153   7.872 -32.721  1.00  0.00    -0.282 N 
HETATM   25  H   UNL     1      -2.101   8.859 -32.480  1.00  0.00     0.189 HD
HETATM   26  N   UNL     1      -1.491   7.456 -33.800  1.00  0.00    -0.179 NA
HETATM   27  C   UNL     1      -1.731   6.149 -33.875  1.00  0.00     0.061 A 
HETATM   28  C   UNL     1      -1.116   5.353 -34.972  1.00  0.00     0.073 C 
ENDBRANCH  20  21
BRANCH  20  29
HETATM   29  N   UNL     1      -2.852   3.814 -31.209  1.00  0.00    -0.062 N 
HETATM   30  H   UNL     1      -1.898   3.474 -31.056  1.00  0.00     0.275 HD
HETATM   31  H   UNL     1      -2.992   4.606 -30.565  1.00  0.00     0.275 HD
HETATM   32  H   UNL     1      -3.523   3.073 -30.985  1.00  0.00     0.275 HD
ENDBRANCH  20  29
ENDBRANCH   1  20
TORSDOF 7
ENDMDL
MODEL 8
REMARK VINA RESULT:      -8.1      1.922      4.414
REMARK  7 active torsions:
REMARK  status: ('A' for Active; 'I' for Inactive)
REMARK    1  A    between atoms: C_8  and  C_9 
REMARK    2  A    between atoms: C_9  and  N_10 
REMARK    3  A    between atoms: C_9  and  C_14 
REMARK       I    between atoms: C_14  and  N_15 
REMARK    4  A    between atoms: N_15  and  C_16 
REMARK    5  A    between atoms: C_16  and  C_17 
REMARK    6  A    between atoms: C_17  and  C_18 
REMARK    7  A    between atoms: C_17  and  C_24 
ROOT
HETATM    1  C   UNL     1     -10.114   1.703 -32.859  1.00  0.00     0.253 C 
HETATM    2  N   UNL     1      -9.164   1.311 -31.942  1.00  0.00    -0.358 N 
HETATM    3  O   UNL     1     -10.352   1.083 -33.893  1.00  0.00    -0.271 OA
HETATM    4  H   UNL     1      -9.184   1.716 -31.011  1.00  0.00     0.162 HD
ENDROOT
BRANCH   2   5
HETATM    5  C   UNL     1      -8.396   0.062 -32.056  1.00  0.00     0.141 C 
BRANCH   5   6
HETATM    6  C   UNL     1      -6.822   0.246 -32.089  1.00  0.00     0.026 C 
HETATM    7  C   UNL     1      -6.347   0.036 -30.615  1.00  0.00     0.027 C 
BRANCH   6   8
HETATM    8  C   UNL     1      -6.265  -0.844 -33.043  1.00  0.00    -0.044 A 
HETATM    9  C   UNL     1      -7.143  -1.547 -33.893  1.00  0.00     0.008 A 
HETATM   10  C   UNL     1      -6.681  -2.550 -34.750  1.00  0.00     0.001 A 
HETATM   11  C   UNL     1      -5.330  -2.874 -34.781  1.00  0.00     0.000 A 
HETATM   12  C   UNL     1      -4.441  -2.192 -33.958  1.00  0.00     0.001 A 
HETATM   13  C   UNL     1      -4.902  -1.190 -33.098  1.00  0.00     0.008 A 
ENDBRANCH   6   8
BRANCH   6  14
HETATM   14  C   UNL     1      -6.345   1.649 -32.557  1.00  0.00    -0.044 A 
HETATM   15  C   UNL     1      -5.650   2.502 -31.675  1.00  0.00     0.008 A 
HETATM   16  C   UNL     1      -5.181   3.757 -32.081  1.00  0.00     0.001 A 
HETATM   17  C   UNL     1      -5.374   4.185 -33.387  1.00  0.00     0.000 A 
HETATM   18  C   UNL     1      -6.020   3.350 -34.291  1.00  0.00     0.001 A 
HETATM   19  C   UNL     1      -6.489   2.097 -33.882  1.00  0.00     0.008 A 
ENDBRANCH   6  14
ENDBRANCH   5   6
ENDBRANCH   2   5
BRANCH   1  20
HETATM   20  C   UNL     1     -10.726   3.111 -32.679  1.00  0.00     0.311 C 
BRANCH  20  21
HETATM   21  C   UNL     1     -10.441   4.061 -33.798  1.00  0.00     0.031 A 
HETATM   22  C   UNL     1     -10.994   4.176 -35.069  1.00  0.00     0.035 A 
HETATM   23  C   UNL     1     -12.040   3.433 -35.813  1.00  0.00     0.070 C 
HETATM   24  N   UNL     1     -10.356   5.237 -35.663  1.00  0.00    -0.282 N 
HETATM   25  H   UNL     1     -10.491   5.622 -36.596  1.00  0.00     0.189 HD
HETATM   26  N   UNL     1      -9.443   5.807 -34.878  1.00  0.00    -0.179 NA
HETATM   27  C   UNL     1      -9.477   5.115 -33.742  1.00  0.00     0.061 A 
HETATM   28  C   UNL     1      -8.581   5.505 -32.620  1.00  0.00     0.073 C 
ENDBRANCH  20  21
BRANCH  20  29
HETATM   29  N   UNL     1     -12.183   2.969 -32.381  1.00  0.00    -0.062 N 
HETATM   30  H   UNL     1     -12.470   3.624 -31.648  1.00  0.00     0.275 HD
HETATM   31  H   UNL     1     -12.721   3.213 -33.224  1.00  0.00     0.275 HD
HETATM   32  H   UNL     1     -12.412   2.011 -32.098  1.00  0.00     0.275 HD
ENDBRANCH  20  29
ENDBRANCH   1  20
TORSDOF 7
ENDMDL
MODEL 9
REMARK VINA RESULT:      -8.1      2.468      5.045
REMARK  7 active torsions:
REMARK  status: ('A' for Active; 'I' for Inactive)
REMARK    1  A    between atoms: C_8  and  C_9 
REMARK    2  A    between atoms: C_9  and  N_10 
REMARK    3  A    between atoms: C_9  and  C_14 
REMARK       I    between atoms: C_14  and  N_15 
REMARK    4  A    between atoms: N_15  and  C_16 
REMARK    5  A    between atoms: C_16  and  C_17 
REMARK    6  A    between atoms: C_17  and  C_18 
REMARK    7  A    between atoms: C_17  and  C_24 
ROOT
HETATM    1  C   UNL     1      -8.791   2.007 -31.181  1.00  0.00     0.253 C 
HETATM    2  N   UNL     1      -7.597   1.534 -30.683  1.00  0.00    -0.358 N 
HETATM    3  O   UNL     1      -9.437   1.429 -32.054  1.00  0.00    -0.271 OA
HETATM    4  H   UNL     1      -7.243   1.916 -29.811  1.00  0.00     0.162 HD
ENDROOT
BRANCH   2   5
HETATM    5  C   UNL     1      -7.012   0.244 -31.075  1.00  0.00     0.141 C 
BRANCH   5   6
HETATM    6  C   UNL     1      -5.650   0.345 -31.880  1.00  0.00     0.026 C 
HETATM    7  C   UNL     1      -4.523   0.127 -30.821  1.00  0.00     0.027 C 
BRANCH   6   8
HETATM    8  C   UNL     1      -5.676  -0.783 -32.946  1.00  0.00    -0.044 A 
HETATM    9  C   UNL     1      -4.471  -1.401 -33.341  1.00  0.00     0.008 A 
HETATM   10  C   UNL     1      -4.452  -2.405 -34.314  1.00  0.00     0.001 A 
HETATM   11  C   UNL     1      -5.635  -2.818 -34.914  1.00  0.00     0.000 A 
HETATM   12  C   UNL     1      -6.838  -2.230 -34.538  1.00  0.00     0.001 A 
HETATM   13  C   UNL     1      -6.859  -1.224 -33.567  1.00  0.00     0.008 A 
ENDBRANCH   6   8
BRANCH   6  14
HETATM   14  C   UNL     1      -5.408   1.716 -32.572  1.00  0.00    -0.044 A 
HETATM   15  C   UNL     1      -6.173   2.099 -33.693  1.00  0.00     0.008 A 
HETATM   16  C   UNL     1      -5.998   3.340 -34.315  1.00  0.00     0.001 A 
HETATM   17  C   UNL     1      -5.069   4.244 -33.818  1.00  0.00     0.000 A 
HETATM   18  C   UNL     1      -4.328   3.912 -32.690  1.00  0.00     0.001 A 
HETATM   19  C   UNL     1      -4.504   2.669 -32.072  1.00  0.00     0.008 A 
ENDBRANCH   6  14
ENDBRANCH   5   6
ENDBRANCH   2   5
BRANCH   1  20
HETATM   20  C   UNL     1      -9.198   3.445 -30.786  1.00  0.00     0.311 C 
BRANCH  20  21
HETATM   21  C   UNL     1      -8.711   4.508 -31.718  1.00  0.00     0.031 A 
HETATM   22  C   UNL     1      -9.118   4.861 -33.001  1.00  0.00     0.035 A 
HETATM   23  C   UNL     1     -10.147   4.349 -33.938  1.00  0.00     0.070 C 
HETATM   24  N   UNL     1      -8.325   5.921 -33.369  1.00  0.00    -0.282 N 
HETATM   25  H   UNL     1      -8.327   6.446 -34.240  1.00  0.00     0.189 HD
HETATM   26  N   UNL     1      -7.448   6.271 -32.430  1.00  0.00    -0.179 NA
HETATM   27  C   UNL     1      -7.664   5.433 -31.419  1.00  0.00     0.061 A 
HETATM   28  C   UNL     1      -6.855   5.560 -30.176  1.00  0.00     0.073 C 
ENDBRANCH  20  21
BRANCH  20  29
HETATM   29  N   UNL     1     -10.674   3.485 -30.563  1.00  0.00    -0.062 N 
HETATM   30  H   UNL     1     -10.963   2.752 -29.908  1.00  0.00     0.275 HD
HETATM   31  H   UNL     1     -10.922   4.385 -30.129  1.00  0.00     0.275 HD
HETATM   32  H   UNL     1     -11.186   3.382 -31.445  1.00  0.00     0.275 HD
ENDBRANCH  20  29
ENDBRANCH   1  20
TORSDOF 7
ENDMDL
MODEL 10
REMARK VINA RESULT:      -7.8      3.064      5.336
REMARK  7 active torsions:
REMARK  status: ('A' for Active; 'I' for Inactive)
REMARK    1  A    between atoms: C_8  and  C_9 
REMARK    2  A    between atoms: C_9  and  N_10 
REMARK    3  A    between atoms: C_9  and  C_14 
REMARK       I    between atoms: C_14  and  N_15 
REMARK    4  A    between atoms: N_15  and  C_16 
REMARK    5  A    between atoms: C_16  and  C_17 
REMARK    6  A    between atoms: C_17  and  C_18 
REMARK    7  A    between atoms: C_17  and  C_24 
ROOT
HETATM    1  C   UNL     1      -4.230   2.558 -31.651  1.00  0.00     0.253 C 
HETATM    2  N   UNL     1      -5.169   2.063 -32.529  1.00  0.00    -0.358 N 
HETATM    3  O   UNL     1      -3.206   1.953 -31.343  1.00  0.00    -0.271 OA
HETATM    4  H   UNL     1      -5.855   2.698 -32.924  1.00  0.00     0.162 HD
ENDROOT
BRANCH   2   5
HETATM    5  C   UNL     1      -5.003   0.799 -33.262  1.00  0.00     0.141 C 
BRANCH   5   6
HETATM    6  C   UNL     1      -6.060  -0.326 -32.900  1.00  0.00     0.026 C 
HETATM    7  C   UNL     1      -5.871  -0.600 -31.373  1.00  0.00     0.027 C 
BRANCH   6   8
HETATM    8  C   UNL     1      -7.462   0.257 -33.219  1.00  0.00    -0.044 A 
HETATM    9  C   UNL     1      -8.472   0.232 -32.235  1.00  0.00     0.008 A 
HETATM   10  C   UNL     1      -9.754   0.727 -32.493  1.00  0.00     0.001 A 
HETATM   11  C   UNL     1     -10.057   1.264 -33.739  1.00  0.00     0.000 A 
HETATM   12  C   UNL     1      -9.077   1.308 -34.725  1.00  0.00     0.001 A 
HETATM   13  C   UNL     1      -7.795   0.809 -34.470  1.00  0.00     0.008 A 
ENDBRANCH   6   8
BRANCH   6  14
HETATM   14  C   UNL     1      -5.863  -1.667 -33.662  1.00  0.00    -0.044 A 
HETATM   15  C   UNL     1      -4.585  -2.258 -33.755  1.00  0.00     0.008 A 
HETATM   16  C   UNL     1      -4.385  -3.480 -34.408  1.00  0.00     0.001 A 
HETATM   17  C   UNL     1      -5.461  -4.158 -34.964  1.00  0.00     0.000 A 
HETATM   18  C   UNL     1      -6.739  -3.621 -34.853  1.00  0.00     0.001 A 
HETATM   19  C   UNL     1      -6.935  -2.398 -34.202  1.00  0.00     0.008 A 
ENDBRANCH   6  14
ENDBRANCH   5   6
ENDBRANCH   2   5
BRANCH   1  20
HETATM   20  C   UNL     1      -4.617   3.821 -30.847  1.00  0.00     0.311 C 
BRANCH  20  21
HETATM   21  C   UNL     1      -5.415   4.827 -31.612  1.00  0.00     0.031 A 
HETATM   22  C   UNL     1      -5.025   5.942 -32.347  1.00  0.00     0.035 A 
HETATM   23  C   UNL     1      -3.719   6.571 -32.657  1.00  0.00     0.070 C 
HETATM   24  N   UNL     1      -6.183   6.489 -32.843  1.00  0.00    -0.282 N 
HETATM   25  H   UNL     1      -6.299   7.315 -33.427  1.00  0.00     0.189 HD
HETATM   26  N   UNL     1      -7.277   5.818 -32.485  1.00  0.00    -0.179 NA
HETATM   27  C   UNL     1      -6.838   4.806 -31.741  1.00  0.00     0.061 A 
HETATM   28  C   UNL     1      -7.814   3.829 -31.185  1.00  0.00     0.073 C 
ENDBRANCH  20  21
BRANCH  20  29
HETATM   29  N   UNL     1      -5.266   3.398 -29.569  1.00  0.00    -0.062 N 
HETATM   30  H   UNL     1      -4.587   3.385 -28.803  1.00  0.00     0.275 HD
HETATM   31  H   UNL     1      -5.986   4.090 -29.317  1.00  0.00     0.275 HD
HETATM   32  H   UNL     1      -5.702   2.475 -29.662  1.00  0.00     0.275 HD
ENDBRANCH  20  29
ENDBRANCH   1  20
TORSDOF 7
ENDMDL
