MODEL 1
REMARK VINA RESULT:      -9.2      0.000      0.000
REMARK  6 active torsions:
REMARK  status: ('A' for Active; 'I' for Inactive)
REMARK    1  A    between atoms: C_3  and  N_4 
REMARK    2  A    between atoms: N_4  and  C_5 
REMARK    3  A    between atoms: C_12  and  C_13 
REMARK       I    between atoms: C_13  and  N_14 
REMARK    4  A    between atoms: N_14  and  C_15 
REMARK    5  A    between atoms: C_15  and  C_16 
REMARK    6  A    between atoms: C_16  and  C_17 
ROOT
HETATM    1  C   UNL     1      -3.272   2.834 -32.157  1.00  0.00     0.251 C 
HETATM    2  N   UNL     1      -4.422   2.518 -32.857  1.00  0.00    -0.357 N 
HETATM    3  O   UNL     1      -2.879   2.184 -31.193  1.00  0.00    -0.268 OA
HETATM    4  H   UNL     1      -4.839   3.228 -33.446  1.00  0.00     0.162 HD
ENDROOT
BRANCH   1   5
HETATM    5  C   UNL     1      -2.522   4.046 -32.591  1.00  0.00     0.034 A 
HETATM    6  C   UNL     1      -1.726   4.796 -31.709  1.00  0.00     0.047 A 
HETATM    7  C   UNL     1      -1.031   5.929 -32.149  1.00  0.00     0.050 A 
HETATM    8  C   UNL     1      -1.170   6.306 -33.496  1.00  0.00     0.030 A 
HETATM    9  C   UNL     1      -1.972   5.579 -34.377  1.00  0.00     0.003 A 
HETATM   10  C   UNL     1      -2.647   4.451 -33.924  1.00  0.00     0.017 A 
BRANCH   7  11
HETATM   11  N   UNL     1      -0.219   6.716 -31.324  1.00  0.00    -0.188 N 
HETATM   12  H   UNL     1       0.520   7.241 -31.770  1.00  0.00     0.184 HD
BRANCH  11  13
HETATM   13  C   UNL     1      -0.139   6.923 -29.952  1.00  0.00     0.726 A 
HETATM   14  N   UNL     1       0.523   6.084 -29.141  1.00  0.00    -0.075 NA
HETATM   15  C   UNL     1       0.532   6.373 -27.826  1.00  0.00     0.138 A 
HETATM   16  C   UNL     1      -0.084   7.473 -27.286  1.00  0.00     0.040 A 
HETATM   17  C   UNL     1      -0.733   8.274 -28.188  1.00  0.00     0.138 A 
HETATM   18  N   UNL     1      -0.776   8.022 -29.511  1.00  0.00    -0.075 NA
ENDBRANCH  11  13
ENDBRANCH   7  11
ENDBRANCH   1   5
BRANCH   2  19
HETATM   19  C   UNL     1      -5.293   1.460 -32.376  1.00  0.00     0.127 C 
BRANCH  19  20
HETATM   20  C   UNL     1      -5.480   0.325 -33.384  1.00  0.00     0.060 C 
BRANCH  20  21
HETATM   21  C   UNL     1      -4.684  -0.908 -33.075  1.00  0.00    -0.029 A 
HETATM   22  C   UNL     1      -4.863  -2.214 -33.639  1.00  0.00     0.001 A 
HETATM   23  C   UNL     1      -3.880  -3.045 -33.094  1.00  0.00     0.043 A 
HETATM   24  C   UNL     1      -5.764  -2.765 -34.571  1.00  0.00     0.056 A 
HETATM   25  C   UNL     1      -3.749  -4.397 -33.435  1.00  0.00     0.033 A 
HETATM   26  N   UNL     1      -3.137  -2.278 -32.228  1.00  0.00    -0.365 N 
HETATM   27  C   UNL     1      -4.653  -4.919 -34.364  1.00  0.00     0.044 A 
HETATM   28  C   UNL     1      -5.637  -4.111 -34.916  1.00  0.00     0.117 A 
HETATM   29  F   UNL     1      -6.499  -4.642 -35.795  1.00  0.00    -0.206 F 
HETATM   30  H   UNL     1      -2.350  -2.616 -31.691  1.00  0.00     0.165 HD
HETATM   31  C   UNL     1      -3.604  -0.992 -32.217  1.00  0.00     0.096 A 
ENDBRANCH  20  21
ENDBRANCH  19  20
ENDBRANCH   2  19
TORSDOF 6
ENDMDL
MODEL 2
REMARK VINA RESULT:      -9.1      1.086      1.407
REMARK  6 active torsions:
REMARK  status: ('A' for Active; 'I' for Inactive)
REMARK    1  A    between atoms: C_3  and  N_4 
REMARK    2  A    between atoms: N_4  and  C_5 
REMARK    3  A    between atoms: C_12  and  C_13 
REMARK       I    between atoms: C_13  and  N_14 
REMARK    4  A    between atoms: N_14  and  C_15 
REMARK    5  A    between atoms: C_15  and  C_16 
REMARK    6  A    between atoms: C_16  and  C_17 
ROOT
HETATM    1  C   UNL     1      -4.627   3.403 -32.898  1.00  0.00     0.251 C 
HETATM    2  N   UNL     1      -4.369   2.165 -32.340  1.00  0.00    -0.357 N 
HETATM    3  O   UNL     1      -5.755   3.772 -33.212  1.00  0.00    -0.268 OA
HETATM    4  H   UNL     1      -3.420   1.814 -32.362  1.00  0.00     0.162 HD
ENDROOT
BRANCH   1   5
HETATM    5  C   UNL     1      -3.458   4.291 -33.157  1.00  0.00     0.034 A 
HETATM    6  C   UNL     1      -2.346   4.342 -32.302  1.00  0.00     0.047 A 
HETATM    7  C   UNL     1      -1.262   5.185 -32.575  1.00  0.00     0.050 A 
HETATM    8  C   UNL     1      -1.330   5.996 -33.721  1.00  0.00     0.030 A 
HETATM    9  C   UNL     1      -2.439   5.967 -34.568  1.00  0.00     0.003 A 
HETATM   10  C   UNL     1      -3.501   5.117 -34.286  1.00  0.00     0.017 A 
BRANCH   7  11
HETATM   11  N   UNL     1      -0.122   5.279 -31.767  1.00  0.00    -0.188 N 
HETATM   12  H   UNL     1       0.701   4.783 -32.073  1.00  0.00     0.184 HD
BRANCH  11  13
HETATM   13  C   UNL     1       0.154   5.880 -30.544  1.00  0.00     0.726 A 
HETATM   14  N   UNL     1       0.103   7.209 -30.374  1.00  0.00    -0.075 NA
HETATM   15  C   UNL     1       0.397   7.688 -29.150  1.00  0.00     0.138 A 
HETATM   16  C   UNL     1       0.730   6.893 -28.083  1.00  0.00     0.040 A 
HETATM   17  C   UNL     1       0.755   5.550 -28.349  1.00  0.00     0.138 A 
HETATM   18  N   UNL     1       0.477   5.024 -29.557  1.00  0.00    -0.075 NA
ENDBRANCH  11  13
ENDBRANCH   7  11
ENDBRANCH   1   5
BRANCH   2  19
HETATM   19  C   UNL     1      -5.436   1.185 -32.230  1.00  0.00     0.127 C 
BRANCH  19  20
HETATM   20  C   UNL     1      -5.435   0.160 -33.364  1.00  0.00     0.060 C 
BRANCH  20  21
HETATM   21  C   UNL     1      -4.655  -1.086 -33.064  1.00  0.00    -0.029 A 
HETATM   22  C   UNL     1      -4.851  -2.386 -33.635  1.00  0.00     0.001 A 
HETATM   23  C   UNL     1      -3.878  -3.233 -33.098  1.00  0.00     0.043 A 
HETATM   24  C   UNL     1      -5.762  -2.920 -34.568  1.00  0.00     0.056 A 
HETATM   25  C   UNL     1      -3.766  -4.585 -33.447  1.00  0.00     0.033 A 
HETATM   26  N   UNL     1      -3.123  -2.481 -32.229  1.00  0.00    -0.365 N 
HETATM   27  C   UNL     1      -4.679  -5.089 -34.377  1.00  0.00     0.044 A 
HETATM   28  C   UNL     1      -5.654  -4.265 -34.921  1.00  0.00     0.117 A 
HETATM   29  F   UNL     1      -6.525  -4.780 -35.801  1.00  0.00    -0.206 F 
HETATM   30  H   UNL     1      -2.339  -2.833 -31.697  1.00  0.00     0.165 HD
HETATM   31  C   UNL     1      -3.573  -1.189 -32.209  1.00  0.00     0.096 A 
ENDBRANCH  20  21
ENDBRANCH  19  20
ENDBRANCH   2  19
TORSDOF 6
ENDMDL
MODEL 3
REMARK VINA RESULT:      -8.8      1.842      2.491
REMARK  6 active torsions:
REMARK  status: ('A' for Active; 'I' for Inactive)
REMARK    1  A    between atoms: C_3  and  N_4 
REMARK    2  A    between atoms: N_4  and  C_5 
REMARK    3  A    between atoms: C_12  and  C_13 
REMARK       I    between atoms: C_13  and  N_14 
REMARK    4  A    between atoms: N_14  and  C_15 
REMARK    5  A    between atoms: C_15  and  C_16 
REMARK    6  A    between atoms: C_16  and  C_17 
ROOT
HETATM    1  C   UNL     1      -5.792   3.471 -33.032  1.00  0.00     0.251 C 
HETATM    2  N   UNL     1      -5.832   3.012 -31.729  1.00  0.00    -0.357 N 
HETATM    3  O   UNL     1      -6.717   3.315 -33.823  1.00  0.00    -0.268 OA
HETATM    4  H   UNL     1      -4.961   2.921 -31.222  1.00  0.00     0.162 HD
ENDROOT
BRANCH   1   5
HETATM    5  C   UNL     1      -4.539   4.144 -33.480  1.00  0.00     0.034 A 
HETATM    6  C   UNL     1      -3.367   4.147 -32.706  1.00  0.00     0.047 A 
HETATM    7  C   UNL     1      -2.205   4.785 -33.157  1.00  0.00     0.050 A 
HETATM    8  C   UNL     1      -2.254   5.442 -34.399  1.00  0.00     0.030 A 
HETATM    9  C   UNL     1      -3.418   5.460 -35.168  1.00  0.00     0.003 A 
HETATM   10  C   UNL     1      -4.559   4.812 -34.709  1.00  0.00     0.017 A 
BRANCH   7  11
HETATM   11  N   UNL     1      -1.005   4.821 -32.437  1.00  0.00    -0.188 N 
HETATM   12  H   UNL     1      -0.254   4.230 -32.763  1.00  0.00     0.184 HD
BRANCH  11  13
HETATM   13  C   UNL     1      -0.584   5.470 -31.282  1.00  0.00     0.726 A 
HETATM   14  N   UNL     1      -0.930   6.736 -31.008  1.00  0.00    -0.075 NA
HETATM   15  C   UNL     1      -0.462   7.272 -29.865  1.00  0.00     0.138 A 
HETATM   16  C   UNL     1       0.331   6.591 -28.976  1.00  0.00     0.040 A 
HETATM   17  C   UNL     1       0.631   5.304 -29.336  1.00  0.00     0.138 A 
HETATM   18  N   UNL     1       0.193   4.728 -30.472  1.00  0.00    -0.075 NA
ENDBRANCH  11  13
ENDBRANCH   7  11
ENDBRANCH   1   5
BRANCH   2  19
HETATM   19  C   UNL     1      -6.947   2.193 -31.285  1.00  0.00     0.127 C 
BRANCH  19  20
HETATM   20  C   UNL     1      -6.515   0.984 -30.455  1.00  0.00     0.060 C 
BRANCH  20  21
HETATM   21  C   UNL     1      -5.443   0.152 -31.094  1.00  0.00    -0.029 A 
HETATM   22  C   UNL     1      -5.571  -0.674 -32.259  1.00  0.00     0.001 A 
HETATM   23  C   UNL     1      -4.316  -1.232 -32.520  1.00  0.00     0.043 A 
HETATM   24  C   UNL     1      -6.637  -0.992 -33.124  1.00  0.00     0.056 A 
HETATM   25  C   UNL     1      -4.071  -2.088 -33.601  1.00  0.00     0.033 A 
HETATM   26  N   UNL     1      -3.460  -0.769 -31.549  1.00  0.00    -0.365 N 
HETATM   27  C   UNL     1      -5.144  -2.385 -34.445  1.00  0.00     0.044 A 
HETATM   28  C   UNL     1      -6.398  -1.843 -34.203  1.00  0.00     0.117 A 
HETATM   29  F   UNL     1      -7.413  -2.156 -35.022  1.00  0.00    -0.206 F 
HETATM   30  H   UNL     1      -2.479  -1.006 -31.488  1.00  0.00     0.165 HD
HETATM   31  C   UNL     1      -4.122   0.070 -30.695  1.00  0.00     0.096 A 
ENDBRANCH  20  21
ENDBRANCH  19  20
ENDBRANCH   2  19
TORSDOF 6
ENDMDL
MODEL 4
REMARK VINA RESULT:      -8.7      2.360      3.061
REMARK  6 active torsions:
REMARK  status: ('A' for Active; 'I' for Inactive)
REMARK    1  A    between atoms: C_3  and  N_4 
REMARK    2  A    between atoms: N_4  and  C_5 
REMARK    3  A    between atoms: C_12  and  C_13 
REMARK       I    between atoms: C_13  and  N_14 
REMARK    4  A    between atoms: N_14  and  C_15 
REMARK    5  A    between atoms: C_15  and  C_16 
REMARK    6  A    between atoms: C_16  and  C_17 
ROOT
HETATM    1  C   UNL     1      -5.783   3.606 -32.401  1.00  0.00     0.251 C 
HETATM    2  N   UNL     1      -6.841   3.107 -33.139  1.00  0.00    -0.357 N 
HETATM    3  O   UNL     1      -5.769   3.606 -31.173  1.00  0.00    -0.268 OA
HETATM    4  H   UNL     1      -6.922   3.380 -34.111  1.00  0.00     0.162 HD
ENDROOT
BRANCH   1   5
HETATM    5  C   UNL     1      -4.644   4.200 -33.156  1.00  0.00     0.034 A 
HETATM    6  C   UNL     1      -3.377   4.391 -32.582  1.00  0.00     0.047 A 
HETATM    7  C   UNL     1      -2.326   4.950 -33.321  1.00  0.00     0.050 A 
HETATM    8  C   UNL     1      -2.585   5.334 -34.648  1.00  0.00     0.030 A 
HETATM    9  C   UNL     1      -3.845   5.165 -35.223  1.00  0.00     0.003 A 
HETATM   10  C   UNL     1      -4.874   4.599 -34.477  1.00  0.00     0.017 A 
BRANCH   7  11
HETATM   11  N   UNL     1      -1.040   5.163 -32.811  1.00  0.00    -0.188 N 
HETATM   12  H   UNL     1      -0.268   5.062 -33.452  1.00  0.00     0.184 HD
BRANCH  11  13
HETATM   13  C   UNL     1      -0.530   5.442 -31.548  1.00  0.00     0.726 A 
HETATM   14  N   UNL     1       0.266   4.583 -30.894  1.00  0.00    -0.075 NA
HETATM   15  C   UNL     1       0.699   4.948 -29.672  1.00  0.00     0.138 A 
HETATM   16  C   UNL     1       0.380   6.143 -29.080  1.00  0.00     0.040 A 
HETATM   17  C   UNL     1      -0.434   6.958 -29.821  1.00  0.00     0.138 A 
HETATM   18  N   UNL     1      -0.899   6.633 -31.043  1.00  0.00    -0.075 NA
ENDBRANCH  11  13
ENDBRANCH   7  11
ENDBRANCH   1   5
BRANCH   2  19
HETATM   19  C   UNL     1      -8.055   2.680 -32.466  1.00  0.00     0.127 C 
BRANCH  19  20
HETATM   20  C   UNL     1      -8.009   1.225 -32.000  1.00  0.00     0.060 C 
BRANCH  20  21
HETATM   21  C   UNL     1      -7.480   0.268 -33.027  1.00  0.00    -0.029 A 
HETATM   22  C   UNL     1      -6.267  -0.493 -32.954  1.00  0.00     0.001 A 
HETATM   23  C   UNL     1      -6.192  -1.277 -34.108  1.00  0.00     0.043 A 
HETATM   24  C   UNL     1      -5.229  -0.596 -32.006  1.00  0.00     0.056 A 
HETATM   25  C   UNL     1      -5.136  -2.160 -34.364  1.00  0.00     0.033 A 
HETATM   26  N   UNL     1      -7.311  -1.000 -34.858  1.00  0.00    -0.365 N 
HETATM   27  C   UNL     1      -4.121  -2.246 -33.407  1.00  0.00     0.044 A 
HETATM   28  C   UNL     1      -4.175  -1.475 -32.255  1.00  0.00     0.117 A 
HETATM   29  F   UNL     1      -3.181  -1.569 -31.360  1.00  0.00    -0.206 F 
HETATM   30  H   UNL     1      -7.525  -1.426 -35.749  1.00  0.00     0.165 HD
HETATM   31  C   UNL     1      -8.096  -0.082 -34.214  1.00  0.00     0.096 A 
ENDBRANCH  20  21
ENDBRANCH  19  20
ENDBRANCH   2  19
TORSDOF 6
ENDMDL
MODEL 5
REMARK VINA RESULT:      -8.7      4.729      8.694
REMARK  6 active torsions:
REMARK  status: ('A' for Active; 'I' for Inactive)
REMARK    1  A    between atoms: C_3  and  N_4 
REMARK    2  A    between atoms: N_4  and  C_5 
REMARK    3  A    between atoms: C_12  and  C_13 
REMARK       I    between atoms: C_13  and  N_14 
REMARK    4  A    between atoms: N_14  and  C_15 
REMARK    5  A    between atoms: C_15  and  C_16 
REMARK    6  A    between atoms: C_16  and  C_17 
ROOT
HETATM    1  C   UNL     1      -6.551   1.705 -30.757  1.00  0.00     0.251 C 
HETATM    2  N   UNL     1      -5.456   2.488 -31.067  1.00  0.00    -0.357 N 
HETATM    3  O   UNL     1      -6.452   0.583 -30.270  1.00  0.00    -0.268 OA
HETATM    4  H   UNL     1      -5.582   3.263 -31.707  1.00  0.00     0.162 HD
ENDROOT
BRANCH   1   5
HETATM    5  C   UNL     1      -7.898   2.257 -31.078  1.00  0.00     0.034 A 
HETATM    6  C   UNL     1      -8.635   1.841 -32.198  1.00  0.00     0.047 A 
HETATM    7  C   UNL     1      -9.900   2.378 -32.471  1.00  0.00     0.050 A 
HETATM    8  C   UNL     1     -10.400   3.361 -31.600  1.00  0.00     0.030 A 
HETATM    9  C   UNL     1      -9.668   3.794 -30.493  1.00  0.00     0.003 A 
HETATM   10  C   UNL     1      -8.419   3.243 -30.233  1.00  0.00     0.017 A 
BRANCH   7  11
HETATM   11  N   UNL     1     -10.687   2.004 -33.567  1.00  0.00    -0.188 N 
HETATM   12  H   UNL     1     -10.301   2.160 -34.486  1.00  0.00     0.184 HD
BRANCH  11  13
HETATM   13  C   UNL     1     -11.972   1.491 -33.710  1.00  0.00     0.726 A 
HETATM   14  N   UNL     1     -13.015   2.264 -34.044  1.00  0.00    -0.075 NA
HETATM   15  C   UNL     1     -14.218   1.667 -34.149  1.00  0.00     0.138 A 
HETATM   16  C   UNL     1     -14.421   0.326 -33.944  1.00  0.00     0.040 A 
HETATM   17  C   UNL     1     -13.299  -0.384 -33.609  1.00  0.00     0.138 A 
HETATM   18  N   UNL     1     -12.077   0.169 -33.485  1.00  0.00    -0.075 NA
ENDBRANCH  11  13
ENDBRANCH   7  11
ENDBRANCH   1   5
BRANCH   2  19
HETATM   19  C   UNL     1      -4.116   1.940 -30.948  1.00  0.00     0.127 C 
BRANCH  19  20
HETATM   20  C   UNL     1      -3.536   1.464 -32.280  1.00  0.00     0.060 C 
BRANCH  20  21
HETATM   21  C   UNL     1      -3.856   0.037 -32.614  1.00  0.00    -0.029 A 
HETATM   22  C   UNL     1      -4.930  -0.437 -33.437  1.00  0.00     0.001 A 
HETATM   23  C   UNL     1      -4.824  -1.829 -33.505  1.00  0.00     0.043 A 
HETATM   24  C   UNL     1      -5.977   0.190 -34.140  1.00  0.00     0.056 A 
HETATM   25  C   UNL     1      -5.710  -2.627 -34.241  1.00  0.00     0.033 A 
HETATM   26  N   UNL     1      -3.734  -2.189 -32.748  1.00  0.00    -0.365 N 
HETATM   27  C   UNL     1      -6.738  -1.980 -34.932  1.00  0.00     0.044 A 
HETATM   28  C   UNL     1      -6.861  -0.599 -34.876  1.00  0.00     0.117 A 
HETATM   29  F   UNL     1      -7.865  -0.007 -35.539  1.00  0.00    -0.206 F 
HETATM   30  H   UNL     1      -3.414  -3.139 -32.619  1.00  0.00     0.165 HD
HETATM   31  C   UNL     1      -3.139  -1.077 -32.218  1.00  0.00     0.096 A 
ENDBRANCH  20  21
ENDBRANCH  19  20
ENDBRANCH   2  19
TORSDOF 6
ENDMDL
MODEL 6
REMARK VINA RESULT:      -8.4      5.116      8.698
REMARK  6 active torsions:
REMARK  status: ('A' for Active; 'I' for Inactive)
REMARK    1  A    between atoms: C_3  and  N_4 
REMARK    2  A    between atoms: N_4  and  C_5 
REMARK    3  A    between atoms: C_12  and  C_13 
REMARK       I    between atoms: C_13  and  N_14 
REMARK    4  A    between atoms: N_14  and  C_15 
REMARK    5  A    between atoms: C_15  and  C_16 
REMARK    6  A    between atoms: C_16  and  C_17 
ROOT
HETATM    1  C   UNL     1      -7.333   1.500 -32.197  1.00  0.00     0.251 C 
HETATM    2  N   UNL     1      -6.063   2.014 -32.010  1.00  0.00    -0.357 N 
HETATM    3  O   UNL     1      -7.604   0.315 -32.027  1.00  0.00    -0.268 OA
HETATM    4  H   UNL     1      -5.840   2.911 -32.423  1.00  0.00     0.162 HD
ENDROOT
BRANCH   1   5
HETATM    5  C   UNL     1      -8.388   2.442 -32.667  1.00  0.00     0.034 A 
HETATM    6  C   UNL     1      -9.739   2.298 -32.313  1.00  0.00     0.047 A 
HETATM    7  C   UNL     1     -10.706   3.203 -32.768  1.00  0.00     0.050 A 
HETATM    8  C   UNL     1     -10.285   4.249 -33.609  1.00  0.00     0.030 A 
HETATM    9  C   UNL     1      -8.948   4.391 -33.981  1.00  0.00     0.003 A 
HETATM   10  C   UNL     1      -8.001   3.489 -33.511  1.00  0.00     0.017 A 
BRANCH   7  11
HETATM   11  N   UNL     1     -12.066   3.120 -32.449  1.00  0.00    -0.188 N 
HETATM   12  H   UNL     1     -12.389   3.661 -31.661  1.00  0.00     0.184 HD
BRANCH  11  13
HETATM   13  C   UNL     1     -13.137   2.387 -32.948  1.00  0.00     0.726 A 
HETATM   14  N   UNL     1     -14.374   2.495 -32.440  1.00  0.00    -0.075 NA
HETATM   15  C   UNL     1     -15.338   1.734 -32.991  1.00  0.00     0.138 A 
HETATM   16  C   UNL     1     -15.122   0.875 -34.038  1.00  0.00     0.040 A 
HETATM   17  C   UNL     1     -13.830   0.831 -34.493  1.00  0.00     0.138 A 
HETATM   18  N   UNL     1     -12.831   1.567 -33.969  1.00  0.00    -0.075 NA
ENDBRANCH  11  13
ENDBRANCH   7  11
ENDBRANCH   1   5
BRANCH   2  19
HETATM   19  C   UNL     1      -4.954   1.119 -31.729  1.00  0.00     0.127 C 
BRANCH  19  20
HETATM   20  C   UNL     1      -4.469   0.353 -32.960  1.00  0.00     0.060 C 
BRANCH  20  21
HETATM   21  C   UNL     1      -3.934  -1.016 -32.659  1.00  0.00    -0.029 A 
HETATM   22  C   UNL     1      -4.278  -2.240 -33.320  1.00  0.00     0.001 A 
HETATM   23  C   UNL     1      -3.513  -3.259 -32.744  1.00  0.00     0.043 A 
HETATM   24  C   UNL     1      -5.162  -2.577 -34.364  1.00  0.00     0.056 A 
HETATM   25  C   UNL     1      -3.585  -4.595 -33.158  1.00  0.00     0.033 A 
HETATM   26  N   UNL     1      -2.740  -2.679 -31.766  1.00  0.00    -0.365 N 
HETATM   27  C   UNL     1      -4.467  -4.902 -34.196  1.00  0.00     0.044 A 
HETATM   28  C   UNL     1      -5.236  -3.906 -34.782  1.00  0.00     0.117 A 
HETATM   29  F   UNL     1      -6.084  -4.233 -35.768  1.00  0.00    -0.206 F 
HETATM   30  H   UNL     1      -2.082  -3.177 -31.183  1.00  0.00     0.165 HD
HETATM   31  C   UNL     1      -2.976  -1.332 -31.714  1.00  0.00     0.096 A 
ENDBRANCH  20  21
ENDBRANCH  19  20
ENDBRANCH   2  19
TORSDOF 6
ENDMDL
MODEL 7
REMARK VINA RESULT:      -8.3      3.159      9.593
REMARK  6 active torsions:
REMARK  status: ('A' for Active; 'I' for Inactive)
REMARK    1  A    between atoms: C_3  and  N_4 
REMARK    2  A    between atoms: N_4  and  C_5 
REMARK    3  A    between atoms: C_12  and  C_13 
REMARK       I    between atoms: C_13  and  N_14 
REMARK    4  A    between atoms: N_14  and  C_15 
REMARK    5  A    between atoms: C_15  and  C_16 
REMARK    6  A    between atoms: C_16  and  C_17 
ROOT
HETATM    1  C   UNL     1      -2.996   4.404 -32.941  1.00  0.00     0.251 C 
HETATM    2  N   UNL     1      -3.223   5.761 -32.805  1.00  0.00    -0.357 N 
HETATM    3  O   UNL     1      -2.203   3.939 -33.755  1.00  0.00    -0.268 OA
HETATM    4  H   UNL     1      -4.065   6.065 -32.332  1.00  0.00     0.162 HD
ENDROOT
BRANCH   1   5
HETATM    5  C   UNL     1      -3.794   3.489 -32.077  1.00  0.00     0.034 A 
HETATM    6  C   UNL     1      -3.861   2.105 -32.304  1.00  0.00     0.047 A 
HETATM    7  C   UNL     1      -4.619   1.272 -31.471  1.00  0.00     0.050 A 
HETATM    8  C   UNL     1      -5.327   1.867 -30.412  1.00  0.00     0.030 A 
HETATM    9  C   UNL     1      -5.282   3.244 -30.188  1.00  0.00     0.003 A 
HETATM   10  C   UNL     1      -4.517   4.054 -31.020  1.00  0.00     0.017 A 
BRANCH   7  11
HETATM   11  N   UNL     1      -4.724  -0.114 -31.639  1.00  0.00    -0.188 N 
HETATM   12  H   UNL     1      -4.336  -0.697 -30.912  1.00  0.00     0.184 HD
BRANCH  11  13
HETATM   13  C   UNL     1      -5.213  -0.935 -32.648  1.00  0.00     0.726 A 
HETATM   14  N   UNL     1      -6.504  -0.928 -33.011  1.00  0.00    -0.075 NA
HETATM   15  C   UNL     1      -6.874  -1.770 -33.995  1.00  0.00     0.138 A 
HETATM   16  C   UNL     1      -6.006  -2.612 -34.641  1.00  0.00     0.040 A 
HETATM   17  C   UNL     1      -4.708  -2.550 -34.206  1.00  0.00     0.138 A 
HETATM   18  N   UNL     1      -4.292  -1.731 -33.221  1.00  0.00    -0.075 NA
ENDBRANCH  11  13
ENDBRANCH   7  11
ENDBRANCH   1   5
BRANCH   2  19
HETATM   19  C   UNL     1      -2.613   6.693 -33.738  1.00  0.00     0.127 C 
BRANCH  19  20
HETATM   20  C   UNL     1      -1.338   7.341 -33.199  1.00  0.00     0.060 C 
BRANCH  20  21
HETATM   21  C   UNL     1      -1.397   7.692 -31.741  1.00  0.00    -0.029 A 
HETATM   22  C   UNL     1      -0.757   7.001 -30.661  1.00  0.00     0.001 A 
HETATM   23  C   UNL     1      -1.051   7.695 -29.484  1.00  0.00     0.043 A 
HETATM   24  C   UNL     1       0.054   5.852 -30.575  1.00  0.00     0.056 A 
HETATM   25  C   UNL     1      -0.574   7.304 -28.227  1.00  0.00     0.033 A 
HETATM   26  N   UNL     1      -1.843   8.763 -29.833  1.00  0.00    -0.365 N 
HETATM   27  C   UNL     1       0.231   6.164 -28.169  1.00  0.00     0.044 A 
HETATM   28  C   UNL     1       0.534   5.458 -29.325  1.00  0.00     0.117 A 
HETATM   29  F   UNL     1       1.299   4.361 -29.237  1.00  0.00    -0.206 F 
HETATM   30  H   UNL     1      -2.207   9.446 -29.182  1.00  0.00     0.165 HD
HETATM   31  C   UNL     1      -2.048   8.777 -31.186  1.00  0.00     0.096 A 
ENDBRANCH  20  21
ENDBRANCH  19  20
ENDBRANCH   2  19
TORSDOF 6
ENDMDL
MODEL 8
REMARK VINA RESULT:      -8.1      2.170      3.247
REMARK  6 active torsions:
REMARK  status: ('A' for Active; 'I' for Inactive)
REMARK    1  A    between atoms: C_3  and  N_4 
REMARK    2  A    between atoms: N_4  and  C_5 
REMARK    3  A    between atoms: C_12  and  C_13 
REMARK       I    between atoms: C_13  and  N_14 
REMARK    4  A    between atoms: N_14  and  C_15 
REMARK    5  A    between atoms: C_15  and  C_16 
REMARK    6  A    between atoms: C_16  and  C_17 
ROOT
HETATM    1  C   UNL     1      -3.406   2.803 -31.379  1.00  0.00     0.251 C 
HETATM    2  N   UNL     1      -4.597   3.174 -30.784  1.00  0.00    -0.357 N 
HETATM    3  O   UNL     1      -2.997   1.646 -31.387  1.00  0.00    -0.268 OA
HETATM    4  H   UNL     1      -4.744   4.152 -30.567  1.00  0.00     0.162 HD
ENDROOT
BRANCH   1   5
HETATM    5  C   UNL     1      -2.583   3.885 -31.991  1.00  0.00     0.034 A 
HETATM    6  C   UNL     1      -1.787   4.752 -31.225  1.00  0.00     0.047 A 
HETATM    7  C   UNL     1      -1.023   5.757 -31.832  1.00  0.00     0.050 A 
HETATM    8  C   UNL     1      -1.094   5.885 -33.229  1.00  0.00     0.030 A 
HETATM    9  C   UNL     1      -1.895   5.040 -33.999  1.00  0.00     0.003 A 
HETATM   10  C   UNL     1      -2.639   4.042 -33.380  1.00  0.00     0.017 A 
BRANCH   7  11
HETATM   11  N   UNL     1      -0.206   6.649 -31.127  1.00  0.00    -0.188 N 
HETATM   12  H   UNL     1       0.580   7.042 -31.622  1.00  0.00     0.184 HD
BRANCH  11  13
HETATM   13  C   UNL     1      -0.179   7.114 -29.817  1.00  0.00     0.726 A 
HETATM   14  N   UNL     1      -0.909   8.166 -29.418  1.00  0.00    -0.075 NA
HETATM   15  C   UNL     1      -0.803   8.539 -28.128  1.00  0.00     0.138 A 
HETATM   16  C   UNL     1      -0.004   7.897 -27.216  1.00  0.00     0.040 A 
HETATM   17  C   UNL     1       0.703   6.834 -27.712  1.00  0.00     0.138 A 
HETATM   18  N   UNL     1       0.635   6.429 -28.994  1.00  0.00    -0.075 NA
ENDBRANCH  11  13
ENDBRANCH   7  11
ENDBRANCH   1   5
BRANCH   2  19
HETATM   19  C   UNL     1      -5.356   2.202 -30.016  1.00  0.00     0.127 C 
BRANCH  19  20
HETATM   20  C   UNL     1      -6.844   2.183 -30.366  1.00  0.00     0.060 C 
BRANCH  20  21
HETATM   21  C   UNL     1      -7.127   2.141 -31.839  1.00  0.00    -0.029 A 
HETATM   22  C   UNL     1      -6.870   1.054 -32.736  1.00  0.00     0.001 A 
HETATM   23  C   UNL     1      -7.326   1.435 -34.001  1.00  0.00     0.043 A 
HETATM   24  C   UNL     1      -6.301  -0.227 -32.589  1.00  0.00     0.056 A 
HETATM   25  C   UNL     1      -7.245   0.604 -35.125  1.00  0.00     0.033 A 
HETATM   26  N   UNL     1      -7.833   2.707 -33.880  1.00  0.00    -0.365 N 
HETATM   27  C   UNL     1      -6.679  -0.662 -34.952  1.00  0.00     0.044 A 
HETATM   28  C   UNL     1      -6.219  -1.061 -33.704  1.00  0.00     0.117 A 
HETATM   29  F   UNL     1      -5.670  -2.276 -33.570  1.00  0.00    -0.206 F 
HETATM   30  H   UNL     1      -8.239   3.239 -34.639  1.00  0.00     0.165 HD
HETATM   31  C   UNL     1      -7.729   3.137 -32.585  1.00  0.00     0.096 A 
ENDBRANCH  20  21
ENDBRANCH  19  20
ENDBRANCH   2  19
TORSDOF 6
ENDMDL
MODEL 9
REMARK VINA RESULT:      -8.1      3.780      9.562
REMARK  6 active torsions:
REMARK  status: ('A' for Active; 'I' for Inactive)
REMARK    1  A    between atoms: C_3  and  N_4 
REMARK    2  A    between atoms: N_4  and  C_5 
REMARK    3  A    between atoms: C_12  and  C_13 
REMARK       I    between atoms: C_13  and  N_14 
REMARK    4  A    between atoms: N_14  and  C_15 
REMARK    5  A    between atoms: C_15  and  C_16 
REMARK    6  A    between atoms: C_16  and  C_17 
ROOT
HETATM    1  C   UNL     1      -3.769   5.261 -34.301  1.00  0.00     0.251 C 
HETATM    2  N   UNL     1      -2.683   5.084 -33.463  1.00  0.00    -0.357 N 
HETATM    3  O   UNL     1      -3.656   5.612 -35.471  1.00  0.00    -0.268 OA
HETATM    4  H   UNL     1      -2.843   5.069 -32.463  1.00  0.00     0.162 HD
ENDROOT
BRANCH   1   5
HETATM    5  C   UNL     1      -5.123   5.050 -33.716  1.00  0.00     0.034 A 
HETATM    6  C   UNL     1      -5.833   3.849 -33.874  1.00  0.00     0.047 A 
HETATM    7  C   UNL     1      -7.103   3.680 -33.309  1.00  0.00     0.050 A 
HETATM    8  C   UNL     1      -7.655   4.759 -32.596  1.00  0.00     0.030 A 
HETATM    9  C   UNL     1      -6.966   5.963 -32.448  1.00  0.00     0.003 A 
HETATM   10  C   UNL     1      -5.702   6.109 -33.008  1.00  0.00     0.017 A 
BRANCH   7  11
HETATM   11  N   UNL     1      -7.861   2.509 -33.424  1.00  0.00    -0.188 N 
HETATM   12  H   UNL     1      -8.843   2.572 -33.203  1.00  0.00     0.184 HD
BRANCH  11  13
HETATM   13  C   UNL     1      -7.564   1.187 -33.736  1.00  0.00     0.726 A 
HETATM   14  N   UNL     1      -7.772   0.678 -34.959  1.00  0.00    -0.075 NA
HETATM   15  C   UNL     1      -7.457  -0.617 -35.152  1.00  0.00     0.138 A 
HETATM   16  C   UNL     1      -6.931  -1.424 -34.175  1.00  0.00     0.040 A 
HETATM   17  C   UNL     1      -6.751  -0.820 -32.959  1.00  0.00     0.138 A 
HETATM   18  N   UNL     1      -7.058   0.469 -32.717  1.00  0.00    -0.075 NA
ENDBRANCH  11  13
ENDBRANCH   7  11
ENDBRANCH   1   5
BRANCH   2  19
HETATM   19  C   UNL     1      -1.352   5.448 -33.917  1.00  0.00     0.127 C 
BRANCH  19  20
HETATM   20  C   UNL     1      -0.997   6.909 -33.640  1.00  0.00     0.060 C 
BRANCH  20  21
HETATM   21  C   UNL     1      -1.233   7.340 -32.223  1.00  0.00    -0.029 A 
HETATM   22  C   UNL     1      -0.647   6.778 -31.041  1.00  0.00     0.001 A 
HETATM   23  C   UNL     1      -1.117   7.512 -29.949  1.00  0.00     0.043 A 
HETATM   24  C   UNL     1       0.249   5.718 -30.800  1.00  0.00     0.056 A 
HETATM   25  C   UNL     1      -0.736   7.243 -28.628  1.00  0.00     0.033 A 
HETATM   26  N   UNL     1      -1.960   8.478 -30.444  1.00  0.00    -0.365 N 
HETATM   27  C   UNL     1       0.156   6.189 -28.415  1.00  0.00     0.044 A 
HETATM   28  C   UNL     1       0.633   5.446 -29.486  1.00  0.00     0.117 A 
HETATM   29  F   UNL     1       1.478   4.432 -29.251  1.00  0.00    -0.206 F 
HETATM   30  H   UNL     1      -2.445   9.161 -29.879  1.00  0.00     0.165 HD
HETATM   31  C   UNL     1      -2.029   8.391 -31.808  1.00  0.00     0.096 A 
ENDBRANCH  20  21
ENDBRANCH  19  20
ENDBRANCH   2  19
TORSDOF 6
ENDMDL
MODEL 10
REMARK VINA RESULT:      -8.0      3.716     10.053
REMARK  6 active torsions:
REMARK  status: ('A' for Active; 'I' for Inactive)
REMARK    1  A    between atoms: C_3  and  N_4 
REMARK    2  A    between atoms: N_4  and  C_5 
REMARK    3  A    between atoms: C_12  and  C_13 
REMARK       I    between atoms: C_13  and  N_14 
REMARK    4  A    between atoms: N_14  and  C_15 
REMARK    5  A    between atoms: C_15  and  C_16 
REMARK    6  A    between atoms: C_16  and  C_17 
ROOT
HETATM    1  C   UNL     1      -6.026   3.634 -32.006  1.00  0.00     0.251 C 
HETATM    2  N   UNL     1      -5.097   4.347 -31.271  1.00  0.00    -0.357 N 
HETATM    3  O   UNL     1      -6.897   4.173 -32.682  1.00  0.00    -0.268 OA
HETATM    4  H   UNL     1      -4.596   3.869 -30.532  1.00  0.00     0.162 HD
ENDROOT
BRANCH   1   5
HETATM    5  C   UNL     1      -5.968   2.147 -31.919  1.00  0.00     0.034 A 
HETATM    6  C   UNL     1      -5.560   1.345 -32.997  1.00  0.00     0.047 A 
HETATM    7  C   UNL     1      -5.514  -0.050 -32.882  1.00  0.00     0.050 A 
HETATM    8  C   UNL     1      -5.908  -0.625 -31.661  1.00  0.00     0.030 A 
HETATM    9  C   UNL     1      -6.331   0.162 -30.589  1.00  0.00     0.003 A 
HETATM   10  C   UNL     1      -6.362   1.546 -30.718  1.00  0.00     0.017 A 
BRANCH   7  11
HETATM   11  N   UNL     1      -5.113  -0.906 -33.915  1.00  0.00    -0.188 N 
HETATM   12  H   UNL     1      -4.551  -0.507 -34.652  1.00  0.00     0.184 HD
BRANCH  11  13
HETATM   13  C   UNL     1      -5.360  -2.240 -34.222  1.00  0.00     0.726 A 
HETATM   14  N   UNL     1      -6.558  -2.662 -34.653  1.00  0.00    -0.075 NA
HETATM   15  C   UNL     1      -6.692  -3.976 -34.915  1.00  0.00     0.138 A 
HETATM   16  C   UNL     1      -5.676  -4.887 -34.776  1.00  0.00     0.040 A 
HETATM   17  C   UNL     1      -4.489  -4.365 -34.333  1.00  0.00     0.138 A 
HETATM   18  N   UNL     1      -4.309  -3.061 -34.050  1.00  0.00    -0.075 NA
ENDBRANCH  11  13
ENDBRANCH   7  11
ENDBRANCH   1   5
BRANCH   2  19
HETATM   19  C   UNL     1      -5.211   5.792 -31.168  1.00  0.00     0.127 C 
BRANCH  19  20
HETATM   20  C   UNL     1      -4.411   6.538 -32.236  1.00  0.00     0.060 C 
BRANCH  20  21
HETATM   21  C   UNL     1      -2.949   6.204 -32.254  1.00  0.00    -0.029 A 
HETATM   22  C   UNL     1      -1.947   6.665 -31.338  1.00  0.00     0.001 A 
HETATM   23  C   UNL     1      -0.736   6.074 -31.707  1.00  0.00     0.043 A 
HETATM   24  C   UNL     1      -1.960   7.524 -30.221  1.00  0.00     0.056 A 
HETATM   25  C   UNL     1       0.463   6.294 -31.017  1.00  0.00     0.033 A 
HETATM   26  N   UNL     1      -0.988   5.289 -32.807  1.00  0.00    -0.365 N 
HETATM   27  C   UNL     1       0.423   7.147 -29.911  1.00  0.00     0.044 A 
HETATM   28  C   UNL     1      -0.769   7.746 -29.528  1.00  0.00     0.117 A 
HETATM   29  F   UNL     1      -0.775   8.570 -28.471  1.00  0.00    -0.206 F 
HETATM   30  H   UNL     1      -0.293   4.736 -33.290  1.00  0.00     0.165 HD
HETATM   31  C   UNL     1      -2.315   5.351 -33.138  1.00  0.00     0.096 A 
ENDBRANCH  20  21
ENDBRANCH  19  20
ENDBRANCH   2  19
TORSDOF 6
ENDMDL
