MODEL 1
REMARK VINA RESULT:      -9.3      0.000      0.000
REMARK  6 active torsions:
REMARK  status: ('A' for Active; 'I' for Inactive)
REMARK    1  A    between atoms: C_2  and  C_3 
REMARK    2  A    between atoms: C_3  and  C_4 
REMARK    3  A    between atoms: C_4  and  C_5 
REMARK    4  A    between atoms: C_8  and  N_9 
REMARK       I    between atoms: N_9  and  C_10 
REMARK    5  A    between atoms: C_10  and  C_11 
REMARK    6  A    between atoms: N_16  and  C_17 
ROOT
HETATM    1  C   UNL     1      -2.720   4.867 -31.418  1.00  0.00     0.098 A 
HETATM    2  C   UNL     1      -3.727   5.884 -30.951  1.00  0.00     0.205 A 
HETATM    3  O   UNL     1      -4.904   5.846 -31.295  1.00  0.00    -0.286 OA
HETATM    4  C   UNL     1      -3.185   6.893 -30.062  1.00  0.00     0.087 A 
HETATM    5  C   UNL     1      -1.881   6.846 -29.629  1.00  0.00     0.145 A 
HETATM    6  N   UNL     1      -1.697   7.900 -28.750  1.00  0.00    -0.216 N 
HETATM    7  N   UNL     1      -2.794   8.718 -28.764  1.00  0.00    -0.170 NA
HETATM    8  C   UNL     1      -3.709   8.072 -29.503  1.00  0.00     0.069 C 
HETATM    9  C   UNL     1      -5.066   8.643 -29.687  1.00  0.00     0.073 C 
HETATM   10  N   UNL     1      -1.000   5.916 -30.068  1.00  0.00    -0.349 N 
HETATM   11  C   UNL     1      -1.450   4.965 -30.966  1.00  0.00     0.111 A 
HETATM   12  H   UNL     1       0.009   5.992 -29.950  1.00  0.00     0.167 HD
ENDROOT
BRANCH   1  13
HETATM   13  C   UNL     1      -3.046   3.735 -32.339  1.00  0.00     0.261 C 
HETATM   14  N   UNL     1      -3.947   2.822 -31.831  1.00  0.00    -0.323 N 
HETATM   15  H   UNL     1      -4.347   3.027 -30.915  1.00  0.00     0.169 HD
HETATM   16  O   UNL     1      -2.489   3.664 -33.432  1.00  0.00    -0.267 OA
BRANCH  14  17
HETATM   17  C   UNL     1      -4.329   1.586 -32.395  1.00  0.00     0.035 A 
HETATM   18  C   UNL     1      -5.526   1.375 -33.079  1.00  0.00     0.030 A 
HETATM   19  C   UNL     1      -5.802   0.135 -33.663  1.00  0.00     0.009 A 
HETATM   20  C   UNL     1      -4.882  -0.917 -33.582  1.00  0.00    -0.058 A 
HETATM   21  C   UNL     1      -3.693  -0.714 -32.874  1.00  0.00     0.009 A 
HETATM   22  C   UNL     1      -3.424   0.524 -32.281  1.00  0.00     0.030 A 
BRANCH  20  23
HETATM   23  C   UNL     1      -5.158  -2.227 -34.276  1.00  0.00     0.038 C 
BRANCH  23  24
HETATM   24  C   UNL     1      -6.654  -2.408 -34.555  1.00  0.00     0.004 C 
BRANCH  24  25
HETATM   25  C   UNL     1      -7.035  -3.885 -34.645  1.00  0.00    -0.004 C 
HETATM   26  C   UNL     1      -5.979  -4.684 -35.393  1.00  0.00     0.005 C 
ENDBRANCH  24  25
ENDBRANCH  23  24
ENDBRANCH  20  23
ENDBRANCH  14  17
ENDBRANCH   1  13
BRANCH   6  27
HETATM   27  C   UNL     1      -0.607   8.181 -27.877  1.00  0.00     0.060 A 
HETATM   28  C   UNL     1       0.709   8.261 -28.348  1.00  0.00     0.032 A 
HETATM   29  C   UNL     1       1.761   8.520 -27.463  1.00  0.00     0.009 A 
HETATM   30  C   UNL     1       1.515   8.702 -26.098  1.00  0.00    -0.062 A 
HETATM   31  C   UNL     1       2.642   8.953 -25.140  1.00  0.00     0.048 C 
HETATM   32  C   UNL     1       0.203   8.593 -25.624  1.00  0.00     0.009 A 
HETATM   33  C   UNL     1      -0.851   8.327 -26.504  1.00  0.00     0.032 A 
ENDBRANCH   6  27
TORSDOF 6
ENDMDL
MODEL 2
REMARK VINA RESULT:      -9.2      1.790     10.716
REMARK  6 active torsions:
REMARK  status: ('A' for Active; 'I' for Inactive)
REMARK    1  A    between atoms: C_2  and  C_3 
REMARK    2  A    between atoms: C_3  and  C_4 
REMARK    3  A    between atoms: C_4  and  C_5 
REMARK    4  A    between atoms: C_8  and  N_9 
REMARK       I    between atoms: N_9  and  C_10 
REMARK    5  A    between atoms: C_10  and  C_11 
REMARK    6  A    between atoms: N_16  and  C_17 
ROOT
HETATM    1  C   UNL     1      -3.275   4.553 -32.233  1.00  0.00     0.098 A 
HETATM    2  C   UNL     1      -4.589   5.022 -32.798  1.00  0.00     0.205 A 
HETATM    3  O   UNL     1      -4.850   6.212 -32.949  1.00  0.00    -0.286 OA
HETATM    4  C   UNL     1      -5.501   3.952 -33.150  1.00  0.00     0.087 A 
HETATM    5  C   UNL     1      -5.135   2.631 -33.050  1.00  0.00     0.145 A 
HETATM    6  N   UNL     1      -6.192   1.870 -33.521  1.00  0.00    -0.216 N 
HETATM    7  N   UNL     1      -7.283   2.667 -33.737  1.00  0.00    -0.170 NA
HETATM    8  C   UNL     1      -6.841   3.924 -33.576  1.00  0.00     0.069 C 
HETATM    9  C   UNL     1      -7.751   5.074 -33.797  1.00  0.00     0.073 C 
HETATM   10  N   UNL     1      -3.944   2.242 -32.537  1.00  0.00    -0.349 N 
HETATM   11  C   UNL     1      -3.058   3.223 -32.128  1.00  0.00     0.111 A 
HETATM   12  H   UNL     1      -3.739   1.289 -32.240  1.00  0.00     0.167 HD
ENDROOT
BRANCH   1  13
HETATM   13  C   UNL     1      -2.180   5.473 -31.797  1.00  0.00     0.261 C 
HETATM   14  N   UNL     1      -2.005   5.553 -30.432  1.00  0.00    -0.323 N 
HETATM   15  H   UNL     1      -2.588   4.946 -29.854  1.00  0.00     0.169 HD
HETATM   16  O   UNL     1      -1.550   6.106 -32.641  1.00  0.00    -0.267 OA
BRANCH  14  17
HETATM   17  C   UNL     1      -1.165   6.438 -29.722  1.00  0.00     0.035 A 
HETATM   18  C   UNL     1      -1.459   7.783 -29.497  1.00  0.00     0.030 A 
HETATM   19  C   UNL     1      -0.603   8.579 -28.730  1.00  0.00     0.009 A 
HETATM   20  C   UNL     1       0.561   8.043 -28.165  1.00  0.00    -0.058 A 
HETATM   21  C   UNL     1       0.869   6.701 -28.413  1.00  0.00     0.009 A 
HETATM   22  C   UNL     1       0.017   5.910 -29.191  1.00  0.00     0.030 A 
BRANCH  20  23
HETATM   23  C   UNL     1       1.440   8.891 -27.281  1.00  0.00     0.038 C 
BRANCH  23  24
HETATM   24  C   UNL     1       2.008   8.080 -26.112  1.00  0.00     0.004 C 
BRANCH  24  25
HETATM   25  C   UNL     1       2.264   8.959 -24.889  1.00  0.00    -0.004 C 
HETATM   26  C   UNL     1       1.127   9.944 -24.668  1.00  0.00     0.005 C 
ENDBRANCH  24  25
ENDBRANCH  23  24
ENDBRANCH  20  23
ENDBRANCH  14  17
ENDBRANCH   1  13
BRANCH   6  27
HETATM   27  C   UNL     1      -6.253   0.478 -33.819  1.00  0.00     0.060 A 
HETATM   28  C   UNL     1      -5.251  -0.407 -33.402  1.00  0.00     0.032 A 
HETATM   29  C   UNL     1      -5.330  -1.765 -33.726  1.00  0.00     0.009 A 
HETATM   30  C   UNL     1      -6.406  -2.259 -34.471  1.00  0.00    -0.062 A 
HETATM   31  C   UNL     1      -6.482  -3.709 -34.846  1.00  0.00     0.048 C 
HETATM   32  C   UNL     1      -7.390  -1.369 -34.913  1.00  0.00     0.009 A 
HETATM   33  C   UNL     1      -7.313  -0.009 -34.596  1.00  0.00     0.032 A 
ENDBRANCH   6  27
TORSDOF 6
ENDMDL
MODEL 3
REMARK VINA RESULT:      -8.9      2.593     10.993
REMARK  6 active torsions:
REMARK  status: ('A' for Active; 'I' for Inactive)
REMARK    1  A    between atoms: C_2  and  C_3 
REMARK    2  A    between atoms: C_3  and  C_4 
REMARK    3  A    between atoms: C_4  and  C_5 
REMARK    4  A    between atoms: C_8  and  N_9 
REMARK       I    between atoms: N_9  and  C_10 
REMARK    5  A    between atoms: C_10  and  C_11 
REMARK    6  A    between atoms: N_16  and  C_17 
ROOT
HETATM    1  C   UNL     1      -4.234   4.568 -31.908  1.00  0.00     0.098 A 
HETATM    2  C   UNL     1      -3.755   3.141 -31.945  1.00  0.00     0.205 A 
HETATM    3  O   UNL     1      -2.616   2.824 -31.616  1.00  0.00    -0.286 OA
HETATM    4  C   UNL     1      -4.754   2.190 -32.391  1.00  0.00     0.087 A 
HETATM    5  C   UNL     1      -6.045   2.575 -32.662  1.00  0.00     0.145 A 
HETATM    6  N   UNL     1      -6.758   1.435 -32.995  1.00  0.00    -0.216 N 
HETATM    7  N   UNL     1      -5.906   0.372 -33.123  1.00  0.00    -0.170 NA
HETATM    8  C   UNL     1      -4.715   0.817 -32.694  1.00  0.00     0.069 C 
HETATM    9  C   UNL     1      -3.549  -0.097 -32.632  1.00  0.00     0.073 C 
HETATM   10  N   UNL     1      -6.445   3.868 -32.619  1.00  0.00    -0.349 N 
HETATM   11  C   UNL     1      -5.513   4.826 -32.258  1.00  0.00     0.111 A 
HETATM   12  H   UNL     1      -7.313   4.208 -33.031  1.00  0.00     0.167 HD
ENDROOT
BRANCH   1  13
HETATM   13  C   UNL     1      -3.382   5.721 -31.484  1.00  0.00     0.261 C 
HETATM   14  N   UNL     1      -2.361   5.393 -30.617  1.00  0.00    -0.323 N 
HETATM   15  H   UNL     1      -2.243   4.405 -30.392  1.00  0.00     0.169 HD
HETATM   16  O   UNL     1      -3.651   6.852 -31.884  1.00  0.00    -0.267 OA
BRANCH  14  17
HETATM   17  C   UNL     1      -1.497   6.275 -29.933  1.00  0.00     0.035 A 
HETATM   18  C   UNL     1      -1.867   7.021 -28.814  1.00  0.00     0.030 A 
HETATM   19  C   UNL     1      -0.933   7.826 -28.155  1.00  0.00     0.009 A 
HETATM   20  C   UNL     1       0.394   7.894 -28.598  1.00  0.00    -0.058 A 
HETATM   21  C   UNL     1       0.759   7.167 -29.735  1.00  0.00     0.009 A 
HETATM   22  C   UNL     1      -0.181   6.372 -30.400  1.00  0.00     0.030 A 
BRANCH  20  23
HETATM   23  C   UNL     1       1.410   8.709 -27.837  1.00  0.00     0.038 C 
BRANCH  23  24
HETATM   24  C   UNL     1       1.809   8.025 -26.526  1.00  0.00     0.004 C 
BRANCH  24  25
HETATM   25  C   UNL     1       1.731   8.988 -25.342  1.00  0.00    -0.004 C 
HETATM   26  C   UNL     1       3.009   8.955 -24.518  1.00  0.00     0.005 C 
ENDBRANCH  24  25
ENDBRANCH  23  24
ENDBRANCH  20  23
ENDBRANCH  14  17
ENDBRANCH   1  13
BRANCH   6  27
HETATM   27  C   UNL     1      -8.161   1.252 -33.162  1.00  0.00     0.060 A 
HETATM   28  C   UNL     1      -8.847   0.212 -32.523  1.00  0.00     0.032 A 
HETATM   29  C   UNL     1     -10.221   0.047 -32.721  1.00  0.00     0.009 A 
HETATM   30  C   UNL     1     -10.930   0.914 -33.559  1.00  0.00    -0.062 A 
HETATM   31  C   UNL     1     -12.398   0.725 -33.798  1.00  0.00     0.048 C 
HETATM   32  C   UNL     1     -10.238   1.934 -34.221  1.00  0.00     0.009 A 
HETATM   33  C   UNL     1      -8.862   2.099 -34.031  1.00  0.00     0.032 A 
ENDBRANCH   6  27
TORSDOF 6
ENDMDL
MODEL 4
REMARK VINA RESULT:      -8.9      4.087      5.343
REMARK  6 active torsions:
REMARK  status: ('A' for Active; 'I' for Inactive)
REMARK    1  A    between atoms: C_2  and  C_3 
REMARK    2  A    between atoms: C_3  and  C_4 
REMARK    3  A    between atoms: C_4  and  C_5 
REMARK    4  A    between atoms: C_8  and  N_9 
REMARK       I    between atoms: N_9  and  C_10 
REMARK    5  A    between atoms: C_10  and  C_11 
REMARK    6  A    between atoms: N_16  and  C_17 
ROOT
HETATM    1  C   UNL     1      -5.685   4.711 -32.027  1.00  0.00     0.098 A 
HETATM    2  C   UNL     1      -4.727   4.855 -33.179  1.00  0.00     0.205 A 
HETATM    3  O   UNL     1      -5.089   4.750 -34.348  1.00  0.00    -0.286 OA
HETATM    4  C   UNL     1      -3.360   5.133 -32.785  1.00  0.00     0.087 A 
HETATM    5  C   UNL     1      -3.015   5.333 -31.470  1.00  0.00     0.145 A 
HETATM    6  N   UNL     1      -1.666   5.641 -31.436  1.00  0.00    -0.216 N 
HETATM    7  N   UNL     1      -1.112   5.455 -32.674  1.00  0.00    -0.170 NA
HETATM    8  C   UNL     1      -2.147   5.214 -33.493  1.00  0.00     0.069 C 
HETATM    9  C   UNL     1      -1.926   5.024 -34.948  1.00  0.00     0.073 C 
HETATM   10  N   UNL     1      -3.902   5.196 -30.456  1.00  0.00    -0.349 N 
HETATM   11  C   UNL     1      -5.209   4.870 -30.772  1.00  0.00     0.111 A 
HETATM   12  H   UNL     1      -3.634   5.109 -29.476  1.00  0.00     0.167 HD
ENDROOT
BRANCH   1  13
HETATM   13  C   UNL     1      -7.143   4.421 -32.187  1.00  0.00     0.261 C 
HETATM   14  N   UNL     1      -7.433   3.399 -33.066  1.00  0.00    -0.323 N 
HETATM   15  H   UNL     1      -6.642   2.903 -33.476  1.00  0.00     0.169 HD
HETATM   16  O   UNL     1      -7.966   5.105 -31.581  1.00  0.00    -0.267 OA
BRANCH  14  17
HETATM   17  C   UNL     1      -8.704   3.002 -33.533  1.00  0.00     0.035 A 
HETATM   18  C   UNL     1      -9.561   3.825 -34.263  1.00  0.00     0.030 A 
HETATM   19  C   UNL     1     -10.779   3.335 -34.744  1.00  0.00     0.009 A 
HETATM   20  C   UNL     1     -11.160   2.008 -34.512  1.00  0.00    -0.058 A 
HETATM   21  C   UNL     1     -10.314   1.190 -33.758  1.00  0.00     0.009 A 
HETATM   22  C   UNL     1      -9.101   1.686 -33.267  1.00  0.00     0.030 A 
BRANCH  20  23
HETATM   23  C   UNL     1     -12.442   1.470 -35.096  1.00  0.00     0.038 C 
BRANCH  23  24
HETATM   24  C   UNL     1     -13.414   1.024 -33.999  1.00  0.00     0.004 C 
BRANCH  24  25
HETATM   25  C   UNL     1     -13.907   2.207 -33.167  1.00  0.00    -0.004 C 
HETATM   26  C   UNL     1     -15.239   1.897 -32.500  1.00  0.00     0.005 C 
ENDBRANCH  24  25
ENDBRANCH  23  24
ENDBRANCH  20  23
ENDBRANCH  14  17
ENDBRANCH   1  13
BRANCH   6  27
HETATM   27  C   UNL     1      -0.867   6.127 -30.362  1.00  0.00     0.060 A 
HETATM   28  C   UNL     1       0.028   5.296 -29.677  1.00  0.00     0.032 A 
HETATM   29  C   UNL     1       0.785   5.798 -28.614  1.00  0.00     0.009 A 
HETATM   30  C   UNL     1       0.660   7.133 -28.218  1.00  0.00    -0.062 A 
HETATM   31  C   UNL     1       1.449   7.671 -27.061  1.00  0.00     0.048 C 
HETATM   32  C   UNL     1      -0.256   7.955 -28.883  1.00  0.00     0.009 A 
HETATM   33  C   UNL     1      -1.020   7.456 -29.943  1.00  0.00     0.032 A 
ENDBRANCH   6  27
TORSDOF 6
ENDMDL
MODEL 5
REMARK VINA RESULT:      -8.8      1.713     10.713
REMARK  6 active torsions:
REMARK  status: ('A' for Active; 'I' for Inactive)
REMARK    1  A    between atoms: C_2  and  C_3 
REMARK    2  A    between atoms: C_3  and  C_4 
REMARK    3  A    between atoms: C_4  and  C_5 
REMARK    4  A    between atoms: C_8  and  N_9 
REMARK       I    between atoms: N_9  and  C_10 
REMARK    5  A    between atoms: C_10  and  C_11 
REMARK    6  A    between atoms: N_16  and  C_17 
ROOT
HETATM    1  C   UNL     1      -4.022   4.452 -31.514  1.00  0.00     0.098 A 
HETATM    2  C   UNL     1      -5.505   4.431 -31.254  1.00  0.00     0.205 A 
HETATM    3  O   UNL     1      -6.106   5.406 -30.812  1.00  0.00    -0.286 OA
HETATM    4  C   UNL     1      -6.148   3.173 -31.576  1.00  0.00     0.087 A 
HETATM    5  C   UNL     1      -5.455   2.136 -32.154  1.00  0.00     0.145 A 
HETATM    6  N   UNL     1      -6.358   1.115 -32.395  1.00  0.00    -0.216 N 
HETATM    7  N   UNL     1      -7.562   1.408 -31.813  1.00  0.00    -0.170 NA
HETATM    8  C   UNL     1      -7.448   2.673 -31.381  1.00  0.00     0.069 C 
HETATM    9  C   UNL     1      -8.601   3.356 -30.743  1.00  0.00     0.073 C 
HETATM   10  N   UNL     1      -4.120   2.187 -32.376  1.00  0.00    -0.349 N 
HETATM   11  C   UNL     1      -3.444   3.343 -32.029  1.00  0.00     0.111 A 
HETATM   12  H   UNL     1      -3.548   1.368 -32.581  1.00  0.00     0.167 HD
ENDROOT
BRANCH   1  13
HETATM   13  C   UNL     1      -3.148   5.637 -31.256  1.00  0.00     0.261 C 
HETATM   14  N   UNL     1      -2.203   5.450 -30.270  1.00  0.00    -0.323 N 
HETATM   15  H   UNL     1      -2.147   4.521 -29.852  1.00  0.00     0.169 HD
HETATM   16  O   UNL     1      -3.337   6.676 -31.884  1.00  0.00    -0.267 OA
BRANCH  14  17
HETATM   17  C   UNL     1      -1.346   6.419 -29.705  1.00  0.00     0.035 A 
HETATM   18  C   UNL     1      -1.768   7.422 -28.832  1.00  0.00     0.030 A 
HETATM   19  C   UNL     1      -0.845   8.307 -28.266  1.00  0.00     0.009 A 
HETATM   20  C   UNL     1       0.521   8.200 -28.556  1.00  0.00    -0.058 A 
HETATM   21  C   UNL     1       0.941   7.212 -29.451  1.00  0.00     0.009 A 
HETATM   22  C   UNL     1       0.014   6.335 -30.025  1.00  0.00     0.030 A 
BRANCH  20  23
HETATM   23  C   UNL     1       1.515   9.114 -27.885  1.00  0.00     0.038 C 
BRANCH  23  24
HETATM   24  C   UNL     1       1.253   9.219 -26.379  1.00  0.00     0.004 C 
BRANCH  24  25
HETATM   25  C   UNL     1       2.159   8.282 -25.581  1.00  0.00    -0.004 C 
HETATM   26  C   UNL     1       3.009   9.053 -24.583  1.00  0.00     0.005 C 
ENDBRANCH  24  25
ENDBRANCH  23  24
ENDBRANCH  20  23
ENDBRANCH  14  17
ENDBRANCH   1  13
BRANCH   6  27
HETATM   27  C   UNL     1      -6.202  -0.083 -33.151  1.00  0.00     0.060 A 
HETATM   28  C   UNL     1      -7.200  -0.536 -34.022  1.00  0.00     0.032 A 
HETATM   29  C   UNL     1      -7.024  -1.726 -34.737  1.00  0.00     0.009 A 
HETATM   30  C   UNL     1      -5.855  -2.479 -34.592  1.00  0.00    -0.062 A 
HETATM   31  C   UNL     1      -5.673  -3.769 -35.334  1.00  0.00     0.048 C 
HETATM   32  C   UNL     1      -4.872  -2.040 -33.698  1.00  0.00     0.009 A 
HETATM   33  C   UNL     1      -5.045  -0.855 -32.977  1.00  0.00     0.032 A 
ENDBRANCH   6  27
TORSDOF 6
ENDMDL
MODEL 6
REMARK VINA RESULT:      -8.4      7.812     11.849
REMARK  6 active torsions:
REMARK  status: ('A' for Active; 'I' for Inactive)
REMARK    1  A    between atoms: C_2  and  C_3 
REMARK    2  A    between atoms: C_3  and  C_4 
REMARK    3  A    between atoms: C_4  and  C_5 
REMARK    4  A    between atoms: C_8  and  N_9 
REMARK       I    between atoms: N_9  and  C_10 
REMARK    5  A    between atoms: C_10  and  C_11 
REMARK    6  A    between atoms: N_16  and  C_17 
ROOT
HETATM    1  C   UNL     1     -10.909   2.236 -33.158  1.00  0.00     0.098 A 
HETATM    2  C   UNL     1     -10.040   2.620 -31.991  1.00  0.00     0.205 A 
HETATM    3  O   UNL     1     -10.415   3.406 -31.126  1.00  0.00    -0.286 OA
HETATM    4  C   UNL     1      -8.741   1.977 -31.979  1.00  0.00     0.087 A 
HETATM    5  C   UNL     1      -8.395   1.034 -32.916  1.00  0.00     0.145 A 
HETATM    6  N   UNL     1      -7.132   0.569 -32.592  1.00  0.00    -0.216 N 
HETATM    7  N   UNL     1      -6.597   1.329 -31.588  1.00  0.00    -0.170 NA
HETATM    8  C   UNL     1      -7.594   2.129 -31.180  1.00  0.00     0.069 C 
HETATM    9  C   UNL     1      -7.392   3.062 -30.044  1.00  0.00     0.073 C 
HETATM   10  N   UNL     1      -9.201   0.709 -33.956  1.00  0.00    -0.349 N 
HETATM   11  C   UNL     1     -10.429   1.339 -34.049  1.00  0.00     0.111 A 
HETATM   12  H   UNL     1      -8.886   0.198 -34.779  1.00  0.00     0.167 HD
ENDROOT
BRANCH   1  13
HETATM   13  C   UNL     1     -12.287   2.771 -33.383  1.00  0.00     0.261 C 
HETATM   14  N   UNL     1     -13.102   2.743 -32.271  1.00  0.00    -0.323 N 
HETATM   15  H   UNL     1     -12.685   2.421 -31.398  1.00  0.00     0.169 HD
HETATM   16  O   UNL     1     -12.612   3.153 -34.505  1.00  0.00    -0.267 OA
BRANCH  14  17
HETATM   17  C   UNL     1     -14.482   3.035 -32.209  1.00  0.00     0.035 A 
HETATM   18  C   UNL     1     -15.490   2.086 -32.381  1.00  0.00     0.030 A 
HETATM   19  C   UNL     1     -16.835   2.445 -32.243  1.00  0.00     0.009 A 
HETATM   20  C   UNL     1     -17.197   3.758 -31.920  1.00  0.00    -0.058 A 
HETATM   21  C   UNL     1     -16.188   4.715 -31.774  1.00  0.00     0.009 A 
HETATM   22  C   UNL     1     -14.844   4.356 -31.924  1.00  0.00     0.030 A 
BRANCH  20  23
HETATM   23  C   UNL     1     -18.645   4.117 -31.703  1.00  0.00     0.038 C 
BRANCH  23  24
HETATM   24  C   UNL     1     -18.787   5.400 -30.878  1.00  0.00     0.004 C 
BRANCH  24  25
HETATM   25  C   UNL     1     -19.148   5.099 -29.424  1.00  0.00    -0.004 C 
HETATM   26  C   UNL     1     -18.464   6.068 -28.472  1.00  0.00     0.005 C 
ENDBRANCH  24  25
ENDBRANCH  23  24
ENDBRANCH  20  23
ENDBRANCH  14  17
ENDBRANCH   1  13
BRANCH   6  27
HETATM   27  C   UNL     1      -6.406  -0.541 -33.112  1.00  0.00     0.060 A 
HETATM   28  C   UNL     1      -6.991  -1.447 -34.007  1.00  0.00     0.032 A 
HETATM   29  C   UNL     1      -6.258  -2.537 -34.486  1.00  0.00     0.009 A 
HETATM   30  C   UNL     1      -4.936  -2.741 -34.080  1.00  0.00    -0.062 A 
HETATM   31  C   UNL     1      -4.154  -3.925 -34.569  1.00  0.00     0.048 C 
HETATM   32  C   UNL     1      -4.362  -1.853 -33.164  1.00  0.00     0.009 A 
HETATM   33  C   UNL     1      -5.093  -0.765 -32.677  1.00  0.00     0.032 A 
ENDBRANCH   6  27
TORSDOF 6
ENDMDL
MODEL 7
REMARK VINA RESULT:      -8.2      8.516     11.314
REMARK  6 active torsions:
REMARK  status: ('A' for Active; 'I' for Inactive)
REMARK    1  A    between atoms: C_2  and  C_3 
REMARK    2  A    between atoms: C_3  and  C_4 
REMARK    3  A    between atoms: C_4  and  C_5 
REMARK    4  A    between atoms: C_8  and  N_9 
REMARK       I    between atoms: N_9  and  C_10 
REMARK    5  A    between atoms: C_10  and  C_11 
REMARK    6  A    between atoms: N_16  and  C_17 
ROOT
HETATM    1  C   UNL     1     -11.360   2.873 -34.051  1.00  0.00     0.098 A 
HETATM    2  C   UNL     1     -11.812   3.825 -32.976  1.00  0.00     0.205 A 
HETATM    3  O   UNL     1     -11.534   3.656 -31.793  1.00  0.00    -0.286 OA
HETATM    4  C   UNL     1     -12.587   4.948 -33.464  1.00  0.00     0.087 A 
HETATM    5  C   UNL     1     -12.799   5.149 -34.807  1.00  0.00     0.145 A 
HETATM    6  N   UNL     1     -13.509   6.330 -34.944  1.00  0.00    -0.216 N 
HETATM    7  N   UNL     1     -13.913   6.778 -33.716  1.00  0.00    -0.170 NA
HETATM    8  C   UNL     1     -13.300   5.981 -32.828  1.00  0.00     0.069 C 
HETATM    9  C   UNL     1     -13.459   6.215 -31.371  1.00  0.00     0.073 C 
HETATM   10  N   UNL     1     -12.378   4.273 -35.750  1.00  0.00    -0.349 N 
HETATM   11  C   UNL     1     -11.685   3.150 -35.333  1.00  0.00     0.111 A 
HETATM   12  H   UNL     1     -12.713   4.272 -36.712  1.00  0.00     0.167 HD
ENDROOT
BRANCH   1  13
HETATM   13  C   UNL     1     -10.551   1.644 -33.788  1.00  0.00     0.261 C 
HETATM   14  N   UNL     1      -9.197   1.789 -34.009  1.00  0.00    -0.323 N 
HETATM   15  H   UNL     1      -8.867   2.718 -34.270  1.00  0.00     0.169 HD
HETATM   16  O   UNL     1     -11.116   0.609 -33.442  1.00  0.00    -0.267 OA
BRANCH  14  17
HETATM   17  C   UNL     1      -8.210   0.780 -33.994  1.00  0.00     0.035 A 
HETATM   18  C   UNL     1      -7.754   0.116 -35.133  1.00  0.00     0.030 A 
HETATM   19  C   UNL     1      -6.727  -0.829 -35.041  1.00  0.00     0.009 A 
HETATM   20  C   UNL     1      -6.131  -1.122 -33.809  1.00  0.00    -0.058 A 
HETATM   21  C   UNL     1      -6.606  -0.477 -32.663  1.00  0.00     0.009 A 
HETATM   22  C   UNL     1      -7.641   0.460 -32.756  1.00  0.00     0.030 A 
BRANCH  20  23
HETATM   23  C   UNL     1      -4.977  -2.090 -33.732  1.00  0.00     0.038 C 
BRANCH  23  24
HETATM   24  C   UNL     1      -4.904  -2.975 -34.981  1.00  0.00     0.004 C 
BRANCH  24  25
HETATM   25  C   UNL     1      -5.388  -4.396 -34.693  1.00  0.00    -0.004 C 
HETATM   26  C   UNL     1      -6.728  -4.669 -35.359  1.00  0.00     0.005 C 
ENDBRANCH  24  25
ENDBRANCH  23  24
ENDBRANCH  20  23
ENDBRANCH  14  17
ENDBRANCH   1  13
BRANCH   6  27
HETATM   27  C   UNL     1     -13.805   7.087 -36.114  1.00  0.00     0.060 A 
HETATM   28  C   UNL     1     -15.056   7.016 -36.738  1.00  0.00     0.032 A 
HETATM   29  C   UNL     1     -15.311   7.758 -37.896  1.00  0.00     0.009 A 
HETATM   30  C   UNL     1     -14.322   8.577 -38.449  1.00  0.00    -0.062 A 
HETATM   31  C   UNL     1     -14.579   9.353 -39.706  1.00  0.00     0.048 C 
HETATM   32  C   UNL     1     -13.062   8.624 -37.842  1.00  0.00     0.009 A 
HETATM   33  C   UNL     1     -12.801   7.880 -36.687  1.00  0.00     0.032 A 
ENDBRANCH   6  27
TORSDOF 6
ENDMDL
MODEL 8
REMARK VINA RESULT:      -8.1      3.329      4.186
REMARK  6 active torsions:
REMARK  status: ('A' for Active; 'I' for Inactive)
REMARK    1  A    between atoms: C_2  and  C_3 
REMARK    2  A    between atoms: C_3  and  C_4 
REMARK    3  A    between atoms: C_4  and  C_5 
REMARK    4  A    between atoms: C_8  and  N_9 
REMARK       I    between atoms: N_9  and  C_10 
REMARK    5  A    between atoms: C_10  and  C_11 
REMARK    6  A    between atoms: N_16  and  C_17 
ROOT
HETATM    1  C   UNL     1      -4.950   5.722 -31.099  1.00  0.00     0.098 A 
HETATM    2  C   UNL     1      -3.978   6.051 -32.200  1.00  0.00     0.205 A 
HETATM    3  O   UNL     1      -4.260   5.910 -33.386  1.00  0.00    -0.286 OA
HETATM    4  C   UNL     1      -2.699   6.549 -31.735  1.00  0.00     0.087 A 
HETATM    5  C   UNL     1      -2.456   6.777 -30.402  1.00  0.00     0.145 A 
HETATM    6  N   UNL     1      -1.182   7.310 -30.297  1.00  0.00    -0.216 N 
HETATM    7  N   UNL     1      -0.547   7.246 -31.507  1.00  0.00    -0.170 NA
HETATM    8  C   UNL     1      -1.485   6.850 -32.380  1.00  0.00     0.069 C 
HETATM    9  C   UNL     1      -1.167   6.730 -33.824  1.00  0.00     0.073 C 
HETATM   10  N   UNL     1      -3.353   6.471 -29.435  1.00  0.00    -0.349 N 
HETATM   11  C   UNL     1      -4.569   5.934 -29.820  1.00  0.00     0.111 A 
HETATM   12  H   UNL     1      -3.120   6.412 -28.444  1.00  0.00     0.167 HD
ENDROOT
BRANCH   1  13
HETATM   13  C   UNL     1      -6.328   5.192 -31.335  1.00  0.00     0.261 C 
HETATM   14  N   UNL     1      -6.372   3.910 -31.841  1.00  0.00    -0.323 N 
HETATM   15  H   UNL     1      -5.481   3.425 -31.953  1.00  0.00     0.169 HD
HETATM   16  O   UNL     1      -7.300   5.910 -31.111  1.00  0.00    -0.267 OA
BRANCH  14  17
HETATM   17  C   UNL     1      -7.505   3.205 -32.303  1.00  0.00     0.035 A 
HETATM   18  C   UNL     1      -7.957   3.231 -33.622  1.00  0.00     0.030 A 
HETATM   19  C   UNL     1      -9.052   2.455 -34.014  1.00  0.00     0.009 A 
HETATM   20  C   UNL     1      -9.711   1.631 -33.094  1.00  0.00    -0.058 A 
HETATM   21  C   UNL     1      -9.275   1.624 -31.766  1.00  0.00     0.009 A 
HETATM   22  C   UNL     1      -8.186   2.411 -31.374  1.00  0.00     0.030 A 
BRANCH  20  23
HETATM   23  C   UNL     1     -10.846   0.744 -33.543  1.00  0.00     0.038 C 
BRANCH  23  24
HETATM   24  C   UNL     1     -12.131   1.548 -33.765  1.00  0.00     0.004 C 
BRANCH  24  25
HETATM   25  C   UNL     1     -13.235   0.688 -34.379  1.00  0.00    -0.004 C 
HETATM   26  C   UNL     1     -13.444  -0.592 -33.585  1.00  0.00     0.005 C 
ENDBRANCH  24  25
ENDBRANCH  23  24
ENDBRANCH  20  23
ENDBRANCH  14  17
ENDBRANCH   1  13
BRANCH   6  27
HETATM   27  C   UNL     1      -0.530   7.903 -29.178  1.00  0.00     0.060 A 
HETATM   28  C   UNL     1      -1.053   9.033 -28.537  1.00  0.00     0.032 A 
HETATM   29  C   UNL     1      -0.380   9.604 -27.452  1.00  0.00     0.009 A 
HETATM   30  C   UNL     1       0.822   9.058 -26.992  1.00  0.00    -0.062 A 
HETATM   31  C   UNL     1       1.563   9.682 -25.846  1.00  0.00     0.048 C 
HETATM   32  C   UNL     1       1.359   7.947 -27.651  1.00  0.00     0.009 A 
HETATM   33  C   UNL     1       0.693   7.376 -28.741  1.00  0.00     0.032 A 
ENDBRANCH   6  27
TORSDOF 6
ENDMDL
MODEL 9
REMARK VINA RESULT:      -7.8      1.973      2.689
REMARK  6 active torsions:
REMARK  status: ('A' for Active; 'I' for Inactive)
REMARK    1  A    between atoms: C_2  and  C_3 
REMARK    2  A    between atoms: C_3  and  C_4 
REMARK    3  A    between atoms: C_4  and  C_5 
REMARK    4  A    between atoms: C_8  and  N_9 
REMARK       I    between atoms: N_9  and  C_10 
REMARK    5  A    between atoms: C_10  and  C_11 
REMARK    6  A    between atoms: N_16  and  C_17 
ROOT
HETATM    1  C   UNL     1      -5.726   4.510 -31.798  1.00  0.00     0.098 A 
HETATM    2  C   UNL     1      -6.616   5.435 -31.011  1.00  0.00     0.205 A 
HETATM    3  O   UNL     1      -7.837   5.308 -30.992  1.00  0.00    -0.286 OA
HETATM    4  C   UNL     1      -5.906   6.469 -30.285  1.00  0.00     0.087 A 
HETATM    5  C   UNL     1      -4.533   6.520 -30.261  1.00  0.00     0.145 A 
HETATM    6  N   UNL     1      -4.170   7.570 -29.435  1.00  0.00    -0.216 N 
HETATM    7  N   UNL     1      -5.277   8.297 -29.089  1.00  0.00    -0.170 NA
HETATM    8  C   UNL     1      -6.322   7.593 -29.548  1.00  0.00     0.069 C 
HETATM    9  C   UNL     1      -7.709   8.055 -29.296  1.00  0.00     0.073 C 
HETATM   10  N   UNL     1      -3.760   5.672 -30.980  1.00  0.00    -0.349 N 
HETATM   11  C   UNL     1      -4.389   4.703 -31.741  1.00  0.00     0.111 A 
HETATM   12  H   UNL     1      -2.770   5.826 -31.165  1.00  0.00     0.167 HD
ENDROOT
BRANCH   1  13
HETATM   13  C   UNL     1      -6.231   3.371 -32.625  1.00  0.00     0.261 C 
HETATM   14  N   UNL     1      -6.056   2.127 -32.056  1.00  0.00    -0.323 N 
HETATM   15  H   UNL     1      -5.660   2.098 -31.117  1.00  0.00     0.169 HD
HETATM   16  O   UNL     1      -6.717   3.595 -33.731  1.00  0.00    -0.267 OA
BRANCH  14  17
HETATM   17  C   UNL     1      -6.289   0.869 -32.653  1.00  0.00     0.035 A 
HETATM   18  C   UNL     1      -7.554   0.381 -32.980  1.00  0.00     0.030 A 
HETATM   19  C   UNL     1      -7.695  -0.851 -33.626  1.00  0.00     0.009 A 
HETATM   20  C   UNL     1      -6.573  -1.615 -33.967  1.00  0.00    -0.058 A 
HETATM   21  C   UNL     1      -5.306  -1.138 -33.616  1.00  0.00     0.009 A 
HETATM   22  C   UNL     1      -5.168   0.089 -32.959  1.00  0.00     0.030 A 
BRANCH  20  23
HETATM   23  C   UNL     1      -6.733  -2.907 -34.728  1.00  0.00     0.038 C 
BRANCH  23  24
HETATM   24  C   UNL     1      -5.378  -3.466 -35.174  1.00  0.00     0.004 C 
BRANCH  24  25
HETATM   25  C   UNL     1      -5.033  -4.762 -34.441  1.00  0.00    -0.004 C 
HETATM   26  C   UNL     1      -3.741  -4.624 -33.652  1.00  0.00     0.005 C 
ENDBRANCH  24  25
ENDBRANCH  23  24
ENDBRANCH  20  23
ENDBRANCH  14  17
ENDBRANCH   1  13
BRANCH   6  27
HETATM   27  C   UNL     1      -2.892   7.923 -28.915  1.00  0.00     0.060 A 
HETATM   28  C   UNL     1      -2.091   6.994 -28.240  1.00  0.00     0.032 A 
HETATM   29  C   UNL     1      -0.848   7.375 -27.725  1.00  0.00     0.009 A 
HETATM   30  C   UNL     1      -0.387   8.687 -27.875  1.00  0.00    -0.062 A 
HETATM   31  C   UNL     1       0.933   9.109 -27.300  1.00  0.00     0.048 C 
HETATM   32  C   UNL     1      -1.200   9.622 -28.523  1.00  0.00     0.009 A 
HETATM   33  C   UNL     1      -2.447   9.247 -29.034  1.00  0.00     0.032 A 
ENDBRANCH   6  27
TORSDOF 6
ENDMDL
MODEL 10
REMARK VINA RESULT:      -7.7      1.904      3.473
REMARK  6 active torsions:
REMARK  status: ('A' for Active; 'I' for Inactive)
REMARK    1  A    between atoms: C_2  and  C_3 
REMARK    2  A    between atoms: C_3  and  C_4 
REMARK    3  A    between atoms: C_4  and  C_5 
REMARK    4  A    between atoms: C_8  and  N_9 
REMARK       I    between atoms: N_9  and  C_10 
REMARK    5  A    between atoms: C_10  and  C_11 
REMARK    6  A    between atoms: N_16  and  C_17 
ROOT
HETATM    1  C   UNL     1      -3.271   4.860 -31.274  1.00  0.00     0.098 A 
HETATM    2  C   UNL     1      -1.938   5.537 -31.105  1.00  0.00     0.205 A 
HETATM    3  O   UNL     1      -0.978   5.283 -31.828  1.00  0.00    -0.286 OA
HETATM    4  C   UNL     1      -1.895   6.509 -30.031  1.00  0.00     0.087 A 
HETATM    5  C   UNL     1      -3.016   6.829 -29.304  1.00  0.00     0.145 A 
HETATM    6  N   UNL     1      -2.663   7.826 -28.410  1.00  0.00    -0.216 N 
HETATM    7  N   UNL     1      -1.306   8.008 -28.426  1.00  0.00    -0.170 NA
HETATM    8  C   UNL     1      -0.860   7.261 -29.447  1.00  0.00     0.069 C 
HETATM    9  C   UNL     1       0.580   7.263 -29.806  1.00  0.00     0.073 C 
HETATM   10  N   UNL     1      -4.204   6.202 -29.481  1.00  0.00    -0.349 N 
HETATM   11  C   UNL     1      -4.283   5.221 -30.453  1.00  0.00     0.111 A 
HETATM   12  H   UNL     1      -4.975   6.250 -28.816  1.00  0.00     0.167 HD
ENDROOT
BRANCH   1  13
HETATM   13  C   UNL     1      -3.554   3.823 -32.313  1.00  0.00     0.261 C 
HETATM   14  N   UNL     1      -4.231   2.714 -31.849  1.00  0.00    -0.323 N 
HETATM   15  H   UNL     1      -4.523   2.726 -30.872  1.00  0.00     0.169 HD
HETATM   16  O   UNL     1      -3.152   3.992 -33.462  1.00  0.00    -0.267 OA
BRANCH  14  17
HETATM   17  C   UNL     1      -4.502   1.518 -32.547  1.00  0.00     0.035 A 
HETATM   18  C   UNL     1      -3.622   0.439 -32.620  1.00  0.00     0.030 A 
HETATM   19  C   UNL     1      -3.992  -0.737 -33.281  1.00  0.00     0.009 A 
HETATM   20  C   UNL     1      -5.254  -0.859 -33.874  1.00  0.00    -0.058 A 
HETATM   21  C   UNL     1      -6.127   0.233 -33.824  1.00  0.00     0.009 A 
HETATM   22  C   UNL     1      -5.750   1.412 -33.172  1.00  0.00     0.030 A 
BRANCH  20  23
HETATM   23  C   UNL     1      -5.670  -2.156 -34.521  1.00  0.00     0.038 C 
BRANCH  23  24
HETATM   24  C   UNL     1      -4.715  -3.297 -34.154  1.00  0.00     0.004 C 
BRANCH  24  25
HETATM   25  C   UNL     1      -5.231  -4.646 -34.653  1.00  0.00    -0.004 C 
HETATM   26  C   UNL     1      -6.635  -4.524 -35.224  1.00  0.00     0.005 C 
ENDBRANCH  24  25
ENDBRANCH  23  24
ENDBRANCH  20  23
ENDBRANCH  14  17
ENDBRANCH   1  13
BRANCH   6  27
HETATM   27  C   UNL     1      -3.484   8.642 -27.580  1.00  0.00     0.060 A 
HETATM   28  C   UNL     1      -3.362   8.627 -26.185  1.00  0.00     0.032 A 
HETATM   29  C   UNL     1      -4.196   9.426 -25.395  1.00  0.00     0.009 A 
HETATM   30  C   UNL     1      -5.161  10.248 -25.984  1.00  0.00    -0.062 A 
HETATM   31  C   UNL     1      -6.077  11.086 -25.142  1.00  0.00     0.048 C 
HETATM   32  C   UNL     1      -5.302  10.240 -27.376  1.00  0.00     0.009 A 
HETATM   33  C   UNL     1      -4.475   9.438 -28.170  1.00  0.00     0.032 A 
ENDBRANCH   6  27
TORSDOF 6
ENDMDL
