MODEL 1
REMARK VINA RESULT:      -7.3      0.000      0.000
REMARK  5 active torsions:
REMARK  status: ('A' for Active; 'I' for Inactive)
REMARK    1  A    between atoms: C_2  and  C_3 
REMARK    2  A    between atoms: C_3  and  N_4 
REMARK    3  A    between atoms: C_3  and  C_14 
REMARK       I    between atoms: N_4  and  C_5 
REMARK    4  A    between atoms: C_5  and  C_6 
REMARK    5  A    between atoms: C_17  and  O_18 
ROOT
HETATM    1  C   UNL     1      -6.582   0.886 -33.507  1.00  0.00     0.117 C 
ENDROOT
BRANCH   1   2
HETATM    2  C   UNL     1      -7.706   0.855 -32.450  1.00  0.00     0.025 C 
HETATM    3  C   UNL     1      -7.224   0.422 -31.071  1.00  0.00     0.007 C 
ENDBRANCH   1   2
BRANCH   1   4
HETATM    4  N   UNL     1      -5.449   1.693 -33.069  1.00  0.00    -0.348 N 
HETATM    5  C   UNL     1      -5.334   3.030 -33.379  1.00  0.00     0.253 C 
HETATM    6  O   UNL     1      -6.165   3.650 -34.031  1.00  0.00    -0.268 OA
HETATM    7  H   UNL     1      -4.666   1.197 -32.672  1.00  0.00     0.163 HD
BRANCH   5   8
HETATM    8  C   UNL     1      -4.109   3.719 -32.906  1.00  0.00     0.050 A 
HETATM    9  C   UNL     1      -3.345   3.110 -31.915  1.00  0.00     0.133 A 
HETATM   10  N   UNL     1      -2.208   3.644 -31.399  1.00  0.00    -0.271 NA
HETATM   11  C   UNL     1      -1.812   4.833 -31.909  1.00  0.00     0.135 A 
HETATM   12  C   UNL     1      -2.499   5.504 -32.910  1.00  0.00     0.029 A 
HETATM   13 BR   UNL     1      -1.864   7.151 -33.574  1.00  0.00    -0.050 Br
HETATM   14  C   UNL     1      -3.664   4.940 -33.422  1.00  0.00     0.039 A 
ENDBRANCH   5   8
ENDBRANCH   1   4
BRANCH   1  15
HETATM   15  C   UNL     1      -6.081  -0.512 -33.840  1.00  0.00    -0.035 A 
HETATM   16  C   UNL     1      -4.768  -0.875 -33.513  1.00  0.00     0.012 A 
HETATM   17  C   UNL     1      -4.297  -2.164 -33.782  1.00  0.00     0.037 A 
HETATM   18  C   UNL     1      -5.129  -3.118 -34.369  1.00  0.00     0.068 A 
HETATM   19  C   UNL     1      -6.438  -2.769 -34.696  1.00  0.00     0.037 A 
HETATM   20  C   UNL     1      -6.911  -1.478 -34.432  1.00  0.00     0.012 A 
BRANCH  18  21
HETATM   21  O   UNL     1      -4.547  -4.340 -34.568  1.00  0.00    -0.356 OA
HETATM   22  C   UNL     1      -3.570  -4.749 -33.619  1.00  0.00     0.210 C 
ENDBRANCH  18  21
ENDBRANCH   1  15
TORSDOF 5
ENDMDL
MODEL 2
REMARK VINA RESULT:      -7.3      1.509      2.151
REMARK  5 active torsions:
REMARK  status: ('A' for Active; 'I' for Inactive)
REMARK    1  A    between atoms: C_2  and  C_3 
REMARK    2  A    between atoms: C_3  and  N_4 
REMARK    3  A    between atoms: C_3  and  C_14 
REMARK       I    between atoms: N_4  and  C_5 
REMARK    4  A    between atoms: C_5  and  C_6 
REMARK    5  A    between atoms: C_17  and  O_18 
ROOT
HETATM    1  C   UNL     1      -6.577   1.037 -32.337  1.00  0.00     0.117 C 
ENDROOT
BRANCH   1   2
HETATM    2  C   UNL     1      -6.777   0.781 -30.829  1.00  0.00     0.025 C 
HETATM    3  C   UNL     1      -5.648   1.334 -29.968  1.00  0.00     0.007 C 
ENDBRANCH   1   2
BRANCH   1   4
HETATM    4  N   UNL     1      -5.539   2.032 -32.584  1.00  0.00    -0.348 N 
HETATM    5  C   UNL     1      -5.776   3.177 -33.311  1.00  0.00     0.253 C 
HETATM    6  O   UNL     1      -6.864   3.461 -33.796  1.00  0.00    -0.268 OA
HETATM    7  H   UNL     1      -4.595   1.770 -32.347  1.00  0.00     0.163 HD
BRANCH   5   8
HETATM    8  C   UNL     1      -4.620   4.082 -33.521  1.00  0.00     0.050 A 
HETATM    9  C   UNL     1      -4.619   4.908 -34.641  1.00  0.00     0.133 A 
HETATM   10  N   UNL     1      -3.618   5.775 -34.943  1.00  0.00    -0.271 NA
HETATM   11  C   UNL     1      -2.580   5.826 -34.077  1.00  0.00     0.135 A 
HETATM   12  C   UNL     1      -2.504   5.054 -32.926  1.00  0.00     0.029 A 
HETATM   13 BR   UNL     1      -1.025   5.202 -31.765  1.00  0.00    -0.050 Br
HETATM   14  C   UNL     1      -3.540   4.170 -32.638  1.00  0.00     0.039 A 
ENDBRANCH   5   8
ENDBRANCH   1   4
BRANCH   1  15
HETATM   15  C   UNL     1      -6.212  -0.239 -33.083  1.00  0.00    -0.035 A 
HETATM   16  C   UNL     1      -7.191  -0.914 -33.824  1.00  0.00     0.012 A 
HETATM   17  C   UNL     1      -6.869  -2.070 -34.542  1.00  0.00     0.037 A 
HETATM   18  C   UNL     1      -5.565  -2.567 -34.545  1.00  0.00     0.068 A 
HETATM   19  C   UNL     1      -4.582  -1.902 -33.814  1.00  0.00     0.037 A 
HETATM   20  C   UNL     1      -4.902  -0.747 -33.091  1.00  0.00     0.012 A 
BRANCH  18  21
HETATM   21  O   UNL     1      -5.385  -3.697 -35.294  1.00  0.00    -0.356 OA
HETATM   22  C   UNL     1      -6.481  -4.599 -35.370  1.00  0.00     0.210 C 
ENDBRANCH  18  21
ENDBRANCH   1  15
TORSDOF 5
ENDMDL
MODEL 3
REMARK VINA RESULT:      -7.0      4.390      6.372
REMARK  5 active torsions:
REMARK  status: ('A' for Active; 'I' for Inactive)
REMARK    1  A    between atoms: C_2  and  C_3 
REMARK    2  A    between atoms: C_3  and  N_4 
REMARK    3  A    between atoms: C_3  and  C_14 
REMARK       I    between atoms: N_4  and  C_5 
REMARK    4  A    between atoms: C_5  and  C_6 
REMARK    5  A    between atoms: C_17  and  O_18 
ROOT
HETATM    1  C   UNL     1      -7.051   1.099 -32.754  1.00  0.00     0.117 C 
ENDROOT
BRANCH   1   2
HETATM    2  C   UNL     1      -6.016   2.240 -32.843  1.00  0.00     0.025 C 
HETATM    3  C   UNL     1      -6.187   3.114 -34.079  1.00  0.00     0.007 C 
ENDBRANCH   1   2
BRANCH   1   4
HETATM    4  N   UNL     1      -8.282   1.428 -33.463  1.00  0.00    -0.348 N 
HETATM    5  C   UNL     1      -9.414   1.861 -32.809  1.00  0.00     0.253 C 
HETATM    6  O   UNL     1      -9.481   2.015 -31.596  1.00  0.00    -0.268 OA
HETATM    7  H   UNL     1      -8.329   1.166 -34.435  1.00  0.00     0.163 HD
BRANCH   5   8
HETATM    8  C   UNL     1     -10.608   2.119 -33.649  1.00  0.00     0.050 A 
HETATM    9  C   UNL     1     -10.538   3.119 -34.615  1.00  0.00     0.133 A 
HETATM   10  N   UNL     1     -11.564   3.450 -35.439  1.00  0.00    -0.271 NA
HETATM   11  C   UNL     1     -12.707   2.738 -35.301  1.00  0.00     0.135 A 
HETATM   12  C   UNL     1     -12.863   1.712 -34.379  1.00  0.00     0.029 A 
HETATM   13 BR   UNL     1     -14.487   0.761 -34.265  1.00  0.00    -0.050 Br
HETATM   14  C   UNL     1     -11.798   1.392 -33.541  1.00  0.00     0.039 A 
ENDBRANCH   5   8
ENDBRANCH   1   4
BRANCH   1  15
HETATM   15  C   UNL     1      -6.503  -0.206 -33.315  1.00  0.00    -0.035 A 
HETATM   16  C   UNL     1      -7.361  -1.087 -33.986  1.00  0.00     0.012 A 
HETATM   17  C   UNL     1      -6.871  -2.276 -34.536  1.00  0.00     0.037 A 
HETATM   18  C   UNL     1      -5.518  -2.602 -34.440  1.00  0.00     0.068 A 
HETATM   19  C   UNL     1      -4.655  -1.731 -33.778  1.00  0.00     0.037 A 
HETATM   20  C   UNL     1      -5.142  -0.542 -33.222  1.00  0.00     0.012 A 
BRANCH  18  21
HETATM   21  O   UNL     1      -5.172  -3.787 -35.029  1.00  0.00    -0.356 OA
HETATM   22  C   UNL     1      -6.235  -4.648 -35.416  1.00  0.00     0.210 C 
ENDBRANCH  18  21
ENDBRANCH   1  15
TORSDOF 5
ENDMDL
MODEL 4
REMARK VINA RESULT:      -7.0      4.477      7.032
REMARK  5 active torsions:
REMARK  status: ('A' for Active; 'I' for Inactive)
REMARK    1  A    between atoms: C_2  and  C_3 
REMARK    2  A    between atoms: C_3  and  N_4 
REMARK    3  A    between atoms: C_3  and  C_14 
REMARK       I    between atoms: N_4  and  C_5 
REMARK    4  A    between atoms: C_5  and  C_6 
REMARK    5  A    between atoms: C_17  and  O_18 
ROOT
HETATM    1  C   UNL     1      -8.607   2.061 -32.566  1.00  0.00     0.117 C 
ENDROOT
BRANCH   1   2
HETATM    2  C   UNL     1      -8.709   2.427 -31.071  1.00  0.00     0.025 C 
HETATM    3  C   UNL     1      -8.391   3.889 -30.785  1.00  0.00     0.007 C 
ENDBRANCH   1   2
BRANCH   1   4
HETATM    4  N   UNL     1      -7.766   0.888 -32.780  1.00  0.00    -0.348 N 
HETATM    5  C   UNL     1      -6.904   0.786 -33.848  1.00  0.00     0.253 C 
HETATM    6  O   UNL     1      -6.762   1.662 -34.693  1.00  0.00    -0.268 OA
HETATM    7  H   UNL     1      -7.963   0.080 -32.209  1.00  0.00     0.163 HD
BRANCH   5   8
HETATM    8  C   UNL     1      -6.140  -0.479 -33.968  1.00  0.00     0.050 A 
HETATM    9  C   UNL     1      -4.825  -0.507 -33.513  1.00  0.00     0.133 A 
HETATM   10  N   UNL     1      -4.025  -1.603 -33.572  1.00  0.00    -0.271 NA
HETATM   11  C   UNL     1      -4.573  -2.724 -34.095  1.00  0.00     0.135 A 
HETATM   12  C   UNL     1      -5.879  -2.796 -34.556  1.00  0.00     0.029 A 
HETATM   13 BR   UNL     1      -6.566  -4.407 -35.257  1.00  0.00    -0.050 Br
HETATM   14  C   UNL     1      -6.681  -1.659 -34.489  1.00  0.00     0.039 A 
ENDBRANCH   5   8
ENDBRANCH   1   4
BRANCH   1  15
HETATM   15  C   UNL     1      -9.975   1.794 -33.177  1.00  0.00    -0.035 A 
HETATM   16  C   UNL     1     -10.596   2.784 -33.950  1.00  0.00     0.012 A 
HETATM   17  C   UNL     1     -11.838   2.547 -34.546  1.00  0.00     0.037 A 
HETATM   18  C   UNL     1     -12.479   1.317 -34.394  1.00  0.00     0.068 A 
HETATM   19  C   UNL     1     -11.869   0.323 -33.631  1.00  0.00     0.037 A 
HETATM   20  C   UNL     1     -10.627   0.558 -33.029  1.00  0.00     0.012 A 
BRANCH  18  21
HETATM   21  O   UNL     1     -13.682   1.215 -35.036  1.00  0.00    -0.356 OA
HETATM   22  C   UNL     1     -14.792   0.787 -34.258  1.00  0.00     0.210 C 
ENDBRANCH  18  21
ENDBRANCH   1  15
TORSDOF 5
ENDMDL
MODEL 5
REMARK VINA RESULT:      -6.7     15.634     17.022
REMARK  5 active torsions:
REMARK  status: ('A' for Active; 'I' for Inactive)
REMARK    1  A    between atoms: C_2  and  C_3 
REMARK    2  A    between atoms: C_3  and  N_4 
REMARK    3  A    between atoms: C_3  and  C_14 
REMARK       I    between atoms: N_4  and  C_5 
REMARK    4  A    between atoms: C_5  and  C_6 
REMARK    5  A    between atoms: C_17  and  O_18 
ROOT
HETATM    1  C   UNL     1      -7.324 -12.896 -38.149  1.00  0.00     0.117 C 
ENDROOT
BRANCH   1   2
HETATM    2  C   UNL     1      -7.443 -13.443 -36.712  1.00  0.00     0.025 C 
HETATM    3  C   UNL     1      -6.095 -13.708 -36.053  1.00  0.00     0.007 C 
ENDBRANCH   1   2
BRANCH   1   4
HETATM    4  N   UNL     1      -6.142 -13.414 -38.830  1.00  0.00    -0.348 N 
HETATM    5  C   UNL     1      -5.512 -12.722 -39.839  1.00  0.00     0.253 C 
HETATM    6  O   UNL     1      -5.876 -11.623 -40.240  1.00  0.00    -0.268 OA
HETATM    7  H   UNL     1      -5.902 -14.377 -38.649  1.00  0.00     0.163 HD
BRANCH   5   8
HETATM    8  C   UNL     1      -4.347 -13.385 -40.472  1.00  0.00     0.050 A 
HETATM    9  C   UNL     1      -4.433 -13.740 -41.815  1.00  0.00     0.133 A 
HETATM   10  N   UNL     1      -3.437 -14.354 -42.503  1.00  0.00    -0.271 NA
HETATM   11  C   UNL     1      -2.297 -14.609 -41.820  1.00  0.00     0.135 A 
HETATM   12  C   UNL     1      -2.113 -14.275 -40.486  1.00  0.00     0.029 A 
HETATM   13 BR   UNL     1      -0.484 -14.655 -39.615  1.00  0.00    -0.050 Br
HETATM   14  C   UNL     1      -3.150 -13.649 -39.799  1.00  0.00     0.039 A 
ENDBRANCH   5   8
ENDBRANCH   1   4
BRANCH   1  15
HETATM   15  C   UNL     1      -8.551 -13.232 -38.985  1.00  0.00    -0.035 A 
HETATM   16  C   UNL     1      -8.928 -14.570 -39.158  1.00  0.00     0.012 A 
HETATM   17  C   UNL     1     -10.069 -14.898 -39.896  1.00  0.00     0.037 A 
HETATM   18  C   UNL     1     -10.862 -13.900 -40.465  1.00  0.00     0.068 A 
HETATM   19  C   UNL     1     -10.498 -12.566 -40.297  1.00  0.00     0.037 A 
HETATM   20  C   UNL     1      -9.354 -12.234 -39.562  1.00  0.00     0.012 A 
BRANCH  18  21
HETATM   21  O   UNL     1     -11.952 -14.358 -41.152  1.00  0.00    -0.356 OA
HETATM   22  C   UNL     1     -11.768 -15.518 -41.953  1.00  0.00     0.210 C 
ENDBRANCH  18  21
ENDBRANCH   1  15
TORSDOF 5
ENDMDL
MODEL 6
REMARK VINA RESULT:      -6.6      2.578      4.134
REMARK  5 active torsions:
REMARK  status: ('A' for Active; 'I' for Inactive)
REMARK    1  A    between atoms: C_2  and  C_3 
REMARK    2  A    between atoms: C_3  and  N_4 
REMARK    3  A    between atoms: C_3  and  C_14 
REMARK       I    between atoms: N_4  and  C_5 
REMARK    4  A    between atoms: C_5  and  C_6 
REMARK    5  A    between atoms: C_17  and  O_18 
ROOT
HETATM    1  C   UNL     1      -5.145   0.587 -32.431  1.00  0.00     0.117 C 
ENDROOT
BRANCH   1   2
HETATM    2  C   UNL     1      -4.340  -0.509 -33.160  1.00  0.00     0.025 C 
HETATM    3  C   UNL     1      -3.663  -1.491 -32.213  1.00  0.00     0.007 C 
ENDBRANCH   1   2
BRANCH   1   4
HETATM    4  N   UNL     1      -4.676   1.924 -32.778  1.00  0.00    -0.348 N 
HETATM    5  C   UNL     1      -3.598   2.510 -32.153  1.00  0.00     0.253 C 
HETATM    6  O   UNL     1      -2.943   1.965 -31.274  1.00  0.00    -0.268 OA
HETATM    7  H   UNL     1      -5.274   2.473 -33.376  1.00  0.00     0.163 HD
BRANCH   5   8
HETATM    8  C   UNL     1      -3.255   3.890 -32.574  1.00  0.00     0.050 A 
HETATM    9  C   UNL     1      -4.090   4.535 -33.482  1.00  0.00     0.133 A 
HETATM   10  N   UNL     1      -3.880   5.794 -33.944  1.00  0.00    -0.271 NA
HETATM   11  C   UNL     1      -2.793   6.442 -33.463  1.00  0.00     0.135 A 
HETATM   12  C   UNL     1      -1.916   5.886 -32.543  1.00  0.00     0.029 A 
HETATM   13 BR   UNL     1      -0.433   6.868 -31.915  1.00  0.00    -0.050 Br
HETATM   14  C   UNL     1      -2.149   4.592 -32.085  1.00  0.00     0.039 A 
ENDBRANCH   5   8
ENDBRANCH   1   4
BRANCH   1  15
HETATM   15  C   UNL     1      -6.632   0.499 -32.746  1.00  0.00    -0.035 A 
HETATM   16  C   UNL     1      -7.569   0.633 -31.713  1.00  0.00     0.012 A 
HETATM   17  C   UNL     1      -8.940   0.587 -31.985  1.00  0.00     0.037 A 
HETATM   18  C   UNL     1      -9.402   0.420 -33.292  1.00  0.00     0.068 A 
HETATM   19  C   UNL     1      -8.479   0.289 -34.327  1.00  0.00     0.037 A 
HETATM   20  C   UNL     1      -7.106   0.331 -34.058  1.00  0.00     0.012 A 
BRANCH  18  21
HETATM   21  O   UNL     1     -10.763   0.402 -33.419  1.00  0.00    -0.356 OA
HETATM   22  C   UNL     1     -11.419   1.662 -33.496  1.00  0.00     0.210 C 
ENDBRANCH  18  21
ENDBRANCH   1  15
TORSDOF 5
ENDMDL
MODEL 7
REMARK VINA RESULT:      -6.5      2.962      5.003
REMARK  5 active torsions:
REMARK  status: ('A' for Active; 'I' for Inactive)
REMARK    1  A    between atoms: C_2  and  C_3 
REMARK    2  A    between atoms: C_3  and  N_4 
REMARK    3  A    between atoms: C_3  and  C_14 
REMARK       I    between atoms: N_4  and  C_5 
REMARK    4  A    between atoms: C_5  and  C_6 
REMARK    5  A    between atoms: C_17  and  O_18 
ROOT
HETATM    1  C   UNL     1      -7.405   0.515 -32.840  1.00  0.00     0.117 C 
ENDROOT
BRANCH   1   2
HETATM    2  C   UNL     1      -6.922  -0.833 -33.416  1.00  0.00     0.025 C 
HETATM    3  C   UNL     1      -6.884  -0.859 -34.939  1.00  0.00     0.007 C 
ENDBRANCH   1   2
BRANCH   1   4
HETATM    4  N   UNL     1      -6.577   1.626 -33.296  1.00  0.00    -0.348 N 
HETATM    5  C   UNL     1      -5.575   2.164 -32.520  1.00  0.00     0.253 C 
HETATM    6  O   UNL     1      -5.290   1.757 -31.400  1.00  0.00    -0.268 OA
HETATM    7  H   UNL     1      -6.875   2.098 -34.136  1.00  0.00     0.163 HD
BRANCH   5   8
HETATM    8  C   UNL     1      -4.840   3.318 -33.090  1.00  0.00     0.050 A 
HETATM    9  C   UNL     1      -5.466   4.090 -34.065  1.00  0.00     0.133 A 
HETATM   10  N   UNL     1      -4.894   5.166 -34.663  1.00  0.00    -0.271 NA
HETATM   11  C   UNL     1      -3.646   5.494 -34.255  1.00  0.00     0.135 A 
HETATM   12  C   UNL     1      -2.952   4.795 -33.278  1.00  0.00     0.029 A 
HETATM   13 BR   UNL     1      -1.220   5.332 -32.759  1.00  0.00    -0.050 Br
HETATM   14  C   UNL     1      -3.556   3.692 -32.680  1.00  0.00     0.039 A 
ENDBRANCH   5   8
ENDBRANCH   1   4
BRANCH   1  15
HETATM   15  C   UNL     1      -8.852   0.804 -33.215  1.00  0.00    -0.035 A 
HETATM   16  C   UNL     1      -9.156   1.929 -33.992  1.00  0.00     0.012 A 
HETATM   17  C   UNL     1     -10.475   2.195 -34.373  1.00  0.00     0.037 A 
HETATM   18  C   UNL     1     -11.512   1.339 -33.999  1.00  0.00     0.068 A 
HETATM   19  C   UNL     1     -11.220   0.215 -33.229  1.00  0.00     0.037 A 
HETATM   20  C   UNL     1      -9.901  -0.052 -32.841  1.00  0.00     0.012 A 
BRANCH  18  21
HETATM   21  O   UNL     1     -12.750   1.711 -34.446  1.00  0.00    -0.356 OA
HETATM   22  C   UNL     1     -13.778   0.731 -34.378  1.00  0.00     0.210 C 
ENDBRANCH  18  21
ENDBRANCH   1  15
TORSDOF 5
ENDMDL
MODEL 8
REMARK VINA RESULT:      -6.4     15.375     16.489
REMARK  5 active torsions:
REMARK  status: ('A' for Active; 'I' for Inactive)
REMARK    1  A    between atoms: C_2  and  C_3 
REMARK    2  A    between atoms: C_3  and  N_4 
REMARK    3  A    between atoms: C_3  and  C_14 
REMARK       I    between atoms: N_4  and  C_5 
REMARK    4  A    between atoms: C_5  and  C_6 
REMARK    5  A    between atoms: C_17  and  O_18 
ROOT
HETATM    1  C   UNL     1      -5.579 -13.071 -37.236  1.00  0.00     0.117 C 
ENDROOT
BRANCH   1   2
HETATM    2  C   UNL     1      -5.914 -13.856 -35.951  1.00  0.00     0.025 C 
HETATM    3  C   UNL     1      -4.752 -13.927 -34.967  1.00  0.00     0.007 C 
ENDBRANCH   1   2
BRANCH   1   4
HETATM    4  N   UNL     1      -4.442 -13.650 -37.943  1.00  0.00    -0.348 N 
HETATM    5  C   UNL     1      -3.318 -12.918 -38.252  1.00  0.00     0.253 C 
HETATM    6  O   UNL     1      -3.171 -11.739 -37.955  1.00  0.00    -0.268 OA
HETATM    7  H   UNL     1      -4.578 -14.563 -38.348  1.00  0.00     0.163 HD
BRANCH   5   8
HETATM    8  C   UNL     1      -2.255 -13.620 -39.011  1.00  0.00     0.050 A 
HETATM    9  C   UNL     1      -2.560 -14.123 -40.273  1.00  0.00     0.133 A 
HETATM   10  N   UNL     1      -1.675 -14.786 -41.060  1.00  0.00    -0.271 NA
HETATM   11  C   UNL     1      -0.424 -14.939 -40.568  1.00  0.00     0.135 A 
HETATM   12  C   UNL     1      -0.024 -14.457 -39.330  1.00  0.00     0.029 A 
HETATM   13 BR   UNL     1       1.747 -14.702 -38.729  1.00  0.00    -0.050 Br
HETATM   14  C   UNL     1      -0.949 -13.782 -38.538  1.00  0.00     0.039 A 
ENDBRANCH   5   8
ENDBRANCH   1   4
BRANCH   1  15
HETATM   15  C   UNL     1      -6.764 -13.015 -38.189  1.00  0.00    -0.035 A 
HETATM   16  C   UNL     1      -8.023 -13.455 -37.758  1.00  0.00     0.012 A 
HETATM   17  C   UNL     1      -9.131 -13.383 -38.607  1.00  0.00     0.037 A 
HETATM   18  C   UNL     1      -9.010 -12.859 -39.895  1.00  0.00     0.068 A 
HETATM   19  C   UNL     1      -7.764 -12.415 -40.333  1.00  0.00     0.037 A 
HETATM   20  C   UNL     1      -6.651 -12.490 -39.487  1.00  0.00     0.012 A 
BRANCH  18  21
HETATM   21  O   UNL     1     -10.172 -12.838 -40.616  1.00  0.00    -0.356 OA
HETATM   22  C   UNL     1     -10.882 -14.065 -40.728  1.00  0.00     0.210 C 
ENDBRANCH  18  21
ENDBRANCH   1  15
TORSDOF 5
ENDMDL
MODEL 9
REMARK VINA RESULT:      -6.4      3.546      5.196
REMARK  5 active torsions:
REMARK  status: ('A' for Active; 'I' for Inactive)
REMARK    1  A    between atoms: C_2  and  C_3 
REMARK    2  A    between atoms: C_3  and  N_4 
REMARK    3  A    between atoms: C_3  and  C_14 
REMARK       I    between atoms: N_4  and  C_5 
REMARK    4  A    between atoms: C_5  and  C_6 
REMARK    5  A    between atoms: C_17  and  O_18 
ROOT
HETATM    1  C   UNL     1      -5.682   0.948 -31.981  1.00  0.00     0.117 C 
ENDROOT
BRANCH   1   2
HETATM    2  C   UNL     1      -4.546   1.943 -32.296  1.00  0.00     0.025 C 
HETATM    3  C   UNL     1      -3.516   2.056 -31.179  1.00  0.00     0.007 C 
ENDBRANCH   1   2
BRANCH   1   4
HETATM    4  N   UNL     1      -6.997   1.561 -32.133  1.00  0.00    -0.348 N 
HETATM    5  C   UNL     1      -7.579   2.312 -31.137  1.00  0.00     0.253 C 
HETATM    6  O   UNL     1      -7.047   2.535 -30.056  1.00  0.00    -0.268 OA
HETATM    7  H   UNL     1      -7.540   1.276 -32.934  1.00  0.00     0.163 HD
BRANCH   5   8
HETATM    8  C   UNL     1      -8.937   2.841 -31.409  1.00  0.00     0.050 A 
HETATM    9  C   UNL     1      -9.630   3.459 -30.373  1.00  0.00     0.133 A 
HETATM   10  N   UNL     1     -10.878   3.978 -30.498  1.00  0.00    -0.271 NA
HETATM   11  C   UNL     1     -11.451   3.889 -31.721  1.00  0.00     0.135 A 
HETATM   12  C   UNL     1     -10.829   3.308 -32.817  1.00  0.00     0.029 A 
HETATM   13 BR   UNL     1     -11.696   3.240 -34.490  1.00  0.00    -0.050 Br
HETATM   14  C   UNL     1      -9.550   2.778 -32.664  1.00  0.00     0.039 A 
ENDBRANCH   5   8
ENDBRANCH   1   4
BRANCH   1  15
HETATM   15  C   UNL     1      -5.617  -0.284 -32.873  1.00  0.00    -0.035 A 
HETATM   16  C   UNL     1      -6.795  -0.807 -33.421  1.00  0.00     0.012 A 
HETATM   17  C   UNL     1      -6.754  -1.920 -34.268  1.00  0.00     0.037 A 
HETATM   18  C   UNL     1      -5.538  -2.523 -34.593  1.00  0.00     0.068 A 
HETATM   19  C   UNL     1      -4.360  -2.009 -34.056  1.00  0.00     0.037 A 
HETATM   20  C   UNL     1      -4.398  -0.898 -33.204  1.00  0.00     0.012 A 
BRANCH  18  21
HETATM   21  O   UNL     1      -5.639  -3.594 -35.437  1.00  0.00    -0.356 OA
HETATM   22  C   UNL     1      -6.578  -4.603 -35.086  1.00  0.00     0.210 C 
ENDBRANCH  18  21
ENDBRANCH   1  15
TORSDOF 5
ENDMDL
MODEL 10
REMARK VINA RESULT:      -6.4     15.153     16.969
REMARK  5 active torsions:
REMARK  status: ('A' for Active; 'I' for Inactive)
REMARK    1  A    between atoms: C_2  and  C_3 
REMARK    2  A    between atoms: C_3  and  N_4 
REMARK    3  A    between atoms: C_3  and  C_14 
REMARK       I    between atoms: N_4  and  C_5 
REMARK    4  A    between atoms: C_5  and  C_6 
REMARK    5  A    between atoms: C_17  and  O_18 
ROOT
HETATM    1  C   UNL     1      -1.107 -13.438 -39.117  1.00  0.00     0.117 C 
ENDROOT
BRANCH   1   2
HETATM    2  C   UNL     1      -0.952 -13.659 -40.636  1.00  0.00     0.025 C 
HETATM    3  C   UNL     1      -1.979 -14.626 -41.212  1.00  0.00     0.007 C 
ENDBRANCH   1   2
BRANCH   1   4
HETATM    4  N   UNL     1      -2.489 -13.604 -38.683  1.00  0.00    -0.348 N 
HETATM    5  C   UNL     1      -3.293 -12.534 -38.360  1.00  0.00     0.253 C 
HETATM    6  O   UNL     1      -2.926 -11.366 -38.417  1.00  0.00    -0.268 OA
HETATM    7  H   UNL     1      -2.786 -14.543 -38.466  1.00  0.00     0.163 HD
BRANCH   5   8
HETATM    8  C   UNL     1      -4.664 -12.849 -37.894  1.00  0.00     0.050 A 
HETATM    9  C   UNL     1      -4.825 -13.402 -36.627  1.00  0.00     0.133 A 
HETATM   10  N   UNL     1      -6.027 -13.736 -36.092  1.00  0.00    -0.271 NA
HETATM   11  C   UNL     1      -7.118 -13.490 -36.854  1.00  0.00     0.135 A 
HETATM   12  C   UNL     1      -7.057 -12.925 -38.120  1.00  0.00     0.029 A 
HETATM   13 BR   UNL     1      -8.631 -12.604 -39.107  1.00  0.00    -0.050 Br
HETATM   14  C   UNL     1      -5.813 -12.594 -38.650  1.00  0.00     0.039 A 
ENDBRANCH   5   8
ENDBRANCH   1   4
BRANCH   1  15
HETATM   15  C   UNL     1      -0.230 -14.390 -38.316  1.00  0.00    -0.035 A 
HETATM   16  C   UNL     1       1.100 -14.601 -38.701  1.00  0.00     0.012 A 
HETATM   17  C   UNL     1       1.931 -15.447 -37.961  1.00  0.00     0.037 A 
HETATM   18  C   UNL     1       1.456 -16.089 -36.816  1.00  0.00     0.068 A 
HETATM   19  C   UNL     1       0.135 -15.885 -36.421  1.00  0.00     0.037 A 
HETATM   20  C   UNL     1      -0.700 -15.041 -37.163  1.00  0.00     0.012 A 
BRANCH  18  21
HETATM   21  O   UNL     1       2.373 -16.880 -36.181  1.00  0.00    -0.356 OA
HETATM   22  C   UNL     1       2.764 -16.487 -34.871  1.00  0.00     0.210 C 
ENDBRANCH  18  21
ENDBRANCH   1  15
TORSDOF 5
ENDMDL
