MODEL 1
REMARK VINA RESULT:      -8.9      0.000      0.000
REMARK  6 active torsions:
REMARK  status: ('A' for Active; 'I' for Inactive)
REMARK    1  A    between atoms: C_2  and  O_3 
REMARK    2  A    between atoms: C_2  and  C_4 
REMARK    3  A    between atoms: C_6  and  C_16 
REMARK    4  A    between atoms: C_9  and  C_10 
REMARK       I    between atoms: C_16  and  N_18 
REMARK    5  A    between atoms: N_18  and  C_19 
REMARK    6  A    between atoms: C_19  and  C_21 
ROOT
HETATM    1  C   UNL     1      -5.934  -0.877 -33.627  1.00  0.00    -0.018 A 
HETATM    2  C   UNL     1      -5.393   0.255 -32.978  1.00  0.00     0.027 A 
HETATM    3  C   UNL     1      -4.144   0.213 -32.339  1.00  0.00     0.032 A 
HETATM    4  C   UNL     1      -3.423  -0.982 -32.327  1.00  0.00     0.018 A 
HETATM    5  C   UNL     1      -3.931  -2.106 -32.983  1.00  0.00     0.014 A 
HETATM    6  C   UNL     1      -5.173  -2.062 -33.641  1.00  0.00    -0.014 A 
ENDROOT
BRANCH   3   7
HETATM    7  C   UNL     1      -3.646   1.460 -31.693  1.00  0.00     0.252 C 
HETATM    8  O   UNL     1      -2.687   1.414 -30.929  1.00  0.00    -0.268 OA
HETATM    9  N   UNL     1      -4.338   2.622 -31.964  1.00  0.00    -0.349 N 
HETATM   10  H   UNL     1      -5.216   2.571 -32.458  1.00  0.00     0.163 HD
BRANCH   9  11
HETATM   11  C   UNL     1      -4.043   3.854 -31.248  1.00  0.00     0.114 C 
HETATM   12  C   UNL     1      -5.328   4.623 -30.933  1.00  0.00     0.037 C 
BRANCH  11  13
HETATM   13  C   UNL     1      -3.061   4.706 -32.034  1.00  0.00    -0.036 A 
HETATM   14  C   UNL     1      -2.808   4.403 -33.384  1.00  0.00     0.012 A 
HETATM   15  C   UNL     1      -1.899   5.159 -34.126  1.00  0.00     0.043 A 
HETATM   16  C   UNL     1      -1.244   6.226 -33.525  1.00  0.00     0.116 A 
HETATM   17  F   UNL     1      -0.371   6.951 -34.236  1.00  0.00    -0.206 F 
HETATM   18  C   UNL     1      -1.480   6.550 -32.195  1.00  0.00     0.043 A 
HETATM   19  C   UNL     1      -2.385   5.792 -31.449  1.00  0.00     0.012 A 
ENDBRANCH  11  13
ENDBRANCH   9  11
ENDBRANCH   3   7
BRANCH   1  20
HETATM   20  C   UNL     1      -7.274  -0.753 -34.334  1.00  0.00     0.148 C 
HETATM   21  C   UNL     1      -7.265   0.357 -35.376  1.00  0.00     0.044 C 
BRANCH  20  22
HETATM   22  O   UNL     1      -8.321  -0.483 -33.399  1.00  0.00    -0.391 OA
HETATM   23  H   UNL     1      -8.539   0.462 -33.475  1.00  0.00     0.210 HD
ENDBRANCH  20  22
ENDBRANCH   1  20
BRANCH   6  24
HETATM   24  C   UNL     1      -5.603  -3.254 -34.341  1.00  0.00     0.011 A 
HETATM   25  C   UNL     1      -4.907  -4.447 -34.625  1.00  0.00     0.152 A 
HETATM   26  N   UNL     1      -5.665  -5.333 -35.279  1.00  0.00    -0.187 NA
HETATM   27  N   UNL     1      -6.849  -4.709 -35.401  1.00  0.00    -0.289 N 
HETATM   28  H   UNL     1      -7.601  -5.196 -35.875  1.00  0.00     0.188 HD
HETATM   29  C   UNL     1      -6.868  -3.463 -34.840  1.00  0.00     0.123 A 
ENDBRANCH   6  24
TORSDOF 6
ENDMDL
MODEL 2
REMARK VINA RESULT:      -8.7      1.461      1.963
REMARK  6 active torsions:
REMARK  status: ('A' for Active; 'I' for Inactive)
REMARK    1  A    between atoms: C_2  and  O_3 
REMARK    2  A    between atoms: C_2  and  C_4 
REMARK    3  A    between atoms: C_6  and  C_16 
REMARK    4  A    between atoms: C_9  and  C_10 
REMARK       I    between atoms: C_16  and  N_18 
REMARK    5  A    between atoms: N_18  and  C_19 
REMARK    6  A    between atoms: C_19  and  C_21 
ROOT
HETATM    1  C   UNL     1      -5.281  -0.771 -33.461  1.00  0.00    -0.018 A 
HETATM    2  C   UNL     1      -5.218   0.575 -33.037  1.00  0.00     0.027 A 
HETATM    3  C   UNL     1      -4.196   1.037 -32.194  1.00  0.00     0.032 A 
HETATM    4  C   UNL     1      -3.223   0.142 -31.747  1.00  0.00     0.018 A 
HETATM    5  C   UNL     1      -3.254  -1.188 -32.174  1.00  0.00     0.014 A 
HETATM    6  C   UNL     1      -4.266  -1.650 -33.033  1.00  0.00    -0.014 A 
ENDROOT
BRANCH   3   7
HETATM    7  C   UNL     1      -4.202   2.477 -31.811  1.00  0.00     0.252 C 
HETATM    8  O   UNL     1      -4.658   2.820 -30.725  1.00  0.00    -0.268 OA
HETATM    9  N   UNL     1      -3.721   3.373 -32.744  1.00  0.00    -0.349 N 
HETATM   10  H   UNL     1      -3.521   3.053 -33.679  1.00  0.00     0.163 HD
BRANCH   9  11
HETATM   11  C   UNL     1      -3.848   4.808 -32.539  1.00  0.00     0.114 C 
HETATM   12  C   UNL     1      -4.497   5.477 -33.753  1.00  0.00     0.037 C 
BRANCH  11  13
HETATM   13  C   UNL     1      -2.495   5.423 -32.220  1.00  0.00    -0.036 A 
HETATM   14  C   UNL     1      -2.088   6.588 -32.894  1.00  0.00     0.012 A 
HETATM   15  C   UNL     1      -0.845   7.165 -32.632  1.00  0.00     0.043 A 
HETATM   16  C   UNL     1      -0.005   6.585 -31.691  1.00  0.00     0.116 A 
HETATM   17  F   UNL     1       1.189   7.138 -31.440  1.00  0.00    -0.206 F 
HETATM   18  C   UNL     1      -0.385   5.437 -31.006  1.00  0.00     0.043 A 
HETATM   19  C   UNL     1      -1.627   4.854 -31.270  1.00  0.00     0.012 A 
ENDBRANCH  11  13
ENDBRANCH   9  11
ENDBRANCH   3   7
BRANCH   1  20
HETATM   20  C   UNL     1      -6.391  -1.198 -34.405  1.00  0.00     0.148 C 
HETATM   21  C   UNL     1      -6.897  -0.036 -35.249  1.00  0.00     0.044 C 
BRANCH  20  22
HETATM   22  O   UNL     1      -7.497  -1.740 -33.679  1.00  0.00    -0.391 OA
HETATM   23  H   UNL     1      -7.191  -2.559 -33.254  1.00  0.00     0.210 HD
ENDBRANCH  20  22
ENDBRANCH   1  20
BRANCH   6  24
HETATM   24  C   UNL     1      -4.196  -3.028 -33.470  1.00  0.00     0.011 A 
HETATM   25  C   UNL     1      -4.821  -3.676 -34.556  1.00  0.00     0.152 A 
HETATM   26  N   UNL     1      -4.482  -4.965 -34.641  1.00  0.00    -0.187 NA
HETATM   27  N   UNL     1      -3.630  -5.138 -33.616  1.00  0.00    -0.289 N 
HETATM   28  H   UNL     1      -3.231  -6.060 -33.475  1.00  0.00     0.188 HD
HETATM   29  C   UNL     1      -3.413  -4.001 -32.891  1.00  0.00     0.123 A 
ENDBRANCH   6  24
TORSDOF 6
ENDMDL
MODEL 3
REMARK VINA RESULT:      -8.6      5.576      8.562
REMARK  6 active torsions:
REMARK  status: ('A' for Active; 'I' for Inactive)
REMARK    1  A    between atoms: C_2  and  O_3 
REMARK    2  A    between atoms: C_2  and  C_4 
REMARK    3  A    between atoms: C_6  and  C_16 
REMARK    4  A    between atoms: C_9  and  C_10 
REMARK       I    between atoms: C_16  and  N_18 
REMARK    5  A    between atoms: N_18  and  C_19 
REMARK    6  A    between atoms: C_19  and  C_21 
ROOT
HETATM    1  C   UNL     1     -11.447   2.402 -34.075  1.00  0.00    -0.018 A 
HETATM    2  C   UNL     1     -10.432   1.558 -33.574  1.00  0.00     0.027 A 
HETATM    3  C   UNL     1      -9.314   2.069 -32.897  1.00  0.00     0.032 A 
HETATM    4  C   UNL     1      -9.190   3.448 -32.728  1.00  0.00     0.018 A 
HETATM    5  C   UNL     1     -10.195   4.299 -33.195  1.00  0.00     0.014 A 
HETATM    6  C   UNL     1     -11.326   3.789 -33.858  1.00  0.00    -0.014 A 
ENDROOT
BRANCH   3   7
HETATM    7  C   UNL     1      -8.299   1.102 -32.390  1.00  0.00     0.252 C 
HETATM    8  O   UNL     1      -8.472   0.540 -31.314  1.00  0.00    -0.268 OA
HETATM    9  N   UNL     1      -7.170   0.921 -33.162  1.00  0.00    -0.349 N 
HETATM   10  H   UNL     1      -7.003   1.534 -33.945  1.00  0.00     0.163 HD
BRANCH   9  11
HETATM   11  C   UNL     1      -6.046   0.139 -32.672  1.00  0.00     0.114 C 
HETATM   12  C   UNL     1      -4.753   0.957 -32.712  1.00  0.00     0.037 C 
BRANCH  11  13
HETATM   13  C   UNL     1      -5.912  -1.155 -33.459  1.00  0.00    -0.036 A 
HETATM   14  C   UNL     1      -7.067  -1.781 -33.962  1.00  0.00     0.012 A 
HETATM   15  C   UNL     1      -6.975  -2.977 -34.675  1.00  0.00     0.043 A 
HETATM   16  C   UNL     1      -5.730  -3.551 -34.893  1.00  0.00     0.116 A 
HETATM   17  F   UNL     1      -5.641  -4.700 -35.576  1.00  0.00    -0.206 F 
HETATM   18  C   UNL     1      -4.573  -2.950 -34.412  1.00  0.00     0.043 A 
HETATM   19  C   UNL     1      -4.662  -1.755 -33.693  1.00  0.00     0.012 A 
ENDBRANCH  11  13
ENDBRANCH   9  11
ENDBRANCH   3   7
BRANCH   1  20
HETATM   20  C   UNL     1     -12.652   1.782 -34.764  1.00  0.00     0.148 C 
HETATM   21  C   UNL     1     -13.034   0.445 -34.144  1.00  0.00     0.044 C 
BRANCH  20  22
HETATM   22  O   UNL     1     -12.391   1.574 -36.154  1.00  0.00    -0.391 OA
HETATM   23  H   UNL     1     -11.461   1.304 -36.238  1.00  0.00     0.210 HD
ENDBRANCH  20  22
ENDBRANCH   1  20
BRANCH   6  24
HETATM   24  C   UNL     1     -12.346   4.732 -34.263  1.00  0.00     0.011 A 
HETATM   25  C   UNL     1     -12.521   5.421 -35.481  1.00  0.00     0.152 A 
HETATM   26  N   UNL     1     -13.612   6.193 -35.475  1.00  0.00    -0.187 NA
HETATM   27  N   UNL     1     -14.140   5.987 -34.257  1.00  0.00    -0.289 N 
HETATM   28  H   UNL     1     -14.993   6.480 -34.014  1.00  0.00     0.188 HD
HETATM   29  C   UNL     1     -13.425   5.106 -33.496  1.00  0.00     0.123 A 
ENDBRANCH   6  24
TORSDOF 6
ENDMDL
MODEL 4
REMARK VINA RESULT:      -8.6      3.591      8.746
REMARK  6 active torsions:
REMARK  status: ('A' for Active; 'I' for Inactive)
REMARK    1  A    between atoms: C_2  and  O_3 
REMARK    2  A    between atoms: C_2  and  C_4 
REMARK    3  A    between atoms: C_6  and  C_16 
REMARK    4  A    between atoms: C_9  and  C_10 
REMARK       I    between atoms: C_16  and  N_18 
REMARK    5  A    between atoms: N_18  and  C_19 
REMARK    6  A    between atoms: C_19  and  C_21 
ROOT
HETATM    1  C   UNL     1      -2.436   4.742 -33.097  1.00  0.00    -0.018 A 
HETATM    2  C   UNL     1      -3.490   3.968 -33.631  1.00  0.00     0.027 A 
HETATM    3  C   UNL     1      -4.353   3.227 -32.808  1.00  0.00     0.032 A 
HETATM    4  C   UNL     1      -4.156   3.239 -31.426  1.00  0.00     0.018 A 
HETATM    5  C   UNL     1      -3.134   4.018 -30.877  1.00  0.00     0.014 A 
HETATM    6  C   UNL     1      -2.279   4.776 -31.697  1.00  0.00    -0.014 A 
ENDROOT
BRANCH   3   7
HETATM    7  C   UNL     1      -5.446   2.452 -33.458  1.00  0.00     0.252 C 
HETATM    8  O   UNL     1      -6.227   3.013 -34.219  1.00  0.00    -0.268 OA
HETATM    9  N   UNL     1      -5.548   1.117 -33.123  1.00  0.00    -0.349 N 
HETATM   10  H   UNL     1      -4.991   0.753 -32.365  1.00  0.00     0.163 HD
BRANCH   9  11
HETATM   11  C   UNL     1      -6.684   0.320 -33.562  1.00  0.00     0.114 C 
HETATM   12  C   UNL     1      -7.784   0.304 -32.499  1.00  0.00     0.037 C 
BRANCH  11  13
HETATM   13  C   UNL     1      -6.238  -1.087 -33.925  1.00  0.00    -0.036 A 
HETATM   14  C   UNL     1      -4.882  -1.438 -33.799  1.00  0.00     0.012 A 
HETATM   15  C   UNL     1      -4.442  -2.718 -34.140  1.00  0.00     0.043 A 
HETATM   16  C   UNL     1      -5.356  -3.655 -34.602  1.00  0.00     0.116 A 
HETATM   17  F   UNL     1      -4.935  -4.884 -34.931  1.00  0.00    -0.206 F 
HETATM   18  C   UNL     1      -6.702  -3.337 -34.731  1.00  0.00     0.043 A 
HETATM   19  C   UNL     1      -7.144  -2.055 -34.396  1.00  0.00     0.012 A 
ENDBRANCH  11  13
ENDBRANCH   9  11
ENDBRANCH   3   7
BRANCH   1  20
HETATM   20  C   UNL     1      -1.563   5.553 -34.040  1.00  0.00     0.148 C 
HETATM   21  C   UNL     1      -2.017   7.003 -34.128  1.00  0.00     0.044 C 
BRANCH  20  22
HETATM   22  O   UNL     1      -1.581   4.995 -35.356  1.00  0.00    -0.391 OA
HETATM   23  H   UNL     1      -1.735   4.040 -35.264  1.00  0.00     0.210 HD
ENDBRANCH  20  22
ENDBRANCH   1  20
BRANCH   6  24
HETATM   24  C   UNL     1      -1.280   5.595 -31.046  1.00  0.00     0.011 A 
HETATM   25  C   UNL     1      -1.372   6.897 -30.512  1.00  0.00     0.152 A 
HETATM   26  N   UNL     1      -0.223   7.304 -29.966  1.00  0.00    -0.187 NA
HETATM   27  N   UNL     1       0.601   6.257 -30.141  1.00  0.00    -0.289 N 
HETATM   28  H   UNL     1       1.553   6.333 -29.800  1.00  0.00     0.188 HD
HETATM   29  C   UNL     1       0.009   5.199 -30.771  1.00  0.00     0.123 A 
ENDBRANCH   6  24
TORSDOF 6
ENDMDL
MODEL 5
REMARK VINA RESULT:      -8.5      4.939      7.330
REMARK  6 active torsions:
REMARK  status: ('A' for Active; 'I' for Inactive)
REMARK    1  A    between atoms: C_2  and  O_3 
REMARK    2  A    between atoms: C_2  and  C_4 
REMARK    3  A    between atoms: C_6  and  C_16 
REMARK    4  A    between atoms: C_9  and  C_10 
REMARK       I    between atoms: C_16  and  N_18 
REMARK    5  A    between atoms: N_18  and  C_19 
REMARK    6  A    between atoms: C_19  and  C_21 
ROOT
HETATM    1  C   UNL     1      -5.262  -0.909 -33.262  1.00  0.00    -0.018 A 
HETATM    2  C   UNL     1      -6.098   0.230 -33.243  1.00  0.00     0.027 A 
HETATM    3  C   UNL     1      -7.283   0.288 -33.992  1.00  0.00     0.032 A 
HETATM    4  C   UNL     1      -7.639  -0.799 -34.792  1.00  0.00     0.018 A 
HETATM    5  C   UNL     1      -6.837  -1.944 -34.806  1.00  0.00     0.014 A 
HETATM    6  C   UNL     1      -5.659  -2.013 -34.042  1.00  0.00    -0.014 A 
ENDROOT
BRANCH   3   7
HETATM    7  C   UNL     1      -8.111   1.523 -33.900  1.00  0.00     0.252 C 
HETATM    8  O   UNL     1      -7.607   2.617 -34.132  1.00  0.00    -0.268 OA
HETATM    9  N   UNL     1      -9.423   1.367 -33.503  1.00  0.00    -0.349 N 
HETATM   10  H   UNL     1      -9.732   0.470 -33.160  1.00  0.00     0.163 HD
BRANCH   9  11
HETATM   11  C   UNL     1     -10.259   2.521 -33.211  1.00  0.00     0.114 C 
HETATM   12  C   UNL     1      -9.950   3.081 -31.821  1.00  0.00     0.037 C 
BRANCH  11  13
HETATM   13  C   UNL     1     -11.730   2.163 -33.354  1.00  0.00    -0.036 A 
HETATM   14  C   UNL     1     -12.092   0.968 -34.002  1.00  0.00     0.012 A 
HETATM   15  C   UNL     1     -13.435   0.622 -34.160  1.00  0.00     0.043 A 
HETATM   16  C   UNL     1     -14.422   1.465 -33.668  1.00  0.00     0.116 A 
HETATM   17  F   UNL     1     -15.711   1.135 -33.821  1.00  0.00    -0.206 F 
HETATM   18  C   UNL     1     -14.091   2.649 -33.019  1.00  0.00     0.043 A 
HETATM   19  C   UNL     1     -12.748   3.000 -32.864  1.00  0.00     0.012 A 
ENDBRANCH  11  13
ENDBRANCH   9  11
ENDBRANCH   3   7
BRANCH   1  20
HETATM   20  C   UNL     1      -4.013  -0.923 -32.397  1.00  0.00     0.148 C 
HETATM   21  C   UNL     1      -4.254  -0.271 -31.042  1.00  0.00     0.044 C 
BRANCH  20  22
HETATM   22  O   UNL     1      -2.939  -0.234 -33.041  1.00  0.00    -0.391 OA
HETATM   23  H   UNL     1      -3.066   0.717 -32.879  1.00  0.00     0.210 HD
ENDBRANCH  20  22
ENDBRANCH   1  20
BRANCH   6  24
HETATM   24  C   UNL     1      -4.914  -3.252 -34.071  1.00  0.00     0.011 A 
HETATM   25  C   UNL     1      -3.651  -3.573 -33.531  1.00  0.00     0.152 A 
HETATM   26  N   UNL     1      -3.313  -4.847 -33.750  1.00  0.00    -0.187 NA
HETATM   27  N   UNL     1      -4.366  -5.344 -34.421  1.00  0.00    -0.289 N 
HETATM   28  H   UNL     1      -4.339  -6.317 -34.704  1.00  0.00     0.188 HD
HETATM   29  C   UNL     1      -5.361  -4.430 -34.625  1.00  0.00     0.123 A 
ENDBRANCH   6  24
TORSDOF 6
ENDMDL
MODEL 6
REMARK VINA RESULT:      -8.2      2.832      3.832
REMARK  6 active torsions:
REMARK  status: ('A' for Active; 'I' for Inactive)
REMARK    1  A    between atoms: C_2  and  O_3 
REMARK    2  A    between atoms: C_2  and  C_4 
REMARK    3  A    between atoms: C_6  and  C_16 
REMARK    4  A    between atoms: C_9  and  C_10 
REMARK       I    between atoms: C_16  and  N_18 
REMARK    5  A    between atoms: N_18  and  C_19 
REMARK    6  A    between atoms: C_19  and  C_21 
ROOT
HETATM    1  C   UNL     1      -5.495   0.848 -31.398  1.00  0.00    -0.018 A 
HETATM    2  C   UNL     1      -5.500   2.190 -30.959  1.00  0.00     0.027 A 
HETATM    3  C   UNL     1      -4.414   3.048 -31.194  1.00  0.00     0.032 A 
HETATM    4  C   UNL     1      -3.291   2.560 -31.864  1.00  0.00     0.018 A 
HETATM    5  C   UNL     1      -3.277   1.242 -32.328  1.00  0.00     0.014 A 
HETATM    6  C   UNL     1      -4.370   0.385 -32.110  1.00  0.00    -0.014 A 
ENDROOT
BRANCH   3   7
HETATM    7  C   UNL     1      -4.514   4.453 -30.707  1.00  0.00     0.252 C 
HETATM    8  O   UNL     1      -5.593   4.896 -30.330  1.00  0.00    -0.268 OA
HETATM    9  N   UNL     1      -3.362   5.211 -30.751  1.00  0.00    -0.349 N 
HETATM   10  H   UNL     1      -2.550   4.850 -31.229  1.00  0.00     0.163 HD
BRANCH   9  11
HETATM   11  C   UNL     1      -3.393   6.638 -30.468  1.00  0.00     0.114 C 
HETATM   12  C   UNL     1      -3.762   7.435 -31.722  1.00  0.00     0.037 C 
BRANCH  11  13
HETATM   13  C   UNL     1      -2.066   7.095 -29.886  1.00  0.00    -0.036 A 
HETATM   14  C   UNL     1      -0.875   6.480 -30.312  1.00  0.00     0.012 A 
HETATM   15  C   UNL     1       0.357   6.869 -29.783  1.00  0.00     0.043 A 
HETATM   16  C   UNL     1       0.405   7.879 -28.831  1.00  0.00     0.116 A 
HETATM   17  F   UNL     1       1.586   8.253 -28.322  1.00  0.00    -0.206 F 
HETATM   18  C   UNL     1      -0.756   8.507 -28.398  1.00  0.00     0.043 A 
HETATM   19  C   UNL     1      -1.991   8.116 -28.921  1.00  0.00     0.012 A 
ENDBRANCH  11  13
ENDBRANCH   9  11
ENDBRANCH   3   7
BRANCH   1  20
HETATM   20  C   UNL     1      -6.718  -0.018 -31.146  1.00  0.00     0.148 C 
HETATM   21  C   UNL     1      -7.984   0.613 -31.708  1.00  0.00     0.044 C 
BRANCH  20  22
HETATM   22  O   UNL     1      -6.908  -0.234 -29.745  1.00  0.00    -0.391 OA
HETATM   23  H   UNL     1      -7.724   0.230 -29.489  1.00  0.00     0.210 HD
ENDBRANCH  20  22
ENDBRANCH   1  20
BRANCH   6  24
HETATM   24  C   UNL     1      -4.297  -0.948 -32.667  1.00  0.00     0.011 A 
HETATM   25  C   UNL     1      -4.894  -1.489 -33.825  1.00  0.00     0.152 A 
HETATM   26  N   UNL     1      -4.562  -2.768 -34.018  1.00  0.00    -0.187 NA
HETATM   27  N   UNL     1      -3.742  -3.042 -32.988  1.00  0.00    -0.289 N 
HETATM   28  H   UNL     1      -3.354  -3.977 -32.919  1.00  0.00     0.188 HD
HETATM   29  C   UNL     1      -3.539  -1.977 -32.157  1.00  0.00     0.123 A 
ENDBRANCH   6  24
TORSDOF 6
ENDMDL
MODEL 7
REMARK VINA RESULT:      -8.2      5.195      8.279
REMARK  6 active torsions:
REMARK  status: ('A' for Active; 'I' for Inactive)
REMARK    1  A    between atoms: C_2  and  O_3 
REMARK    2  A    between atoms: C_2  and  C_4 
REMARK    3  A    between atoms: C_6  and  C_16 
REMARK    4  A    between atoms: C_9  and  C_10 
REMARK       I    between atoms: C_16  and  N_18 
REMARK    5  A    between atoms: N_18  and  C_19 
REMARK    6  A    between atoms: C_19  and  C_21 
ROOT
HETATM    1  C   UNL     1     -10.156   2.662 -32.606  1.00  0.00    -0.018 A 
HETATM    2  C   UNL     1      -9.012   1.855 -32.425  1.00  0.00     0.027 A 
HETATM    3  C   UNL     1      -8.170   2.005 -31.312  1.00  0.00     0.032 A 
HETATM    4  C   UNL     1      -8.458   2.990 -30.367  1.00  0.00     0.018 A 
HETATM    5  C   UNL     1      -9.599   3.783 -30.515  1.00  0.00     0.014 A 
HETATM    6  C   UNL     1     -10.455   3.623 -31.619  1.00  0.00    -0.014 A 
ENDROOT
BRANCH   3   7
HETATM    7  C   UNL     1      -6.993   1.098 -31.197  1.00  0.00     0.252 C 
HETATM    8  O   UNL     1      -6.428   0.962 -30.117  1.00  0.00    -0.268 OA
HETATM    9  N   UNL     1      -6.566   0.480 -32.354  1.00  0.00    -0.349 N 
HETATM   10  H   UNL     1      -6.958   0.762 -33.239  1.00  0.00     0.163 HD
BRANCH   9  11
HETATM   11  C   UNL     1      -5.325  -0.280 -32.383  1.00  0.00     0.114 C 
HETATM   12  C   UNL     1      -4.149   0.612 -32.789  1.00  0.00     0.037 C 
BRANCH  11  13
HETATM   13  C   UNL     1      -5.458  -1.482 -33.303  1.00  0.00    -0.036 A 
HETATM   14  C   UNL     1      -6.713  -1.795 -33.856  1.00  0.00     0.012 A 
HETATM   15  C   UNL     1      -6.866  -2.902 -34.692  1.00  0.00     0.043 A 
HETATM   16  C   UNL     1      -5.767  -3.698 -34.984  1.00  0.00     0.116 A 
HETATM   17  F   UNL     1      -5.914  -4.762 -35.784  1.00  0.00    -0.206 F 
HETATM   18  C   UNL     1      -4.515  -3.408 -34.455  1.00  0.00     0.043 A 
HETATM   19  C   UNL     1      -4.360  -2.303 -33.614  1.00  0.00     0.012 A 
ENDBRANCH  11  13
ENDBRANCH   9  11
ENDBRANCH   3   7
BRANCH   1  20
HETATM   20  C   UNL     1     -11.048   2.421 -33.812  1.00  0.00     0.148 C 
HETATM   21  C   UNL     1     -11.740   1.067 -33.745  1.00  0.00     0.044 C 
BRANCH  20  22
HETATM   22  O   UNL     1     -10.292   2.479 -35.024  1.00  0.00    -0.391 OA
HETATM   23  H   UNL     1      -9.761   3.294 -34.996  1.00  0.00     0.210 HD
ENDBRANCH  20  22
ENDBRANCH   1  20
BRANCH   6  24
HETATM   24  C   UNL     1     -11.642   4.448 -31.671  1.00  0.00     0.011 A 
HETATM   25  C   UNL     1     -11.883   5.662 -32.348  1.00  0.00     0.152 A 
HETATM   26  N   UNL     1     -13.129   6.106 -32.166  1.00  0.00    -0.187 NA
HETATM   27  N   UNL     1     -13.689   5.169 -31.382  1.00  0.00    -0.289 N 
HETATM   28  H   UNL     1     -14.657   5.292 -31.103  1.00  0.00     0.188 HD
HETATM   29  C   UNL     1     -12.841   4.144 -31.070  1.00  0.00     0.123 A 
ENDBRANCH   6  24
TORSDOF 6
ENDMDL
MODEL 8
REMARK VINA RESULT:      -8.2      3.467      8.904
REMARK  6 active torsions:
REMARK  status: ('A' for Active; 'I' for Inactive)
REMARK    1  A    between atoms: C_2  and  O_3 
REMARK    2  A    between atoms: C_2  and  C_4 
REMARK    3  A    between atoms: C_6  and  C_16 
REMARK    4  A    between atoms: C_9  and  C_10 
REMARK       I    between atoms: C_16  and  N_18 
REMARK    5  A    between atoms: N_18  and  C_19 
REMARK    6  A    between atoms: C_19  and  C_21 
ROOT
HETATM    1  C   UNL     1      -2.905   5.264 -32.324  1.00  0.00    -0.018 A 
HETATM    2  C   UNL     1      -3.706   4.289 -32.959  1.00  0.00     0.027 A 
HETATM    3  C   UNL     1      -4.993   3.974 -32.494  1.00  0.00     0.032 A 
HETATM    4  C   UNL     1      -5.490   4.627 -31.365  1.00  0.00     0.018 A 
HETATM    5  C   UNL     1      -4.722   5.611 -30.737  1.00  0.00     0.014 A 
HETATM    6  C   UNL     1      -3.440   5.943 -31.211  1.00  0.00    -0.014 A 
ENDROOT
BRANCH   3   7
HETATM    7  C   UNL     1      -5.772   2.943 -33.235  1.00  0.00     0.252 C 
HETATM    8  O   UNL     1      -6.184   3.181 -34.365  1.00  0.00    -0.268 OA
HETATM    9  N   UNL     1      -6.031   1.761 -32.572  1.00  0.00    -0.349 N 
HETATM   10  H   UNL     1      -5.818   1.689 -31.589  1.00  0.00     0.163 HD
BRANCH   9  11
HETATM   11  C   UNL     1      -6.930   0.766 -33.137  1.00  0.00     0.114 C 
HETATM   12  C   UNL     1      -8.068   0.445 -32.166  1.00  0.00     0.037 C 
BRANCH  11  13
HETATM   13  C   UNL     1      -6.162  -0.485 -33.531  1.00  0.00    -0.036 A 
HETATM   14  C   UNL     1      -4.858  -0.679 -33.040  1.00  0.00     0.012 A 
HETATM   15  C   UNL     1      -4.124  -1.812 -33.397  1.00  0.00     0.043 A 
HETATM   16  C   UNL     1      -4.691  -2.757 -34.241  1.00  0.00     0.116 A 
HETATM   17  F   UNL     1      -3.987  -3.843 -34.586  1.00  0.00    -0.206 F 
HETATM   18  C   UNL     1      -5.979  -2.591 -34.736  1.00  0.00     0.043 A 
HETATM   19  C   UNL     1      -6.714  -1.457 -34.384  1.00  0.00     0.012 A 
ENDBRANCH  11  13
ENDBRANCH   9  11
ENDBRANCH   3   7
BRANCH   1  20
HETATM   20  C   UNL     1      -1.537   5.587 -32.902  1.00  0.00     0.148 C 
HETATM   21  C   UNL     1      -1.456   5.259 -34.386  1.00  0.00     0.044 C 
BRANCH  20  22
HETATM   22  O   UNL     1      -0.513   4.854 -32.224  1.00  0.00    -0.391 OA
HETATM   23  H   UNL     1      -0.168   5.425 -31.517  1.00  0.00     0.210 HD
ENDBRANCH  20  22
ENDBRANCH   1  20
BRANCH   6  24
HETATM   24  C   UNL     1      -2.732   7.009 -30.537  1.00  0.00     0.011 A 
HETATM   25  C   UNL     1      -2.781   8.405 -30.732  1.00  0.00     0.152 A 
HETATM   26  N   UNL     1      -1.987   9.065 -29.884  1.00  0.00    -0.187 NA
HETATM   27  N   UNL     1      -1.440   8.090 -29.138  1.00  0.00    -0.289 N 
HETATM   28  H   UNL     1      -0.785   8.354 -28.410  1.00  0.00     0.188 HD
HETATM   29  C   UNL     1      -1.867   6.838 -29.481  1.00  0.00     0.123 A 
ENDBRANCH   6  24
TORSDOF 6
ENDMDL
MODEL 9
REMARK VINA RESULT:      -8.0      4.196      5.162
REMARK  6 active torsions:
REMARK  status: ('A' for Active; 'I' for Inactive)
REMARK    1  A    between atoms: C_2  and  O_3 
REMARK    2  A    between atoms: C_2  and  C_4 
REMARK    3  A    between atoms: C_6  and  C_16 
REMARK    4  A    between atoms: C_9  and  C_10 
REMARK       I    between atoms: C_16  and  N_18 
REMARK    5  A    between atoms: N_18  and  C_19 
REMARK    6  A    between atoms: C_19  and  C_21 
ROOT
HETATM    1  C   UNL     1      -7.435   3.408 -31.731  1.00  0.00    -0.018 A 
HETATM    2  C   UNL     1      -6.383   4.338 -31.877  1.00  0.00     0.027 A 
HETATM    3  C   UNL     1      -5.638   4.432 -33.063  1.00  0.00     0.032 A 
HETATM    4  C   UNL     1      -5.931   3.571 -34.122  1.00  0.00     0.018 A 
HETATM    5  C   UNL     1      -6.984   2.660 -34.006  1.00  0.00     0.014 A 
HETATM    6  C   UNL     1      -7.744   2.576 -32.826  1.00  0.00    -0.014 A 
ENDROOT
BRANCH   3   7
HETATM    7  C   UNL     1      -4.556   5.454 -33.132  1.00  0.00     0.252 C 
HETATM    8  O   UNL     1      -4.827   6.642 -33.001  1.00  0.00    -0.268 OA
HETATM    9  N   UNL     1      -3.281   4.995 -33.391  1.00  0.00    -0.349 N 
HETATM   10  H   UNL     1      -3.147   4.032 -33.661  1.00  0.00     0.163 HD
BRANCH   9  11
HETATM   11  C   UNL     1      -2.191   5.922 -33.654  1.00  0.00     0.114 C 
HETATM   12  C   UNL     1      -1.305   5.413 -34.794  1.00  0.00     0.037 C 
BRANCH  11  13
HETATM   13  C   UNL     1      -1.386   6.171 -32.389  1.00  0.00    -0.036 A 
HETATM   14  C   UNL     1      -0.461   5.203 -31.956  1.00  0.00     0.012 A 
HETATM   15  C   UNL     1       0.280   5.399 -30.790  1.00  0.00     0.043 A 
HETATM   16  C   UNL     1       0.106   6.564 -30.055  1.00  0.00     0.116 A 
HETATM   17  F   UNL     1       0.816   6.752 -28.935  1.00  0.00    -0.206 F 
HETATM   18  C   UNL     1      -0.796   7.538 -30.464  1.00  0.00     0.043 A 
HETATM   19  C   UNL     1      -1.543   7.343 -31.628  1.00  0.00     0.012 A 
ENDBRANCH  11  13
ENDBRANCH   9  11
ENDBRANCH   3   7
BRANCH   1  20
HETATM   20  C   UNL     1      -8.228   3.385 -30.435  1.00  0.00     0.148 C 
HETATM   21  C   UNL     1      -8.662   4.782 -30.011  1.00  0.00     0.044 C 
BRANCH  20  22
HETATM   22  O   UNL     1      -7.457   2.813 -29.376  1.00  0.00    -0.391 OA
HETATM   23  H   UNL     1      -7.296   3.516 -28.723  1.00  0.00     0.210 HD
ENDBRANCH  20  22
ENDBRANCH   1  20
BRANCH   6  24
HETATM   24  C   UNL     1      -8.849   1.643 -32.806  1.00  0.00     0.011 A 
HETATM   25  C   UNL     1     -10.110   1.705 -33.436  1.00  0.00     0.152 A 
HETATM   26  N   UNL     1     -10.854   0.623 -33.191  1.00  0.00    -0.187 NA
HETATM   27  N   UNL     1     -10.063  -0.137 -32.414  1.00  0.00    -0.289 N 
HETATM   28  H   UNL     1     -10.421  -1.030 -32.093  1.00  0.00     0.188 HD
HETATM   29  C   UNL     1      -8.842   0.425 -32.167  1.00  0.00     0.123 A 
ENDBRANCH   6  24
TORSDOF 6
ENDMDL
MODEL 10
REMARK VINA RESULT:      -8.0      3.680      8.763
REMARK  6 active torsions:
REMARK  status: ('A' for Active; 'I' for Inactive)
REMARK    1  A    between atoms: C_2  and  O_3 
REMARK    2  A    between atoms: C_2  and  C_4 
REMARK    3  A    between atoms: C_6  and  C_16 
REMARK    4  A    between atoms: C_9  and  C_10 
REMARK       I    between atoms: C_16  and  N_18 
REMARK    5  A    between atoms: N_18  and  C_19 
REMARK    6  A    between atoms: C_19  and  C_21 
ROOT
HETATM    1  C   UNL     1      -3.603   5.385 -31.081  1.00  0.00    -0.018 A 
HETATM    2  C   UNL     1      -4.673   4.589 -31.547  1.00  0.00     0.027 A 
HETATM    3  C   UNL     1      -4.476   3.562 -32.484  1.00  0.00     0.032 A 
HETATM    4  C   UNL     1      -3.193   3.331 -32.983  1.00  0.00     0.018 A 
HETATM    5  C   UNL     1      -2.118   4.092 -32.517  1.00  0.00     0.014 A 
HETATM    6  C   UNL     1      -2.309   5.109 -31.565  1.00  0.00    -0.014 A 
ENDROOT
BRANCH   3   7
HETATM    7  C   UNL     1      -5.660   2.764 -32.907  1.00  0.00     0.252 C 
HETATM    8  O   UNL     1      -6.692   3.331 -33.248  1.00  0.00    -0.268 OA
HETATM    9  N   UNL     1      -5.540   1.391 -32.847  1.00  0.00    -0.349 N 
HETATM   10  H   UNL     1      -4.734   0.984 -32.397  1.00  0.00     0.163 HD
BRANCH   9  11
HETATM   11  C   UNL     1      -6.691   0.528 -33.067  1.00  0.00     0.114 C 
HETATM   12  C   UNL     1      -7.506   0.368 -31.781  1.00  0.00     0.037 C 
BRANCH  11  13
HETATM   13  C   UNL     1      -6.251  -0.818 -33.620  1.00  0.00    -0.036 A 
HETATM   14  C   UNL     1      -7.215  -1.703 -34.135  1.00  0.00     0.012 A 
HETATM   15  C   UNL     1      -6.841  -2.951 -34.635  1.00  0.00     0.043 A 
HETATM   16  C   UNL     1      -5.502  -3.318 -34.629  1.00  0.00     0.116 A 
HETATM   17  F   UNL     1      -5.143  -4.516 -35.108  1.00  0.00    -0.206 F 
HETATM   18  C   UNL     1      -4.529  -2.460 -34.132  1.00  0.00     0.043 A 
HETATM   19  C   UNL     1      -4.901  -1.213 -33.626  1.00  0.00     0.012 A 
ENDBRANCH  11  13
ENDBRANCH   9  11
ENDBRANCH   3   7
BRANCH   1  20
HETATM   20  C   UNL     1      -3.877   6.455 -30.037  1.00  0.00     0.148 C 
HETATM   21  C   UNL     1      -5.103   6.125 -29.196  1.00  0.00     0.044 C 
BRANCH  20  22
HETATM   22  O   UNL     1      -4.085   7.727 -30.654  1.00  0.00    -0.391 OA
HETATM   23  H   UNL     1      -4.174   7.574 -31.611  1.00  0.00     0.210 HD
ENDBRANCH  20  22
ENDBRANCH   1  20
BRANCH   6  24
HETATM   24  C   UNL     1      -1.136   5.815 -31.096  1.00  0.00     0.011 A 
HETATM   25  C   UNL     1      -0.498   6.966 -31.604  1.00  0.00     0.152 A 
HETATM   26  N   UNL     1       0.556   7.329 -30.867  1.00  0.00    -0.187 NA
HETATM   27  N   UNL     1       0.583   6.416 -29.881  1.00  0.00    -0.289 N 
HETATM   28  H   UNL     1       1.315   6.487 -29.182  1.00  0.00     0.188 HD
HETATM   29  C   UNL     1      -0.422   5.495 -29.965  1.00  0.00     0.123 A 
ENDBRANCH   6  24
TORSDOF 6
ENDMDL
