MODEL 1
REMARK VINA RESULT:      -8.6      0.000      0.000
REMARK  9 active torsions:
REMARK  status: ('A' for Active; 'I' for Inactive)
REMARK    1  A    between atoms: C_2  and  N_3 
REMARK    2  A    between atoms: C_4  and  S_5 
REMARK    3  A    between atoms: S_5  and  C_6 
REMARK    4  A    between atoms: C_6  and  C_7 
REMARK       I    between atoms: C_7  and  N_8 
REMARK    5  A    between atoms: N_8  and  C_9 
REMARK    6  A    between atoms: C_9  and  C_10 
REMARK    7  A    between atoms: C_10  and  C_11 
REMARK    8  A    between atoms: C_14  and  O_15 
REMARK    9  A    between atoms: C_22  and  C_23 
ROOT
HETATM    1  C   UNL     1      -6.717   4.071 -33.718  1.00  0.00     0.185 C 
ENDROOT
BRANCH   1   2
HETATM    2  S   UNL     1      -6.329   2.796 -32.483  1.00  0.00    -0.081 SA
BRANCH   2   3
HETATM    3  C   UNL     1      -6.387   1.389 -33.487  1.00  0.00     0.192 A 
HETATM    4  N   UNL     1      -6.020   0.130 -33.086  1.00  0.00    -0.308 N 
HETATM    5  C   UNL     1      -6.186  -0.677 -34.200  1.00  0.00     0.164 A 
HETATM    6  N   UNL     1      -6.637   0.084 -35.187  1.00  0.00    -0.128 NA
HETATM    7  N   UNL     1      -6.771   1.370 -34.737  1.00  0.00    -0.122 NA
BRANCH   4   8
HETATM    8  C   UNL     1      -5.452  -0.228 -31.802  1.00  0.00     0.128 C 
HETATM    9  C   UNL     1      -3.942  -0.046 -31.750  1.00  0.00     0.027 C 
ENDBRANCH   4   8
BRANCH   5  10
HETATM   10  C   UNL     1      -5.866  -2.102 -34.358  1.00  0.00     0.012 A 
HETATM   11  C   UNL     1      -6.914  -2.997 -34.631  1.00  0.00     0.015 A 
HETATM   12  C   UNL     1      -6.680  -4.367 -34.773  1.00  0.00     0.001 A 
HETATM   13  C   UNL     1      -5.388  -4.867 -34.641  1.00  0.00     0.000 A 
HETATM   14  C   UNL     1      -4.338  -3.999 -34.351  1.00  0.00     0.001 A 
HETATM   15  C   UNL     1      -4.578  -2.628 -34.198  1.00  0.00     0.015 A 
ENDBRANCH   5  10
ENDBRANCH   2   3
ENDBRANCH   1   2
BRANCH   1  16
HETATM   16  C   UNL     1      -5.544   5.028 -33.838  1.00  0.00     0.227 C 
HETATM   17  N   UNL     1      -4.635   4.698 -34.828  1.00  0.00    -0.360 N 
HETATM   18  H   UNL     1      -4.936   4.047 -35.542  1.00  0.00     0.162 HD
HETATM   19  O   UNL     1      -5.412   6.008 -33.108  1.00  0.00    -0.273 OA
BRANCH  17  20
HETATM   20  C   UNL     1      -3.524   5.580 -35.145  1.00  0.00     0.127 C 
BRANCH  20  21
HETATM   21  C   UNL     1      -2.178   4.934 -34.815  1.00  0.00     0.058 C 
BRANCH  21  22
HETATM   22  C   UNL     1      -1.647   5.387 -33.479  1.00  0.00    -0.057 A 
HETATM   23  C   UNL     1      -1.821   4.594 -32.340  1.00  0.00     0.010 A 
HETATM   24  C   UNL     1      -1.348   5.029 -31.099  1.00  0.00     0.037 A 
HETATM   25  C   UNL     1      -0.701   6.260 -30.973  1.00  0.00     0.068 A 
HETATM   26  C   UNL     1      -0.528   7.055 -32.105  1.00  0.00     0.037 A 
HETATM   27  C   UNL     1      -0.999   6.622 -33.350  1.00  0.00     0.010 A 
BRANCH  25  28
HETATM   28  O   UNL     1      -0.292   6.564 -29.704  1.00  0.00    -0.356 OA
HETATM   29  C   UNL     1       0.483   5.583 -29.026  1.00  0.00     0.210 C 
ENDBRANCH  25  28
ENDBRANCH  21  22
ENDBRANCH  20  21
ENDBRANCH  17  20
ENDBRANCH   1  16
TORSDOF 9
ENDMDL
MODEL 2
REMARK VINA RESULT:      -8.4      3.636     10.144
REMARK  9 active torsions:
REMARK  status: ('A' for Active; 'I' for Inactive)
REMARK    1  A    between atoms: C_2  and  N_3 
REMARK    2  A    between atoms: C_4  and  S_5 
REMARK    3  A    between atoms: S_5  and  C_6 
REMARK    4  A    between atoms: C_6  and  C_7 
REMARK       I    between atoms: C_7  and  N_8 
REMARK    5  A    between atoms: N_8  and  C_9 
REMARK    6  A    between atoms: C_9  and  C_10 
REMARK    7  A    between atoms: C_10  and  C_11 
REMARK    8  A    between atoms: C_14  and  O_15 
REMARK    9  A    between atoms: C_22  and  C_23 
ROOT
HETATM    1  C   UNL     1      -2.584   3.764 -32.797  1.00  0.00     0.185 C 
ENDROOT
BRANCH   1   2
HETATM    2  S   UNL     1      -3.020   5.329 -31.982  1.00  0.00    -0.081 SA
BRANCH   2   3
HETATM    3  C   UNL     1      -1.680   5.477 -30.899  1.00  0.00     0.192 A 
HETATM    4  N   UNL     1      -1.567   6.438 -29.927  1.00  0.00    -0.308 N 
HETATM    5  C   UNL     1      -0.338   6.213 -29.326  1.00  0.00     0.164 A 
HETATM    6  N   UNL     1       0.218   5.168 -29.921  1.00  0.00    -0.128 NA
HETATM    7  N   UNL     1      -0.624   4.704 -30.895  1.00  0.00    -0.122 NA
BRANCH   4   8
HETATM    8  C   UNL     1      -2.490   7.528 -29.689  1.00  0.00     0.128 C 
HETATM    9  C   UNL     1      -2.126   8.792 -30.456  1.00  0.00     0.027 C 
ENDBRANCH   4   8
BRANCH   5  10
HETATM   10  C   UNL     1       0.327   6.997 -28.276  1.00  0.00     0.012 A 
HETATM   11  C   UNL     1       1.106   8.103 -28.659  1.00  0.00     0.015 A 
HETATM   12  C   UNL     1       1.780   8.877 -27.712  1.00  0.00     0.001 A 
HETATM   13  C   UNL     1       1.689   8.556 -26.361  1.00  0.00     0.000 A 
HETATM   14  C   UNL     1       0.938   7.453 -25.963  1.00  0.00     0.001 A 
HETATM   15  C   UNL     1       0.272   6.672 -26.916  1.00  0.00     0.015 A 
ENDBRANCH   5  10
ENDBRANCH   2   3
ENDBRANCH   1   2
BRANCH   1  16
HETATM   16  C   UNL     1      -3.488   2.659 -32.278  1.00  0.00     0.227 C 
HETATM   17  N   UNL     1      -4.765   2.668 -32.809  1.00  0.00    -0.360 N 
HETATM   18  H   UNL     1      -4.916   3.200 -33.657  1.00  0.00     0.162 HD
HETATM   19  O   UNL     1      -3.114   1.833 -31.448  1.00  0.00    -0.273 OA
BRANCH  17  20
HETATM   20  C   UNL     1      -5.709   1.605 -32.503  1.00  0.00     0.127 C 
BRANCH  20  21
HETATM   21  C   UNL     1      -6.332   1.020 -33.770  1.00  0.00     0.058 C 
BRANCH  21  22
HETATM   22  C   UNL     1      -5.958  -0.426 -33.967  1.00  0.00    -0.057 A 
HETATM   23  C   UNL     1      -4.689  -0.888 -33.599  1.00  0.00     0.010 A 
HETATM   24  C   UNL     1      -4.338  -2.224 -33.806  1.00  0.00     0.037 A 
HETATM   25  C   UNL     1      -5.241  -3.119 -34.385  1.00  0.00     0.068 A 
HETATM   26  C   UNL     1      -6.506  -2.662 -34.756  1.00  0.00     0.037 A 
HETATM   27  C   UNL     1      -6.861  -1.324 -34.549  1.00  0.00     0.010 A 
BRANCH  25  28
HETATM   28  O   UNL     1      -4.769  -4.393 -34.533  1.00  0.00    -0.356 OA
HETATM   29  C   UNL     1      -3.697  -4.783 -33.684  1.00  0.00     0.210 C 
ENDBRANCH  25  28
ENDBRANCH  21  22
ENDBRANCH  20  21
ENDBRANCH  17  20
ENDBRANCH   1  16
TORSDOF 9
ENDMDL
MODEL 3
REMARK VINA RESULT:      -8.3      1.387      1.968
REMARK  9 active torsions:
REMARK  status: ('A' for Active; 'I' for Inactive)
REMARK    1  A    between atoms: C_2  and  N_3 
REMARK    2  A    between atoms: C_4  and  S_5 
REMARK    3  A    between atoms: S_5  and  C_6 
REMARK    4  A    between atoms: C_6  and  C_7 
REMARK       I    between atoms: C_7  and  N_8 
REMARK    5  A    between atoms: N_8  and  C_9 
REMARK    6  A    between atoms: C_9  and  C_10 
REMARK    7  A    between atoms: C_10  and  C_11 
REMARK    8  A    between atoms: C_14  and  O_15 
REMARK    9  A    between atoms: C_22  and  C_23 
ROOT
HETATM    1  C   UNL     1      -4.817   4.082 -32.853  1.00  0.00     0.185 C 
ENDROOT
BRANCH   1   2
HETATM    2  S   UNL     1      -5.317   2.779 -31.690  1.00  0.00    -0.081 SA
BRANCH   2   3
HETATM    3  C   UNL     1      -5.690   1.516 -32.811  1.00  0.00     0.192 A 
HETATM    4  N   UNL     1      -5.412   0.188 -32.608  1.00  0.00    -0.308 N 
HETATM    5  C   UNL     1      -5.840  -0.459 -33.757  1.00  0.00     0.164 A 
HETATM    6  N   UNL     1      -6.347   0.456 -34.571  1.00  0.00    -0.128 NA
HETATM    7  N   UNL     1      -6.262   1.685 -33.975  1.00  0.00    -0.122 NA
BRANCH   4   8
HETATM    8  C   UNL     1      -4.699  -0.376 -31.481  1.00  0.00     0.128 C 
HETATM    9  C   UNL     1      -3.188  -0.234 -31.605  1.00  0.00     0.027 C 
ENDBRANCH   4   8
BRANCH   5  10
HETATM   10  C   UNL     1      -5.714  -1.879 -34.112  1.00  0.00     0.012 A 
HETATM   11  C   UNL     1      -6.875  -2.584 -34.474  1.00  0.00     0.015 A 
HETATM   12  C   UNL     1      -6.826  -3.940 -34.804  1.00  0.00     0.001 A 
HETATM   13  C   UNL     1      -5.611  -4.618 -34.775  1.00  0.00     0.000 A 
HETATM   14  C   UNL     1      -4.453  -3.942 -34.401  1.00  0.00     0.001 A 
HETATM   15  C   UNL     1      -4.506  -2.585 -34.060  1.00  0.00     0.015 A 
ENDBRANCH   5  10
ENDBRANCH   2   3
ENDBRANCH   1   2
BRANCH   1  16
HETATM   16  C   UNL     1      -3.301   4.132 -32.931  1.00  0.00     0.227 C 
HETATM   17  N   UNL     1      -2.804   5.096 -33.790  1.00  0.00    -0.360 N 
HETATM   18  H   UNL     1      -3.431   5.838 -34.074  1.00  0.00     0.162 HD
HETATM   19  O   UNL     1      -2.580   3.371 -32.290  1.00  0.00    -0.273 OA
BRANCH  17  20
HETATM   20  C   UNL     1      -1.375   5.347 -33.884  1.00  0.00     0.127 C 
BRANCH  20  21
HETATM   21  C   UNL     1      -0.988   6.666 -33.217  1.00  0.00     0.058 C 
BRANCH  21  22
HETATM   22  C   UNL     1      -0.542   6.468 -31.791  1.00  0.00    -0.057 A 
HETATM   23  C   UNL     1      -0.806   7.442 -30.822  1.00  0.00     0.010 A 
HETATM   24  C   UNL     1      -0.369   7.265 -29.507  1.00  0.00     0.037 A 
HETATM   25  C   UNL     1       0.339   6.119 -29.137  1.00  0.00     0.068 A 
HETATM   26  C   UNL     1       0.606   5.146 -30.100  1.00  0.00     0.037 A 
HETATM   27  C   UNL     1       0.169   5.321 -31.419  1.00  0.00     0.010 A 
BRANCH  25  28
HETATM   28  O   UNL     1       0.709   6.075 -27.822  1.00  0.00    -0.356 OA
HETATM   29  C   UNL     1       0.537   7.267 -27.066  1.00  0.00     0.210 C 
ENDBRANCH  25  28
ENDBRANCH  21  22
ENDBRANCH  20  21
ENDBRANCH  17  20
ENDBRANCH   1  16
TORSDOF 9
ENDMDL
MODEL 4
REMARK VINA RESULT:      -8.2      1.267      2.221
REMARK  9 active torsions:
REMARK  status: ('A' for Active; 'I' for Inactive)
REMARK    1  A    between atoms: C_2  and  N_3 
REMARK    2  A    between atoms: C_4  and  S_5 
REMARK    3  A    between atoms: S_5  and  C_6 
REMARK    4  A    between atoms: C_6  and  C_7 
REMARK       I    between atoms: C_7  and  N_8 
REMARK    5  A    between atoms: N_8  and  C_9 
REMARK    6  A    between atoms: C_9  and  C_10 
REMARK    7  A    between atoms: C_10  and  C_11 
REMARK    8  A    between atoms: C_14  and  O_15 
REMARK    9  A    between atoms: C_22  and  C_23 
ROOT
HETATM    1  C   UNL     1      -6.739   3.589 -33.865  1.00  0.00     0.185 C 
ENDROOT
BRANCH   1   2
HETATM    2  S   UNL     1      -6.648   2.871 -32.199  1.00  0.00    -0.081 SA
BRANCH   2   3
HETATM    3  C   UNL     1      -5.441   1.663 -32.467  1.00  0.00     0.192 A 
HETATM    4  N   UNL     1      -5.704   0.332 -32.674  1.00  0.00    -0.308 N 
HETATM    5  C   UNL     1      -4.464  -0.274 -32.805  1.00  0.00     0.164 A 
HETATM    6  N   UNL     1      -3.539   0.669 -32.689  1.00  0.00    -0.128 NA
HETATM    7  N   UNL     1      -4.151   1.876 -32.488  1.00  0.00    -0.122 NA
BRANCH   4   8
HETATM    8  C   UNL     1      -7.005  -0.302 -32.625  1.00  0.00     0.128 C 
HETATM    9  C   UNL     1      -7.657  -0.424 -33.996  1.00  0.00     0.027 C 
ENDBRANCH   4   8
BRANCH   5  10
HETATM   10  C   UNL     1      -4.151  -1.701 -32.962  1.00  0.00     0.012 A 
HETATM   11  C   UNL     1      -3.370  -2.327 -31.976  1.00  0.00     0.015 A 
HETATM   12  C   UNL     1      -3.021  -3.676 -32.076  1.00  0.00     0.001 A 
HETATM   13  C   UNL     1      -3.447  -4.423 -33.169  1.00  0.00     0.000 A 
HETATM   14  C   UNL     1      -4.206  -3.817 -34.167  1.00  0.00     0.001 A 
HETATM   15  C   UNL     1      -4.545  -2.462 -34.069  1.00  0.00     0.015 A 
ENDBRANCH   5  10
ENDBRANCH   2   3
ENDBRANCH   1   2
BRANCH   1  16
HETATM   16  C   UNL     1      -5.742   4.730 -33.976  1.00  0.00     0.227 C 
HETATM   17  N   UNL     1      -4.642   4.453 -34.768  1.00  0.00    -0.360 N 
HETATM   18  H   UNL     1      -4.708   3.667 -35.403  1.00  0.00     0.162 HD
HETATM   19  O   UNL     1      -5.899   5.804 -33.401  1.00  0.00    -0.273 OA
BRANCH  17  20
HETATM   20  C   UNL     1      -3.660   5.482 -35.068  1.00  0.00     0.127 C 
BRANCH  20  21
HETATM   21  C   UNL     1      -2.233   4.986 -34.838  1.00  0.00     0.058 C 
BRANCH  21  22
HETATM   22  C   UNL     1      -1.682   5.446 -33.513  1.00  0.00    -0.057 A 
HETATM   23  C   UNL     1      -1.017   6.672 -33.407  1.00  0.00     0.010 A 
HETATM   24  C   UNL     1      -0.487   7.084 -32.182  1.00  0.00     0.037 A 
HETATM   25  C   UNL     1      -0.607   6.281 -31.046  1.00  0.00     0.068 A 
HETATM   26  C   UNL     1      -1.267   5.056 -31.147  1.00  0.00     0.037 A 
HETATM   27  C   UNL     1      -1.800   4.641 -32.373  1.00  0.00     0.010 A 
BRANCH  25  28
HETATM   28  O   UNL     1      -0.042   6.801 -29.915  1.00  0.00    -0.356 OA
HETATM   29  C   UNL     1      -0.847   6.813 -28.742  1.00  0.00     0.210 C 
ENDBRANCH  25  28
ENDBRANCH  21  22
ENDBRANCH  20  21
ENDBRANCH  17  20
ENDBRANCH   1  16
TORSDOF 9
ENDMDL
MODEL 5
REMARK VINA RESULT:      -7.9      1.301      2.317
REMARK  9 active torsions:
REMARK  status: ('A' for Active; 'I' for Inactive)
REMARK    1  A    between atoms: C_2  and  N_3 
REMARK    2  A    between atoms: C_4  and  S_5 
REMARK    3  A    between atoms: S_5  and  C_6 
REMARK    4  A    between atoms: C_6  and  C_7 
REMARK       I    between atoms: C_7  and  N_8 
REMARK    5  A    between atoms: N_8  and  C_9 
REMARK    6  A    between atoms: C_9  and  C_10 
REMARK    7  A    between atoms: C_10  and  C_11 
REMARK    8  A    between atoms: C_14  and  O_15 
REMARK    9  A    between atoms: C_22  and  C_23 
ROOT
HETATM    1  C   UNL     1      -6.254   4.432 -32.007  1.00  0.00     0.185 C 
ENDROOT
BRANCH   1   2
HETATM    2  S   UNL     1      -7.739   3.389 -32.076  1.00  0.00    -0.081 SA
BRANCH   2   3
HETATM    3  C   UNL     1      -6.997   1.827 -32.108  1.00  0.00     0.192 A 
HETATM    4  N   UNL     1      -6.952   1.009 -33.209  1.00  0.00    -0.308 N 
HETATM    5  C   UNL     1      -6.307  -0.143 -32.787  1.00  0.00     0.164 A 
HETATM    6  N   UNL     1      -5.991   0.015 -31.510  1.00  0.00    -0.128 NA
HETATM    7  N   UNL     1      -6.413   1.248 -31.091  1.00  0.00    -0.122 NA
BRANCH   4   8
HETATM    8  C   UNL     1      -7.574   1.264 -34.492  1.00  0.00     0.128 C 
HETATM    9  C   UNL     1      -9.069   0.974 -34.494  1.00  0.00     0.027 C 
ENDBRANCH   4   8
BRANCH   5  10
HETATM   10  C   UNL     1      -6.058  -1.382 -33.536  1.00  0.00     0.012 A 
HETATM   11  C   UNL     1      -4.726  -1.757 -33.785  1.00  0.00     0.015 A 
HETATM   12  C   UNL     1      -4.422  -2.913 -34.507  1.00  0.00     0.001 A 
HETATM   13  C   UNL     1      -5.448  -3.715 -34.998  1.00  0.00     0.000 A 
HETATM   14  C   UNL     1      -6.773  -3.351 -34.779  1.00  0.00     0.001 A 
HETATM   15  C   UNL     1      -7.076  -2.186 -34.063  1.00  0.00     0.015 A 
ENDBRANCH   5  10
ENDBRANCH   2   3
ENDBRANCH   1   2
BRANCH   1  16
HETATM   16  C   UNL     1      -5.841   4.812 -33.418  1.00  0.00     0.227 C 
HETATM   17  N   UNL     1      -4.507   5.157 -33.550  1.00  0.00    -0.360 N 
HETATM   18  H   UNL     1      -3.876   4.881 -32.808  1.00  0.00     0.162 HD
HETATM   19  O   UNL     1      -6.630   4.821 -34.359  1.00  0.00    -0.273 OA
BRANCH  17  20
HETATM   20  C   UNL     1      -3.932   5.430 -34.857  1.00  0.00     0.127 C 
BRANCH  20  21
HETATM   21  C   UNL     1      -2.422   5.197 -34.870  1.00  0.00     0.058 C 
BRANCH  21  22
HETATM   22  C   UNL     1      -1.759   5.726 -33.624  1.00  0.00    -0.057 A 
HETATM   23  C   UNL     1      -1.673   7.104 -33.396  1.00  0.00     0.010 A 
HETATM   24  C   UNL     1      -1.036   7.591 -32.252  1.00  0.00     0.037 A 
HETATM   25  C   UNL     1      -0.473   6.716 -31.320  1.00  0.00     0.068 A 
HETATM   26  C   UNL     1      -0.555   5.341 -31.544  1.00  0.00     0.037 A 
HETATM   27  C   UNL     1      -1.193   4.851 -32.690  1.00  0.00     0.010 A 
BRANCH  25  28
HETATM   28  O   UNL     1       0.121   7.324 -30.249  1.00  0.00    -0.356 OA
HETATM   29  C   UNL     1       0.243   6.553 -29.060  1.00  0.00     0.210 C 
ENDBRANCH  25  28
ENDBRANCH  21  22
ENDBRANCH  20  21
ENDBRANCH  17  20
ENDBRANCH   1  16
TORSDOF 9
ENDMDL
MODEL 6
REMARK VINA RESULT:      -7.7      2.312      3.282
REMARK  9 active torsions:
REMARK  status: ('A' for Active; 'I' for Inactive)
REMARK    1  A    between atoms: C_2  and  N_3 
REMARK    2  A    between atoms: C_4  and  S_5 
REMARK    3  A    between atoms: S_5  and  C_6 
REMARK    4  A    between atoms: C_6  and  C_7 
REMARK       I    between atoms: C_7  and  N_8 
REMARK    5  A    between atoms: N_8  and  C_9 
REMARK    6  A    between atoms: C_9  and  C_10 
REMARK    7  A    between atoms: C_10  and  C_11 
REMARK    8  A    between atoms: C_14  and  O_15 
REMARK    9  A    between atoms: C_22  and  C_23 
ROOT
HETATM    1  C   UNL     1      -3.795   3.110 -31.226  1.00  0.00     0.185 C 
ENDROOT
BRANCH   1   2
HETATM    2  S   UNL     1      -5.148   2.619 -32.334  1.00  0.00    -0.081 SA
BRANCH   2   3
HETATM    3  C   UNL     1      -4.628   1.020 -32.737  1.00  0.00     0.192 A 
HETATM    4  N   UNL     1      -5.412   0.078 -33.356  1.00  0.00    -0.308 N 
HETATM    5  C   UNL     1      -4.621  -1.056 -33.452  1.00  0.00     0.164 A 
HETATM    6  N   UNL     1      -3.440  -0.772 -32.923  1.00  0.00    -0.128 NA
HETATM    7  N   UNL     1      -3.443   0.526 -32.487  1.00  0.00    -0.122 NA
BRANCH   4   8
HETATM    8  C   UNL     1      -6.811   0.223 -33.702  1.00  0.00     0.128 C 
HETATM    9  C   UNL     1      -7.022   0.932 -35.033  1.00  0.00     0.027 C 
ENDBRANCH   4   8
BRANCH   5  10
HETATM   10  C   UNL     1      -4.984  -2.387 -33.958  1.00  0.00     0.012 A 
HETATM   11  C   UNL     1      -6.250  -2.558 -34.544  1.00  0.00     0.015 A 
HETATM   12  C   UNL     1      -6.663  -3.801 -35.027  1.00  0.00     0.001 A 
HETATM   13  C   UNL     1      -5.815  -4.900 -34.929  1.00  0.00     0.000 A 
HETATM   14  C   UNL     1      -4.565  -4.756 -34.335  1.00  0.00     0.001 A 
HETATM   15  C   UNL     1      -4.157  -3.511 -33.842  1.00  0.00     0.015 A 
ENDBRANCH   5  10
ENDBRANCH   2   3
ENDBRANCH   1   2
BRANCH   1  16
HETATM   16  C   UNL     1      -2.775   3.921 -32.006  1.00  0.00     0.227 C 
HETATM   17  N   UNL     1      -1.803   4.522 -31.226  1.00  0.00    -0.360 N 
HETATM   18  H   UNL     1      -1.680   4.175 -30.283  1.00  0.00     0.162 HD
HETATM   19  O   UNL     1      -2.819   4.040 -33.229  1.00  0.00    -0.273 OA
BRANCH  17  20
HETATM   20  C   UNL     1      -0.690   5.232 -31.834  1.00  0.00     0.127 C 
BRANCH  20  21
HETATM   21  C   UNL     1      -0.934   6.741 -31.869  1.00  0.00     0.058 C 
BRANCH  21  22
HETATM   22  C   UNL     1      -0.716   7.379 -30.521  1.00  0.00    -0.057 A 
HETATM   23  C   UNL     1      -1.684   8.227 -29.972  1.00  0.00     0.010 A 
HETATM   24  C   UNL     1      -1.468   8.835 -28.733  1.00  0.00     0.037 A 
HETATM   25  C   UNL     1      -0.286   8.612 -28.024  1.00  0.00     0.068 A 
HETATM   26  C   UNL     1       0.683   7.769 -28.569  1.00  0.00     0.037 A 
HETATM   27  C   UNL     1       0.469   7.158 -29.809  1.00  0.00     0.010 A 
BRANCH  25  28
HETATM   28  O   UNL     1      -0.202   9.270 -26.829  1.00  0.00    -0.356 OA
HETATM   29  C   UNL     1      -1.252   9.044 -25.897  1.00  0.00     0.210 C 
ENDBRANCH  25  28
ENDBRANCH  21  22
ENDBRANCH  20  21
ENDBRANCH  17  20
ENDBRANCH   1  16
TORSDOF 9
ENDMDL
MODEL 7
REMARK VINA RESULT:      -7.6      1.686      2.249
REMARK  9 active torsions:
REMARK  status: ('A' for Active; 'I' for Inactive)
REMARK    1  A    between atoms: C_2  and  N_3 
REMARK    2  A    between atoms: C_4  and  S_5 
REMARK    3  A    between atoms: S_5  and  C_6 
REMARK    4  A    between atoms: C_6  and  C_7 
REMARK       I    between atoms: C_7  and  N_8 
REMARK    5  A    between atoms: N_8  and  C_9 
REMARK    6  A    between atoms: C_9  and  C_10 
REMARK    7  A    between atoms: C_10  and  C_11 
REMARK    8  A    between atoms: C_14  and  O_15 
REMARK    9  A    between atoms: C_22  and  C_23 
ROOT
HETATM    1  C   UNL     1      -9.423   3.664 -33.429  1.00  0.00     0.185 C 
ENDROOT
BRANCH   1   2
HETATM    2  S   UNL     1      -9.457   2.213 -32.337  1.00  0.00    -0.081 SA
BRANCH   2   3
HETATM    3  C   UNL     1      -8.699   1.052 -33.371  1.00  0.00     0.192 A 
HETATM    4  N   UNL     1      -7.881   0.039 -32.937  1.00  0.00    -0.308 N 
HETATM    5  C   UNL     1      -7.470  -0.620 -34.085  1.00  0.00     0.164 A 
HETATM    6  N   UNL     1      -8.034  -0.018 -35.122  1.00  0.00    -0.128 NA
HETATM    7  N   UNL     1      -8.808   1.018 -34.674  1.00  0.00    -0.122 NA
BRANCH   4   8
HETATM    8  C   UNL     1      -7.448  -0.187 -31.574  1.00  0.00     0.128 C 
HETATM    9  C   UNL     1      -6.207   0.614 -31.205  1.00  0.00     0.027 C 
ENDBRANCH   4   8
BRANCH   5  10
HETATM   10  C   UNL     1      -6.520  -1.734 -34.212  1.00  0.00     0.012 A 
HETATM   11  C   UNL     1      -5.161  -1.487 -33.951  1.00  0.00     0.015 A 
HETATM   12  C   UNL     1      -4.205  -2.498 -34.072  1.00  0.00     0.001 A 
HETATM   13  C   UNL     1      -4.592  -3.776 -34.462  1.00  0.00     0.000 A 
HETATM   14  C   UNL     1      -5.930  -4.036 -34.745  1.00  0.00     0.001 A 
HETATM   15  C   UNL     1      -6.885  -3.018 -34.632  1.00  0.00     0.015 A 
ENDBRANCH   5  10
ENDBRANCH   2   3
ENDBRANCH   1   2
BRANCH   1  16
HETATM   16  C   UNL     1      -8.263   4.562 -33.036  1.00  0.00     0.227 C 
HETATM   17  N   UNL     1      -7.157   4.462 -33.863  1.00  0.00    -0.360 N 
HETATM   18  H   UNL     1      -7.289   4.037 -34.772  1.00  0.00     0.162 HD
HETATM   19  O   UNL     1      -8.303   5.307 -32.060  1.00  0.00    -0.273 OA
BRANCH  17  20
HETATM   20  C   UNL     1      -6.013   5.342 -33.689  1.00  0.00     0.127 C 
BRANCH  20  21
HETATM   21  C   UNL     1      -4.830   4.908 -34.554  1.00  0.00     0.058 C 
BRANCH  21  22
HETATM   22  C   UNL     1      -3.538   4.894 -33.778  1.00  0.00    -0.057 A 
HETATM   23  C   UNL     1      -3.476   4.299 -32.513  1.00  0.00     0.010 A 
HETATM   24  C   UNL     1      -2.282   4.310 -31.787  1.00  0.00     0.037 A 
HETATM   25  C   UNL     1      -1.136   4.916 -32.306  1.00  0.00     0.068 A 
HETATM   26  C   UNL     1      -1.194   5.512 -33.565  1.00  0.00     0.037 A 
HETATM   27  C   UNL     1      -2.388   5.502 -34.296  1.00  0.00     0.010 A 
BRANCH  25  28
HETATM   28  O   UNL     1      -0.039   4.857 -31.491  1.00  0.00    -0.356 OA
HETATM   29  C   UNL     1      -0.169   5.434 -30.198  1.00  0.00     0.210 C 
ENDBRANCH  25  28
ENDBRANCH  21  22
ENDBRANCH  20  21
ENDBRANCH  17  20
ENDBRANCH   1  16
TORSDOF 9
ENDMDL
MODEL 8
REMARK VINA RESULT:      -7.5      2.874      8.060
REMARK  9 active torsions:
REMARK  status: ('A' for Active; 'I' for Inactive)
REMARK    1  A    between atoms: C_2  and  N_3 
REMARK    2  A    between atoms: C_4  and  S_5 
REMARK    3  A    between atoms: S_5  and  C_6 
REMARK    4  A    between atoms: C_6  and  C_7 
REMARK       I    between atoms: C_7  and  N_8 
REMARK    5  A    between atoms: N_8  and  C_9 
REMARK    6  A    between atoms: C_9  and  C_10 
REMARK    7  A    between atoms: C_10  and  C_11 
REMARK    8  A    between atoms: C_14  and  O_15 
REMARK    9  A    between atoms: C_22  and  C_23 
ROOT
HETATM    1  C   UNL     1      -7.531   4.445 -33.699  1.00  0.00     0.185 C 
ENDROOT
BRANCH   1   2
HETATM    2  S   UNL     1      -6.180   3.325 -34.169  1.00  0.00    -0.081 SA
BRANCH   2   3
HETATM    3  C   UNL     1      -4.839   4.405 -34.016  1.00  0.00     0.192 A 
HETATM    4  N   UNL     1      -4.035   4.499 -32.907  1.00  0.00    -0.308 N 
HETATM    5  C   UNL     1      -3.123   5.501 -33.195  1.00  0.00     0.164 A 
HETATM    6  N   UNL     1      -3.386   5.950 -34.414  1.00  0.00    -0.128 NA
HETATM    7  N   UNL     1      -4.450   5.259 -34.928  1.00  0.00    -0.122 NA
BRANCH   4   8
HETATM    8  C   UNL     1      -4.211   3.783 -31.661  1.00  0.00     0.128 C 
HETATM    9  C   UNL     1      -3.329   2.547 -31.557  1.00  0.00     0.027 C 
ENDBRANCH   4   8
BRANCH   5  10
HETATM   10  C   UNL     1      -2.081   6.070 -32.329  1.00  0.00     0.012 A 
HETATM   11  C   UNL     1      -0.886   5.351 -32.159  1.00  0.00     0.015 A 
HETATM   12  C   UNL     1       0.135   5.827 -31.334  1.00  0.00     0.001 A 
HETATM   13  C   UNL     1      -0.023   7.034 -30.660  1.00  0.00     0.000 A 
HETATM   14  C   UNL     1      -1.207   7.752 -30.800  1.00  0.00     0.001 A 
HETATM   15  C   UNL     1      -2.234   7.267 -31.620  1.00  0.00     0.015 A 
ENDBRANCH   5  10
ENDBRANCH   2   3
ENDBRANCH   1   2
BRANCH   1  16
HETATM   16  C   UNL     1      -8.799   3.638 -33.480  1.00  0.00     0.227 C 
HETATM   17  N   UNL     1      -8.815   2.412 -34.120  1.00  0.00    -0.360 N 
HETATM   18  H   UNL     1      -7.929   2.038 -34.438  1.00  0.00     0.162 HD
HETATM   19  O   UNL     1      -9.735   4.049 -32.798  1.00  0.00    -0.273 OA
BRANCH  17  20
HETATM   20  C   UNL     1      -9.906   1.474 -33.911  1.00  0.00     0.127 C 
BRANCH  20  21
HETATM   21  C   UNL     1      -9.610   0.510 -32.763  1.00  0.00     0.058 C 
BRANCH  21  22
HETATM   22  C   UNL     1      -8.202  -0.025 -32.824  1.00  0.00    -0.057 A 
HETATM   23  C   UNL     1      -7.786  -0.807 -33.907  1.00  0.00     0.010 A 
HETATM   24  C   UNL     1      -6.487  -1.320 -33.947  1.00  0.00     0.037 A 
HETATM   25  C   UNL     1      -5.586  -1.067 -32.910  1.00  0.00     0.068 A 
HETATM   26  C   UNL     1      -5.998  -0.290 -31.828  1.00  0.00     0.037 A 
HETATM   27  C   UNL     1      -7.298   0.226 -31.785  1.00  0.00     0.010 A 
BRANCH  25  28
HETATM   28  O   UNL     1      -4.351  -1.631 -33.075  1.00  0.00    -0.356 OA
HETATM   29  C   UNL     1      -3.299  -1.117 -32.268  1.00  0.00     0.210 C 
ENDBRANCH  25  28
ENDBRANCH  21  22
ENDBRANCH  20  21
ENDBRANCH  17  20
ENDBRANCH   1  16
TORSDOF 9
ENDMDL
MODEL 9
REMARK VINA RESULT:      -7.3      2.786      8.978
REMARK  9 active torsions:
REMARK  status: ('A' for Active; 'I' for Inactive)
REMARK    1  A    between atoms: C_2  and  N_3 
REMARK    2  A    between atoms: C_4  and  S_5 
REMARK    3  A    between atoms: S_5  and  C_6 
REMARK    4  A    between atoms: C_6  and  C_7 
REMARK       I    between atoms: C_7  and  N_8 
REMARK    5  A    between atoms: N_8  and  C_9 
REMARK    6  A    between atoms: C_9  and  C_10 
REMARK    7  A    between atoms: C_10  and  C_11 
REMARK    8  A    between atoms: C_14  and  O_15 
REMARK    9  A    between atoms: C_22  and  C_23 
ROOT
HETATM    1  C   UNL     1      -7.042   4.178 -32.607  1.00  0.00     0.185 C 
ENDROOT
BRANCH   1   2
HETATM    2  S   UNL     1      -5.820   4.830 -33.783  1.00  0.00    -0.081 SA
BRANCH   2   3
HETATM    3  C   UNL     1      -4.883   5.814 -32.713  1.00  0.00     0.192 A 
HETATM    4  N   UNL     1      -3.546   5.637 -32.463  1.00  0.00    -0.308 N 
HETATM    5  C   UNL     1      -3.212   6.608 -31.532  1.00  0.00     0.164 A 
HETATM    6  N   UNL     1      -4.305   7.312 -31.272  1.00  0.00    -0.128 NA
HETATM    7  N   UNL     1      -5.343   6.821 -32.017  1.00  0.00    -0.122 NA
BRANCH   4   8
HETATM    8  C   UNL     1      -2.713   4.568 -32.974  1.00  0.00     0.128 C 
HETATM    9  C   UNL     1      -2.108   4.886 -34.334  1.00  0.00     0.027 C 
ENDBRANCH   4   8
BRANCH   5  10
HETATM   10  C   UNL     1      -1.928   6.826 -30.852  1.00  0.00     0.012 A 
HETATM   11  C   UNL     1      -0.746   6.719 -31.606  1.00  0.00     0.015 A 
HETATM   12  C   UNL     1       0.508   6.895 -31.016  1.00  0.00     0.001 A 
HETATM   13  C   UNL     1       0.602   7.178 -29.657  1.00  0.00     0.000 A 
HETATM   14  C   UNL     1      -0.556   7.269 -28.889  1.00  0.00     0.001 A 
HETATM   15  C   UNL     1      -1.811   7.082 -29.481  1.00  0.00     0.015 A 
ENDBRANCH   5  10
ENDBRANCH   2   3
ENDBRANCH   1   2
BRANCH   1  16
HETATM   16  C   UNL     1      -6.895   2.669 -32.514  1.00  0.00     0.227 C 
HETATM   17  N   UNL     1      -8.018   1.960 -32.901  1.00  0.00    -0.360 N 
HETATM   18  H   UNL     1      -8.716   2.449 -33.448  1.00  0.00     0.162 HD
HETATM   19  O   UNL     1      -5.865   2.127 -32.120  1.00  0.00    -0.273 OA
BRANCH  17  20
HETATM   20  C   UNL     1      -7.994   0.508 -32.982  1.00  0.00     0.127 C 
BRANCH  20  21
HETATM   21  C   UNL     1      -7.637   0.027 -34.388  1.00  0.00     0.058 C 
BRANCH  21  22
HETATM   22  C   UNL     1      -6.647  -1.109 -34.361  1.00  0.00    -0.057 A 
HETATM   23  C   UNL     1      -5.340  -0.901 -33.910  1.00  0.00     0.010 A 
HETATM   24  C   UNL     1      -4.418  -1.952 -33.909  1.00  0.00     0.037 A 
HETATM   25  C   UNL     1      -4.784  -3.222 -34.361  1.00  0.00     0.068 A 
HETATM   26  C   UNL     1      -6.086  -3.434 -34.814  1.00  0.00     0.037 A 
HETATM   27  C   UNL     1      -7.011  -2.383 -34.815  1.00  0.00     0.010 A 
BRANCH  25  28
HETATM   28  O   UNL     1      -3.786  -4.156 -34.309  1.00  0.00    -0.356 OA
HETATM   29  C   UNL     1      -3.384  -4.595 -33.018  1.00  0.00     0.210 C 
ENDBRANCH  25  28
ENDBRANCH  21  22
ENDBRANCH  20  21
ENDBRANCH  17  20
ENDBRANCH   1  16
TORSDOF 9
ENDMDL
MODEL 10
REMARK VINA RESULT:      -7.1      4.380      7.518
REMARK  9 active torsions:
REMARK  status: ('A' for Active; 'I' for Inactive)
REMARK    1  A    between atoms: C_2  and  N_3 
REMARK    2  A    between atoms: C_4  and  S_5 
REMARK    3  A    between atoms: S_5  and  C_6 
REMARK    4  A    between atoms: C_6  and  C_7 
REMARK       I    between atoms: C_7  and  N_8 
REMARK    5  A    between atoms: N_8  and  C_9 
REMARK    6  A    between atoms: C_9  and  C_10 
REMARK    7  A    between atoms: C_10  and  C_11 
REMARK    8  A    between atoms: C_14  and  O_15 
REMARK    9  A    between atoms: C_22  and  C_23 
ROOT
HETATM    1  C   UNL     1      -6.421   2.510 -31.335  1.00  0.00     0.185 C 
ENDROOT
BRANCH   1   2
HETATM    2  S   UNL     1      -5.664   2.624 -32.983  1.00  0.00    -0.081 SA
BRANCH   2   3
HETATM    3  C   UNL     1      -4.998   1.033 -33.109  1.00  0.00     0.192 A 
HETATM    4  N   UNL     1      -5.604  -0.017 -33.753  1.00  0.00    -0.308 N 
HETATM    5  C   UNL     1      -4.753  -1.097 -33.580  1.00  0.00     0.164 A 
HETATM    6  N   UNL     1      -3.708  -0.681 -32.879  1.00  0.00    -0.128 NA
HETATM    7  N   UNL     1      -3.858   0.649 -32.595  1.00  0.00    -0.122 NA
BRANCH   4   8
HETATM    8  C   UNL     1      -6.918  -0.004 -34.361  1.00  0.00     0.128 C 
HETATM    9  C   UNL     1      -8.032  -0.320 -33.373  1.00  0.00     0.027 C 
ENDBRANCH   4   8
BRANCH   5  10
HETATM   10  C   UNL     1      -4.947  -2.493 -33.995  1.00  0.00     0.012 A 
HETATM   11  C   UNL     1      -3.979  -3.442 -33.623  1.00  0.00     0.015 A 
HETATM   12  C   UNL     1      -4.093  -4.781 -34.002  1.00  0.00     0.001 A 
HETATM   13  C   UNL     1      -5.180  -5.196 -34.766  1.00  0.00     0.000 A 
HETATM   14  C   UNL     1      -6.139  -4.267 -35.161  1.00  0.00     0.001 A 
HETATM   15  C   UNL     1      -6.017  -2.923 -34.789  1.00  0.00     0.015 A 
ENDBRANCH   5  10
ENDBRANCH   2   3
ENDBRANCH   1   2
BRANCH   1  16
HETATM   16  C   UNL     1      -7.863   2.980 -31.411  1.00  0.00     0.227 C 
HETATM   17  N   UNL     1      -8.029   4.227 -31.988  1.00  0.00    -0.360 N 
HETATM   18  H   UNL     1      -7.262   4.594 -32.538  1.00  0.00     0.162 HD
HETATM   19  O   UNL     1      -8.801   2.310 -30.985  1.00  0.00    -0.273 OA
BRANCH  17  20
HETATM   20  C   UNL     1      -9.357   4.762 -32.240  1.00  0.00     0.127 C 
BRANCH  20  21
HETATM   21  C   UNL     1      -9.774   4.574 -33.699  1.00  0.00     0.058 C 
BRANCH  21  22
HETATM   22  C   UNL     1     -10.821   3.502 -33.853  1.00  0.00    -0.057 A 
HETATM   23  C   UNL     1     -10.451   2.182 -34.133  1.00  0.00     0.010 A 
HETATM   24  C   UNL     1     -11.426   1.196 -34.299  1.00  0.00     0.037 A 
HETATM   25  C   UNL     1     -12.783   1.509 -34.193  1.00  0.00     0.068 A 
HETATM   26  C   UNL     1     -13.158   2.824 -33.916  1.00  0.00     0.037 A 
HETATM   27  C   UNL     1     -12.182   3.814 -33.749  1.00  0.00     0.010 A 
BRANCH  25  28
HETATM   28  O   UNL     1     -13.631   0.452 -34.380  1.00  0.00    -0.356 OA
HETATM   29  C   UNL     1     -15.024   0.722 -34.290  1.00  0.00     0.210 C 
ENDBRANCH  25  28
ENDBRANCH  21  22
ENDBRANCH  20  21
ENDBRANCH  17  20
ENDBRANCH   1  16
TORSDOF 9
ENDMDL
