MODEL 1
REMARK VINA RESULT:      -9.9      0.000      0.000
REMARK  7 active torsions:
REMARK  status: ('A' for Active; 'I' for Inactive)
REMARK    1  A    between atoms: C_2  and  C_3 
REMARK    2  A    between atoms: C_4  and  N_5 
REMARK       I    between atoms: N_5  and  C_6 
REMARK    3  A    between atoms: C_6  and  C_7 
REMARK    4  A    between atoms: C_8  and  N_9 
REMARK       I    between atoms: N_9  and  C_10 
REMARK    5  A    between atoms: C_10  and  C_11 
REMARK    6  A    between atoms: C_11  and  N_12 
REMARK    7  A    between atoms: C_25  and  C_26 
ROOT
HETATM    1  C   UNL     1      -7.097   1.653 -33.767  1.00  0.00     0.073 A 
HETATM    2  C   UNL     1      -8.227   2.434 -33.909  1.00  0.00     0.093 A 
HETATM    3  S   UNL     1      -8.069   3.996 -33.272  1.00  0.00    -0.075 SA
HETATM    4  C   UNL     1      -6.543   3.624 -32.633  1.00  0.00    -0.008 A 
HETATM    5  C   UNL     1      -6.106   2.359 -32.977  1.00  0.00    -0.026 A 
HETATM    6  C   UNL     1      -4.714   1.896 -32.647  1.00  0.00     0.041 C 
HETATM    7  C   UNL     1      -3.935   2.886 -31.760  1.00  0.00     0.010 C 
HETATM    8  C   UNL     1      -4.247   4.398 -31.958  1.00  0.00    -0.002 C 
HETATM    9  C   UNL     1      -5.774   4.617 -31.826  1.00  0.00     0.052 C 
ENDROOT
BRANCH   1  10
HETATM   10  C   UNL     1      -6.914   0.372 -34.457  1.00  0.00     0.259 C 
HETATM   11  N   UNL     1      -6.721  -0.696 -33.606  1.00  0.00    -0.322 N 
HETATM   12  H   UNL     1      -7.041  -0.564 -32.659  1.00  0.00     0.169 HD
HETATM   13  O   UNL     1      -6.986   0.308 -35.681  1.00  0.00    -0.267 OA
BRANCH  11  14
HETATM   14  C   UNL     1      -6.265  -1.983 -33.971  1.00  0.00     0.041 A 
HETATM   15  C   UNL     1      -4.885  -2.279 -33.944  1.00  0.00    -0.032 A 
HETATM   16  C   UNL     1      -4.447  -3.543 -34.388  1.00  0.00     0.009 A 
HETATM   17  C   UNL     1      -5.351  -4.494 -34.860  1.00  0.00     0.001 A 
HETATM   18  C   UNL     1      -6.709  -4.201 -34.879  1.00  0.00     0.002 A 
HETATM   19  C   UNL     1      -7.162  -2.957 -34.434  1.00  0.00     0.030 A 
BRANCH  15  20
HETATM   20  C   UNL     1      -3.849  -1.353 -33.350  1.00  0.00     0.036 C 
HETATM   21  C   UNL     1      -3.385  -1.848 -31.985  1.00  0.00     0.010 C 
ENDBRANCH  15  20
ENDBRANCH  11  14
ENDBRANCH   1  10
BRANCH   2  22
HETATM   22  N   UNL     1      -9.477   2.217 -34.444  1.00  0.00    -0.319 N 
HETATM   23  C   UNL     1     -10.365   1.384 -33.799  1.00  0.00     0.248 C 
HETATM   24  O   UNL     1     -10.167   0.776 -32.745  1.00  0.00    -0.271 OA
HETATM   25  H   UNL     1      -9.814   2.968 -35.035  1.00  0.00     0.169 HD
BRANCH  23  26
HETATM   26  C   UNL     1     -11.789   1.432 -34.352  1.00  0.00     0.337 C 
BRANCH  26  27
HETATM   27  N   UNL     1     -12.758   1.832 -33.237  1.00  0.00    -0.059 N 
HETATM   28  H   UNL     1     -12.456   1.273 -32.420  1.00  0.00     0.280 HD
HETATM   29  C   UNL     1     -12.627   3.299 -32.839  1.00  0.00     0.261 C 
HETATM   30  C   UNL     1     -13.613   3.620 -31.711  1.00  0.00     0.195 C 
HETATM   31  O   UNL     1     -14.952   3.298 -32.101  1.00  0.00    -0.388 OA
HETATM   32  C   UNL     1     -15.099   1.902 -32.384  1.00  0.00     0.195 C 
HETATM   33  C   UNL     1     -14.199   1.483 -33.553  1.00  0.00     0.261 C 
ENDBRANCH  26  27
ENDBRANCH  23  26
ENDBRANCH   2  22
BRANCH   8  34
HETATM   34  C   UNL     1      -3.552   5.106 -33.185  1.00  0.00    -0.047 C 
HETATM   35  C   UNL     1      -4.380   5.113 -34.480  1.00  0.00     0.015 C 
HETATM   36  C   UNL     1      -3.215   6.578 -32.844  1.00  0.00     0.015 C 
HETATM   37  C   UNL     1      -2.209   4.399 -33.488  1.00  0.00     0.015 C 
ENDBRANCH   8  34
TORSDOF 7
ENDMDL
MODEL 2
REMARK VINA RESULT:      -9.5      1.717      2.495
REMARK  7 active torsions:
REMARK  status: ('A' for Active; 'I' for Inactive)
REMARK    1  A    between atoms: C_2  and  C_3 
REMARK    2  A    between atoms: C_4  and  N_5 
REMARK       I    between atoms: N_5  and  C_6 
REMARK    3  A    between atoms: C_6  and  C_7 
REMARK    4  A    between atoms: C_8  and  N_9 
REMARK       I    between atoms: N_9  and  C_10 
REMARK    5  A    between atoms: C_10  and  C_11 
REMARK    6  A    between atoms: C_11  and  N_12 
REMARK    7  A    between atoms: C_25  and  C_26 
ROOT
HETATM    1  C   UNL     1      -5.917   1.666 -32.255  1.00  0.00     0.073 A 
HETATM    2  C   UNL     1      -7.073   1.842 -32.990  1.00  0.00     0.093 A 
HETATM    3  S   UNL     1      -7.286   3.419 -33.573  1.00  0.00    -0.075 SA
HETATM    4  C   UNL     1      -5.924   3.961 -32.720  1.00  0.00    -0.008 A 
HETATM    5  C   UNL     1      -5.251   2.942 -32.071  1.00  0.00    -0.026 A 
HETATM    6  C   UNL     1      -3.932   3.184 -31.394  1.00  0.00     0.041 C 
HETATM    7  C   UNL     1      -3.530   4.671 -31.351  1.00  0.00     0.010 C 
HETATM    8  C   UNL     1      -3.985   5.553 -32.551  1.00  0.00    -0.002 C 
HETATM    9  C   UNL     1      -5.513   5.395 -32.739  1.00  0.00     0.052 C 
ENDROOT
BRANCH   1  10
HETATM   10  C   UNL     1      -5.402   0.347 -31.871  1.00  0.00     0.259 C 
HETATM   11  N   UNL     1      -4.525  -0.195 -32.787  1.00  0.00    -0.322 N 
HETATM   12  H   UNL     1      -4.088   0.461 -33.416  1.00  0.00     0.169 HD
HETATM   13  O   UNL     1      -5.719  -0.156 -30.798  1.00  0.00    -0.267 OA
BRANCH  11  14
HETATM   14  C   UNL     1      -4.077  -1.535 -32.822  1.00  0.00     0.041 A 
HETATM   15  C   UNL     1      -4.625  -2.440 -33.757  1.00  0.00    -0.032 A 
HETATM   16  C   UNL     1      -4.221  -3.790 -33.721  1.00  0.00     0.009 A 
HETATM   17  C   UNL     1      -3.304  -4.242 -32.775  1.00  0.00     0.001 A 
HETATM   18  C   UNL     1      -2.763  -3.347 -31.860  1.00  0.00     0.002 A 
HETATM   19  C   UNL     1      -3.143  -2.004 -31.886  1.00  0.00     0.030 A 
BRANCH  15  20
HETATM   20  C   UNL     1      -5.541  -2.017 -34.884  1.00  0.00     0.036 C 
HETATM   21  C   UNL     1      -7.005  -2.196 -34.499  1.00  0.00     0.010 C 
ENDBRANCH  15  20
ENDBRANCH  11  14
ENDBRANCH   1  10
BRANCH   2  22
HETATM   22  N   UNL     1      -8.116   1.015 -33.343  1.00  0.00    -0.319 N 
HETATM   23  C   UNL     1      -9.160   0.813 -32.466  1.00  0.00     0.248 C 
HETATM   24  O   UNL     1      -9.281   1.309 -31.345  1.00  0.00    -0.271 OA
HETATM   25  H   UNL     1      -8.261   0.929 -34.342  1.00  0.00     0.169 HD
BRANCH  23  26
HETATM   26  C   UNL     1     -10.361   0.090 -33.073  1.00  0.00     0.337 C 
BRANCH  26  27
HETATM   27  N   UNL     1     -11.455   1.107 -33.410  1.00  0.00    -0.059 N 
HETATM   28  H   UNL     1     -11.538   1.687 -32.557  1.00  0.00     0.280 HD
HETATM   29  C   UNL     1     -11.059   2.046 -34.545  1.00  0.00     0.261 C 
HETATM   30  C   UNL     1     -12.192   3.042 -34.812  1.00  0.00     0.195 C 
HETATM   31  O   UNL     1     -13.414   2.355 -35.100  1.00  0.00    -0.388 OA
HETATM   32  C   UNL     1     -13.837   1.544 -33.998  1.00  0.00     0.195 C 
HETATM   33  C   UNL     1     -12.798   0.461 -33.685  1.00  0.00     0.261 C 
ENDBRANCH  26  27
ENDBRANCH  23  26
ENDBRANCH   2  22
BRANCH   8  34
HETATM   34  C   UNL     1      -3.115   5.459 -33.864  1.00  0.00    -0.047 C 
HETATM   35  C   UNL     1      -3.912   5.174 -35.147  1.00  0.00     0.015 C 
HETATM   36  C   UNL     1      -2.329   6.774 -34.089  1.00  0.00     0.015 C 
HETATM   37  C   UNL     1      -2.065   4.333 -33.701  1.00  0.00     0.015 C 
ENDBRANCH   8  34
TORSDOF 7
ENDMDL
MODEL 3
REMARK VINA RESULT:      -9.4      1.586      1.860
REMARK  7 active torsions:
REMARK  status: ('A' for Active; 'I' for Inactive)
REMARK    1  A    between atoms: C_2  and  C_3 
REMARK    2  A    between atoms: C_4  and  N_5 
REMARK       I    between atoms: N_5  and  C_6 
REMARK    3  A    between atoms: C_6  and  C_7 
REMARK    4  A    between atoms: C_8  and  N_9 
REMARK       I    between atoms: N_9  and  C_10 
REMARK    5  A    between atoms: C_10  and  C_11 
REMARK    6  A    between atoms: C_11  and  N_12 
REMARK    7  A    between atoms: C_25  and  C_26 
ROOT
HETATM    1  C   UNL     1      -6.342   1.425 -31.775  1.00  0.00     0.073 A 
HETATM    2  C   UNL     1      -7.612   1.951 -31.911  1.00  0.00     0.093 A 
HETATM    3  S   UNL     1      -7.651   3.644 -31.983  1.00  0.00    -0.075 SA
HETATM    4  C   UNL     1      -5.989   3.736 -31.663  1.00  0.00    -0.008 A 
HETATM    5  C   UNL     1      -5.381   2.496 -31.596  1.00  0.00    -0.026 A 
HETATM    6  C   UNL     1      -3.888   2.363 -31.482  1.00  0.00     0.041 C 
HETATM    7  C   UNL     1      -3.168   3.709 -31.272  1.00  0.00     0.010 C 
HETATM    8  C   UNL     1      -3.808   4.958 -31.945  1.00  0.00    -0.002 C 
HETATM    9  C   UNL     1      -5.295   5.050 -31.522  1.00  0.00     0.052 C 
ENDROOT
BRANCH   1  10
HETATM   10  C   UNL     1      -6.041  -0.000 -31.946  1.00  0.00     0.259 C 
HETATM   11  N   UNL     1      -5.844  -0.374 -33.259  1.00  0.00    -0.322 N 
HETATM   12  H   UNL     1      -5.604   0.371 -33.894  1.00  0.00     0.169 HD
HETATM   13  O   UNL     1      -5.937  -0.736 -30.968  1.00  0.00    -0.267 OA
BRANCH  11  14
HETATM   14  C   UNL     1      -5.800  -1.698 -33.752  1.00  0.00     0.041 A 
HETATM   15  C   UNL     1      -4.576  -2.402 -33.780  1.00  0.00    -0.032 A 
HETATM   16  C   UNL     1      -4.541  -3.690 -34.349  1.00  0.00     0.009 A 
HETATM   17  C   UNL     1      -5.686  -4.270 -34.891  1.00  0.00     0.001 A 
HETATM   18  C   UNL     1      -6.890  -3.576 -34.857  1.00  0.00     0.002 A 
HETATM   19  C   UNL     1      -6.946  -2.303 -34.288  1.00  0.00     0.030 A 
BRANCH  15  20
HETATM   20  C   UNL     1      -3.312  -1.897 -33.121  1.00  0.00     0.036 C 
HETATM   21  C   UNL     1      -3.029  -2.649 -31.826  1.00  0.00     0.010 C 
ENDBRANCH  15  20
ENDBRANCH  11  14
ENDBRANCH   1  10
BRANCH   2  22
HETATM   22  N   UNL     1      -8.871   1.401 -31.984  1.00  0.00    -0.319 N 
HETATM   23  C   UNL     1      -9.286   0.783 -33.144  1.00  0.00     0.248 C 
HETATM   24  O   UNL     1      -8.631   0.657 -34.181  1.00  0.00    -0.271 OA
HETATM   25  H   UNL     1      -9.259   1.124 -31.089  1.00  0.00     0.169 HD
BRANCH  23  26
HETATM   26  C   UNL     1     -10.589  -0.003 -33.009  1.00  0.00     0.337 C 
BRANCH  26  27
HETATM   27  N   UNL     1     -11.767   0.883 -33.425  1.00  0.00    -0.059 N 
HETATM   28  H   UNL     1     -11.880   1.546 -32.637  1.00  0.00     0.280 HD
HETATM   29  C   UNL     1     -11.467   1.720 -34.664  1.00  0.00     0.261 C 
HETATM   30  C   UNL     1     -12.681   2.590 -35.008  1.00  0.00     0.195 C 
HETATM   31  O   UNL     1     -13.849   1.783 -35.187  1.00  0.00    -0.388 OA
HETATM   32  C   UNL     1     -14.185   1.068 -33.993  1.00  0.00     0.195 C 
HETATM   33  C   UNL     1     -13.058   0.109 -33.593  1.00  0.00     0.261 C 
ENDBRANCH  26  27
ENDBRANCH  23  26
ENDBRANCH   2  22
BRANCH   8  34
HETATM   34  C   UNL     1      -3.515   5.156 -33.484  1.00  0.00    -0.047 C 
HETATM   35  C   UNL     1      -4.724   4.927 -34.405  1.00  0.00     0.015 C 
HETATM   36  C   UNL     1      -2.990   6.586 -33.756  1.00  0.00     0.015 C 
HETATM   37  C   UNL     1      -2.398   4.178 -33.920  1.00  0.00     0.015 C 
ENDBRANCH   8  34
TORSDOF 7
ENDMDL
MODEL 4
REMARK VINA RESULT:      -9.0      1.876      2.933
REMARK  7 active torsions:
REMARK  status: ('A' for Active; 'I' for Inactive)
REMARK    1  A    between atoms: C_2  and  C_3 
REMARK    2  A    between atoms: C_4  and  N_5 
REMARK       I    between atoms: N_5  and  C_6 
REMARK    3  A    between atoms: C_6  and  C_7 
REMARK    4  A    between atoms: C_8  and  N_9 
REMARK       I    between atoms: N_9  and  C_10 
REMARK    5  A    between atoms: C_10  and  C_11 
REMARK    6  A    between atoms: C_11  and  N_12 
REMARK    7  A    between atoms: C_25  and  C_26 
ROOT
HETATM    1  C   UNL     1      -5.510   2.432 -31.438  1.00  0.00     0.073 A 
HETATM    2  C   UNL     1      -6.705   3.122 -31.370  1.00  0.00     0.093 A 
HETATM    3  S   UNL     1      -6.529   4.808 -31.388  1.00  0.00    -0.075 SA
HETATM    4  C   UNL     1      -4.840   4.672 -31.316  1.00  0.00    -0.008 A 
HETATM    5  C   UNL     1      -4.399   3.363 -31.375  1.00  0.00    -0.026 A 
HETATM    6  C   UNL     1      -2.937   3.034 -31.488  1.00  0.00     0.041 C 
HETATM    7  C   UNL     1      -2.021   4.267 -31.350  1.00  0.00     0.010 C 
HETATM    8  C   UNL     1      -2.580   5.617 -31.886  1.00  0.00    -0.002 C 
HETATM    9  C   UNL     1      -3.964   5.878 -31.245  1.00  0.00     0.052 C 
ENDROOT
BRANCH   1  10
HETATM   10  C   UNL     1      -5.430   0.990 -31.690  1.00  0.00     0.259 C 
HETATM   11  N   UNL     1      -5.194   0.668 -33.011  1.00  0.00    -0.322 N 
HETATM   12  H   UNL     1      -4.790   1.400 -33.574  1.00  0.00     0.169 HD
HETATM   13  O   UNL     1      -5.520   0.190 -30.764  1.00  0.00    -0.267 OA
BRANCH  11  14
HETATM   14  C   UNL     1      -5.324  -0.612 -33.595  1.00  0.00     0.041 A 
HETATM   15  C   UNL     1      -6.601  -1.108 -33.937  1.00  0.00    -0.032 A 
HETATM   16  C   UNL     1      -6.714  -2.418 -34.443  1.00  0.00     0.009 A 
HETATM   17  C   UNL     1      -5.591  -3.229 -34.600  1.00  0.00     0.001 A 
HETATM   18  C   UNL     1      -4.336  -2.736 -34.268  1.00  0.00     0.002 A 
HETATM   19  C   UNL     1      -4.203  -1.437 -33.774  1.00  0.00     0.030 A 
BRANCH  15  20
HETATM   20  C   UNL     1      -7.856  -0.265 -33.901  1.00  0.00     0.036 C 
HETATM   21  C   UNL     1      -8.152   0.338 -35.269  1.00  0.00     0.010 C 
ENDBRANCH  15  20
ENDBRANCH  11  14
ENDBRANCH   1  10
BRANCH   2  22
HETATM   22  N   UNL     1      -8.024   2.741 -31.270  1.00  0.00    -0.319 N 
HETATM   23  C   UNL     1      -8.859   2.860 -32.360  1.00  0.00     0.248 C 
HETATM   24  O   UNL     1      -8.553   3.291 -33.473  1.00  0.00    -0.271 OA
HETATM   25  H   UNL     1      -8.203   2.038 -30.561  1.00  0.00     0.169 HD
BRANCH  23  26
HETATM   26  C   UNL     1     -10.212   2.170 -32.195  1.00  0.00     0.337 C 
BRANCH  26  27
HETATM   27  N   UNL     1     -11.072   2.427 -33.435  1.00  0.00    -0.059 N 
HETATM   28  H   UNL     1     -10.437   2.916 -34.091  1.00  0.00     0.280 HD
HETATM   29  C   UNL     1     -11.513   1.140 -34.126  1.00  0.00     0.261 C 
HETATM   30  C   UNL     1     -12.351   1.477 -35.363  1.00  0.00     0.195 C 
HETATM   31  O   UNL     1     -13.471   2.295 -35.010  1.00  0.00    -0.388 OA
HETATM   32  C   UNL     1     -13.057   3.544 -34.447  1.00  0.00     0.195 C 
HETATM   33  C   UNL     1     -12.260   3.326 -33.155  1.00  0.00     0.261 C 
ENDBRANCH  26  27
ENDBRANCH  23  26
ENDBRANCH   2  22
BRANCH   8  34
HETATM   34  C   UNL     1      -2.487   5.847 -33.445  1.00  0.00    -0.047 C 
HETATM   35  C   UNL     1      -3.803   5.629 -34.209  1.00  0.00     0.015 C 
HETATM   36  C   UNL     1      -2.007   7.286 -33.753  1.00  0.00     0.015 C 
HETATM   37  C   UNL     1      -1.431   4.886 -34.041  1.00  0.00     0.015 C 
ENDBRANCH   8  34
TORSDOF 7
ENDMDL
MODEL 5
REMARK VINA RESULT:      -8.8      2.538      7.031
REMARK  7 active torsions:
REMARK  status: ('A' for Active; 'I' for Inactive)
REMARK    1  A    between atoms: C_2  and  C_3 
REMARK    2  A    between atoms: C_4  and  N_5 
REMARK       I    between atoms: N_5  and  C_6 
REMARK    3  A    between atoms: C_6  and  C_7 
REMARK    4  A    between atoms: C_8  and  N_9 
REMARK       I    between atoms: N_9  and  C_10 
REMARK    5  A    between atoms: C_10  and  C_11 
REMARK    6  A    between atoms: C_11  and  N_12 
REMARK    7  A    between atoms: C_25  and  C_26 
ROOT
HETATM    1  C   UNL     1      -7.848   2.190 -33.675  1.00  0.00     0.073 A 
HETATM    2  C   UNL     1      -7.125   3.360 -33.550  1.00  0.00     0.093 A 
HETATM    3  S   UNL     1      -8.043   4.765 -33.789  1.00  0.00    -0.075 SA
HETATM    4  C   UNL     1      -9.400   3.851 -34.235  1.00  0.00    -0.008 A 
HETATM    5  C   UNL     1      -9.197   2.488 -34.115  1.00  0.00    -0.026 A 
HETATM    6  C   UNL     1     -10.323   1.511 -34.305  1.00  0.00     0.041 C 
HETATM    7  C   UNL     1     -11.624   2.167 -34.809  1.00  0.00     0.010 C 
HETATM    8  C   UNL     1     -11.902   3.623 -34.334  1.00  0.00    -0.002 C 
HETATM    9  C   UNL     1     -10.672   4.503 -34.663  1.00  0.00     0.052 C 
ENDROOT
BRANCH   1  10
HETATM   10  C   UNL     1      -7.330   0.880 -33.266  1.00  0.00     0.259 C 
HETATM   11  N   UNL     1      -6.467   0.313 -34.181  1.00  0.00    -0.322 N 
HETATM   12  H   UNL     1      -6.038   0.953 -34.831  1.00  0.00     0.169 HD
HETATM   13  O   UNL     1      -7.633   0.403 -32.177  1.00  0.00    -0.267 OA
BRANCH  11  14
HETATM   14  C   UNL     1      -6.022  -1.028 -34.190  1.00  0.00     0.041 A 
HETATM   15  C   UNL     1      -4.732  -1.350 -33.716  1.00  0.00    -0.032 A 
HETATM   16  C   UNL     1      -4.281  -2.682 -33.808  1.00  0.00     0.009 A 
HETATM   17  C   UNL     1      -5.082  -3.676 -34.366  1.00  0.00     0.001 A 
HETATM   18  C   UNL     1      -6.354  -3.357 -34.825  1.00  0.00     0.002 A 
HETATM   19  C   UNL     1      -6.822  -2.045 -34.734  1.00  0.00     0.030 A 
BRANCH  15  20
HETATM   20  C   UNL     1      -3.839  -0.361 -33.001  1.00  0.00     0.036 C 
HETATM   21  C   UNL     1      -4.109  -0.361 -31.500  1.00  0.00     0.010 C 
ENDBRANCH  15  20
ENDBRANCH  11  14
ENDBRANCH   1  10
BRANCH   2  22
HETATM   22  N   UNL     1      -5.803   3.644 -33.290  1.00  0.00    -0.319 N 
HETATM   23  C   UNL     1      -5.365   3.741 -31.987  1.00  0.00     0.248 C 
HETATM   24  O   UNL     1      -6.048   3.599 -30.972  1.00  0.00    -0.271 OA
HETATM   25  H   UNL     1      -5.164   3.369 -34.027  1.00  0.00     0.169 HD
BRANCH  23  26
HETATM   26  C   UNL     1      -3.845   3.803 -31.837  1.00  0.00     0.337 C 
BRANCH  26  27
HETATM   27  N   UNL     1      -3.289   4.927 -32.714  1.00  0.00    -0.059 N 
HETATM   28  H   UNL     1      -4.095   5.225 -33.292  1.00  0.00     0.280 HD
HETATM   29  C   UNL     1      -2.853   6.146 -31.907  1.00  0.00     0.261 C 
HETATM   30  C   UNL     1      -2.326   7.231 -32.851  1.00  0.00     0.195 C 
HETATM   31  O   UNL     1      -1.259   6.726 -33.660  1.00  0.00    -0.388 OA
HETATM   32  C   UNL     1      -1.691   5.641 -34.488  1.00  0.00     0.195 C 
HETATM   33  C   UNL     1      -2.180   4.463 -33.637  1.00  0.00     0.261 C 
ENDBRANCH  26  27
ENDBRANCH  23  26
ENDBRANCH   2  22
BRANCH   8  34
HETATM   34  C   UNL     1     -12.500   3.788 -32.883  1.00  0.00    -0.047 C 
HETATM   35  C   UNL     1     -11.461   3.762 -31.750  1.00  0.00     0.015 C 
HETATM   36  C   UNL     1     -13.280   5.120 -32.765  1.00  0.00     0.015 C 
HETATM   37  C   UNL     1     -13.515   2.650 -32.617  1.00  0.00     0.015 C 
ENDBRANCH   8  34
TORSDOF 7
ENDMDL
MODEL 6
REMARK VINA RESULT:      -8.7      2.000      2.668
REMARK  7 active torsions:
REMARK  status: ('A' for Active; 'I' for Inactive)
REMARK    1  A    between atoms: C_2  and  C_3 
REMARK    2  A    between atoms: C_4  and  N_5 
REMARK       I    between atoms: N_5  and  C_6 
REMARK    3  A    between atoms: C_6  and  C_7 
REMARK    4  A    between atoms: C_8  and  N_9 
REMARK       I    between atoms: N_9  and  C_10 
REMARK    5  A    between atoms: C_10  and  C_11 
REMARK    6  A    between atoms: C_11  and  N_12 
REMARK    7  A    between atoms: C_25  and  C_26 
ROOT
HETATM    1  C   UNL     1      -5.847   3.095 -32.120  1.00  0.00     0.073 A 
HETATM    2  C   UNL     1      -6.872   3.806 -31.528  1.00  0.00     0.093 A 
HETATM    3  S   UNL     1      -6.365   5.215 -30.733  1.00  0.00    -0.075 SA
HETATM    4  C   UNL     1      -4.736   4.830 -31.009  1.00  0.00    -0.008 A 
HETATM    5  C   UNL     1      -4.571   3.694 -31.780  1.00  0.00    -0.026 A 
HETATM    6  C   UNL     1      -3.214   3.274 -32.272  1.00  0.00     0.041 C 
HETATM    7  C   UNL     1      -2.064   4.117 -31.687  1.00  0.00     0.010 C 
HETATM    8  C   UNL     1      -2.375   5.612 -31.384  1.00  0.00    -0.002 C 
HETATM    9  C   UNL     1      -3.634   5.691 -30.487  1.00  0.00     0.052 C 
ENDROOT
BRANCH   1  10
HETATM   10  C   UNL     1      -6.073   1.997 -33.065  1.00  0.00     0.259 C 
HETATM   11  N   UNL     1      -5.947   0.744 -32.502  1.00  0.00    -0.322 N 
HETATM   12  H   UNL     1      -6.042   0.703 -31.500  1.00  0.00     0.169 HD
HETATM   13  O   UNL     1      -6.394   2.231 -34.226  1.00  0.00    -0.267 OA
BRANCH  11  14
HETATM   14  C   UNL     1      -5.849  -0.480 -33.203  1.00  0.00     0.041 A 
HETATM   15  C   UNL     1      -4.582  -1.011 -33.527  1.00  0.00    -0.032 A 
HETATM   16  C   UNL     1      -4.510  -2.191 -34.295  1.00  0.00     0.009 A 
HETATM   17  C   UNL     1      -5.665  -2.830 -34.743  1.00  0.00     0.001 A 
HETATM   18  C   UNL     1      -6.910  -2.308 -34.416  1.00  0.00     0.002 A 
HETATM   19  C   UNL     1      -7.001  -1.145 -33.648  1.00  0.00     0.030 A 
BRANCH  15  20
HETATM   20  C   UNL     1      -3.284  -0.446 -32.996  1.00  0.00     0.036 C 
HETATM   21  C   UNL     1      -2.979  -0.985 -31.603  1.00  0.00     0.010 C 
ENDBRANCH  15  20
ENDBRANCH  11  14
ENDBRANCH   1  10
BRANCH   2  22
HETATM   22  N   UNL     1      -8.232   3.614 -31.422  1.00  0.00    -0.319 N 
HETATM   23  C   UNL     1      -9.068   4.053 -32.426  1.00  0.00     0.248 C 
HETATM   24  O   UNL     1      -8.730   4.629 -33.461  1.00  0.00    -0.271 OA
HETATM   25  H   UNL     1      -8.498   2.829 -30.839  1.00  0.00     0.169 HD
BRANCH  23  26
HETATM   26  C   UNL     1     -10.508   3.555 -32.309  1.00  0.00     0.337 C 
BRANCH  26  27
HETATM   27  N   UNL     1     -11.035   3.182 -33.697  1.00  0.00    -0.059 N 
HETATM   28  H   UNL     1     -10.202   3.231 -34.310  1.00  0.00     0.280 HD
HETATM   29  C   UNL     1     -11.550   1.748 -33.768  1.00  0.00     0.261 C 
HETATM   30  C   UNL     1     -12.043   1.444 -35.187  1.00  0.00     0.195 C 
HETATM   31  O   UNL     1     -13.045   2.384 -35.587  1.00  0.00    -0.388 OA
HETATM   32  C   UNL     1     -12.537   3.722 -35.611  1.00  0.00     0.195 C 
HETATM   33  C   UNL     1     -12.073   4.156 -34.216  1.00  0.00     0.261 C 
ENDBRANCH  26  27
ENDBRANCH  23  26
ENDBRANCH   2  22
BRANCH   8  34
HETATM   34  C   UNL     1      -2.341   6.601 -32.614  1.00  0.00    -0.047 C 
HETATM   35  C   UNL     1      -3.375   6.302 -33.711  1.00  0.00     0.015 C 
HETATM   36  C   UNL     1      -2.573   8.058 -32.145  1.00  0.00     0.015 C 
HETATM   37  C   UNL     1      -0.938   6.559 -33.264  1.00  0.00     0.015 C 
ENDBRANCH   8  34
TORSDOF 7
ENDMDL
MODEL 7
REMARK VINA RESULT:      -8.5      1.466      1.978
REMARK  7 active torsions:
REMARK  status: ('A' for Active; 'I' for Inactive)
REMARK    1  A    between atoms: C_2  and  C_3 
REMARK    2  A    between atoms: C_4  and  N_5 
REMARK       I    between atoms: N_5  and  C_6 
REMARK    3  A    between atoms: C_6  and  C_7 
REMARK    4  A    between atoms: C_8  and  N_9 
REMARK       I    between atoms: N_9  and  C_10 
REMARK    5  A    between atoms: C_10  and  C_11 
REMARK    6  A    between atoms: C_11  and  N_12 
REMARK    7  A    between atoms: C_25  and  C_26 
ROOT
HETATM    1  C   UNL     1      -7.103   1.785 -32.235  1.00  0.00     0.073 A 
HETATM    2  C   UNL     1      -8.406   2.000 -31.830  1.00  0.00     0.093 A 
HETATM    3  S   UNL     1      -8.613   3.394 -30.888  1.00  0.00    -0.075 SA
HETATM    4  C   UNL     1      -6.939   3.663 -30.847  1.00  0.00    -0.008 A 
HETATM    5  C   UNL     1      -6.227   2.763 -31.619  1.00  0.00    -0.026 A 
HETATM    6  C   UNL     1      -4.750   2.925 -31.847  1.00  0.00     0.041 C 
HETATM    7  C   UNL     1      -4.122   4.054 -31.006  1.00  0.00     0.010 C 
HETATM    8  C   UNL     1      -5.024   5.288 -30.706  1.00  0.00    -0.002 C 
HETATM    9  C   UNL     1      -6.351   4.799 -30.077  1.00  0.00     0.052 C 
ENDROOT
BRANCH   1  10
HETATM   10  C   UNL     1      -6.732   0.797 -33.254  1.00  0.00     0.259 C 
HETATM   11  N   UNL     1      -6.770  -0.507 -32.804  1.00  0.00    -0.322 N 
HETATM   12  H   UNL     1      -7.335  -0.671 -31.986  1.00  0.00     0.169 HD
HETATM   13  O   UNL     1      -6.470   1.153 -34.399  1.00  0.00    -0.267 OA
BRANCH  11  14
HETATM   14  C   UNL     1      -6.225  -1.632 -33.462  1.00  0.00     0.041 A 
HETATM   15  C   UNL     1      -4.861  -1.956 -33.297  1.00  0.00    -0.032 A 
HETATM   16  C   UNL     1      -4.320  -3.035 -34.024  1.00  0.00     0.009 A 
HETATM   17  C   UNL     1      -5.106  -3.775 -34.905  1.00  0.00     0.001 A 
HETATM   18  C   UNL     1      -6.449  -3.458 -35.061  1.00  0.00     0.002 A 
HETATM   19  C   UNL     1      -7.005  -2.398 -34.342  1.00  0.00     0.030 A 
BRANCH  15  20
HETATM   20  C   UNL     1      -3.963  -1.279 -32.285  1.00  0.00     0.036 C 
HETATM   21  C   UNL     1      -3.134  -0.178 -32.936  1.00  0.00     0.010 C 
ENDBRANCH  15  20
ENDBRANCH  11  14
ENDBRANCH   1  10
BRANCH   2  22
HETATM   22  N   UNL     1      -9.587   1.316 -32.008  1.00  0.00    -0.319 N 
HETATM   23  C   UNL     1     -10.255   1.398 -33.211  1.00  0.00     0.248 C 
HETATM   24  O   UNL     1      -9.905   2.044 -34.200  1.00  0.00    -0.271 OA
HETATM   25  H   UNL     1      -9.688   0.496 -31.421  1.00  0.00     0.169 HD
BRANCH  23  26
HETATM   26  C   UNL     1     -11.401   0.400 -33.365  1.00  0.00     0.337 C 
BRANCH  26  27
HETATM   27  N   UNL     1     -12.710   1.157 -33.607  1.00  0.00    -0.059 N 
HETATM   28  H   UNL     1     -12.611   1.541 -34.564  1.00  0.00     0.280 HD
HETATM   29  C   UNL     1     -13.928   0.239 -33.626  1.00  0.00     0.261 C 
HETATM   30  C   UNL     1     -15.193   1.063 -33.890  1.00  0.00     0.195 C 
HETATM   31  O   UNL     1     -15.333   2.104 -32.918  1.00  0.00    -0.388 OA
HETATM   32  C   UNL     1     -14.234   3.020 -32.963  1.00  0.00     0.195 C 
HETATM   33  C   UNL     1     -12.914   2.308 -32.644  1.00  0.00     0.261 C 
ENDBRANCH  26  27
ENDBRANCH  23  26
ENDBRANCH   2  22
BRANCH   8  34
HETATM   34  C   UNL     1      -5.160   6.357 -31.859  1.00  0.00    -0.047 C 
HETATM   35  C   UNL     1      -4.166   6.186 -33.019  1.00  0.00     0.015 C 
HETATM   36  C   UNL     1      -6.585   6.326 -32.463  1.00  0.00     0.015 C 
HETATM   37  C   UNL     1      -4.955   7.773 -31.269  1.00  0.00     0.015 C 
ENDBRANCH   8  34
TORSDOF 7
ENDMDL
MODEL 8
REMARK VINA RESULT:      -8.2      3.006      7.237
REMARK  7 active torsions:
REMARK  status: ('A' for Active; 'I' for Inactive)
REMARK    1  A    between atoms: C_2  and  C_3 
REMARK    2  A    between atoms: C_4  and  N_5 
REMARK       I    between atoms: N_5  and  C_6 
REMARK    3  A    between atoms: C_6  and  C_7 
REMARK    4  A    between atoms: C_8  and  N_9 
REMARK       I    between atoms: N_9  and  C_10 
REMARK    5  A    between atoms: C_10  and  C_11 
REMARK    6  A    between atoms: C_11  and  N_12 
REMARK    7  A    between atoms: C_25  and  C_26 
ROOT
HETATM    1  C   UNL     1      -6.312   2.115 -33.085  1.00  0.00     0.073 A 
HETATM    2  C   UNL     1      -5.573   3.279 -33.164  1.00  0.00     0.093 A 
HETATM    3  S   UNL     1      -6.479   4.641 -33.607  1.00  0.00    -0.075 SA
HETATM    4  C   UNL     1      -7.856   3.688 -33.874  1.00  0.00    -0.008 A 
HETATM    5  C   UNL     1      -7.667   2.360 -33.540  1.00  0.00    -0.026 A 
HETATM    6  C   UNL     1      -8.809   1.382 -33.549  1.00  0.00     0.041 C 
HETATM    7  C   UNL     1     -10.112   1.969 -34.126  1.00  0.00     0.010 C 
HETATM    8  C   UNL     1     -10.363   3.487 -33.886  1.00  0.00    -0.002 C 
HETATM    9  C   UNL     1      -9.129   4.284 -34.375  1.00  0.00     0.052 C 
ENDROOT
BRANCH   1  10
HETATM   10  C   UNL     1      -5.802   0.879 -32.482  1.00  0.00     0.259 C 
HETATM   11  N   UNL     1      -4.790   0.284 -33.206  1.00  0.00    -0.322 N 
HETATM   12  H   UNL     1      -4.300   0.885 -33.849  1.00  0.00     0.169 HD
HETATM   13  O   UNL     1      -6.238   0.486 -31.404  1.00  0.00    -0.267 OA
BRANCH  11  14
HETATM   14  C   UNL     1      -4.290  -1.025 -33.021  1.00  0.00     0.041 A 
HETATM   15  C   UNL     1      -4.868  -2.108 -33.718  1.00  0.00    -0.032 A 
HETATM   16  C   UNL     1      -4.406  -3.414 -33.458  1.00  0.00     0.009 A 
HETATM   17  C   UNL     1      -3.401  -3.650 -32.521  1.00  0.00     0.001 A 
HETATM   18  C   UNL     1      -2.831  -2.581 -31.842  1.00  0.00     0.002 A 
HETATM   19  C   UNL     1      -3.269  -1.279 -32.093  1.00  0.00     0.030 A 
BRANCH  15  20
HETATM   20  C   UNL     1      -5.884  -1.937 -34.825  1.00  0.00     0.036 C 
HETATM   21  C   UNL     1      -6.799  -3.152 -34.924  1.00  0.00     0.010 C 
ENDBRANCH  15  20
ENDBRANCH  11  14
ENDBRANCH   1  10
BRANCH   2  22
HETATM   22  N   UNL     1      -4.243   3.580 -32.979  1.00  0.00    -0.319 N 
HETATM   23  C   UNL     1      -3.807   4.048 -31.758  1.00  0.00     0.248 C 
HETATM   24  O   UNL     1      -4.501   4.241 -30.758  1.00  0.00    -0.271 OA
HETATM   25  H   UNL     1      -3.611   3.074 -33.589  1.00  0.00     0.169 HD
BRANCH  23  26
HETATM   26  C   UNL     1      -2.287   4.097 -31.608  1.00  0.00     0.337 C 
BRANCH  26  27
HETATM   27  N   UNL     1      -1.763   5.434 -32.139  1.00  0.00    -0.059 N 
HETATM   28  H   UNL     1      -0.891   5.598 -31.606  1.00  0.00     0.280 HD
HETATM   29  C   UNL     1      -1.375   5.373 -33.613  1.00  0.00     0.261 C 
HETATM   30  C   UNL     1      -0.846   6.738 -34.066  1.00  0.00     0.195 C 
HETATM   31  O   UNL     1      -1.812   7.764 -33.818  1.00  0.00    -0.388 OA
HETATM   32  C   UNL     1      -2.108   7.886 -32.422  1.00  0.00     0.195 C 
HETATM   33  C   UNL     1      -2.711   6.587 -31.875  1.00  0.00     0.261 C 
ENDBRANCH  26  27
ENDBRANCH  23  26
ENDBRANCH   2  22
BRANCH   8  34
HETATM   34  C   UNL     1     -10.927   3.891 -32.468  1.00  0.00    -0.047 C 
HETATM   35  C   UNL     1     -10.181   3.270 -31.276  1.00  0.00     0.015 C 
HETATM   36  C   UNL     1     -10.889   5.428 -32.287  1.00  0.00     0.015 C 
HETATM   37  C   UNL     1     -12.411   3.465 -32.369  1.00  0.00     0.015 C 
ENDBRANCH   8  34
TORSDOF 7
ENDMDL
MODEL 9
REMARK VINA RESULT:      -8.1      4.327      9.357
REMARK  7 active torsions:
REMARK  status: ('A' for Active; 'I' for Inactive)
REMARK    1  A    between atoms: C_2  and  C_3 
REMARK    2  A    between atoms: C_4  and  N_5 
REMARK       I    between atoms: N_5  and  C_6 
REMARK    3  A    between atoms: C_6  and  C_7 
REMARK    4  A    between atoms: C_8  and  N_9 
REMARK       I    between atoms: N_9  and  C_10 
REMARK    5  A    between atoms: C_10  and  C_11 
REMARK    6  A    between atoms: C_11  and  N_12 
REMARK    7  A    between atoms: C_25  and  C_26 
ROOT
HETATM    1  C   UNL     1      -5.213   3.366 -31.957  1.00  0.00     0.073 A 
HETATM    2  C   UNL     1      -3.912   3.172 -31.536  1.00  0.00     0.093 A 
HETATM    3  S   UNL     1      -3.499   1.545 -31.302  1.00  0.00    -0.075 SA
HETATM    4  C   UNL     1      -5.097   1.057 -31.592  1.00  0.00    -0.008 A 
HETATM    5  C   UNL     1      -5.924   2.102 -31.959  1.00  0.00    -0.026 A 
HETATM    6  C   UNL     1      -7.335   1.859 -32.415  1.00  0.00     0.041 C 
HETATM    7  C   UNL     1      -7.786   0.393 -32.255  1.00  0.00     0.010 C 
HETATM    8  C   UNL     1      -6.690  -0.698 -32.432  1.00  0.00    -0.002 C 
HETATM    9  C   UNL     1      -5.503  -0.376 -31.493  1.00  0.00     0.052 C 
ENDROOT
BRANCH   1  10
HETATM   10  C   UNL     1      -5.710   4.650 -32.462  1.00  0.00     0.259 C 
HETATM   11  N   UNL     1      -6.410   5.382 -31.525  1.00  0.00    -0.322 N 
HETATM   12  H   UNL     1      -6.235   5.142 -30.562  1.00  0.00     0.169 HD
HETATM   13  O   UNL     1      -5.453   5.011 -33.606  1.00  0.00    -0.267 OA
BRANCH  11  14
HETATM   14  C   UNL     1      -7.218   6.513 -31.783  1.00  0.00     0.041 A 
HETATM   15  C   UNL     1      -8.508   6.351 -32.333  1.00  0.00    -0.032 A 
HETATM   16  C   UNL     1      -9.263   7.497 -32.656  1.00  0.00     0.009 A 
HETATM   17  C   UNL     1      -8.754   8.777 -32.450  1.00  0.00     0.001 A 
HETATM   18  C   UNL     1      -7.486   8.932 -31.902  1.00  0.00     0.002 A 
HETATM   19  C   UNL     1      -6.727   7.809 -31.568  1.00  0.00     0.030 A 
BRANCH  15  20
HETATM   20  C   UNL     1      -9.181   5.006 -32.491  1.00  0.00     0.036 C 
HETATM   21  C   UNL     1      -9.239   4.588 -33.955  1.00  0.00     0.010 C 
ENDBRANCH  15  20
ENDBRANCH  11  14
ENDBRANCH   1  10
BRANCH   2  22
HETATM   22  N   UNL     1      -2.867   4.019 -31.241  1.00  0.00    -0.319 N 
HETATM   23  C   UNL     1      -2.034   4.459 -32.247  1.00  0.00     0.248 C 
HETATM   24  O   UNL     1      -2.113   4.170 -33.442  1.00  0.00    -0.271 OA
HETATM   25  H   UNL     1      -3.006   4.580 -30.408  1.00  0.00     0.169 HD
BRANCH  23  26
HETATM   26  C   UNL     1      -1.085   5.582 -31.832  1.00  0.00     0.337 C 
BRANCH  26  27
HETATM   27  N   UNL     1      -1.188   5.809 -30.322  1.00  0.00    -0.059 N 
HETATM   28  H   UNL     1      -1.731   4.997 -29.977  1.00  0.00     0.280 HD
HETATM   29  C   UNL     1       0.167   5.762 -29.623  1.00  0.00     0.261 C 
HETATM   30  C   UNL     1      -0.018   5.979 -28.118  1.00  0.00     0.195 C 
HETATM   31  O   UNL     1      -0.699   7.211 -27.863  1.00  0.00    -0.388 OA
HETATM   32  C   UNL     1      -2.009   7.220 -28.440  1.00  0.00     0.195 C 
HETATM   33  C   UNL     1      -1.938   7.076 -29.964  1.00  0.00     0.261 C 
ENDBRANCH  26  27
ENDBRANCH  23  26
ENDBRANCH   2  22
BRANCH   8  34
HETATM   34  C   UNL     1      -6.311  -1.082 -33.916  1.00  0.00    -0.047 C 
HETATM   35  C   UNL     1      -6.701  -0.035 -34.972  1.00  0.00     0.015 C 
HETATM   36  C   UNL     1      -4.788  -1.321 -34.042  1.00  0.00     0.015 C 
HETATM   37  C   UNL     1      -7.006  -2.413 -34.292  1.00  0.00     0.015 C 
ENDBRANCH   8  34
TORSDOF 7
ENDMDL
MODEL 10
REMARK VINA RESULT:      -7.9      2.510      3.665
REMARK  7 active torsions:
REMARK  status: ('A' for Active; 'I' for Inactive)
REMARK    1  A    between atoms: C_2  and  C_3 
REMARK    2  A    between atoms: C_4  and  N_5 
REMARK       I    between atoms: N_5  and  C_6 
REMARK    3  A    between atoms: C_6  and  C_7 
REMARK    4  A    between atoms: C_8  and  N_9 
REMARK       I    between atoms: N_9  and  C_10 
REMARK    5  A    between atoms: C_10  and  C_11 
REMARK    6  A    between atoms: C_11  and  N_12 
REMARK    7  A    between atoms: C_25  and  C_26 
ROOT
HETATM    1  C   UNL     1      -5.538   4.736 -32.457  1.00  0.00     0.073 A 
HETATM    2  C   UNL     1      -6.382   5.775 -32.118  1.00  0.00     0.093 A 
HETATM    3  S   UNL     1      -5.649   6.978 -31.175  1.00  0.00    -0.075 SA
HETATM    4  C   UNL     1      -4.226   6.066 -31.046  1.00  0.00    -0.008 A 
HETATM    5  C   UNL     1      -4.261   4.900 -31.789  1.00  0.00    -0.026 A 
HETATM    6  C   UNL     1      -3.044   4.032 -31.939  1.00  0.00     0.041 C 
HETATM    7  C   UNL     1      -1.861   4.479 -31.057  1.00  0.00     0.010 C 
HETATM    8  C   UNL     1      -1.724   6.007 -30.793  1.00  0.00    -0.002 C 
HETATM    9  C   UNL     1      -3.066   6.543 -30.237  1.00  0.00     0.052 C 
ENDROOT
BRANCH   1  10
HETATM   10  C   UNL     1      -5.874   3.725 -33.465  1.00  0.00     0.259 C 
HETATM   11  N   UNL     1      -6.472   2.596 -32.942  1.00  0.00    -0.322 N 
HETATM   12  H   UNL     1      -6.899   2.707 -32.036  1.00  0.00     0.169 HD
HETATM   13  O   UNL     1      -5.667   3.939 -34.655  1.00  0.00    -0.267 OA
BRANCH  11  14
HETATM   14  C   UNL     1      -6.666   1.368 -33.614  1.00  0.00     0.041 A 
HETATM   15  C   UNL     1      -5.700   0.344 -33.509  1.00  0.00    -0.032 A 
HETATM   16  C   UNL     1      -5.876  -0.842 -34.251  1.00  0.00     0.009 A 
HETATM   17  C   UNL     1      -6.978  -1.011 -35.087  1.00  0.00     0.001 A 
HETATM   18  C   UNL     1      -7.930  -0.003 -35.182  1.00  0.00     0.002 A 
HETATM   19  C   UNL     1      -7.777   1.174 -34.448  1.00  0.00     0.030 A 
BRANCH  15  20
HETATM   20  C   UNL     1      -4.534   0.397 -32.548  1.00  0.00     0.036 C 
HETATM   21  C   UNL     1      -4.515  -0.826 -31.638  1.00  0.00     0.010 C 
ENDBRANCH  15  20
ENDBRANCH  11  14
ENDBRANCH   1  10
BRANCH   2  22
HETATM   22  N   UNL     1      -7.710   6.046 -32.362  1.00  0.00    -0.319 N 
HETATM   23  C   UNL     1      -8.688   5.268 -31.782  1.00  0.00     0.248 C 
HETATM   24  O   UNL     1      -8.511   4.307 -31.032  1.00  0.00    -0.271 OA
HETATM   25  H   UNL     1      -7.901   7.011 -32.609  1.00  0.00     0.169 HD
BRANCH  23  26
HETATM   26  C   UNL     1     -10.103   5.826 -31.925  1.00  0.00     0.337 C 
BRANCH  26  27
HETATM   27  N   UNL     1     -10.910   4.940 -32.878  1.00  0.00    -0.059 N 
HETATM   28  H   UNL     1     -11.531   5.600 -33.379  1.00  0.00     0.280 HD
HETATM   29  C   UNL     1     -10.040   4.266 -33.935  1.00  0.00     0.261 C 
HETATM   30  C   UNL     1     -10.917   3.414 -34.859  1.00  0.00     0.195 C 
HETATM   31  O   UNL     1     -11.667   2.456 -34.106  1.00  0.00    -0.388 OA
HETATM   32  C   UNL     1     -12.553   3.091 -33.177  1.00  0.00     0.195 C 
HETATM   33  C   UNL     1     -11.770   3.924 -32.155  1.00  0.00     0.261 C 
ENDBRANCH  26  27
ENDBRANCH  23  26
ENDBRANCH   2  22
BRANCH   8  34
HETATM   34  C   UNL     1      -1.062   6.864 -31.941  1.00  0.00    -0.047 C 
HETATM   35  C   UNL     1      -1.177   6.255 -33.348  1.00  0.00     0.015 C 
HETATM   36  C   UNL     1      -1.691   8.277 -31.996  1.00  0.00     0.015 C 
HETATM   37  C   UNL     1       0.442   7.055 -31.632  1.00  0.00     0.015 C 
ENDBRANCH   8  34
TORSDOF 7
ENDMDL
