MODEL 1
REMARK VINA RESULT:      -8.5      0.000      0.000
REMARK  9 active torsions:
REMARK  status: ('A' for Active; 'I' for Inactive)
REMARK    1  A    between atoms: C_2  and  N_3 
REMARK       I    between atoms: N_3  and  C_4 
REMARK    2  A    between atoms: C_4  and  C_5 
REMARK    3  A    between atoms: C_5  and  S_6 
REMARK    4  A    between atoms: S_6  and  C_7 
REMARK    5  A    between atoms: N_8  and  C_9 
REMARK    6  A    between atoms: C_9  and  C_10 
REMARK    7  A    between atoms: C_10  and  C_11 
REMARK    8  A    between atoms: C_17  and  C_18 
REMARK    9  A    between atoms: C_21  and  O_22 
ROOT
HETATM    1  C   UNL     1      -5.652   1.164 -32.120  1.00  0.00     0.192 A 
HETATM    2  N   UNL     1      -6.609   0.846 -33.051  1.00  0.00    -0.307 N 
HETATM    3  C   UNL     1      -7.814   1.218 -32.481  1.00  0.00     0.164 A 
HETATM    4  N   UNL     1      -7.565   1.677 -31.264  1.00  0.00    -0.128 NA
HETATM    5  N   UNL     1      -6.223   1.614 -31.031  1.00  0.00    -0.122 NA
ENDROOT
BRANCH   1   6
HETATM    6  S   UNL     1      -3.948   1.017 -32.372  1.00  0.00    -0.081 SA
BRANCH   6   7
HETATM    7  C   UNL     1      -3.314   2.339 -31.300  1.00  0.00     0.185 C 
BRANCH   7   8
HETATM    8  C   UNL     1      -3.486   3.703 -31.946  1.00  0.00     0.227 C 
HETATM    9  N   UNL     1      -2.925   3.815 -33.201  1.00  0.00    -0.357 N 
HETATM   10  H   UNL     1      -2.191   3.142 -33.431  1.00  0.00     0.162 HD
HETATM   11  O   UNL     1      -4.096   4.616 -31.394  1.00  0.00    -0.273 OA
BRANCH   9  12
HETATM   12  C   UNL     1      -2.923   5.066 -33.944  1.00  0.00     0.076 C 
HETATM   13  C   UNL     1      -4.107   5.097 -34.905  1.00  0.00     0.032 C 
HETATM   14  C   UNL     1      -1.609   5.252 -34.700  1.00  0.00     0.032 C 
ENDBRANCH   9  12
ENDBRANCH   7   8
ENDBRANCH   6   7
ENDBRANCH   1   6
BRANCH   2  15
HETATM   15  C   UNL     1      -6.377   0.287 -34.370  1.00  0.00     0.137 C 
BRANCH  15  16
HETATM   16  C   UNL     1      -7.162  -1.013 -34.579  1.00  0.00     0.059 C 
BRANCH  16  17
HETATM   17  C   UNL     1      -6.298  -2.250 -34.535  1.00  0.00    -0.057 A 
HETATM   18  C   UNL     1      -4.968  -2.183 -34.098  1.00  0.00     0.007 A 
HETATM   19  C   UNL     1      -4.185  -3.338 -34.029  1.00  0.00     0.001 A 
HETATM   20  C   UNL     1      -4.727  -4.571 -34.387  1.00  0.00     0.000 A 
HETATM   21  C   UNL     1      -6.050  -4.651 -34.814  1.00  0.00     0.001 A 
HETATM   22  C   UNL     1      -6.833  -3.497 -34.887  1.00  0.00     0.007 A 
ENDBRANCH  16  17
ENDBRANCH  15  16
ENDBRANCH   2  15
BRANCH   3  23
HETATM   23  C   UNL     1      -9.145   1.212 -33.089  1.00  0.00     0.012 A 
HETATM   24  C   UNL     1     -10.104   0.228 -32.834  1.00  0.00     0.018 A 
HETATM   25  C   UNL     1     -11.368   0.297 -33.432  1.00  0.00     0.037 A 
HETATM   26  C   UNL     1     -11.708   1.360 -34.271  1.00  0.00     0.068 A 
HETATM   27  C   UNL     1     -10.766   2.354 -34.521  1.00  0.00     0.037 A 
HETATM   28  C   UNL     1      -9.498   2.280 -33.931  1.00  0.00     0.018 A 
BRANCH  26  29
HETATM   29  O   UNL     1     -12.977   1.313 -34.777  1.00  0.00    -0.356 OA
HETATM   30  C   UNL     1     -14.042   1.284 -33.834  1.00  0.00     0.210 C 
ENDBRANCH  26  29
ENDBRANCH   3  23
TORSDOF 9
ENDMDL
MODEL 2
REMARK VINA RESULT:      -8.4      2.062      2.647
REMARK  9 active torsions:
REMARK  status: ('A' for Active; 'I' for Inactive)
REMARK    1  A    between atoms: C_2  and  N_3 
REMARK       I    between atoms: N_3  and  C_4 
REMARK    2  A    between atoms: C_4  and  C_5 
REMARK    3  A    between atoms: C_5  and  S_6 
REMARK    4  A    between atoms: S_6  and  C_7 
REMARK    5  A    between atoms: N_8  and  C_9 
REMARK    6  A    between atoms: C_9  and  C_10 
REMARK    7  A    between atoms: C_10  and  C_11 
REMARK    8  A    between atoms: C_17  and  C_18 
REMARK    9  A    between atoms: C_21  and  O_22 
ROOT
HETATM    1  C   UNL     1      -5.256   2.547 -31.151  1.00  0.00     0.192 A 
HETATM    2  N   UNL     1      -6.074   1.908 -32.047  1.00  0.00    -0.307 N 
HETATM    3  C   UNL     1      -7.363   2.157 -31.610  1.00  0.00     0.164 A 
HETATM    4  N   UNL     1      -7.286   2.859 -30.489  1.00  0.00    -0.128 NA
HETATM    5  N   UNL     1      -5.973   3.074 -30.191  1.00  0.00    -0.122 NA
ENDROOT
BRANCH   1   6
HETATM    6  S   UNL     1      -3.536   2.659 -31.296  1.00  0.00    -0.081 SA
BRANCH   6   7
HETATM    7  C   UNL     1      -3.327   4.413 -31.719  1.00  0.00     0.185 C 
BRANCH   7   8
HETATM    8  C   UNL     1      -1.863   4.758 -31.930  1.00  0.00     0.227 C 
HETATM    9  N   UNL     1      -1.128   4.866 -30.768  1.00  0.00    -0.357 N 
HETATM   10  H   UNL     1      -1.658   5.041 -29.912  1.00  0.00     0.162 HD
HETATM   11  O   UNL     1      -1.381   4.906 -33.051  1.00  0.00    -0.273 OA
BRANCH   9  12
HETATM   12  C   UNL     1       0.271   5.263 -30.765  1.00  0.00     0.076 C 
HETATM   13  C   UNL     1       0.944   4.775 -29.487  1.00  0.00     0.032 C 
HETATM   14  C   UNL     1       0.411   6.778 -30.904  1.00  0.00     0.032 C 
ENDBRANCH   9  12
ENDBRANCH   7   8
ENDBRANCH   6   7
ENDBRANCH   1   6
BRANCH   2  15
HETATM   15  C   UNL     1      -5.656   1.174 -33.228  1.00  0.00     0.137 C 
BRANCH  15  16
HETATM   16  C   UNL     1      -4.854  -0.079 -32.860  1.00  0.00     0.059 C 
BRANCH  16  17
HETATM   17  C   UNL     1      -5.297  -1.315 -33.604  1.00  0.00    -0.057 A 
HETATM   18  C   UNL     1      -4.371  -2.297 -33.983  1.00  0.00     0.007 A 
HETATM   19  C   UNL     1      -4.794  -3.454 -34.642  1.00  0.00     0.001 A 
HETATM   20  C   UNL     1      -6.146  -3.645 -34.919  1.00  0.00     0.000 A 
HETATM   21  C   UNL     1      -7.076  -2.680 -34.539  1.00  0.00     0.001 A 
HETATM   22  C   UNL     1      -6.655  -1.521 -33.884  1.00  0.00     0.007 A 
ENDBRANCH  16  17
ENDBRANCH  15  16
ENDBRANCH   2  15
BRANCH   3  23
HETATM   23  C   UNL     1      -8.627   1.811 -32.264  1.00  0.00     0.012 A 
HETATM   24  C   UNL     1      -9.385   2.722 -33.004  1.00  0.00     0.018 A 
HETATM   25  C   UNL     1     -10.573   2.317 -33.624  1.00  0.00     0.037 A 
HETATM   26  C   UNL     1     -11.012   0.994 -33.540  1.00  0.00     0.068 A 
HETATM   27  C   UNL     1     -10.256   0.074 -32.818  1.00  0.00     0.037 A 
HETATM   28  C   UNL     1      -9.073   0.481 -32.190  1.00  0.00     0.018 A 
BRANCH  26  29
HETATM   29  O   UNL     1     -12.178   0.729 -34.202  1.00  0.00    -0.356 OA
HETATM   30  C   UNL     1     -13.057  -0.212 -33.598  1.00  0.00     0.210 C 
ENDBRANCH  26  29
ENDBRANCH   3  23
TORSDOF 9
ENDMDL
MODEL 3
REMARK VINA RESULT:      -8.3      2.095      7.317
REMARK  9 active torsions:
REMARK  status: ('A' for Active; 'I' for Inactive)
REMARK    1  A    between atoms: C_2  and  N_3 
REMARK       I    between atoms: N_3  and  C_4 
REMARK    2  A    between atoms: C_4  and  C_5 
REMARK    3  A    between atoms: C_5  and  S_6 
REMARK    4  A    between atoms: S_6  and  C_7 
REMARK    5  A    between atoms: N_8  and  C_9 
REMARK    6  A    between atoms: C_9  and  C_10 
REMARK    7  A    between atoms: C_10  and  C_11 
REMARK    8  A    between atoms: C_17  and  C_18 
REMARK    9  A    between atoms: C_21  and  O_22 
ROOT
HETATM    1  C   UNL     1      -8.268   2.029 -32.251  1.00  0.00     0.192 A 
HETATM    2  N   UNL     1      -7.132   2.110 -33.015  1.00  0.00    -0.307 N 
HETATM    3  C   UNL     1      -6.548   3.318 -32.677  1.00  0.00     0.164 A 
HETATM    4  N   UNL     1      -7.337   3.924 -31.803  1.00  0.00    -0.128 NA
HETATM    5  N   UNL     1      -8.422   3.133 -31.563  1.00  0.00    -0.122 NA
ENDROOT
BRANCH   1   6
HETATM    6  S   UNL     1      -9.317   0.656 -32.191  1.00  0.00    -0.081 SA
BRANCH   6   7
HETATM    7  C   UNL     1     -10.431   0.996 -33.585  1.00  0.00     0.185 C 
BRANCH   7   8
HETATM    8  C   UNL     1     -11.823   0.445 -33.326  1.00  0.00     0.227 C 
HETATM    9  N   UNL     1     -12.831   1.385 -33.394  1.00  0.00    -0.357 N 
HETATM   10  H   UNL     1     -12.549   2.360 -33.272  1.00  0.00     0.162 HD
HETATM   11  O   UNL     1     -12.023  -0.746 -33.097  1.00  0.00    -0.273 OA
BRANCH   9  12
HETATM   12  C   UNL     1     -14.218   1.061 -33.101  1.00  0.00     0.076 C 
HETATM   13  C   UNL     1     -14.959   0.745 -34.396  1.00  0.00     0.032 C 
HETATM   14  C   UNL     1     -14.902   2.205 -32.355  1.00  0.00     0.032 C 
ENDBRANCH   9  12
ENDBRANCH   7   8
ENDBRANCH   6   7
ENDBRANCH   1   6
BRANCH   2  15
HETATM   15  C   UNL     1      -6.639   1.104 -33.938  1.00  0.00     0.137 C 
BRANCH  15  16
HETATM   16  C   UNL     1      -5.612   0.181 -33.272  1.00  0.00     0.059 C 
BRANCH  16  17
HETATM   17  C   UNL     1      -5.605  -1.217 -33.839  1.00  0.00    -0.057 A 
HETATM   18  C   UNL     1      -4.426  -1.975 -33.873  1.00  0.00     0.007 A 
HETATM   19  C   UNL     1      -4.435  -3.280 -34.369  1.00  0.00     0.001 A 
HETATM   20  C   UNL     1      -5.624  -3.845 -34.827  1.00  0.00     0.000 A 
HETATM   21  C   UNL     1      -6.804  -3.106 -34.789  1.00  0.00     0.001 A 
HETATM   22  C   UNL     1      -6.796  -1.799 -34.298  1.00  0.00     0.007 A 
ENDBRANCH  16  17
ENDBRANCH  15  16
ENDBRANCH   2  15
BRANCH   3  23
HETATM   23  C   UNL     1      -5.253   3.852 -33.106  1.00  0.00     0.012 A 
HETATM   24  C   UNL     1      -4.044   3.531 -32.482  1.00  0.00     0.018 A 
HETATM   25  C   UNL     1      -2.838   4.059 -32.960  1.00  0.00     0.037 A 
HETATM   26  C   UNL     1      -2.813   4.892 -34.080  1.00  0.00     0.068 A 
HETATM   27  C   UNL     1      -4.011   5.206 -34.718  1.00  0.00     0.037 A 
HETATM   28  C   UNL     1      -5.217   4.686 -34.235  1.00  0.00     0.018 A 
BRANCH  26  29
HETATM   29  O   UNL     1      -1.571   5.326 -34.449  1.00  0.00    -0.356 OA
HETATM   30  C   UNL     1      -1.116   6.540 -33.862  1.00  0.00     0.210 C 
ENDBRANCH  26  29
ENDBRANCH   3  23
TORSDOF 9
ENDMDL
MODEL 4
REMARK VINA RESULT:      -8.3      3.337      7.525
REMARK  9 active torsions:
REMARK  status: ('A' for Active; 'I' for Inactive)
REMARK    1  A    between atoms: C_2  and  N_3 
REMARK       I    between atoms: N_3  and  C_4 
REMARK    2  A    between atoms: C_4  and  C_5 
REMARK    3  A    between atoms: C_5  and  S_6 
REMARK    4  A    between atoms: S_6  and  C_7 
REMARK    5  A    between atoms: N_8  and  C_9 
REMARK    6  A    between atoms: C_9  and  C_10 
REMARK    7  A    between atoms: C_10  and  C_11 
REMARK    8  A    between atoms: C_17  and  C_18 
REMARK    9  A    between atoms: C_21  and  O_22 
ROOT
HETATM    1  C   UNL     1     -10.504   4.402 -34.668  1.00  0.00     0.192 A 
HETATM    2  N   UNL     1      -9.731   3.507 -33.971  1.00  0.00    -0.307 N 
HETATM    3  C   UNL     1      -8.489   4.106 -33.858  1.00  0.00     0.164 A 
HETATM    4  N   UNL     1      -8.532   5.262 -34.503  1.00  0.00    -0.128 NA
HETATM    5  N   UNL     1      -9.778   5.430 -35.030  1.00  0.00    -0.122 NA
ENDROOT
BRANCH   1   6
HETATM    6  S   UNL     1     -12.192   4.204 -34.985  1.00  0.00    -0.081 SA
BRANCH   6   7
HETATM    7  C   UNL     1     -12.896   4.430 -33.326  1.00  0.00     0.185 C 
BRANCH   7   8
HETATM    8  C   UNL     1     -13.649   3.191 -32.872  1.00  0.00     0.227 C 
HETATM    9  N   UNL     1     -13.482   2.091 -33.689  1.00  0.00    -0.357 N 
HETATM   10  H   UNL     1     -13.178   2.280 -34.646  1.00  0.00     0.162 HD
HETATM   11  O   UNL     1     -14.329   3.176 -31.849  1.00  0.00    -0.273 OA
BRANCH   9  12
HETATM   12  C   UNL     1     -14.182   0.837 -33.458  1.00  0.00     0.076 C 
HETATM   13  C   UNL     1     -13.206  -0.329 -33.580  1.00  0.00     0.032 C 
HETATM   14  C   UNL     1     -15.344   0.671 -34.435  1.00  0.00     0.032 C 
ENDBRANCH   9  12
ENDBRANCH   7   8
ENDBRANCH   6   7
ENDBRANCH   1   6
BRANCH   2  15
HETATM   15  C   UNL     1     -10.162   2.231 -33.432  1.00  0.00     0.137 C 
BRANCH  15  16
HETATM   16  C   UNL     1      -9.858   1.078 -34.396  1.00  0.00     0.059 C 
BRANCH  16  17
HETATM   17  C   UNL     1      -8.542   0.395 -34.118  1.00  0.00    -0.057 A 
HETATM   18  C   UNL     1      -7.675   0.050 -35.165  1.00  0.00     0.007 A 
HETATM   19  C   UNL     1      -6.444  -0.553 -34.896  1.00  0.00     0.001 A 
HETATM   20  C   UNL     1      -6.063  -0.807 -33.580  1.00  0.00     0.000 A 
HETATM   21  C   UNL     1      -6.911  -0.460 -32.532  1.00  0.00     0.001 A 
HETATM   22  C   UNL     1      -8.144   0.139 -32.798  1.00  0.00     0.007 A 
ENDBRANCH  16  17
ENDBRANCH  15  16
ENDBRANCH   2  15
BRANCH   3  23
HETATM   23  C   UNL     1      -7.323   3.641 -33.105  1.00  0.00     0.012 A 
HETATM   24  C   UNL     1      -6.151   3.178 -33.710  1.00  0.00     0.018 A 
HETATM   25  C   UNL     1      -5.062   2.771 -32.928  1.00  0.00     0.037 A 
HETATM   26  C   UNL     1      -5.113   2.843 -31.534  1.00  0.00     0.068 A 
HETATM   27  C   UNL     1      -6.270   3.317 -30.922  1.00  0.00     0.037 A 
HETATM   28  C   UNL     1      -7.362   3.715 -31.703  1.00  0.00     0.018 A 
BRANCH  26  29
HETATM   29  O   UNL     1      -3.980   2.428 -30.893  1.00  0.00    -0.356 OA
HETATM   30  C   UNL     1      -3.367   1.240 -31.380  1.00  0.00     0.210 C 
ENDBRANCH  26  29
ENDBRANCH   3  23
TORSDOF 9
ENDMDL
MODEL 5
REMARK VINA RESULT:      -8.3      2.699      7.780
REMARK  9 active torsions:
REMARK  status: ('A' for Active; 'I' for Inactive)
REMARK    1  A    between atoms: C_2  and  N_3 
REMARK       I    between atoms: N_3  and  C_4 
REMARK    2  A    between atoms: C_4  and  C_5 
REMARK    3  A    between atoms: C_5  and  S_6 
REMARK    4  A    between atoms: S_6  and  C_7 
REMARK    5  A    between atoms: N_8  and  C_9 
REMARK    6  A    between atoms: C_9  and  C_10 
REMARK    7  A    between atoms: C_10  and  C_11 
REMARK    8  A    between atoms: C_17  and  C_18 
REMARK    9  A    between atoms: C_21  and  O_22 
ROOT
HETATM    1  C   UNL     1      -9.519   1.986 -33.149  1.00  0.00     0.192 A 
HETATM    2  N   UNL     1      -8.225   1.654 -33.459  1.00  0.00    -0.307 N 
HETATM    3  C   UNL     1      -8.131   0.292 -33.230  1.00  0.00     0.164 A 
HETATM    4  N   UNL     1      -9.298  -0.125 -32.761  1.00  0.00    -0.128 NA
HETATM    5  N   UNL     1     -10.150   0.937 -32.684  1.00  0.00    -0.122 NA
ENDROOT
BRANCH   1   6
HETATM    6  S   UNL     1     -10.213   3.554 -33.374  1.00  0.00    -0.081 SA
BRANCH   6   7
HETATM    7  C   UNL     1     -10.825   3.433 -35.080  1.00  0.00     0.185 C 
BRANCH   7   8
HETATM    8  C   UNL     1     -12.123   2.647 -35.145  1.00  0.00     0.227 C 
HETATM    9  N   UNL     1     -12.720   2.427 -33.920  1.00  0.00    -0.357 N 
HETATM   10  H   UNL     1     -12.111   2.496 -33.102  1.00  0.00     0.162 HD
HETATM   11  O   UNL     1     -12.603   2.263 -36.209  1.00  0.00    -0.273 OA
BRANCH   9  12
HETATM   12  C   UNL     1     -13.927   1.630 -33.775  1.00  0.00     0.076 C 
HETATM   13  C   UNL     1     -14.707   2.093 -32.548  1.00  0.00     0.032 C 
HETATM   14  C   UNL     1     -13.594   0.143 -33.672  1.00  0.00     0.032 C 
ENDBRANCH   9  12
ENDBRANCH   7   8
ENDBRANCH   6   7
ENDBRANCH   1   6
BRANCH   2  15
HETATM   15  C   UNL     1      -7.202   2.549 -33.968  1.00  0.00     0.137 C 
BRANCH  15  16
HETATM   16  C   UNL     1      -6.373   3.162 -32.835  1.00  0.00     0.059 C 
BRANCH  16  17
HETATM   17  C   UNL     1      -5.066   3.754 -33.300  1.00  0.00    -0.057 A 
HETATM   18  C   UNL     1      -5.028   4.671 -34.361  1.00  0.00     0.007 A 
HETATM   19  C   UNL     1      -3.817   5.239 -34.763  1.00  0.00     0.001 A 
HETATM   20  C   UNL     1      -2.636   4.907 -34.104  1.00  0.00     0.000 A 
HETATM   21  C   UNL     1      -2.662   4.005 -33.043  1.00  0.00     0.001 A 
HETATM   22  C   UNL     1      -3.871   3.432 -32.642  1.00  0.00     0.007 A 
ENDBRANCH  16  17
ENDBRANCH  15  16
ENDBRANCH   2  15
BRANCH   3  23
HETATM   23  C   UNL     1      -7.005  -0.600 -33.512  1.00  0.00     0.012 A 
HETATM   24  C   UNL     1      -5.792  -0.551 -32.820  1.00  0.00     0.018 A 
HETATM   25  C   UNL     1      -4.765  -1.453 -33.126  1.00  0.00     0.037 A 
HETATM   26  C   UNL     1      -4.937  -2.432 -34.106  1.00  0.00     0.068 A 
HETATM   27  C   UNL     1      -6.147  -2.499 -34.792  1.00  0.00     0.037 A 
HETATM   28  C   UNL     1      -7.171  -1.592 -34.493  1.00  0.00     0.018 A 
BRANCH  26  29
HETATM   29  O   UNL     1      -3.862  -3.255 -34.296  1.00  0.00    -0.356 OA
HETATM   30  C   UNL     1      -4.052  -4.634 -34.005  1.00  0.00     0.210 C 
ENDBRANCH  26  29
ENDBRANCH   3  23
TORSDOF 9
ENDMDL
MODEL 6
REMARK VINA RESULT:      -8.2      2.999      4.938
REMARK  9 active torsions:
REMARK  status: ('A' for Active; 'I' for Inactive)
REMARK    1  A    between atoms: C_2  and  N_3 
REMARK       I    between atoms: N_3  and  C_4 
REMARK    2  A    between atoms: C_4  and  C_5 
REMARK    3  A    between atoms: C_5  and  S_6 
REMARK    4  A    between atoms: S_6  and  C_7 
REMARK    5  A    between atoms: N_8  and  C_9 
REMARK    6  A    between atoms: C_9  and  C_10 
REMARK    7  A    between atoms: C_10  and  C_11 
REMARK    8  A    between atoms: C_17  and  C_18 
REMARK    9  A    between atoms: C_21  and  O_22 
ROOT
HETATM    1  C   UNL     1      -3.153   5.116 -33.762  1.00  0.00     0.192 A 
HETATM    2  N   UNL     1      -4.049   4.423 -32.988  1.00  0.00    -0.307 N 
HETATM    3  C   UNL     1      -5.164   4.244 -33.788  1.00  0.00     0.164 A 
HETATM    4  N   UNL     1      -4.939   4.850 -34.944  1.00  0.00    -0.128 NA
HETATM    5  N   UNL     1      -3.699   5.417 -34.914  1.00  0.00    -0.122 NA
ENDROOT
BRANCH   1   6
HETATM    6  S   UNL     1      -1.535   5.501 -33.288  1.00  0.00    -0.081 SA
BRANCH   6   7
HETATM    7  C   UNL     1      -1.518   7.304 -33.509  1.00  0.00     0.185 C 
BRANCH   7   8
HETATM    8  C   UNL     1      -1.582   8.023 -32.172  1.00  0.00     0.227 C 
HETATM    9  N   UNL     1      -0.974   7.351 -31.132  1.00  0.00    -0.357 N 
HETATM   10  H   UNL     1      -0.850   6.344 -31.255  1.00  0.00     0.162 HD
HETATM   11  O   UNL     1      -2.115   9.124 -32.046  1.00  0.00    -0.273 OA
BRANCH   9  12
HETATM   12  C   UNL     1      -0.998   7.847 -29.765  1.00  0.00     0.076 C 
HETATM   13  C   UNL     1       0.344   7.574 -29.093  1.00  0.00     0.032 C 
HETATM   14  C   UNL     1      -2.138   7.211 -28.972  1.00  0.00     0.032 C 
ENDBRANCH   9  12
ENDBRANCH   7   8
ENDBRANCH   6   7
ENDBRANCH   1   6
BRANCH   2  15
HETATM   15  C   UNL     1      -3.831   3.944 -31.635  1.00  0.00     0.137 C 
BRANCH  15  16
HETATM   16  C   UNL     1      -3.185   2.554 -31.625  1.00  0.00     0.059 C 
BRANCH  16  17
HETATM   17  C   UNL     1      -4.187   1.427 -31.564  1.00  0.00    -0.057 A 
HETATM   18  C   UNL     1      -5.196   1.412 -30.591  1.00  0.00     0.007 A 
HETATM   19  C   UNL     1      -6.139   0.382 -30.563  1.00  0.00     0.001 A 
HETATM   20  C   UNL     1      -6.089  -0.636 -31.512  1.00  0.00     0.000 A 
HETATM   21  C   UNL     1      -5.098  -0.626 -32.490  1.00  0.00     0.001 A 
HETATM   22  C   UNL     1      -4.151   0.400 -32.518  1.00  0.00     0.007 A 
ENDBRANCH  16  17
ENDBRANCH  15  16
ENDBRANCH   2  15
BRANCH   3  23
HETATM   23  C   UNL     1      -6.370   3.466 -33.502  1.00  0.00     0.012 A 
HETATM   24  C   UNL     1      -6.699   2.282 -34.170  1.00  0.00     0.018 A 
HETATM   25  C   UNL     1      -7.858   1.574 -33.829  1.00  0.00     0.037 A 
HETATM   26  C   UNL     1      -8.693   2.017 -32.802  1.00  0.00     0.068 A 
HETATM   27  C   UNL     1      -8.368   3.187 -32.120  1.00  0.00     0.037 A 
HETATM   28  C   UNL     1      -7.214   3.900 -32.467  1.00  0.00     0.018 A 
BRANCH  26  29
HETATM   29  O   UNL     1      -9.782   1.227 -32.562  1.00  0.00    -0.356 OA
HETATM   30  C   UNL     1     -10.888   1.374 -33.445  1.00  0.00     0.210 C 
ENDBRANCH  26  29
ENDBRANCH   3  23
TORSDOF 9
ENDMDL
MODEL 7
REMARK VINA RESULT:      -8.2      1.352      1.771
REMARK  9 active torsions:
REMARK  status: ('A' for Active; 'I' for Inactive)
REMARK    1  A    between atoms: C_2  and  N_3 
REMARK       I    between atoms: N_3  and  C_4 
REMARK    2  A    between atoms: C_4  and  C_5 
REMARK    3  A    between atoms: C_5  and  S_6 
REMARK    4  A    between atoms: S_6  and  C_7 
REMARK    5  A    between atoms: N_8  and  C_9 
REMARK    6  A    between atoms: C_9  and  C_10 
REMARK    7  A    between atoms: C_10  and  C_11 
REMARK    8  A    between atoms: C_17  and  C_18 
REMARK    9  A    between atoms: C_21  and  O_22 
ROOT
HETATM    1  C   UNL     1      -5.576   0.542 -31.735  1.00  0.00     0.192 A 
HETATM    2  N   UNL     1      -6.463   0.500 -32.781  1.00  0.00    -0.307 N 
HETATM    3  C   UNL     1      -7.668   0.935 -32.258  1.00  0.00     0.164 A 
HETATM    4  N   UNL     1      -7.493   1.166 -30.966  1.00  0.00    -0.128 NA
HETATM    5  N   UNL     1      -6.199   0.892 -30.637  1.00  0.00    -0.122 NA
ENDROOT
BRANCH   1   6
HETATM    6  S   UNL     1      -3.884   0.212 -31.866  1.00  0.00    -0.081 SA
BRANCH   6   7
HETATM    7  C   UNL     1      -3.168   1.765 -31.255  1.00  0.00     0.185 C 
BRANCH   7   8
HETATM    8  C   UNL     1      -3.580   2.942 -32.124  1.00  0.00     0.227 C 
HETATM    9  N   UNL     1      -4.889   3.345 -31.956  1.00  0.00    -0.357 N 
HETATM   10  H   UNL     1      -5.528   2.654 -31.556  1.00  0.00     0.162 HD
HETATM   11  O   UNL     1      -2.796   3.493 -32.893  1.00  0.00    -0.273 OA
BRANCH   9  12
HETATM   12  C   UNL     1      -5.486   4.404 -32.754  1.00  0.00     0.076 C 
HETATM   13  C   UNL     1      -6.707   4.967 -32.035  1.00  0.00     0.032 C 
HETATM   14  C   UNL     1      -5.865   3.896 -34.144  1.00  0.00     0.032 C 
ENDBRANCH   9  12
ENDBRANCH   7   8
ENDBRANCH   6   7
ENDBRANCH   1   6
BRANCH   2  15
HETATM   15  C   UNL     1      -6.165   0.122 -34.150  1.00  0.00     0.137 C 
BRANCH  15  16
HETATM   16  C   UNL     1      -6.985  -1.095 -34.592  1.00  0.00     0.059 C 
BRANCH  16  17
HETATM   17  C   UNL     1      -6.206  -2.386 -34.564  1.00  0.00    -0.057 A 
HETATM   18  C   UNL     1      -4.867  -2.410 -34.147  1.00  0.00     0.007 A 
HETATM   19  C   UNL     1      -4.163  -3.615 -34.092  1.00  0.00     0.001 A 
HETATM   20  C   UNL     1      -4.792  -4.808 -34.443  1.00  0.00     0.000 A 
HETATM   21  C   UNL     1      -6.124  -4.798 -34.849  1.00  0.00     0.001 A 
HETATM   22  C   UNL     1      -6.829  -3.594 -34.909  1.00  0.00     0.007 A 
ENDBRANCH  16  17
ENDBRANCH  15  16
ENDBRANCH   2  15
BRANCH   3  23
HETATM   23  C   UNL     1      -8.922   1.198 -32.966  1.00  0.00     0.012 A 
HETATM   24  C   UNL     1      -9.108   2.286 -33.824  1.00  0.00     0.018 A 
HETATM   25  C   UNL     1     -10.328   2.464 -34.489  1.00  0.00     0.037 A 
HETATM   26  C   UNL     1     -11.371   1.549 -34.332  1.00  0.00     0.068 A 
HETATM   27  C   UNL     1     -11.191   0.453 -33.492  1.00  0.00     0.037 A 
HETATM   28  C   UNL     1      -9.975   0.280 -32.820  1.00  0.00     0.018 A 
BRANCH  26  29
HETATM   29  O   UNL     1     -12.500   1.833 -35.048  1.00  0.00    -0.356 OA
HETATM   30  C   UNL     1     -12.693   3.190 -35.429  1.00  0.00     0.210 C 
ENDBRANCH  26  29
ENDBRANCH   3  23
TORSDOF 9
ENDMDL
MODEL 8
REMARK VINA RESULT:      -8.0      3.092      5.435
REMARK  9 active torsions:
REMARK  status: ('A' for Active; 'I' for Inactive)
REMARK    1  A    between atoms: C_2  and  N_3 
REMARK       I    between atoms: N_3  and  C_4 
REMARK    2  A    between atoms: C_4  and  C_5 
REMARK    3  A    between atoms: C_5  and  S_6 
REMARK    4  A    between atoms: S_6  and  C_7 
REMARK    5  A    between atoms: N_8  and  C_9 
REMARK    6  A    between atoms: C_9  and  C_10 
REMARK    7  A    between atoms: C_10  and  C_11 
REMARK    8  A    between atoms: C_17  and  C_18 
REMARK    9  A    between atoms: C_21  and  O_22 
ROOT
HETATM    1  C   UNL     1      -6.017   4.695 -32.452  1.00  0.00     0.192 A 
HETATM    2  N   UNL     1      -6.366   3.380 -32.282  1.00  0.00    -0.307 N 
HETATM    3  C   UNL     1      -6.212   2.795 -33.527  1.00  0.00     0.164 A 
HETATM    4  N   UNL     1      -5.844   3.740 -34.379  1.00  0.00    -0.128 NA
HETATM    5  N   UNL     1      -5.752   4.926 -33.714  1.00  0.00    -0.122 NA
ENDROOT
BRANCH   1   6
HETATM    6  S   UNL     1      -5.914   5.858 -31.177  1.00  0.00    -0.081 SA
BRANCH   6   7
HETATM    7  C   UNL     1      -4.287   5.468 -30.469  1.00  0.00     0.185 C 
BRANCH   7   8
HETATM    8  C   UNL     1      -3.276   6.561 -30.775  1.00  0.00     0.227 C 
HETATM    9  N   UNL     1      -2.123   6.499 -30.021  1.00  0.00    -0.357 N 
HETATM   10  H   UNL     1      -2.184   5.980 -29.142  1.00  0.00     0.162 HD
HETATM   11  O   UNL     1      -3.473   7.411 -31.640  1.00  0.00    -0.273 OA
BRANCH   9  12
HETATM   12  C   UNL     1      -1.074   7.501 -30.119  1.00  0.00     0.076 C 
HETATM   13  C   UNL     1       0.273   6.819 -30.336  1.00  0.00     0.032 C 
HETATM   14  C   UNL     1      -1.038   8.381 -28.871  1.00  0.00     0.032 C 
ENDBRANCH   9  12
ENDBRANCH   7   8
ENDBRANCH   6   7
ENDBRANCH   1   6
BRANCH   2  15
HETATM   15  C   UNL     1      -6.761   2.746 -31.038  1.00  0.00     0.137 C 
BRANCH  15  16
HETATM   16  C   UNL     1      -8.262   2.909 -30.772  1.00  0.00     0.059 C 
BRANCH  16  17
HETATM   17  C   UNL     1      -9.127   2.073 -31.682  1.00  0.00    -0.057 A 
HETATM   18  C   UNL     1      -9.956   2.675 -32.640  1.00  0.00     0.007 A 
HETATM   19  C   UNL     1     -10.729   1.894 -33.502  1.00  0.00     0.001 A 
HETATM   20  C   UNL     1     -10.674   0.504 -33.422  1.00  0.00     0.000 A 
HETATM   21  C   UNL     1      -9.848  -0.106 -32.481  1.00  0.00     0.001 A 
HETATM   22  C   UNL     1      -9.077   0.674 -31.616  1.00  0.00     0.007 A 
ENDBRANCH  16  17
ENDBRANCH  15  16
ENDBRANCH   2  15
BRANCH   3  23
HETATM   23  C   UNL     1      -6.335   1.381 -33.887  1.00  0.00     0.012 A 
HETATM   24  C   UNL     1      -5.607   0.363 -33.265  1.00  0.00     0.018 A 
HETATM   25  C   UNL     1      -5.791  -0.973 -33.644  1.00  0.00     0.037 A 
HETATM   26  C   UNL     1      -6.721  -1.319 -34.626  1.00  0.00     0.068 A 
HETATM   27  C   UNL     1      -7.462  -0.314 -35.241  1.00  0.00     0.037 A 
HETATM   28  C   UNL     1      -7.272   1.023 -34.870  1.00  0.00     0.018 A 
BRANCH  26  29
HETATM   29  O   UNL     1      -6.812  -2.657 -34.889  1.00  0.00    -0.356 OA
HETATM   30  C   UNL     1      -5.587  -3.371 -35.009  1.00  0.00     0.210 C 
ENDBRANCH  26  29
ENDBRANCH   3  23
TORSDOF 9
ENDMDL
MODEL 9
REMARK VINA RESULT:      -8.0      2.647      7.453
REMARK  9 active torsions:
REMARK  status: ('A' for Active; 'I' for Inactive)
REMARK    1  A    between atoms: C_2  and  N_3 
REMARK       I    between atoms: N_3  and  C_4 
REMARK    2  A    between atoms: C_4  and  C_5 
REMARK    3  A    between atoms: C_5  and  S_6 
REMARK    4  A    between atoms: S_6  and  C_7 
REMARK    5  A    between atoms: N_8  and  C_9 
REMARK    6  A    between atoms: C_9  and  C_10 
REMARK    7  A    between atoms: C_10  and  C_11 
REMARK    8  A    between atoms: C_17  and  C_18 
REMARK    9  A    between atoms: C_21  and  O_22 
ROOT
HETATM    1  C   UNL     1      -8.295   2.576 -31.933  1.00  0.00     0.192 A 
HETATM    2  N   UNL     1      -7.229   2.020 -32.593  1.00  0.00    -0.307 N 
HETATM    3  C   UNL     1      -7.349   0.655 -32.400  1.00  0.00     0.164 A 
HETATM    4  N   UNL     1      -8.402   0.443 -31.625  1.00  0.00    -0.128 NA
HETATM    5  N   UNL     1      -8.971   1.642 -31.312  1.00  0.00    -0.122 NA
ENDROOT
BRANCH   1   6
HETATM    6  S   UNL     1      -8.696   4.258 -31.953  1.00  0.00    -0.081 SA
BRANCH   6   7
HETATM    7  C   UNL     1     -10.382   4.232 -31.277  1.00  0.00     0.185 C 
BRANCH   7   8
HETATM    8  C   UNL     1     -11.406   3.948 -32.363  1.00  0.00     0.227 C 
HETATM    9  N   UNL     1     -11.902   2.660 -32.358  1.00  0.00    -0.357 N 
HETATM   10  H   UNL     1     -11.327   1.956 -31.889  1.00  0.00     0.162 HD
HETATM   11  O   UNL     1     -11.771   4.810 -33.160  1.00  0.00    -0.273 OA
BRANCH   9  12
HETATM   12  C   UNL     1     -12.834   2.181 -33.366  1.00  0.00     0.076 C 
HETATM   13  C   UNL     1     -14.262   2.294 -32.843  1.00  0.00     0.032 C 
HETATM   14  C   UNL     1     -12.518   0.741 -33.764  1.00  0.00     0.032 C 
ENDBRANCH   9  12
ENDBRANCH   7   8
ENDBRANCH   6   7
ENDBRANCH   1   6
BRANCH   2  15
HETATM   15  C   UNL     1      -6.227   2.730 -33.366  1.00  0.00     0.137 C 
BRANCH  15  16
HETATM   16  C   UNL     1      -5.006   3.092 -32.512  1.00  0.00     0.059 C 
BRANCH  16  17
HETATM   17  C   UNL     1      -4.009   3.967 -33.231  1.00  0.00    -0.057 A 
HETATM   18  C   UNL     1      -2.684   4.066 -32.783  1.00  0.00     0.007 A 
HETATM   19  C   UNL     1      -1.759   4.852 -33.474  1.00  0.00     0.001 A 
HETATM   20  C   UNL     1      -2.146   5.538 -34.623  1.00  0.00     0.000 A 
HETATM   21  C   UNL     1      -3.456   5.440 -35.083  1.00  0.00     0.001 A 
HETATM   22  C   UNL     1      -4.384   4.658 -34.392  1.00  0.00     0.007 A 
ENDBRANCH  16  17
ENDBRANCH  15  16
ENDBRANCH   2  15
BRANCH   3  23
HETATM   23  C   UNL     1      -6.545  -0.419 -32.987  1.00  0.00     0.012 A 
HETATM   24  C   UNL     1      -6.972  -1.198 -34.067  1.00  0.00     0.018 A 
HETATM   25  C   UNL     1      -6.141  -2.194 -34.594  1.00  0.00     0.037 A 
HETATM   26  C   UNL     1      -4.864  -2.413 -34.075  1.00  0.00     0.068 A 
HETATM   27  C   UNL     1      -4.423  -1.632 -33.009  1.00  0.00     0.037 A 
HETATM   28  C   UNL     1      -5.257  -0.643 -32.475  1.00  0.00     0.018 A 
BRANCH  26  29
HETATM   29  O   UNL     1      -4.152  -3.404 -34.690  1.00  0.00    -0.356 OA
HETATM   30  C   UNL     1      -3.785  -4.521 -33.888  1.00  0.00     0.210 C 
ENDBRANCH  26  29
ENDBRANCH   3  23
TORSDOF 9
ENDMDL
MODEL 10
REMARK VINA RESULT:      -7.9      2.422      5.497
REMARK  9 active torsions:
REMARK  status: ('A' for Active; 'I' for Inactive)
REMARK    1  A    between atoms: C_2  and  N_3 
REMARK       I    between atoms: N_3  and  C_4 
REMARK    2  A    between atoms: C_4  and  C_5 
REMARK    3  A    between atoms: C_5  and  S_6 
REMARK    4  A    between atoms: S_6  and  C_7 
REMARK    5  A    between atoms: N_8  and  C_9 
REMARK    6  A    between atoms: C_9  and  C_10 
REMARK    7  A    between atoms: C_10  and  C_11 
REMARK    8  A    between atoms: C_17  and  C_18 
REMARK    9  A    between atoms: C_21  and  O_22 
ROOT
HETATM    1  C   UNL     1      -4.760   3.052 -31.686  1.00  0.00     0.192 A 
HETATM    2  N   UNL     1      -5.503   2.011 -32.184  1.00  0.00    -0.307 N 
HETATM    3  C   UNL     1      -4.581   1.109 -32.686  1.00  0.00     0.164 A 
HETATM    4  N   UNL     1      -3.373   1.631 -32.532  1.00  0.00    -0.128 NA
HETATM    5  N   UNL     1      -3.490   2.852 -31.936  1.00  0.00    -0.122 NA
ENDROOT
BRANCH   1   6
HETATM    6  S   UNL     1      -5.413   4.404 -30.830  1.00  0.00    -0.081 SA
BRANCH   6   7
HETATM    7  C   UNL     1      -6.065   5.410 -32.194  1.00  0.00     0.185 C 
BRANCH   7   8
HETATM    8  C   UNL     1      -5.088   5.462 -33.357  1.00  0.00     0.227 C 
HETATM    9  N   UNL     1      -3.846   5.971 -33.037  1.00  0.00    -0.357 N 
HETATM   10  H   UNL     1      -3.798   6.555 -32.199  1.00  0.00     0.162 HD
HETATM   11  O   UNL     1      -5.385   5.060 -34.480  1.00  0.00    -0.273 OA
BRANCH   9  12
HETATM   12  C   UNL     1      -2.806   6.168 -34.034  1.00  0.00     0.076 C 
HETATM   13  C   UNL     1      -1.998   4.884 -34.197  1.00  0.00     0.032 C 
HETATM   14  C   UNL     1      -1.895   7.333 -33.652  1.00  0.00     0.032 C 
ENDBRANCH   9  12
ENDBRANCH   7   8
ENDBRANCH   6   7
ENDBRANCH   1   6
BRANCH   2  15
HETATM   15  C   UNL     1      -6.948   1.882 -32.136  1.00  0.00     0.137 C 
BRANCH  15  16
HETATM   16  C   UNL     1      -7.601   2.352 -33.440  1.00  0.00     0.059 C 
BRANCH  16  17
HETATM   17  C   UNL     1      -9.038   1.915 -33.584  1.00  0.00    -0.057 A 
HETATM   18  C   UNL     1      -9.951   2.678 -34.325  1.00  0.00     0.007 A 
HETATM   19  C   UNL     1     -11.271   2.249 -34.481  1.00  0.00     0.001 A 
HETATM   20  C   UNL     1     -11.688   1.050 -33.907  1.00  0.00     0.000 A 
HETATM   21  C   UNL     1     -10.787   0.279 -33.177  1.00  0.00     0.001 A 
HETATM   22  C   UNL     1      -9.468   0.708 -33.016  1.00  0.00     0.007 A 
ENDBRANCH  16  17
ENDBRANCH  15  16
ENDBRANCH   2  15
BRANCH   3  23
HETATM   23  C   UNL     1      -4.823  -0.230 -33.225  1.00  0.00     0.012 A 
HETATM   24  C   UNL     1      -5.855  -0.526 -34.119  1.00  0.00     0.018 A 
HETATM   25  C   UNL     1      -6.014  -1.826 -34.614  1.00  0.00     0.037 A 
HETATM   26  C   UNL     1      -5.134  -2.846 -34.248  1.00  0.00     0.068 A 
HETATM   27  C   UNL     1      -4.093  -2.559 -33.369  1.00  0.00     0.037 A 
HETATM   28  C   UNL     1      -3.939  -1.262 -32.867  1.00  0.00     0.018 A 
BRANCH  26  29
HETATM   29  O   UNL     1      -5.393  -4.063 -34.814  1.00  0.00    -0.356 OA
HETATM   30  C   UNL     1      -6.762  -4.419 -34.968  1.00  0.00     0.210 C 
ENDBRANCH  26  29
ENDBRANCH   3  23
TORSDOF 9
ENDMDL
