MODEL 1
REMARK VINA RESULT:      -8.7      0.000      0.000
REMARK  10 active torsions:
REMARK  status: ('A' for Active; 'I' for Inactive)
REMARK    1  A    between atoms: C_2  and  O_3 
REMARK    2  A    between atoms: O_3  and  C_4 
REMARK    3  A    between atoms: C_9  and  C_10 
REMARK    4  A    between atoms: C_10  and  O_11 
REMARK    5  A    between atoms: O_11  and  C_12 
REMARK    6  A    between atoms: C_12  and  C_13 
REMARK       I    between atoms: C_13  and  N_14 
REMARK    7  A    between atoms: N_14  and  C_15 
REMARK    8  A    between atoms: C_16  and  C_17 
REMARK       I    between atoms: C_17  and  N_18 
REMARK    9  A    between atoms: N_18  and  C_19 
REMARK   10  A    between atoms: C_19  and  C_20 
ROOT
HETATM    1  C   UNL     1      -5.061  -1.635 -34.015  1.00  0.00     0.050 A 
HETATM    2  C   UNL     1      -6.445  -1.414 -34.182  1.00  0.00     0.058 A 
HETATM    3  C   UNL     1      -7.296  -2.459 -34.575  1.00  0.00     0.019 A 
HETATM    4  C   UNL     1      -6.777  -3.721 -34.846  1.00  0.00     0.001 A 
HETATM    5  C   UNL     1      -5.408  -3.940 -34.728  1.00  0.00     0.002 A 
HETATM    6  C   UNL     1      -4.558  -2.907 -34.315  1.00  0.00     0.030 A 
ENDROOT
BRANCH   1   7
HETATM    7  N   UNL     1      -4.241  -0.608 -33.478  1.00  0.00    -0.324 N 
HETATM    8  C   UNL     1      -3.937  -0.388 -32.145  1.00  0.00     0.246 C 
HETATM    9  O   UNL     1      -4.160  -1.167 -31.221  1.00  0.00    -0.271 OA
HETATM   10  H   UNL     1      -3.952   0.110 -34.140  1.00  0.00     0.169 HD
BRANCH   8  11
HETATM   11  C   UNL     1      -3.260   0.964 -31.883  1.00  0.00     0.282 C 
BRANCH  11  12
HETATM   12  O   UNL     1      -3.843   2.013 -32.655  1.00  0.00    -0.308 OA
BRANCH  12  13
HETATM   13  C   UNL     1      -3.844   3.219 -32.040  1.00  0.00     0.298 C 
HETATM   14  O   UNL     1      -4.328   3.439 -30.938  1.00  0.00    -0.259 OA
BRANCH  13  15
HETATM   15  C   UNL     1      -3.261   4.288 -32.878  1.00  0.00     0.092 A 
HETATM   16  C   UNL     1      -3.917   4.924 -33.930  1.00  0.00     0.180 A 
HETATM   17  N   UNL     1      -3.334   5.890 -34.688  1.00  0.00    -0.236 NA
HETATM   18  C   UNL     1      -2.058   6.224 -34.401  1.00  0.00     0.119 A 
HETATM   19  C   UNL     1      -1.321   5.641 -33.388  1.00  0.00     0.020 A 
HETATM   20  C   UNL     1      -1.934   4.657 -32.618  1.00  0.00     0.023 A 
BRANCH  16  21
HETATM   21  O   UNL     1      -5.197   4.534 -34.258  1.00  0.00    -0.334 OA
BRANCH  21  22
HETATM   22  C   UNL     1      -6.225   5.314 -33.648  1.00  0.00     0.173 C 
HETATM   23  C   UNL     1      -7.494   4.481 -33.628  1.00  0.00     0.034 C 
ENDBRANCH  21  22
ENDBRANCH  16  21
ENDBRANCH  13  15
ENDBRANCH  12  13
ENDBRANCH  11  12
ENDBRANCH   8  11
ENDBRANCH   1   7
BRANCH   2  24
HETATM   24  C   UNL     1      -7.079  -0.077 -34.029  1.00  0.00     0.254 C 
HETATM   25  N   UNL     1      -8.235  -0.059 -33.278  1.00  0.00    -0.349 N 
HETATM   26  H   UNL     1      -8.585  -0.928 -32.892  1.00  0.00     0.163 HD
HETATM   27  O   UNL     1      -6.552   0.920 -34.504  1.00  0.00    -0.268 OA
BRANCH  25  28
HETATM   28  C   UNL     1      -8.994   1.157 -33.045  1.00  0.00     0.114 C 
HETATM   29  C   UNL     1      -8.881   1.570 -31.575  1.00  0.00     0.037 C 
BRANCH  28  30
HETATM   30  C   UNL     1     -10.421   0.966 -33.528  1.00  0.00    -0.036 A 
HETATM   31  C   UNL     1     -11.245  -0.080 -33.085  1.00  0.00     0.009 A 
HETATM   32  C   UNL     1     -12.551  -0.211 -33.567  1.00  0.00     0.001 A 
HETATM   33  C   UNL     1     -13.046   0.692 -34.506  1.00  0.00     0.000 A 
HETATM   34  C   UNL     1     -12.236   1.723 -34.971  1.00  0.00     0.001 A 
HETATM   35  C   UNL     1     -10.932   1.854 -34.491  1.00  0.00     0.009 A 
ENDBRANCH  28  30
ENDBRANCH  25  28
ENDBRANCH   2  24
TORSDOF 10
ENDMDL
MODEL 2
REMARK VINA RESULT:      -8.6      1.876      5.528
REMARK  10 active torsions:
REMARK  status: ('A' for Active; 'I' for Inactive)
REMARK    1  A    between atoms: C_2  and  O_3 
REMARK    2  A    between atoms: O_3  and  C_4 
REMARK    3  A    between atoms: C_9  and  C_10 
REMARK    4  A    between atoms: C_10  and  O_11 
REMARK    5  A    between atoms: O_11  and  C_12 
REMARK    6  A    between atoms: C_12  and  C_13 
REMARK       I    between atoms: C_13  and  N_14 
REMARK    7  A    between atoms: N_14  and  C_15 
REMARK    8  A    between atoms: C_16  and  C_17 
REMARK       I    between atoms: C_17  and  N_18 
REMARK    9  A    between atoms: N_18  and  C_19 
REMARK   10  A    between atoms: C_19  and  C_20 
ROOT
HETATM    1  C   UNL     1      -8.315   1.846 -31.601  1.00  0.00     0.050 A 
HETATM    2  C   UNL     1      -7.874   0.645 -32.196  1.00  0.00     0.058 A 
HETATM    3  C   UNL     1      -8.672  -0.023 -33.140  1.00  0.00     0.019 A 
HETATM    4  C   UNL     1      -9.930   0.473 -33.471  1.00  0.00     0.001 A 
HETATM    5  C   UNL     1     -10.393   1.632 -32.857  1.00  0.00     0.002 A 
HETATM    6  C   UNL     1      -9.594   2.313 -31.932  1.00  0.00     0.030 A 
ENDROOT
BRANCH   1   7
HETATM    7  N   UNL     1      -7.438   2.582 -30.761  1.00  0.00    -0.324 N 
HETATM    8  C   UNL     1      -6.791   3.769 -31.060  1.00  0.00     0.246 C 
HETATM    9  O   UNL     1      -7.027   4.491 -32.026  1.00  0.00    -0.271 OA
HETATM   10  H   UNL     1      -7.167   2.115 -29.897  1.00  0.00     0.169 HD
BRANCH   8  11
HETATM   11  C   UNL     1      -5.703   4.149 -30.046  1.00  0.00     0.282 C 
BRANCH  11  12
HETATM   12  O   UNL     1      -4.543   4.686 -30.680  1.00  0.00    -0.308 OA
BRANCH  12  13
HETATM   13  C   UNL     1      -3.817   3.777 -31.369  1.00  0.00     0.298 C 
HETATM   14  O   UNL     1      -3.660   2.611 -31.034  1.00  0.00    -0.259 OA
BRANCH  13  15
HETATM   15  C   UNL     1      -3.151   4.357 -32.555  1.00  0.00     0.092 A 
HETATM   16  C   UNL     1      -1.809   4.723 -32.616  1.00  0.00     0.180 A 
HETATM   17  N   UNL     1      -1.242   5.273 -33.723  1.00  0.00    -0.236 NA
HETATM   18  C   UNL     1      -2.036   5.477 -34.795  1.00  0.00     0.119 A 
HETATM   19  C   UNL     1      -3.381   5.161 -34.826  1.00  0.00     0.020 A 
HETATM   20  C   UNL     1      -3.944   4.594 -33.686  1.00  0.00     0.023 A 
BRANCH  16  21
HETATM   21  O   UNL     1      -1.018   4.571 -31.498  1.00  0.00    -0.334 OA
BRANCH  21  22
HETATM   22  C   UNL     1      -0.886   5.750 -30.704  1.00  0.00     0.173 C 
HETATM   23  C   UNL     1       0.505   6.315 -30.936  1.00  0.00     0.034 C 
ENDBRANCH  21  22
ENDBRANCH  16  21
ENDBRANCH  13  15
ENDBRANCH  12  13
ENDBRANCH  11  12
ENDBRANCH   8  11
ENDBRANCH   1   7
BRANCH   2  24
HETATM   24  C   UNL     1      -6.600  -0.026 -31.826  1.00  0.00     0.254 C 
HETATM   25  N   UNL     1      -5.831  -0.451 -32.888  1.00  0.00    -0.349 N 
HETATM   26  H   UNL     1      -6.168  -0.300 -33.831  1.00  0.00     0.163 HD
HETATM   27  O   UNL     1      -6.266  -0.125 -30.653  1.00  0.00    -0.268 OA
BRANCH  25  28
HETATM   28  C   UNL     1      -4.567  -1.143 -32.708  1.00  0.00     0.114 C 
HETATM   29  C   UNL     1      -3.415  -0.263 -33.199  1.00  0.00     0.037 C 
BRANCH  28  30
HETATM   30  C   UNL     1      -4.634  -2.507 -33.374  1.00  0.00    -0.036 A 
HETATM   31  C   UNL     1      -3.703  -3.527 -33.122  1.00  0.00     0.009 A 
HETATM   32  C   UNL     1      -3.809  -4.763 -33.766  1.00  0.00     0.001 A 
HETATM   33  C   UNL     1      -4.837  -4.992 -34.680  1.00  0.00     0.000 A 
HETATM   34  C   UNL     1      -5.756  -3.985 -34.956  1.00  0.00     0.001 A 
HETATM   35  C   UNL     1      -5.651  -2.751 -34.314  1.00  0.00     0.009 A 
ENDBRANCH  28  30
ENDBRANCH  25  28
ENDBRANCH   2  24
TORSDOF 10
ENDMDL
MODEL 3
REMARK VINA RESULT:      -8.6      1.248      2.369
REMARK  10 active torsions:
REMARK  status: ('A' for Active; 'I' for Inactive)
REMARK    1  A    between atoms: C_2  and  O_3 
REMARK    2  A    between atoms: O_3  and  C_4 
REMARK    3  A    between atoms: C_9  and  C_10 
REMARK    4  A    between atoms: C_10  and  O_11 
REMARK    5  A    between atoms: O_11  and  C_12 
REMARK    6  A    between atoms: C_12  and  C_13 
REMARK       I    between atoms: C_13  and  N_14 
REMARK    7  A    between atoms: N_14  and  C_15 
REMARK    8  A    between atoms: C_16  and  C_17 
REMARK       I    between atoms: C_17  and  N_18 
REMARK    9  A    between atoms: N_18  and  C_19 
REMARK   10  A    between atoms: C_19  and  C_20 
ROOT
HETATM    1  C   UNL     1      -4.917  -1.496 -33.775  1.00  0.00     0.050 A 
HETATM    2  C   UNL     1      -6.256  -1.203 -34.109  1.00  0.00     0.058 A 
HETATM    3  C   UNL     1      -7.090  -2.188 -34.662  1.00  0.00     0.019 A 
HETATM    4  C   UNL     1      -6.591  -3.460 -34.927  1.00  0.00     0.001 A 
HETATM    5  C   UNL     1      -5.261  -3.748 -34.642  1.00  0.00     0.002 A 
HETATM    6  C   UNL     1      -4.431  -2.777 -34.070  1.00  0.00     0.030 A 
ENDROOT
BRANCH   1   7
HETATM    7  N   UNL     1      -4.133  -0.534 -33.084  1.00  0.00    -0.324 N 
HETATM    8  C   UNL     1      -4.274  -0.126 -31.769  1.00  0.00     0.246 C 
HETATM    9  O   UNL     1      -4.969  -0.677 -30.918  1.00  0.00    -0.271 OA
HETATM   10  H   UNL     1      -3.483  -0.006 -33.663  1.00  0.00     0.169 HD
BRANCH   8  11
HETATM   11  C   UNL     1      -3.454   1.124 -31.421  1.00  0.00     0.282 C 
BRANCH  11  12
HETATM   12  O   UNL     1      -3.545   2.123 -32.436  1.00  0.00    -0.308 OA
BRANCH  12  13
HETATM   13  C   UNL     1      -3.660   3.385 -31.963  1.00  0.00     0.298 C 
HETATM   14  O   UNL     1      -4.388   3.719 -31.038  1.00  0.00    -0.259 OA
BRANCH  13  15
HETATM   15  C   UNL     1      -2.862   4.360 -32.736  1.00  0.00     0.092 A 
HETATM   16  C   UNL     1      -1.596   4.816 -32.379  1.00  0.00     0.180 A 
HETATM   17  N   UNL     1      -0.905   5.730 -33.110  1.00  0.00    -0.236 NA
HETATM   18  C   UNL     1      -1.496   6.216 -34.222  1.00  0.00     0.119 A 
HETATM   19  C   UNL     1      -2.755   5.836 -34.651  1.00  0.00     0.020 A 
HETATM   20  C   UNL     1      -3.446   4.896 -33.893  1.00  0.00     0.023 A 
BRANCH  16  21
HETATM   21  O   UNL     1      -1.023   4.364 -31.210  1.00  0.00    -0.334 OA
BRANCH  21  22
HETATM   22  C   UNL     1      -0.460   5.391 -30.393  1.00  0.00     0.173 C 
HETATM   23  C   UNL     1       0.812   4.847 -29.769  1.00  0.00     0.034 C 
ENDBRANCH  21  22
ENDBRANCH  16  21
ENDBRANCH  13  15
ENDBRANCH  12  13
ENDBRANCH  11  12
ENDBRANCH   8  11
ENDBRANCH   1   7
BRANCH   2  24
HETATM   24  C   UNL     1      -6.849   0.154 -33.974  1.00  0.00     0.254 C 
HETATM   25  N   UNL     1      -7.921   0.242 -33.111  1.00  0.00    -0.349 N 
HETATM   26  H   UNL     1      -8.244  -0.594 -32.640  1.00  0.00     0.163 HD
HETATM   27  O   UNL     1      -6.358   1.110 -34.560  1.00  0.00    -0.268 OA
BRANCH  25  28
HETATM   28  C   UNL     1      -8.632   1.486 -32.876  1.00  0.00     0.114 C 
HETATM   29  C   UNL     1      -8.587   1.841 -31.388  1.00  0.00     0.037 C 
BRANCH  28  30
HETATM   30  C   UNL     1     -10.035   1.386 -33.448  1.00  0.00    -0.036 A 
HETATM   31  C   UNL     1     -10.918   0.341 -33.132  1.00  0.00     0.009 A 
HETATM   32  C   UNL     1     -12.198   0.296 -33.692  1.00  0.00     0.001 A 
HETATM   33  C   UNL     1     -12.609   1.285 -34.583  1.00  0.00     0.000 A 
HETATM   34  C   UNL     1     -11.740   2.317 -34.924  1.00  0.00     0.001 A 
HETATM   35  C   UNL     1     -10.462   2.363 -34.366  1.00  0.00     0.009 A 
ENDBRANCH  28  30
ENDBRANCH  25  28
ENDBRANCH   2  24
TORSDOF 10
ENDMDL
MODEL 4
REMARK VINA RESULT:      -8.5      1.730      3.327
REMARK  10 active torsions:
REMARK  status: ('A' for Active; 'I' for Inactive)
REMARK    1  A    between atoms: C_2  and  O_3 
REMARK    2  A    between atoms: O_3  and  C_4 
REMARK    3  A    between atoms: C_9  and  C_10 
REMARK    4  A    between atoms: C_10  and  O_11 
REMARK    5  A    between atoms: O_11  and  C_12 
REMARK    6  A    between atoms: C_12  and  C_13 
REMARK       I    between atoms: C_13  and  N_14 
REMARK    7  A    between atoms: N_14  and  C_15 
REMARK    8  A    between atoms: C_16  and  C_17 
REMARK       I    between atoms: C_17  and  N_18 
REMARK    9  A    between atoms: N_18  and  C_19 
REMARK   10  A    between atoms: C_19  and  C_20 
ROOT
HETATM    1  C   UNL     1      -4.824  -2.446 -34.055  1.00  0.00     0.050 A 
HETATM    2  C   UNL     1      -6.200  -2.277 -34.317  1.00  0.00     0.058 A 
HETATM    3  C   UNL     1      -6.974  -3.343 -34.803  1.00  0.00     0.019 A 
HETATM    4  C   UNL     1      -6.382  -4.574 -35.071  1.00  0.00     0.001 A 
HETATM    5  C   UNL     1      -5.018  -4.739 -34.857  1.00  0.00     0.002 A 
HETATM    6  C   UNL     1      -4.246  -3.687 -34.353  1.00  0.00     0.030 A 
ENDROOT
BRANCH   1   7
HETATM    7  N   UNL     1      -4.091  -1.404 -33.428  1.00  0.00    -0.324 N 
HETATM    8  C   UNL     1      -3.396  -1.469 -32.232  1.00  0.00     0.246 C 
HETATM    9  O   UNL     1      -3.126  -2.497 -31.614  1.00  0.00    -0.271 OA
HETATM   10  H   UNL     1      -4.197  -0.483 -33.849  1.00  0.00     0.169 HD
BRANCH   8  11
HETATM   11  C   UNL     1      -2.953  -0.098 -31.703  1.00  0.00     0.282 C 
BRANCH  11  12
HETATM   12  O   UNL     1      -3.372   0.966 -32.556  1.00  0.00    -0.308 OA
BRANCH  12  13
HETATM   13  C   UNL     1      -3.241   2.198 -32.012  1.00  0.00     0.298 C 
HETATM   14  O   UNL     1      -2.709   2.432 -30.936  1.00  0.00    -0.259 OA
BRANCH  13  15
HETATM   15  C   UNL     1      -3.885   3.253 -32.824  1.00  0.00     0.092 A 
HETATM   16  C   UNL     1      -3.258   4.419 -33.257  1.00  0.00     0.180 A 
HETATM   17  N   UNL     1      -3.895   5.373 -33.986  1.00  0.00    -0.236 NA
HETATM   18  C   UNL     1      -5.196   5.169 -34.282  1.00  0.00     0.119 A 
HETATM   19  C   UNL     1      -5.907   4.052 -33.885  1.00  0.00     0.020 A 
HETATM   20  C   UNL     1      -5.239   3.083 -33.143  1.00  0.00     0.023 A 
BRANCH  16  21
HETATM   21  O   UNL     1      -1.948   4.651 -32.899  1.00  0.00    -0.334 OA
BRANCH  21  22
HETATM   22  C   UNL     1      -1.327   5.728 -33.601  1.00  0.00     0.173 C 
HETATM   23  C   UNL     1      -0.758   6.690 -32.573  1.00  0.00     0.034 C 
ENDBRANCH  21  22
ENDBRANCH  16  21
ENDBRANCH  13  15
ENDBRANCH  12  13
ENDBRANCH  11  12
ENDBRANCH   8  11
ENDBRANCH   1   7
BRANCH   2  24
HETATM   24  C   UNL     1      -6.901  -0.974 -34.174  1.00  0.00     0.254 C 
HETATM   25  N   UNL     1      -7.933  -0.960 -33.260  1.00  0.00    -0.349 N 
HETATM   26  H   UNL     1      -8.158  -1.811 -32.760  1.00  0.00     0.163 HD
HETATM   27  O   UNL     1      -6.523   0.009 -34.799  1.00  0.00    -0.268 OA
BRANCH  25  28
HETATM   28  C   UNL     1      -8.736   0.223 -33.009  1.00  0.00     0.114 C 
HETATM   29  C   UNL     1      -8.981   0.978 -34.318  1.00  0.00     0.037 C 
BRANCH  28  30
HETATM   30  C   UNL     1      -8.084   1.060 -31.922  1.00  0.00    -0.036 A 
HETATM   31  C   UNL     1      -6.990   0.613 -31.166  1.00  0.00     0.009 A 
HETATM   32  C   UNL     1      -6.430   1.424 -30.173  1.00  0.00     0.001 A 
HETATM   33  C   UNL     1      -6.964   2.685 -29.915  1.00  0.00     0.000 A 
HETATM   34  C   UNL     1      -8.061   3.136 -30.642  1.00  0.00     0.001 A 
HETATM   35  C   UNL     1      -8.620   2.327 -31.632  1.00  0.00     0.009 A 
ENDBRANCH  28  30
ENDBRANCH  25  28
ENDBRANCH   2  24
TORSDOF 10
ENDMDL
MODEL 5
REMARK VINA RESULT:      -8.4      1.978      7.029
REMARK  10 active torsions:
REMARK  status: ('A' for Active; 'I' for Inactive)
REMARK    1  A    between atoms: C_2  and  O_3 
REMARK    2  A    between atoms: O_3  and  C_4 
REMARK    3  A    between atoms: C_9  and  C_10 
REMARK    4  A    between atoms: C_10  and  O_11 
REMARK    5  A    between atoms: O_11  and  C_12 
REMARK    6  A    between atoms: C_12  and  C_13 
REMARK       I    between atoms: C_13  and  N_14 
REMARK    7  A    between atoms: N_14  and  C_15 
REMARK    8  A    between atoms: C_16  and  C_17 
REMARK       I    between atoms: C_17  and  N_18 
REMARK    9  A    between atoms: N_18  and  C_19 
REMARK   10  A    between atoms: C_19  and  C_20 
ROOT
HETATM    1  C   UNL     1      -3.908   5.362 -33.383  1.00  0.00     0.050 A 
HETATM    2  C   UNL     1      -3.285   4.430 -32.527  1.00  0.00     0.058 A 
HETATM    3  C   UNL     1      -1.894   4.454 -32.332  1.00  0.00     0.019 A 
HETATM    4  C   UNL     1      -1.106   5.376 -33.015  1.00  0.00     0.001 A 
HETATM    5  C   UNL     1      -1.705   6.270 -33.895  1.00  0.00     0.002 A 
HETATM    6  C   UNL     1      -3.093   6.265 -34.077  1.00  0.00     0.030 A 
ENDROOT
BRANCH   1   7
HETATM    7  N   UNL     1      -5.325   5.416 -33.456  1.00  0.00    -0.324 N 
HETATM    8  C   UNL     1      -6.172   6.230 -32.722  1.00  0.00     0.246 C 
HETATM    9  O   UNL     1      -5.827   7.187 -32.032  1.00  0.00    -0.271 OA
HETATM   10  H   UNL     1      -5.761   4.689 -34.021  1.00  0.00     0.169 HD
BRANCH   8  11
HETATM   11  C   UNL     1      -7.652   5.842 -32.839  1.00  0.00     0.282 C 
BRANCH  11  12
HETATM   12  O   UNL     1      -7.842   4.430 -32.775  1.00  0.00    -0.308 OA
BRANCH  12  13
HETATM   13  C   UNL     1      -8.985   4.051 -32.159  1.00  0.00     0.298 C 
HETATM   14  O   UNL     1      -9.653   4.768 -31.426  1.00  0.00    -0.259 OA
BRANCH  13  15
HETATM   15  C   UNL     1      -9.321   2.631 -32.399  1.00  0.00     0.092 A 
HETATM   16  C   UNL     1     -10.244   2.179 -33.339  1.00  0.00     0.180 A 
HETATM   17  N   UNL     1     -10.537   0.862 -33.512  1.00  0.00    -0.236 NA
HETATM   18  C   UNL     1      -9.904  -0.028 -32.720  1.00  0.00     0.119 A 
HETATM   19  C   UNL     1      -8.984   0.324 -31.751  1.00  0.00     0.020 A 
HETATM   20  C   UNL     1      -8.692   1.675 -31.589  1.00  0.00     0.023 A 
BRANCH  16  21
HETATM   21  O   UNL     1     -10.934   3.096 -34.101  1.00  0.00    -0.334 OA
BRANCH  21  22
HETATM   22  C   UNL     1     -12.230   2.665 -34.514  1.00  0.00     0.173 C 
HETATM   23  C   UNL     1     -12.366   2.950 -35.999  1.00  0.00     0.034 C 
ENDBRANCH  21  22
ENDBRANCH  16  21
ENDBRANCH  13  15
ENDBRANCH  12  13
ENDBRANCH  11  12
ENDBRANCH   8  11
ENDBRANCH   1   7
BRANCH   2  24
HETATM   24  C   UNL     1      -4.021   3.335 -31.842  1.00  0.00     0.254 C 
HETATM   25  N   UNL     1      -3.857   2.082 -32.395  1.00  0.00    -0.349 N 
HETATM   26  H   UNL     1      -3.273   1.979 -33.216  1.00  0.00     0.163 HD
HETATM   27  O   UNL     1      -4.671   3.559 -30.830  1.00  0.00    -0.268 OA
BRANCH  25  28
HETATM   28  C   UNL     1      -4.519   0.904 -31.865  1.00  0.00     0.114 C 
HETATM   29  C   UNL     1      -3.483  -0.064 -31.288  1.00  0.00     0.037 C 
BRANCH  28  30
HETATM   30  C   UNL     1      -5.408   0.295 -32.935  1.00  0.00    -0.036 A 
HETATM   31  C   UNL     1      -5.616  -1.088 -33.061  1.00  0.00     0.009 A 
HETATM   32  C   UNL     1      -6.442  -1.595 -34.069  1.00  0.00     0.001 A 
HETATM   33  C   UNL     1      -7.060  -0.731 -34.971  1.00  0.00     0.000 A 
HETATM   34  C   UNL     1      -6.848   0.641 -34.873  1.00  0.00     0.001 A 
HETATM   35  C   UNL     1      -6.024   1.148 -33.868  1.00  0.00     0.009 A 
ENDBRANCH  28  30
ENDBRANCH  25  28
ENDBRANCH   2  24
TORSDOF 10
ENDMDL
MODEL 6
REMARK VINA RESULT:      -8.1      2.080      3.588
REMARK  10 active torsions:
REMARK  status: ('A' for Active; 'I' for Inactive)
REMARK    1  A    between atoms: C_2  and  O_3 
REMARK    2  A    between atoms: O_3  and  C_4 
REMARK    3  A    between atoms: C_9  and  C_10 
REMARK    4  A    between atoms: C_10  and  O_11 
REMARK    5  A    between atoms: O_11  and  C_12 
REMARK    6  A    between atoms: C_12  and  C_13 
REMARK       I    between atoms: C_13  and  N_14 
REMARK    7  A    between atoms: N_14  and  C_15 
REMARK    8  A    between atoms: C_16  and  C_17 
REMARK       I    between atoms: C_17  and  N_18 
REMARK    9  A    between atoms: N_18  and  C_19 
REMARK   10  A    between atoms: C_19  and  C_20 
ROOT
HETATM    1  C   UNL     1      -6.071   0.075 -32.734  1.00  0.00     0.050 A 
HETATM    2  C   UNL     1      -7.377  -0.313 -33.099  1.00  0.00     0.058 A 
HETATM    3  C   UNL     1      -7.586  -1.368 -34.001  1.00  0.00     0.019 A 
HETATM    4  C   UNL     1      -6.502  -2.020 -34.581  1.00  0.00     0.001 A 
HETATM    5  C   UNL     1      -5.209  -1.616 -34.263  1.00  0.00     0.002 A 
HETATM    6  C   UNL     1      -4.995  -0.580 -33.347  1.00  0.00     0.030 A 
ENDROOT
BRANCH   1   7
HETATM    7  N   UNL     1      -5.880   1.043 -31.712  1.00  0.00    -0.324 N 
HETATM    8  C   UNL     1      -5.879   2.421 -31.852  1.00  0.00     0.246 C 
HETATM    9  O   UNL     1      -6.246   3.041 -32.848  1.00  0.00    -0.271 OA
HETATM   10  H   UNL     1      -5.593   0.672 -30.808  1.00  0.00     0.169 HD
BRANCH   8  11
HETATM   11  C   UNL     1      -5.368   3.164 -30.610  1.00  0.00     0.282 C 
BRANCH  11  12
HETATM   12  O   UNL     1      -4.268   4.022 -30.914  1.00  0.00    -0.308 OA
BRANCH  12  13
HETATM   13  C   UNL     1      -3.223   3.396 -31.502  1.00  0.00     0.298 C 
HETATM   14  O   UNL     1      -2.837   2.270 -31.221  1.00  0.00    -0.259 OA
BRANCH  13  15
HETATM   15  C   UNL     1      -2.525   4.251 -32.487  1.00  0.00     0.092 A 
HETATM   16  C   UNL     1      -1.326   4.919 -32.253  1.00  0.00     0.180 A 
HETATM   17  N   UNL     1      -0.729   5.712 -33.183  1.00  0.00    -0.236 NA
HETATM   18  C   UNL     1      -1.349   5.855 -34.373  1.00  0.00     0.119 A 
HETATM   19  C   UNL     1      -2.548   5.245 -34.692  1.00  0.00     0.020 A 
HETATM   20  C   UNL     1      -3.143   4.433 -33.732  1.00  0.00     0.023 A 
BRANCH  16  21
HETATM   21  O   UNL     1      -0.729   4.820 -31.015  1.00  0.00    -0.334 OA
BRANCH  21  22
HETATM   22  C   UNL     1       0.509   5.521 -30.899  1.00  0.00     0.173 C 
HETATM   23  C   UNL     1       0.315   6.650 -29.903  1.00  0.00     0.034 C 
ENDBRANCH  21  22
ENDBRANCH  16  21
ENDBRANCH  13  15
ENDBRANCH  12  13
ENDBRANCH  11  12
ENDBRANCH   8  11
ENDBRANCH   1   7
BRANCH   2  24
HETATM   24  C   UNL     1      -8.597   0.393 -32.626  1.00  0.00     0.254 C 
HETATM   25  N   UNL     1      -9.424   0.867 -33.622  1.00  0.00    -0.349 N 
HETATM   26  H   UNL     1      -9.161   0.725 -34.589  1.00  0.00     0.163 HD
HETATM   27  O   UNL     1      -8.844   0.477 -31.430  1.00  0.00    -0.268 OA
BRANCH  25  28
HETATM   28  C   UNL     1     -10.647   1.597 -33.338  1.00  0.00     0.114 C 
HETATM   29  C   UNL     1     -11.863   0.742 -33.703  1.00  0.00     0.037 C 
BRANCH  28  30
HETATM   30  C   UNL     1     -10.607   2.947 -34.033  1.00  0.00    -0.036 A 
HETATM   31  C   UNL     1     -11.628   3.401 -34.882  1.00  0.00     0.009 A 
HETATM   32  C   UNL     1     -11.537   4.652 -35.499  1.00  0.00     0.001 A 
HETATM   33  C   UNL     1     -10.421   5.459 -35.289  1.00  0.00     0.000 A 
HETATM   34  C   UNL     1      -9.390   5.015 -34.467  1.00  0.00     0.001 A 
HETATM   35  C   UNL     1      -9.479   3.767 -33.850  1.00  0.00     0.009 A 
ENDBRANCH  28  30
ENDBRANCH  25  28
ENDBRANCH   2  24
TORSDOF 10
ENDMDL
MODEL 7
REMARK VINA RESULT:      -8.1      1.968      2.491
REMARK  10 active torsions:
REMARK  status: ('A' for Active; 'I' for Inactive)
REMARK    1  A    between atoms: C_2  and  O_3 
REMARK    2  A    between atoms: O_3  and  C_4 
REMARK    3  A    between atoms: C_9  and  C_10 
REMARK    4  A    between atoms: C_10  and  O_11 
REMARK    5  A    between atoms: O_11  and  C_12 
REMARK    6  A    between atoms: C_12  and  C_13 
REMARK       I    between atoms: C_13  and  N_14 
REMARK    7  A    between atoms: N_14  and  C_15 
REMARK    8  A    between atoms: C_16  and  C_17 
REMARK       I    between atoms: C_17  and  N_18 
REMARK    9  A    between atoms: N_18  and  C_19 
REMARK   10  A    between atoms: C_19  and  C_20 
ROOT
HETATM    1  C   UNL     1      -5.175  -0.092 -33.500  1.00  0.00     0.050 A 
HETATM    2  C   UNL     1      -6.491  -0.033 -34.005  1.00  0.00     0.058 A 
HETATM    3  C   UNL     1      -7.102  -1.174 -34.551  1.00  0.00     0.019 A 
HETATM    4  C   UNL     1      -6.398  -2.372 -34.638  1.00  0.00     0.001 A 
HETATM    5  C   UNL     1      -5.085  -2.430 -34.184  1.00  0.00     0.002 A 
HETATM    6  C   UNL     1      -4.479  -1.302 -33.619  1.00  0.00     0.030 A 
ENDROOT
BRANCH   1   7
HETATM    7  N   UNL     1      -4.628   1.029 -32.821  1.00  0.00    -0.324 N 
HETATM    8  C   UNL     1      -4.454   1.180 -31.456  1.00  0.00     0.246 C 
HETATM    9  O   UNL     1      -4.554   0.287 -30.618  1.00  0.00    -0.271 OA
HETATM   10  H   UNL     1      -4.465   1.851 -33.400  1.00  0.00     0.169 HD
BRANCH   8  11
HETATM   11  C   UNL     1      -4.101   2.613 -31.036  1.00  0.00     0.282 C 
BRANCH  11  12
HETATM   12  O   UNL     1      -2.731   2.923 -31.289  1.00  0.00    -0.308 OA
BRANCH  12  13
HETATM   13  C   UNL     1      -2.545   3.925 -32.179  1.00  0.00     0.298 C 
HETATM   14  O   UNL     1      -2.820   3.861 -33.369  1.00  0.00    -0.259 OA
BRANCH  13  15
HETATM   15  C   UNL     1      -1.891   5.108 -31.579  1.00  0.00     0.092 A 
HETATM   16  C   UNL     1      -2.557   6.137 -30.918  1.00  0.00     0.180 A 
HETATM   17  N   UNL     1      -1.917   7.218 -30.398  1.00  0.00    -0.236 NA
HETATM   18  C   UNL     1      -0.577   7.284 -30.552  1.00  0.00     0.119 A 
HETATM   19  C   UNL     1       0.169   6.321 -31.206  1.00  0.00     0.020 A 
HETATM   20  C   UNL     1      -0.501   5.219 -31.727  1.00  0.00     0.023 A 
BRANCH  16  21
HETATM   21  O   UNL     1      -3.930   6.095 -30.818  1.00  0.00    -0.334 OA
BRANCH  21  22
HETATM   22  C   UNL     1      -4.433   6.322 -29.501  1.00  0.00     0.173 C 
HETATM   23  C   UNL     1      -5.821   5.712 -29.419  1.00  0.00     0.034 C 
ENDBRANCH  21  22
ENDBRANCH  16  21
ENDBRANCH  13  15
ENDBRANCH  12  13
ENDBRANCH  11  12
ENDBRANCH   8  11
ENDBRANCH   1   7
BRANCH   2  24
HETATM   24  C   UNL     1      -7.285   1.223 -34.064  1.00  0.00     0.254 C 
HETATM   25  N   UNL     1      -8.607   1.099 -33.693  1.00  0.00    -0.349 N 
HETATM   26  H   UNL     1      -8.959   0.189 -33.421  1.00  0.00     0.163 HD
HETATM   27  O   UNL     1      -6.753   2.282 -34.369  1.00  0.00    -0.268 OA
BRANCH  25  28
HETATM   28  C   UNL     1      -9.530   2.220 -33.711  1.00  0.00     0.114 C 
HETATM   29  C   UNL     1      -9.401   3.025 -32.415  1.00  0.00     0.037 C 
BRANCH  28  30
HETATM   30  C   UNL     1     -10.935   1.718 -33.993  1.00  0.00    -0.036 A 
HETATM   31  C   UNL     1     -11.854   2.423 -34.787  1.00  0.00     0.009 A 
HETATM   32  C   UNL     1     -13.138   1.916 -35.010  1.00  0.00     0.001 A 
HETATM   33  C   UNL     1     -13.525   0.708 -34.433  1.00  0.00     0.000 A 
HETATM   34  C   UNL     1     -12.634   0.007 -33.627  1.00  0.00     0.001 A 
HETATM   35  C   UNL     1     -11.353   0.512 -33.404  1.00  0.00     0.009 A 
ENDBRANCH  28  30
ENDBRANCH  25  28
ENDBRANCH   2  24
TORSDOF 10
ENDMDL
MODEL 8
REMARK VINA RESULT:      -8.0      2.023      5.195
REMARK  10 active torsions:
REMARK  status: ('A' for Active; 'I' for Inactive)
REMARK    1  A    between atoms: C_2  and  O_3 
REMARK    2  A    between atoms: O_3  and  C_4 
REMARK    3  A    between atoms: C_9  and  C_10 
REMARK    4  A    between atoms: C_10  and  O_11 
REMARK    5  A    between atoms: O_11  and  C_12 
REMARK    6  A    between atoms: C_12  and  C_13 
REMARK       I    between atoms: C_13  and  N_14 
REMARK    7  A    between atoms: N_14  and  C_15 
REMARK    8  A    between atoms: C_16  and  C_17 
REMARK       I    between atoms: C_17  and  N_18 
REMARK    9  A    between atoms: N_18  and  C_19 
REMARK   10  A    between atoms: C_19  and  C_20 
ROOT
HETATM    1  C   UNL     1      -8.362   2.742 -32.232  1.00  0.00     0.050 A 
HETATM    2  C   UNL     1      -8.329   1.351 -32.466  1.00  0.00     0.058 A 
HETATM    3  C   UNL     1      -9.427   0.694 -33.043  1.00  0.00     0.019 A 
HETATM    4  C   UNL     1     -10.584   1.403 -33.355  1.00  0.00     0.001 A 
HETATM    5  C   UNL     1     -10.644   2.767 -33.089  1.00  0.00     0.002 A 
HETATM    6  C   UNL     1      -9.544   3.431 -32.534  1.00  0.00     0.030 A 
ENDROOT
BRANCH   1   7
HETATM    7  N   UNL     1      -7.193   3.412 -31.785  1.00  0.00    -0.324 N 
HETATM    8  C   UNL     1      -6.876   3.771 -30.486  1.00  0.00     0.246 C 
HETATM    9  O   UNL     1      -7.460   3.388 -29.474  1.00  0.00    -0.271 OA
HETATM   10  H   UNL     1      -6.588   3.771 -32.522  1.00  0.00     0.169 HD
BRANCH   8  11
HETATM   11  C   UNL     1      -5.679   4.725 -30.386  1.00  0.00     0.282 C 
BRANCH  11  12
HETATM   12  O   UNL     1      -4.900   4.735 -31.581  1.00  0.00    -0.308 OA
BRANCH  12  13
HETATM   13  C   UNL     1      -3.652   4.233 -31.435  1.00  0.00     0.298 C 
HETATM   14  O   UNL     1      -3.397   3.070 -31.154  1.00  0.00    -0.259 OA
BRANCH  13  15
HETATM   15  C   UNL     1      -2.602   5.264 -31.574  1.00  0.00     0.092 A 
HETATM   16  C   UNL     1      -1.790   5.428 -32.694  1.00  0.00     0.180 A 
HETATM   17  N   UNL     1      -0.821   6.378 -32.772  1.00  0.00    -0.236 NA
HETATM   18  C   UNL     1      -0.645   7.181 -31.700  1.00  0.00     0.119 A 
HETATM   19  C   UNL     1      -1.391   7.086 -30.540  1.00  0.00     0.020 A 
HETATM   20  C   UNL     1      -2.382   6.111 -30.479  1.00  0.00     0.023 A 
BRANCH  16  21
HETATM   21  O   UNL     1      -1.931   4.566 -33.760  1.00  0.00    -0.334 OA
BRANCH  21  22
HETATM   22  C   UNL     1      -2.240   5.205 -34.998  1.00  0.00     0.173 C 
HETATM   23  C   UNL     1      -3.746   5.155 -35.187  1.00  0.00     0.034 C 
ENDBRANCH  21  22
ENDBRANCH  16  21
ENDBRANCH  13  15
ENDBRANCH  12  13
ENDBRANCH  11  12
ENDBRANCH   8  11
ENDBRANCH   1   7
BRANCH   2  24
HETATM   24  C   UNL     1      -7.188   0.486 -32.063  1.00  0.00     0.254 C 
HETATM   25  N   UNL     1      -6.421   0.006 -33.103  1.00  0.00    -0.349 N 
HETATM   26  H   UNL     1      -6.672   0.249 -34.053  1.00  0.00     0.163 HD
HETATM   27  O   UNL     1      -6.947   0.284 -30.880  1.00  0.00    -0.268 OA
BRANCH  25  28
HETATM   28  C   UNL     1      -5.281  -0.869 -32.891  1.00  0.00     0.114 C 
HETATM   29  C   UNL     1      -3.984  -0.131 -33.231  1.00  0.00     0.037 C 
BRANCH  28  30
HETATM   30  C   UNL     1      -5.481  -2.161 -33.664  1.00  0.00    -0.036 A 
HETATM   31  C   UNL     1      -6.702  -2.516 -34.259  1.00  0.00     0.009 A 
HETATM   32  C   UNL     1      -6.831  -3.721 -34.955  1.00  0.00     0.001 A 
HETATM   33  C   UNL     1      -5.749  -4.593 -35.055  1.00  0.00     0.000 A 
HETATM   34  C   UNL     1      -4.537  -4.267 -34.455  1.00  0.00     0.001 A 
HETATM   35  C   UNL     1      -4.407  -3.064 -33.759  1.00  0.00     0.009 A 
ENDBRANCH  28  30
ENDBRANCH  25  28
ENDBRANCH   2  24
TORSDOF 10
ENDMDL
MODEL 9
REMARK VINA RESULT:      -7.9      2.357      7.179
REMARK  10 active torsions:
REMARK  status: ('A' for Active; 'I' for Inactive)
REMARK    1  A    between atoms: C_2  and  O_3 
REMARK    2  A    between atoms: O_3  and  C_4 
REMARK    3  A    between atoms: C_9  and  C_10 
REMARK    4  A    between atoms: C_10  and  O_11 
REMARK    5  A    between atoms: O_11  and  C_12 
REMARK    6  A    between atoms: C_12  and  C_13 
REMARK       I    between atoms: C_13  and  N_14 
REMARK    7  A    between atoms: N_14  and  C_15 
REMARK    8  A    between atoms: C_16  and  C_17 
REMARK       I    between atoms: C_17  and  N_18 
REMARK    9  A    between atoms: N_18  and  C_19 
REMARK   10  A    between atoms: C_19  and  C_20 
ROOT
HETATM    1  C   UNL     1      -4.686   4.353 -33.470  1.00  0.00     0.050 A 
HETATM    2  C   UNL     1      -3.730   3.609 -32.746  1.00  0.00     0.058 A 
HETATM    3  C   UNL     1      -2.367   3.942 -32.805  1.00  0.00     0.019 A 
HETATM    4  C   UNL     1      -1.936   4.990 -33.614  1.00  0.00     0.001 A 
HETATM    5  C   UNL     1      -2.864   5.702 -34.365  1.00  0.00     0.002 A 
HETATM    6  C   UNL     1      -4.226   5.389 -34.293  1.00  0.00     0.030 A 
ENDROOT
BRANCH   1   7
HETATM    7  N   UNL     1      -6.070   4.095 -33.285  1.00  0.00    -0.324 N 
HETATM    8  C   UNL     1      -6.828   3.109 -33.892  1.00  0.00     0.246 C 
HETATM    9  O   UNL     1      -6.386   2.161 -34.539  1.00  0.00    -0.271 OA
HETATM   10  H   UNL     1      -6.574   4.793 -32.740  1.00  0.00     0.169 HD
BRANCH   8  11
HETATM   11  C   UNL     1      -8.339   3.282 -33.689  1.00  0.00     0.282 C 
BRANCH  11  12
HETATM   12  O   UNL     1      -8.762   2.822 -32.406  1.00  0.00    -0.308 OA
BRANCH  12  13
HETATM   13  C   UNL     1      -9.647   1.799 -32.446  1.00  0.00     0.298 C 
HETATM   14  O   UNL     1      -9.459   0.696 -31.953  1.00  0.00    -0.259 OA
BRANCH  13  15
HETATM   15  C   UNL     1     -10.859   2.123 -33.228  1.00  0.00     0.092 A 
HETATM   16  C   UNL     1     -11.806   3.079 -32.870  1.00  0.00     0.180 A 
HETATM   17  N   UNL     1     -12.919   3.330 -33.610  1.00  0.00    -0.236 NA
HETATM   18  C   UNL     1     -13.102   2.600 -34.731  1.00  0.00     0.119 A 
HETATM   19  C   UNL     1     -12.227   1.619 -35.159  1.00  0.00     0.020 A 
HETATM   20  C   UNL     1     -11.091   1.378 -34.393  1.00  0.00     0.023 A 
BRANCH  16  21
HETATM   21  O   UNL     1     -11.646   3.777 -31.694  1.00  0.00    -0.334 OA
BRANCH  21  22
HETATM   22  C   UNL     1     -11.865   5.183 -31.808  1.00  0.00     0.173 C 
HETATM   23  C   UNL     1     -10.516   5.852 -32.005  1.00  0.00     0.034 C 
ENDBRANCH  21  22
ENDBRANCH  16  21
ENDBRANCH  13  15
ENDBRANCH  12  13
ENDBRANCH  11  12
ENDBRANCH   8  11
ENDBRANCH   1   7
BRANCH   2  24
HETATM   24  C   UNL     1      -4.073   2.403 -31.946  1.00  0.00     0.254 C 
HETATM   25  N   UNL     1      -3.869   1.199 -32.585  1.00  0.00    -0.349 N 
HETATM   26  H   UNL     1      -3.518   1.198 -33.535  1.00  0.00     0.163 HD
HETATM   27  O   UNL     1      -4.454   2.512 -30.788  1.00  0.00    -0.268 OA
BRANCH  25  28
HETATM   28  C   UNL     1      -4.169  -0.076 -31.958  1.00  0.00     0.114 C 
HETATM   29  C   UNL     1      -2.875  -0.754 -31.502  1.00  0.00     0.037 C 
BRANCH  28  30
HETATM   30  C   UNL     1      -5.014  -0.919 -32.898  1.00  0.00    -0.036 A 
HETATM   31  C   UNL     1      -4.466  -1.869 -33.774  1.00  0.00     0.009 A 
HETATM   32  C   UNL     1      -5.291  -2.614 -34.622  1.00  0.00     0.001 A 
HETATM   33  C   UNL     1      -6.670  -2.412 -34.616  1.00  0.00     0.000 A 
HETATM   34  C   UNL     1      -7.227  -1.460 -33.768  1.00  0.00     0.001 A 
HETATM   35  C   UNL     1      -6.405  -0.715 -32.922  1.00  0.00     0.009 A 
ENDBRANCH  28  30
ENDBRANCH  25  28
ENDBRANCH   2  24
TORSDOF 10
ENDMDL
MODEL 10
REMARK VINA RESULT:      -7.9      3.604      9.473
REMARK  10 active torsions:
REMARK  status: ('A' for Active; 'I' for Inactive)
REMARK    1  A    between atoms: C_2  and  O_3 
REMARK    2  A    between atoms: O_3  and  C_4 
REMARK    3  A    between atoms: C_9  and  C_10 
REMARK    4  A    between atoms: C_10  and  O_11 
REMARK    5  A    between atoms: O_11  and  C_12 
REMARK    6  A    between atoms: C_12  and  C_13 
REMARK       I    between atoms: C_13  and  N_14 
REMARK    7  A    between atoms: N_14  and  C_15 
REMARK    8  A    between atoms: C_16  and  C_17 
REMARK       I    between atoms: C_17  and  N_18 
REMARK    9  A    between atoms: N_18  and  C_19 
REMARK   10  A    between atoms: C_19  and  C_20 
ROOT
HETATM    1  C   UNL     1      -2.938   4.875 -32.620  1.00  0.00     0.050 A 
HETATM    2  C   UNL     1      -2.475   6.117 -32.135  1.00  0.00     0.058 A 
HETATM    3  C   UNL     1      -1.605   6.907 -32.903  1.00  0.00     0.019 A 
HETATM    4  C   UNL     1      -1.154   6.455 -34.140  1.00  0.00     0.001 A 
HETATM    5  C   UNL     1      -1.569   5.213 -34.608  1.00  0.00     0.002 A 
HETATM    6  C   UNL     1      -2.453   4.430 -33.857  1.00  0.00     0.030 A 
ENDROOT
BRANCH   1   7
HETATM    7  N   UNL     1      -3.928   4.159 -31.896  1.00  0.00    -0.324 N 
HETATM    8  C   UNL     1      -3.817   2.890 -31.353  1.00  0.00     0.246 C 
HETATM    9  O   UNL     1      -2.773   2.253 -31.228  1.00  0.00    -0.271 OA
HETATM   10  H   UNL     1      -4.854   4.583 -31.890  1.00  0.00     0.169 HD
BRANCH   8  11
HETATM   11  C   UNL     1      -5.155   2.303 -30.884  1.00  0.00     0.282 C 
BRANCH  11  12
HETATM   12  O   UNL     1      -5.805   1.561 -31.915  1.00  0.00    -0.308 OA
BRANCH  12  13
HETATM   13  C   UNL     1      -6.131   0.296 -31.567  1.00  0.00     0.298 C 
HETATM   14  O   UNL     1      -6.511  -0.046 -30.456  1.00  0.00    -0.259 OA
BRANCH  13  15
HETATM   15  C   UNL     1      -5.909  -0.674 -32.661  1.00  0.00     0.092 A 
HETATM   16  C   UNL     1      -6.880  -1.082 -33.573  1.00  0.00     0.180 A 
HETATM   17  N   UNL     1      -6.636  -1.993 -34.553  1.00  0.00    -0.236 NA
HETATM   18  C   UNL     1      -5.397  -2.522 -34.620  1.00  0.00     0.119 A 
HETATM   19  C   UNL     1      -4.373  -2.192 -33.752  1.00  0.00     0.020 A 
HETATM   20  C   UNL     1      -4.637  -1.254 -32.758  1.00  0.00     0.023 A 
BRANCH  16  21
HETATM   21  O   UNL     1      -8.160  -0.585 -33.461  1.00  0.00    -0.334 OA
BRANCH  21  22
HETATM   22  C   UNL     1      -8.468   0.462 -34.381  1.00  0.00     0.173 C 
HETATM   23  C   UNL     1      -9.762   1.115 -33.929  1.00  0.00     0.034 C 
ENDBRANCH  21  22
ENDBRANCH  16  21
ENDBRANCH  13  15
ENDBRANCH  12  13
ENDBRANCH  11  12
ENDBRANCH   8  11
ENDBRANCH   1   7
BRANCH   2  24
HETATM   24  C   UNL     1      -2.804   6.636 -30.781  1.00  0.00     0.254 C 
HETATM   25  N   UNL     1      -1.958   7.615 -30.306  1.00  0.00    -0.349 N 
HETATM   26  H   UNL     1      -1.177   7.911 -30.879  1.00  0.00     0.163 HD
HETATM   27  O   UNL     1      -3.797   6.238 -30.186  1.00  0.00    -0.268 OA
BRANCH  25  28
HETATM   28  C   UNL     1      -2.121   8.218 -28.995  1.00  0.00     0.114 C 
HETATM   29  C   UNL     1      -2.415   9.713 -29.140  1.00  0.00     0.037 C 
BRANCH  28  30
HETATM   30  C   UNL     1      -0.909   7.903 -28.136  1.00  0.00    -0.036 A 
HETATM   31  C   UNL     1      -0.956   7.030 -27.038  1.00  0.00     0.009 A 
HETATM   32  C   UNL     1       0.190   6.780 -26.277  1.00  0.00     0.001 A 
HETATM   33  C   UNL     1       1.393   7.408 -26.594  1.00  0.00     0.000 A 
HETATM   34  C   UNL     1       1.452   8.292 -27.666  1.00  0.00     0.001 A 
HETATM   35  C   UNL     1       0.309   8.543 -28.426  1.00  0.00     0.009 A 
ENDBRANCH  28  30
ENDBRANCH  25  28
ENDBRANCH   2  24
TORSDOF 10
ENDMDL
