MODEL 1
REMARK VINA RESULT:      -9.8      0.000      0.000
REMARK  5 active torsions:
REMARK  status: ('A' for Active; 'I' for Inactive)
REMARK    1  A    between atoms: N_3  and  C_4 
REMARK    2  A    between atoms: C_6  and  C_7 
REMARK    3  A    between atoms: C_15  and  C_16 
REMARK       I    between atoms: C_16  and  N_17 
REMARK    4  A    between atoms: N_17  and  N_18 
REMARK       I    between atoms: N_18  and  C_19 
REMARK    5  A    between atoms: C_19  and  C_20 
ROOT
HETATM    1  C   UNL     1      -7.305  -0.221 -35.053  1.00  0.00     0.070 C 
HETATM    2  C   UNL     1      -6.425   0.740 -34.286  1.00  0.00     0.036 C 
HETATM    3  N   UNL     1      -5.394   0.263 -33.463  1.00  0.00    -0.238 N 
HETATM    4  N   UNL     1      -4.773   1.049 -32.518  1.00  0.00    -0.158 NA
HETATM    5  C   UNL     1      -5.011   2.330 -32.508  1.00  0.00     0.196 C 
HETATM    6  C   UNL     1      -5.931   2.950 -33.522  1.00  0.00     0.209 C 
HETATM    7  O   UNL     1      -6.006   4.165 -33.626  1.00  0.00    -0.286 OA
HETATM    8  C   UNL     1      -6.728   2.046 -34.353  1.00  0.00     0.084 C 
ENDROOT
BRANCH   5   9
HETATM    9  C   UNL     1      -4.325   3.152 -31.426  1.00  0.00     0.294 C 
HETATM   10  N   UNL     1      -3.207   3.857 -31.826  1.00  0.00    -0.261 N 
HETATM   11  H   UNL     1      -2.993   4.022 -32.816  1.00  0.00     0.190 HD
HETATM   12  O   UNL     1      -4.765   3.171 -30.281  1.00  0.00    -0.264 OA
BRANCH  10  13
HETATM   13  N   UNL     1      -2.627   4.736 -30.899  1.00  0.00    -0.262 N 
HETATM   14  C   UNL     1      -1.329   5.159 -31.091  1.00  0.00     0.286 C 
HETATM   15  O   UNL     1      -0.629   4.720 -32.003  1.00  0.00    -0.264 OA
HETATM   16  H   UNL     1      -3.255   5.173 -30.229  1.00  0.00     0.190 HD
BRANCH  14  17
HETATM   17  C   UNL     1      -0.853   6.153 -30.155  1.00  0.00     0.102 A 
HETATM   18  N   UNL     1      -1.611   6.530 -29.065  1.00  0.00    -0.361 N 
HETATM   19  H   UNL     1      -2.524   6.145 -28.856  1.00  0.00     0.165 HD
HETATM   20  C   UNL     1      -0.953   7.481 -28.334  1.00  0.00     0.088 A 
HETATM   21  C   UNL     1       0.249   7.731 -28.952  1.00  0.00     0.019 A 
HETATM   22  C   UNL     1       0.315   6.898 -30.097  1.00  0.00     0.036 A 
ENDBRANCH  14  17
ENDBRANCH  10  13
ENDBRANCH   5   9
BRANCH   3  23
HETATM   23  C   UNL     1      -4.908  -1.084 -33.458  1.00  0.00     0.059 A 
HETATM   24  C   UNL     1      -5.571  -2.077 -34.205  1.00  0.00     0.047 A 
HETATM   25  C   UNL     1      -5.137  -3.414 -34.208  1.00  0.00     0.050 A 
HETATM   26  C   UNL     1      -4.014  -3.762 -33.448  1.00  0.00     0.016 A 
HETATM   27  C   UNL     1      -3.359  -2.801 -32.680  1.00  0.00     0.003 A 
HETATM   28  C   UNL     1      -3.810  -1.478 -32.679  1.00  0.00     0.031 A 
BRANCH  25  29
HETATM   29  C   UNL     1      -5.848  -4.456 -35.036  1.00  0.00     0.417 C 
HETATM   30  F   UNL     1      -7.096  -4.759 -34.587  1.00  0.00    -0.166 F 
HETATM   31  F   UNL     1      -6.001  -4.066 -36.332  1.00  0.00    -0.166 F 
HETATM   32  F   UNL     1      -5.172  -5.639 -35.082  1.00  0.00    -0.166 F 
ENDBRANCH  25  29
ENDBRANCH   3  23
TORSDOF 5
ENDMDL
MODEL 2
REMARK VINA RESULT:      -9.8      1.764      2.291
REMARK  5 active torsions:
REMARK  status: ('A' for Active; 'I' for Inactive)
REMARK    1  A    between atoms: N_3  and  C_4 
REMARK    2  A    between atoms: C_6  and  C_7 
REMARK    3  A    between atoms: C_15  and  C_16 
REMARK       I    between atoms: C_16  and  N_17 
REMARK    4  A    between atoms: N_17  and  N_18 
REMARK       I    between atoms: N_18  and  C_19 
REMARK    5  A    between atoms: C_19  and  C_20 
ROOT
HETATM    1  C   UNL     1      -8.789  -0.411 -33.032  1.00  0.00     0.070 C 
HETATM    2  C   UNL     1      -7.520   0.409 -32.975  1.00  0.00     0.036 C 
HETATM    3  N   UNL     1      -6.273  -0.186 -33.218  1.00  0.00    -0.238 N 
HETATM    4  N   UNL     1      -5.082   0.420 -32.882  1.00  0.00    -0.158 NA
HETATM    5  C   UNL     1      -5.094   1.665 -32.500  1.00  0.00     0.196 C 
HETATM    6  C   UNL     1      -6.380   2.442 -32.444  1.00  0.00     0.209 C 
HETATM    7  O   UNL     1      -6.364   3.650 -32.267  1.00  0.00    -0.286 OA
HETATM    8  C   UNL     1      -7.628   1.692 -32.595  1.00  0.00     0.084 C 
ENDROOT
BRANCH   5   9
HETATM    9  C   UNL     1      -3.758   2.281 -32.112  1.00  0.00     0.294 C 
HETATM   10  N   UNL     1      -3.469   3.504 -32.687  1.00  0.00    -0.261 N 
HETATM   11  H   UNL     1      -4.192   4.075 -33.139  1.00  0.00     0.190 HD
HETATM   12  O   UNL     1      -3.007   1.707 -31.330  1.00  0.00    -0.264 OA
BRANCH  10  13
HETATM   13  N   UNL     1      -2.316   4.172 -32.249  1.00  0.00    -0.262 N 
HETATM   14  C   UNL     1      -2.447   5.301 -31.468  1.00  0.00     0.286 C 
HETATM   15  O   UNL     1      -3.545   5.794 -31.215  1.00  0.00    -0.264 OA
HETATM   16  H   UNL     1      -1.432   3.685 -32.370  1.00  0.00     0.190 HD
BRANCH  14  17
HETATM   17  C   UNL     1      -1.210   5.857 -30.966  1.00  0.00     0.102 A 
HETATM   18  N   UNL     1      -0.799   5.632 -29.667  1.00  0.00    -0.361 N 
HETATM   19  H   UNL     1      -1.324   5.079 -29.001  1.00  0.00     0.165 HD
HETATM   20  C   UNL     1       0.392   6.261 -29.429  1.00  0.00     0.088 A 
HETATM   21  C   UNL     1       0.767   6.905 -30.584  1.00  0.00     0.019 A 
HETATM   22  C   UNL     1      -0.238   6.653 -31.552  1.00  0.00     0.036 A 
ENDBRANCH  14  17
ENDBRANCH  10  13
ENDBRANCH   5   9
BRANCH   3  23
HETATM   23  C   UNL     1      -6.084  -1.490 -33.776  1.00  0.00     0.059 A 
HETATM   24  C   UNL     1      -4.987  -2.278 -33.377  1.00  0.00     0.047 A 
HETATM   25  C   UNL     1      -4.756  -3.554 -33.917  1.00  0.00     0.050 A 
HETATM   26  C   UNL     1      -5.646  -4.053 -34.878  1.00  0.00     0.016 A 
HETATM   27  C   UNL     1      -6.723  -3.280 -35.307  1.00  0.00     0.003 A 
HETATM   28  C   UNL     1      -6.931  -2.007 -34.767  1.00  0.00     0.031 A 
BRANCH  25  29
HETATM   29  C   UNL     1      -3.588  -4.390 -33.457  1.00  0.00     0.417 C 
HETATM   30  F   UNL     1      -2.841  -3.805 -32.482  1.00  0.00    -0.166 F 
HETATM   31  F   UNL     1      -3.984  -5.593 -32.953  1.00  0.00    -0.166 F 
HETATM   32  F   UNL     1      -2.719  -4.680 -34.467  1.00  0.00    -0.166 F 
ENDBRANCH  25  29
ENDBRANCH   3  23
TORSDOF 5
ENDMDL
MODEL 3
REMARK VINA RESULT:      -9.8      4.907      9.367
REMARK  5 active torsions:
REMARK  status: ('A' for Active; 'I' for Inactive)
REMARK    1  A    between atoms: N_3  and  C_4 
REMARK    2  A    between atoms: C_6  and  C_7 
REMARK    3  A    between atoms: C_15  and  C_16 
REMARK       I    between atoms: C_16  and  N_17 
REMARK    4  A    between atoms: N_17  and  N_18 
REMARK       I    between atoms: N_18  and  C_19 
REMARK    5  A    between atoms: C_19  and  C_20 
ROOT
HETATM    1  C   UNL     1      -5.030   6.605 -30.022  1.00  0.00     0.070 C 
HETATM    2  C   UNL     1      -5.162   5.203 -30.571  1.00  0.00     0.036 C 
HETATM    3  N   UNL     1      -4.373   4.780 -31.652  1.00  0.00    -0.238 N 
HETATM    4  N   UNL     1      -4.658   3.649 -32.383  1.00  0.00    -0.158 NA
HETATM    5  C   UNL     1      -5.575   2.832 -31.949  1.00  0.00     0.196 C 
HETATM    6  C   UNL     1      -6.301   3.103 -30.661  1.00  0.00     0.209 C 
HETATM    7  O   UNL     1      -7.021   2.248 -30.166  1.00  0.00    -0.286 OA
HETATM    8  C   UNL     1      -6.118   4.419 -30.047  1.00  0.00     0.084 C 
ENDROOT
BRANCH   5   9
HETATM    9  C   UNL     1      -5.875   1.611 -32.806  1.00  0.00     0.294 C 
HETATM   10  N   UNL     1      -5.576   0.388 -32.236  1.00  0.00    -0.261 N 
HETATM   11  H   UNL     1      -5.404   0.285 -31.229  1.00  0.00     0.190 HD
HETATM   12  O   UNL     1      -6.356   1.735 -33.927  1.00  0.00    -0.264 OA
BRANCH  10  13
HETATM   13  N   UNL     1      -5.966  -0.766 -32.932  1.00  0.00    -0.262 N 
HETATM   14  C   UNL     1      -5.015  -1.495 -33.615  1.00  0.00     0.286 C 
HETATM   15  O   UNL     1      -3.848  -1.116 -33.709  1.00  0.00    -0.264 OA
HETATM   16  H   UNL     1      -6.900  -1.120 -32.743  1.00  0.00     0.190 HD
BRANCH  14  17
HETATM   17  C   UNL     1      -5.482  -2.730 -34.204  1.00  0.00     0.102 A 
HETATM   18  N   UNL     1      -4.680  -3.853 -34.244  1.00  0.00    -0.361 N 
HETATM   19  H   UNL     1      -3.738  -3.882 -33.873  1.00  0.00     0.165 HD
HETATM   20  C   UNL     1      -5.339  -4.888 -34.849  1.00  0.00     0.088 A 
HETATM   21  C   UNL     1      -6.587  -4.439 -35.210  1.00  0.00     0.019 A 
HETATM   22  C   UNL     1      -6.680  -3.083 -34.806  1.00  0.00     0.036 A 
ENDBRANCH  14  17
ENDBRANCH  10  13
ENDBRANCH   5   9
BRANCH   3  23
HETATM   23  C   UNL     1      -3.236   5.487 -32.159  1.00  0.00     0.059 A 
HETATM   24  C   UNL     1      -2.037   5.520 -31.421  1.00  0.00     0.047 A 
HETATM   25  C   UNL     1      -0.907   6.221 -31.876  1.00  0.00     0.050 A 
HETATM   26  C   UNL     1      -0.980   6.901 -33.098  1.00  0.00     0.016 A 
HETATM   27  C   UNL     1      -2.164   6.904 -33.832  1.00  0.00     0.003 A 
HETATM   28  C   UNL     1      -3.283   6.211 -33.360  1.00  0.00     0.031 A 
BRANCH  25  29
HETATM   29  C   UNL     1       0.374   6.222 -31.080  1.00  0.00     0.417 C 
HETATM   30  F   UNL     1       1.053   5.044 -31.125  1.00  0.00    -0.166 F 
HETATM   31  F   UNL     1       1.247   7.174 -31.513  1.00  0.00    -0.166 F 
HETATM   32  F   UNL     1       0.170   6.482 -29.757  1.00  0.00    -0.166 F 
ENDBRANCH  25  29
ENDBRANCH   3  23
TORSDOF 5
ENDMDL
MODEL 4
REMARK VINA RESULT:      -9.5      5.470      9.214
REMARK  5 active torsions:
REMARK  status: ('A' for Active; 'I' for Inactive)
REMARK    1  A    between atoms: N_3  and  C_4 
REMARK    2  A    between atoms: C_6  and  C_7 
REMARK    3  A    between atoms: C_15  and  C_16 
REMARK       I    between atoms: C_16  and  N_17 
REMARK    4  A    between atoms: N_17  and  N_18 
REMARK       I    between atoms: N_18  and  C_19 
REMARK    5  A    between atoms: C_19  and  C_20 
ROOT
HETATM    1  C   UNL     1      -3.216  -0.283 -32.933  1.00  0.00     0.070 C 
HETATM    2  C   UNL     1      -4.679   0.087 -33.014  1.00  0.00     0.036 C 
HETATM    3  N   UNL     1      -5.107   1.389 -32.709  1.00  0.00    -0.238 N 
HETATM    4  N   UNL     1      -6.426   1.700 -32.466  1.00  0.00    -0.158 NA
HETATM    5  C   UNL     1      -7.341   0.806 -32.710  1.00  0.00     0.196 C 
HETATM    6  C   UNL     1      -6.972  -0.540 -33.268  1.00  0.00     0.209 C 
HETATM    7  O   UNL     1      -7.840  -1.302 -33.666  1.00  0.00    -0.286 OA
HETATM    8  C   UNL     1      -5.552  -0.894 -33.296  1.00  0.00     0.084 C 
ENDROOT
BRANCH   5   9
HETATM    9  C   UNL     1      -8.780   1.187 -32.397  1.00  0.00     0.294 C 
HETATM   10  N   UNL     1      -9.733   0.705 -33.273  1.00  0.00    -0.261 N 
HETATM   11  H   UNL     1      -9.530  -0.052 -33.936  1.00  0.00     0.190 HD
HETATM   12  O   UNL     1      -9.047   1.876 -31.418  1.00  0.00    -0.264 OA
BRANCH  10  13
HETATM   13  N   UNL     1     -11.082   0.913 -32.946  1.00  0.00    -0.262 N 
HETATM   14  C   UNL     1     -11.898   1.575 -33.839  1.00  0.00     0.286 C 
HETATM   15  O   UNL     1     -11.462   2.069 -34.877  1.00  0.00    -0.264 OA
HETATM   16  H   UNL     1     -11.443   0.398 -32.147  1.00  0.00     0.190 HD
BRANCH  14  17
HETATM   17  C   UNL     1     -13.296   1.641 -33.473  1.00  0.00     0.102 A 
HETATM   18  N   UNL     1     -13.700   2.241 -32.298  1.00  0.00    -0.361 N 
HETATM   19  H   UNL     1     -13.061   2.662 -31.634  1.00  0.00     0.165 HD
HETATM   20  C   UNL     1     -15.061   2.176 -32.174  1.00  0.00     0.088 A 
HETATM   21  C   UNL     1     -15.554   1.525 -33.279  1.00  0.00     0.019 A 
HETATM   22  C   UNL     1     -14.447   1.187 -34.098  1.00  0.00     0.036 A 
ENDBRANCH  14  17
ENDBRANCH  10  13
ENDBRANCH   5   9
BRANCH   3  23
HETATM   23  C   UNL     1      -4.241   2.518 -32.556  1.00  0.00     0.059 A 
HETATM   24  C   UNL     1      -3.985   3.367 -33.651  1.00  0.00     0.047 A 
HETATM   25  C   UNL     1      -3.124   4.472 -33.546  1.00  0.00     0.050 A 
HETATM   26  C   UNL     1      -2.508   4.735 -32.316  1.00  0.00     0.016 A 
HETATM   27  C   UNL     1      -2.726   3.893 -31.226  1.00  0.00     0.003 A 
HETATM   28  C   UNL     1      -3.576   2.790 -31.351  1.00  0.00     0.031 A 
BRANCH  25  29
HETATM   29  C   UNL     1      -2.885   5.382 -34.725  1.00  0.00     0.417 C 
HETATM   30  F   UNL     1      -3.866   5.334 -35.667  1.00  0.00    -0.166 F 
HETATM   31  F   UNL     1      -2.785   6.689 -34.354  1.00  0.00    -0.166 F 
HETATM   32  F   UNL     1      -1.725   5.094 -35.382  1.00  0.00    -0.166 F 
ENDBRANCH  25  29
ENDBRANCH   3  23
TORSDOF 5
ENDMDL
MODEL 5
REMARK VINA RESULT:      -9.4      2.253      3.435
REMARK  5 active torsions:
REMARK  status: ('A' for Active; 'I' for Inactive)
REMARK    1  A    between atoms: N_3  and  C_4 
REMARK    2  A    between atoms: C_6  and  C_7 
REMARK    3  A    between atoms: C_15  and  C_16 
REMARK       I    between atoms: C_16  and  N_17 
REMARK    4  A    between atoms: N_17  and  N_18 
REMARK       I    between atoms: N_18  and  C_19 
REMARK    5  A    between atoms: C_19  and  C_20 
ROOT
HETATM    1  C   UNL     1      -7.129   3.776 -33.856  1.00  0.00     0.070 C 
HETATM    2  C   UNL     1      -5.727   4.098 -33.390  1.00  0.00     0.036 C 
HETATM    3  N   UNL     1      -5.032   3.215 -32.551  1.00  0.00    -0.238 N 
HETATM    4  N   UNL     1      -3.903   3.585 -31.854  1.00  0.00    -0.158 NA
HETATM    5  C   UNL     1      -3.343   4.730 -32.122  1.00  0.00     0.196 C 
HETATM    6  C   UNL     1      -3.903   5.630 -33.188  1.00  0.00     0.209 C 
HETATM    7  O   UNL     1      -3.275   6.609 -33.562  1.00  0.00    -0.286 OA
HETATM    8  C   UNL     1      -5.219   5.292 -33.734  1.00  0.00     0.084 C 
ENDROOT
BRANCH   5   9
HETATM    9  C   UNL     1      -2.116   5.107 -31.306  1.00  0.00     0.294 C 
HETATM   10  N   UNL     1      -2.302   6.097 -30.362  1.00  0.00    -0.261 N 
HETATM   11  H   UNL     1      -3.238   6.384 -30.052  1.00  0.00     0.190 HD
HETATM   12  O   UNL     1      -1.041   4.547 -31.495  1.00  0.00    -0.264 OA
BRANCH  10  13
HETATM   13  N   UNL     1      -1.237   6.377 -29.493  1.00  0.00    -0.262 N 
HETATM   14  C   UNL     1      -1.060   7.666 -29.036  1.00  0.00     0.286 C 
HETATM   15  O   UNL     1      -1.755   8.600 -29.435  1.00  0.00    -0.264 OA
HETATM   16  H   UNL     1      -0.755   5.578 -29.088  1.00  0.00     0.190 HD
BRANCH  14  17
HETATM   17  C   UNL     1      -0.011   7.840 -28.055  1.00  0.00     0.102 A 
HETATM   18  N   UNL     1      -0.184   7.444 -26.744  1.00  0.00    -0.361 N 
HETATM   19  H   UNL     1      -1.034   7.018 -26.395  1.00  0.00     0.165 HD
HETATM   20  C   UNL     1       0.940   7.715 -26.013  1.00  0.00     0.088 A 
HETATM   21  C   UNL     1       1.860   8.294 -26.854  1.00  0.00     0.019 A 
HETATM   22  C   UNL     1       1.265   8.375 -28.138  1.00  0.00     0.036 A 
ENDBRANCH  14  17
ENDBRANCH  10  13
ENDBRANCH   5   9
BRANCH   3  23
HETATM   23  C   UNL     1      -5.431   1.869 -32.269  1.00  0.00     0.059 A 
HETATM   24  C   UNL     1      -5.569   0.939 -33.318  1.00  0.00     0.047 A 
HETATM   25  C   UNL     1      -5.979  -0.384 -33.084  1.00  0.00     0.050 A 
HETATM   26  C   UNL     1      -6.256  -0.785 -31.771  1.00  0.00     0.016 A 
HETATM   27  C   UNL     1      -6.152   0.126 -30.721  1.00  0.00     0.003 A 
HETATM   28  C   UNL     1      -5.753   1.443 -30.972  1.00  0.00     0.031 A 
BRANCH  25  29
HETATM   29  C   UNL     1      -6.097  -1.370 -34.220  1.00  0.00     0.417 C 
HETATM   30  F   UNL     1      -6.487  -0.811 -35.397  1.00  0.00    -0.166 F 
HETATM   31  F   UNL     1      -4.916  -2.000 -34.478  1.00  0.00    -0.166 F 
HETATM   32  F   UNL     1      -6.996  -2.362 -33.962  1.00  0.00    -0.166 F 
ENDBRANCH  25  29
ENDBRANCH   3  23
TORSDOF 5
ENDMDL
MODEL 6
REMARK VINA RESULT:      -9.3      3.385      5.028
REMARK  5 active torsions:
REMARK  status: ('A' for Active; 'I' for Inactive)
REMARK    1  A    between atoms: N_3  and  C_4 
REMARK    2  A    between atoms: C_6  and  C_7 
REMARK    3  A    between atoms: C_15  and  C_16 
REMARK       I    between atoms: C_16  and  N_17 
REMARK    4  A    between atoms: N_17  and  N_18 
REMARK       I    between atoms: N_18  and  C_19 
REMARK    5  A    between atoms: C_19  and  C_20 
ROOT
HETATM    1  C   UNL     1      -7.640  -0.172 -35.293  1.00  0.00     0.070 C 
HETATM    2  C   UNL     1      -6.873   0.409 -34.128  1.00  0.00     0.036 C 
HETATM    3  N   UNL     1      -7.334   1.561 -33.472  1.00  0.00    -0.238 N 
HETATM    4  N   UNL     1      -6.538   2.303 -32.627  1.00  0.00    -0.158 NA
HETATM    5  C   UNL     1      -5.381   1.826 -32.269  1.00  0.00     0.196 C 
HETATM    6  C   UNL     1      -4.922   0.477 -32.749  1.00  0.00     0.209 C 
HETATM    7  O   UNL     1      -3.927  -0.044 -32.267  1.00  0.00    -0.286 OA
HETATM    8  C   UNL     1      -5.700  -0.162 -33.811  1.00  0.00     0.084 C 
ENDROOT
BRANCH   5   9
HETATM    9  C   UNL     1      -4.526   2.695 -31.358  1.00  0.00     0.294 C 
HETATM   10  N   UNL     1      -3.227   2.907 -31.775  1.00  0.00    -0.261 N 
HETATM   11  H   UNL     1      -2.925   2.711 -32.737  1.00  0.00     0.190 HD
HETATM   12  O   UNL     1      -4.992   3.169 -30.327  1.00  0.00    -0.264 OA
BRANCH  10  13
HETATM   13  N   UNL     1      -2.448   3.814 -31.042  1.00  0.00    -0.262 N 
HETATM   14  C   UNL     1      -1.698   4.756 -31.714  1.00  0.00     0.286 C 
HETATM   15  O   UNL     1      -1.618   4.770 -32.942  1.00  0.00    -0.264 OA
HETATM   16  H   UNL     1      -2.620   3.860 -30.040  1.00  0.00     0.190 HD
BRANCH  14  17
HETATM   17  C   UNL     1      -1.020   5.723 -30.879  1.00  0.00     0.102 A 
HETATM   18  N   UNL     1      -1.602   6.205 -29.724  1.00  0.00    -0.361 N 
HETATM   19  H   UNL     1      -2.517   5.919 -29.396  1.00  0.00     0.165 HD
HETATM   20  C   UNL     1      -0.773   7.105 -29.113  1.00  0.00     0.088 A 
HETATM   21  C   UNL     1       0.366   7.215 -29.875  1.00  0.00     0.019 A 
HETATM   22  C   UNL     1       0.213   6.348 -30.987  1.00  0.00     0.036 A 
ENDBRANCH  14  17
ENDBRANCH  10  13
ENDBRANCH   5   9
BRANCH   3  23
HETATM   23  C   UNL     1      -8.636   2.132 -33.640  1.00  0.00     0.059 A 
HETATM   24  C   UNL     1      -9.778   1.308 -33.611  1.00  0.00     0.047 A 
HETATM   25  C   UNL     1     -11.070   1.829 -33.794  1.00  0.00     0.050 A 
HETATM   26  C   UNL     1     -11.221   3.205 -34.007  1.00  0.00     0.016 A 
HETATM   27  C   UNL     1     -10.103   4.034 -34.065  1.00  0.00     0.003 A 
HETATM   28  C   UNL     1      -8.823   3.499 -33.893  1.00  0.00     0.031 A 
BRANCH  25  29
HETATM   29  C   UNL     1     -12.281   0.931 -33.735  1.00  0.00     0.417 C 
HETATM   30  F   UNL     1     -12.019  -0.318 -33.263  1.00  0.00    -0.166 F 
HETATM   31  F   UNL     1     -13.258   1.438 -32.932  1.00  0.00    -0.166 F 
HETATM   32  F   UNL     1     -12.861   0.754 -34.956  1.00  0.00    -0.166 F 
ENDBRANCH  25  29
ENDBRANCH   3  23
TORSDOF 5
ENDMDL
MODEL 7
REMARK VINA RESULT:      -9.1      3.674      5.112
REMARK  5 active torsions:
REMARK  status: ('A' for Active; 'I' for Inactive)
REMARK    1  A    between atoms: N_3  and  C_4 
REMARK    2  A    between atoms: C_6  and  C_7 
REMARK    3  A    between atoms: C_15  and  C_16 
REMARK       I    between atoms: C_16  and  N_17 
REMARK    4  A    between atoms: N_17  and  N_18 
REMARK       I    between atoms: N_18  and  C_19 
REMARK    5  A    between atoms: C_19  and  C_20 
ROOT
HETATM    1  C   UNL     1      -6.979  -1.817 -34.843  1.00  0.00     0.070 C 
HETATM    2  C   UNL     1      -6.076  -1.125 -33.848  1.00  0.00     0.036 C 
HETATM    3  N   UNL     1      -6.464   0.083 -33.249  1.00  0.00    -0.238 N 
HETATM    4  N   UNL     1      -5.577   0.904 -32.589  1.00  0.00    -0.158 NA
HETATM    5  C   UNL     1      -4.376   0.466 -32.342  1.00  0.00     0.196 C 
HETATM    6  C   UNL     1      -3.963  -0.921 -32.749  1.00  0.00     0.209 C 
HETATM    7  O   UNL     1      -2.906  -1.391 -32.354  1.00  0.00    -0.286 OA
HETATM    8  C   UNL     1      -4.863  -1.660 -33.635  1.00  0.00     0.084 C 
ENDROOT
BRANCH   5   9
HETATM    9  C   UNL     1      -3.423   1.420 -31.637  1.00  0.00     0.294 C 
HETATM   10  N   UNL     1      -3.549   2.754 -31.974  1.00  0.00    -0.261 N 
HETATM   11  H   UNL     1      -4.375   3.115 -32.465  1.00  0.00     0.190 HD
HETATM   12  O   UNL     1      -2.608   1.003 -30.821  1.00  0.00    -0.264 OA
BRANCH  10  13
HETATM   13  N   UNL     1      -2.790   3.683 -31.248  1.00  0.00    -0.262 N 
HETATM   14  C   UNL     1      -1.952   4.545 -31.924  1.00  0.00     0.286 C 
HETATM   15  O   UNL     1      -1.780   4.467 -33.139  1.00  0.00    -0.264 OA
HETATM   16  H   UNL     1      -3.035   3.808 -30.269  1.00  0.00     0.190 HD
BRANCH  14  17
HETATM   17  C   UNL     1      -1.299   5.545 -31.108  1.00  0.00     0.102 A 
HETATM   18  N   UNL     1      -1.890   6.031 -29.960  1.00  0.00    -0.361 N 
HETATM   19  H   UNL     1      -2.797   5.726 -29.624  1.00  0.00     0.165 HD
HETATM   20  C   UNL     1      -1.085   6.964 -29.366  1.00  0.00     0.088 A 
HETATM   21  C   UNL     1       0.048   7.092 -30.134  1.00  0.00     0.019 A 
HETATM   22  C   UNL     1      -0.083   6.201 -31.230  1.00  0.00     0.036 A 
ENDBRANCH  14  17
ENDBRANCH  10  13
ENDBRANCH   5   9
BRANCH   3  23
HETATM   23  C   UNL     1      -7.785   0.632 -33.298  1.00  0.00     0.059 A 
HETATM   24  C   UNL     1      -7.979   1.975 -33.677  1.00  0.00     0.047 A 
HETATM   25  C   UNL     1      -9.258   2.555 -33.716  1.00  0.00     0.050 A 
HETATM   26  C   UNL     1     -10.367   1.773 -33.370  1.00  0.00     0.016 A 
HETATM   27  C   UNL     1     -10.196   0.450 -32.966  1.00  0.00     0.003 A 
HETATM   28  C   UNL     1      -8.915  -0.109 -32.922  1.00  0.00     0.031 A 
BRANCH  25  29
HETATM   29  C   UNL     1      -9.444   3.988 -34.148  1.00  0.00     0.417 C 
HETATM   30  F   UNL     1      -8.278   4.662 -34.341  1.00  0.00    -0.166 F 
HETATM   31  F   UNL     1     -10.131   4.086 -35.321  1.00  0.00    -0.166 F 
HETATM   32  F   UNL     1     -10.152   4.722 -33.242  1.00  0.00    -0.166 F 
ENDBRANCH  25  29
ENDBRANCH   3  23
TORSDOF 5
ENDMDL
MODEL 8
REMARK VINA RESULT:      -9.0      5.380      9.834
REMARK  5 active torsions:
REMARK  status: ('A' for Active; 'I' for Inactive)
REMARK    1  A    between atoms: N_3  and  C_4 
REMARK    2  A    between atoms: C_6  and  C_7 
REMARK    3  A    between atoms: C_15  and  C_16 
REMARK       I    between atoms: C_16  and  N_17 
REMARK    4  A    between atoms: N_17  and  N_18 
REMARK       I    between atoms: N_18  and  C_19 
REMARK    5  A    between atoms: C_19  and  C_20 
ROOT
HETATM    1  C   UNL     1      -4.474   7.630 -30.468  1.00  0.00     0.070 C 
HETATM    2  C   UNL     1      -4.490   6.139 -30.717  1.00  0.00     0.036 C 
HETATM    3  N   UNL     1      -3.326   5.470 -31.126  1.00  0.00    -0.238 N 
HETATM    4  N   UNL     1      -3.348   4.200 -31.659  1.00  0.00    -0.158 NA
HETATM    5  C   UNL     1      -4.454   3.514 -31.611  1.00  0.00     0.196 C 
HETATM    6  C   UNL     1      -5.687   4.085 -30.968  1.00  0.00     0.209 C 
HETATM    7  O   UNL     1      -6.659   3.375 -30.761  1.00  0.00    -0.286 OA
HETATM    8  C   UNL     1      -5.671   5.507 -30.622  1.00  0.00     0.084 C 
ENDROOT
BRANCH   5   9
HETATM    9  C   UNL     1      -4.436   2.129 -32.240  1.00  0.00     0.294 C 
HETATM   10  N   UNL     1      -5.620   1.714 -32.816  1.00  0.00    -0.261 N 
HETATM   11  H   UNL     1      -6.379   2.371 -33.032  1.00  0.00     0.190 HD
HETATM   12  O   UNL     1      -3.416   1.448 -32.224  1.00  0.00    -0.264 OA
BRANCH  10  13
HETATM   13  N   UNL     1      -5.609   0.506 -33.528  1.00  0.00    -0.262 N 
HETATM   14  C   UNL     1      -5.889  -0.671 -32.865  1.00  0.00     0.286 C 
HETATM   15  O   UNL     1      -6.060  -0.707 -31.647  1.00  0.00    -0.264 OA
HETATM   16  H   UNL     1      -5.583   0.573 -34.542  1.00  0.00     0.190 HD
BRANCH  14  17
HETATM   17  C   UNL     1      -5.971  -1.850 -33.698  1.00  0.00     0.102 A 
HETATM   18  N   UNL     1      -4.845  -2.587 -34.007  1.00  0.00    -0.361 N 
HETATM   19  H   UNL     1      -3.915  -2.355 -33.680  1.00  0.00     0.165 HD
HETATM   20  C   UNL     1      -5.176  -3.648 -34.806  1.00  0.00     0.088 A 
HETATM   21  C   UNL     1      -6.532  -3.606 -35.022  1.00  0.00     0.019 A 
HETATM   22  C   UNL     1      -7.035  -2.477 -34.327  1.00  0.00     0.036 A 
ENDBRANCH  14  17
ENDBRANCH  10  13
ENDBRANCH   5   9
BRANCH   3  23
HETATM   23  C   UNL     1      -2.009   6.030 -31.099  1.00  0.00     0.059 A 
HETATM   24  C   UNL     1      -1.415   6.381 -29.871  1.00  0.00     0.047 A 
HETATM   25  C   UNL     1      -0.133   6.953 -29.806  1.00  0.00     0.050 A 
HETATM   26  C   UNL     1       0.570   7.175 -30.997  1.00  0.00     0.016 A 
HETATM   27  C   UNL     1      -0.010   6.860 -32.224  1.00  0.00     0.003 A 
HETATM   28  C   UNL     1      -1.291   6.302 -32.273  1.00  0.00     0.031 A 
BRANCH  25  29
HETATM   29  C   UNL     1       0.493   7.299 -28.478  1.00  0.00     0.417 C 
HETATM   30  F   UNL     1       1.137   6.258 -27.884  1.00  0.00    -0.166 F 
HETATM   31  F   UNL     1       1.415   8.296 -28.589  1.00  0.00    -0.166 F 
HETATM   32  F   UNL     1      -0.421   7.739 -27.566  1.00  0.00    -0.166 F 
ENDBRANCH  25  29
ENDBRANCH   3  23
TORSDOF 5
ENDMDL
MODEL 9
REMARK VINA RESULT:      -8.9      2.352      2.954
REMARK  5 active torsions:
REMARK  status: ('A' for Active; 'I' for Inactive)
REMARK    1  A    between atoms: N_3  and  C_4 
REMARK    2  A    between atoms: C_6  and  C_7 
REMARK    3  A    between atoms: C_15  and  C_16 
REMARK       I    between atoms: C_16  and  N_17 
REMARK    4  A    between atoms: N_17  and  N_18 
REMARK       I    between atoms: N_18  and  C_19 
REMARK    5  A    between atoms: C_19  and  C_20 
ROOT
HETATM    1  C   UNL     1      -9.730   0.158 -32.536  1.00  0.00     0.070 C 
HETATM    2  C   UNL     1      -8.791   1.341 -32.584  1.00  0.00     0.036 C 
HETATM    3  N   UNL     1      -7.428   1.163 -32.866  1.00  0.00    -0.238 N 
HETATM    4  N   UNL     1      -6.484   2.136 -32.621  1.00  0.00    -0.158 NA
HETATM    5  C   UNL     1      -6.882   3.333 -32.297  1.00  0.00     0.196 C 
HETATM    6  C   UNL     1      -8.347   3.660 -32.207  1.00  0.00     0.209 C 
HETATM    7  O   UNL     1      -8.714   4.819 -32.086  1.00  0.00    -0.286 OA
HETATM    8  C   UNL     1      -9.292   2.543 -32.257  1.00  0.00     0.084 C 
ENDROOT
BRANCH   5   9
HETATM    9  C   UNL     1      -5.803   4.365 -32.008  1.00  0.00     0.294 C 
HETATM   10  N   UNL     1      -4.921   4.046 -30.994  1.00  0.00    -0.261 N 
HETATM   11  H   UNL     1      -4.835   3.090 -30.630  1.00  0.00     0.190 HD
HETATM   12  O   UNL     1      -5.742   5.405 -32.655  1.00  0.00    -0.264 OA
BRANCH  10  13
HETATM   13  N   UNL     1      -3.828   4.901 -30.789  1.00  0.00    -0.262 N 
HETATM   14  C   UNL     1      -2.577   4.511 -31.217  1.00  0.00     0.286 C 
HETATM   15  O   UNL     1      -2.370   3.397 -31.694  1.00  0.00    -0.264 OA
HETATM   16  H   UNL     1      -4.041   5.854 -30.504  1.00  0.00     0.190 HD
BRANCH  14  17
HETATM   17  C   UNL     1      -1.533   5.501 -31.071  1.00  0.00     0.102 A 
HETATM   18  N   UNL     1      -0.843   5.644 -29.884  1.00  0.00    -0.361 N 
HETATM   19  H   UNL     1      -1.020   5.080 -29.061  1.00  0.00     0.165 HD
HETATM   20  C   UNL     1       0.087   6.642 -29.991  1.00  0.00     0.088 A 
HETATM   21  C   UNL     1       0.007   7.159 -31.262  1.00  0.00     0.019 A 
HETATM   22  C   UNL     1      -1.011   6.444 -31.943  1.00  0.00     0.036 A 
ENDBRANCH  14  17
ENDBRANCH  10  13
ENDBRANCH   5   9
BRANCH   3  23
HETATM   23  C   UNL     1      -6.850  -0.045 -33.373  1.00  0.00     0.059 A 
HETATM   24  C   UNL     1      -5.639  -0.528 -32.839  1.00  0.00     0.047 A 
HETATM   25  C   UNL     1      -5.030  -1.697 -33.325  1.00  0.00     0.050 A 
HETATM   26  C   UNL     1      -5.648  -2.398 -34.368  1.00  0.00     0.016 A 
HETATM   27  C   UNL     1      -6.832  -1.924 -34.929  1.00  0.00     0.003 A 
HETATM   28  C   UNL     1      -7.420  -0.753 -34.442  1.00  0.00     0.031 A 
BRANCH  25  29
HETATM   29  C   UNL     1      -3.746  -2.209 -32.721  1.00  0.00     0.417 C 
HETATM   30  F   UNL     1      -3.362  -3.426 -33.192  1.00  0.00    -0.166 F 
HETATM   31  F   UNL     1      -2.698  -1.370 -32.956  1.00  0.00    -0.166 F 
HETATM   32  F   UNL     1      -3.819  -2.339 -31.366  1.00  0.00    -0.166 F 
ENDBRANCH  25  29
ENDBRANCH   3  23
TORSDOF 5
ENDMDL
MODEL 10
REMARK VINA RESULT:      -8.8      3.406      5.120
REMARK  5 active torsions:
REMARK  status: ('A' for Active; 'I' for Inactive)
REMARK    1  A    between atoms: N_3  and  C_4 
REMARK    2  A    between atoms: C_6  and  C_7 
REMARK    3  A    between atoms: C_15  and  C_16 
REMARK       I    between atoms: C_16  and  N_17 
REMARK    4  A    between atoms: N_17  and  N_18 
REMARK       I    between atoms: N_18  and  C_19 
REMARK    5  A    between atoms: C_19  and  C_20 
ROOT
HETATM    1  C   UNL     1      -4.915   4.614 -34.323  1.00  0.00     0.070 C 
HETATM    2  C   UNL     1      -3.662   5.060 -33.606  1.00  0.00     0.036 C 
HETATM    3  N   UNL     1      -3.287   4.473 -32.388  1.00  0.00    -0.238 N 
HETATM    4  N   UNL     1      -2.352   5.035 -31.548  1.00  0.00    -0.158 NA
HETATM    5  C   UNL     1      -1.646   6.044 -31.975  1.00  0.00     0.196 C 
HETATM    6  C   UNL     1      -1.831   6.578 -33.368  1.00  0.00     0.209 C 
HETATM    7  O   UNL     1      -1.045   7.395 -33.825  1.00  0.00    -0.286 OA
HETATM    8  C   UNL     1      -2.982   6.092 -34.131  1.00  0.00     0.084 C 
ENDROOT
BRANCH   5   9
HETATM    9  C   UNL     1      -0.646   6.650 -31.001  1.00  0.00     0.294 C 
HETATM   10  N   UNL     1      -1.076   6.767 -29.694  1.00  0.00    -0.261 N 
HETATM   11  H   UNL     1      -1.899   6.262 -29.345  1.00  0.00     0.190 HD
HETATM   12  O   UNL     1       0.466   6.999 -31.382  1.00  0.00    -0.264 OA
BRANCH  10  13
HETATM   13  N   UNL     1      -0.140   7.188 -28.737  1.00  0.00    -0.262 N 
HETATM   14  C   UNL     1      -0.257   8.447 -28.188  1.00  0.00     0.286 C 
HETATM   15  O   UNL     1      -1.105   9.250 -28.575  1.00  0.00    -0.264 OA
HETATM   16  H   UNL     1       0.472   6.473 -28.351  1.00  0.00     0.190 HD
BRANCH  14  17
HETATM   17  C   UNL     1       0.677   8.753 -27.128  1.00  0.00     0.102 A 
HETATM   18  N   UNL     1       0.633   9.961 -26.461  1.00  0.00    -0.361 N 
HETATM   19  H   UNL     1      -0.039  10.691 -26.666  1.00  0.00     0.165 HD
HETATM   20  C   UNL     1       1.614  10.016 -25.509  1.00  0.00     0.088 A 
HETATM   21  C   UNL     1       2.310   8.831 -25.552  1.00  0.00     0.019 A 
HETATM   22  C   UNL     1       1.724   8.035 -26.569  1.00  0.00     0.036 A 
ENDBRANCH  14  17
ENDBRANCH  10  13
ENDBRANCH   5   9
BRANCH   3  23
HETATM   23  C   UNL     1      -3.859   3.277 -31.846  1.00  0.00     0.059 A 
HETATM   24  C   UNL     1      -3.433   2.017 -32.310  1.00  0.00     0.047 A 
HETATM   25  C   UNL     1      -3.986   0.823 -31.819  1.00  0.00     0.050 A 
HETATM   26  C   UNL     1      -4.985   0.892 -30.839  1.00  0.00     0.016 A 
HETATM   27  C   UNL     1      -5.440   2.128 -30.385  1.00  0.00     0.003 A 
HETATM   28  C   UNL     1      -4.888   3.308 -30.893  1.00  0.00     0.031 A 
BRANCH  25  29
HETATM   29  C   UNL     1      -3.498  -0.516 -32.313  1.00  0.00     0.417 C 
HETATM   30  F   UNL     1      -4.366  -1.539 -32.083  1.00  0.00    -0.166 F 
HETATM   31  F   UNL     1      -3.267  -0.516 -33.656  1.00  0.00    -0.166 F 
HETATM   32  F   UNL     1      -2.321  -0.891 -31.736  1.00  0.00    -0.166 F 
ENDBRANCH  25  29
ENDBRANCH   3  23
TORSDOF 5
ENDMDL
