MODEL 1
REMARK VINA RESULT:      -9.4      0.000      0.000
REMARK  6 active torsions:
REMARK  status: ('A' for Active; 'I' for Inactive)
REMARK    1  A    between atoms: C_3  and  O_4 
REMARK    2  A    between atoms: O_4  and  C_5 
REMARK    3  A    between atoms: C_5  and  C_6 
REMARK       I    between atoms: C_6  and  N_7 
REMARK    4  A    between atoms: N_7  and  C_8 
REMARK    5  A    between atoms: C_15  and  C_16 
REMARK       I    between atoms: C_16  and  N_17 
REMARK    6  A    between atoms: C_23  and  C_24 
ROOT
HETATM    1  C   UNL     1      -4.739   2.523 -31.822  1.00  0.00     0.246 C 
HETATM    2  N   UNL     1      -3.605   2.766 -32.586  1.00  0.00    -0.325 N 
HETATM    3  O   UNL     1      -5.256   3.292 -31.020  1.00  0.00    -0.271 OA
HETATM    4  H   UNL     1      -3.364   2.058 -33.268  1.00  0.00     0.169 HD
ENDROOT
BRANCH   2   5
HETATM    5  C   UNL     1      -2.744   3.883 -32.515  1.00  0.00     0.035 A 
HETATM    6  C   UNL     1      -1.891   4.142 -31.432  1.00  0.00     0.046 A 
HETATM    7  C   UNL     1      -1.039   5.268 -31.465  1.00  0.00     0.030 A 
HETATM    8  C   UNL     1      -1.064   6.095 -32.582  1.00  0.00     0.063 A 
HETATM    9  C   UNL     1      -0.068   5.850 -30.596  1.00  0.00     0.156 A 
HETATM   10  N   UNL     1      -0.143   7.073 -32.329  1.00  0.00    -0.277 N 
HETATM   11  C   UNL     1      -1.901   5.872 -33.676  1.00  0.00     0.034 A 
HETATM   12  H   UNL     1       0.110   7.848 -32.931  1.00  0.00     0.189 HD
HETATM   13  N   UNL     1       0.475   6.963 -31.141  1.00  0.00    -0.168 NA
HETATM   14  C   UNL     1      -2.742   4.752 -33.615  1.00  0.00     0.032 A 
BRANCH   9  15
HETATM   15  C   UNL     1       0.348   5.375 -29.267  1.00  0.00     0.270 C 
HETATM   16  N   UNL     1       1.143   4.263 -29.296  1.00  0.00    -0.365 N 
HETATM   17  H   UNL     1       1.386   3.862 -30.195  1.00  0.00     0.159 HD
HETATM   18  H   UNL     1       1.486   3.873 -28.433  1.00  0.00     0.159 HD
HETATM   19  O   UNL     1       0.033   5.901 -28.205  1.00  0.00    -0.266 OA
ENDBRANCH   9  15
ENDBRANCH   2   5
BRANCH   1  20
HETATM   20  C   UNL     1      -5.300   1.115 -32.029  1.00  0.00     0.278 C 
BRANCH  20  21
HETATM   21  O   UNL     1      -5.537   0.878 -33.412  1.00  0.00    -0.342 OA
BRANCH  21  22
HETATM   22  C   UNL     1      -5.546  -0.449 -33.769  1.00  0.00     0.075 A 
HETATM   23  C   UNL     1      -6.591  -0.877 -34.601  1.00  0.00    -0.029 A 
HETATM   24  C   UNL     1      -7.666   0.069 -35.055  1.00  0.00     0.051 C 
HETATM   25  C   UNL     1      -6.619  -2.214 -35.028  1.00  0.00     0.010 A 
HETATM   26  C   UNL     1      -5.629  -3.112 -34.624  1.00  0.00     0.008 A 
HETATM   27  C   UNL     1      -4.579  -2.694 -33.798  1.00  0.00    -0.052 A 
HETATM   28  C   UNL     1      -4.549  -1.353 -33.380  1.00  0.00     0.044 A 
BRANCH  27  29
HETATM   29  C   UNL     1      -3.512  -3.686 -33.368  1.00  0.00     0.010 C 
HETATM   30  C   UNL     1      -3.081  -3.473 -31.914  1.00  0.00     0.015 C 
HETATM   31  C   UNL     1      -3.978  -5.127 -33.593  1.00  0.00     0.015 C 
ENDBRANCH  27  29
ENDBRANCH  21  22
ENDBRANCH  20  21
ENDBRANCH   1  20
TORSDOF 6
ENDMDL
MODEL 2
REMARK VINA RESULT:      -9.0      1.537      2.254
REMARK  6 active torsions:
REMARK  status: ('A' for Active; 'I' for Inactive)
REMARK    1  A    between atoms: C_3  and  O_4 
REMARK    2  A    between atoms: O_4  and  C_5 
REMARK    3  A    between atoms: C_5  and  C_6 
REMARK       I    between atoms: C_6  and  N_7 
REMARK    4  A    between atoms: N_7  and  C_8 
REMARK    5  A    between atoms: C_15  and  C_16 
REMARK       I    between atoms: C_16  and  N_17 
REMARK    6  A    between atoms: C_23  and  C_24 
ROOT
HETATM    1  C   UNL     1      -4.985   2.095 -30.951  1.00  0.00     0.246 C 
HETATM    2  N   UNL     1      -4.395   2.376 -32.176  1.00  0.00    -0.325 N 
HETATM    3  O   UNL     1      -5.176   2.887 -30.036  1.00  0.00    -0.271 OA
HETATM    4  H   UNL     1      -4.396   1.627 -32.857  1.00  0.00     0.169 HD
ENDROOT
BRANCH   2   5
HETATM    5  C   UNL     1      -3.785   3.584 -32.580  1.00  0.00     0.035 A 
HETATM    6  C   UNL     1      -2.583   4.068 -32.044  1.00  0.00     0.046 A 
HETATM    7  C   UNL     1      -2.030   5.271 -32.535  1.00  0.00     0.030 A 
HETATM    8  C   UNL     1      -2.695   5.949 -33.550  1.00  0.00     0.063 A 
HETATM    9  C   UNL     1      -0.873   6.060 -32.260  1.00  0.00     0.156 A 
HETATM   10  N   UNL     1      -1.927   7.049 -33.814  1.00  0.00    -0.277 N 
HETATM   11  C   UNL     1      -3.894   5.502 -34.105  1.00  0.00     0.034 A 
HETATM   12  H   UNL     1      -2.105   7.769 -34.505  1.00  0.00     0.189 HD
HETATM   13  N   UNL     1      -0.824   7.153 -33.056  1.00  0.00    -0.168 NA
HETATM   14  C   UNL     1      -4.426   4.309 -33.595  1.00  0.00     0.032 A 
BRANCH   9  15
HETATM   15  C   UNL     1       0.176   5.799 -31.263  1.00  0.00     0.270 C 
HETATM   16  N   UNL     1       0.449   6.863 -30.448  1.00  0.00    -0.365 N 
HETATM   17  H   UNL     1      -0.075   7.721 -30.577  1.00  0.00     0.159 HD
HETATM   18  H   UNL     1       1.145   6.772 -29.726  1.00  0.00     0.159 HD
HETATM   19  O   UNL     1       0.776   4.737 -31.139  1.00  0.00    -0.266 OA
ENDBRANCH   9  15
ENDBRANCH   2   5
BRANCH   1  20
HETATM   20  C   UNL     1      -5.353   0.619 -30.798  1.00  0.00     0.278 C 
BRANCH  20  21
HETATM   21  O   UNL     1      -6.713   0.410 -31.159  1.00  0.00    -0.342 OA
BRANCH  21  22
HETATM   22  C   UNL     1      -6.902   0.004 -32.458  1.00  0.00     0.075 A 
HETATM   23  C   UNL     1      -7.745   0.792 -33.255  1.00  0.00    -0.029 A 
HETATM   24  C   UNL     1      -8.433   2.007 -32.701  1.00  0.00     0.051 C 
HETATM   25  C   UNL     1      -7.935   0.442 -34.601  1.00  0.00     0.010 A 
HETATM   26  C   UNL     1      -7.303  -0.680 -35.142  1.00  0.00     0.008 A 
HETATM   27  C   UNL     1      -6.455  -1.470 -34.357  1.00  0.00    -0.052 A 
HETATM   28  C   UNL     1      -6.260  -1.112 -33.012  1.00  0.00     0.044 A 
BRANCH  27  29
HETATM   29  C   UNL     1      -5.777  -2.687 -34.962  1.00  0.00     0.010 C 
HETATM   30  C   UNL     1      -4.433  -2.988 -34.294  1.00  0.00     0.015 C 
HETATM   31  C   UNL     1      -6.697  -3.910 -34.911  1.00  0.00     0.015 C 
ENDBRANCH  27  29
ENDBRANCH  21  22
ENDBRANCH  20  21
ENDBRANCH   1  20
TORSDOF 6
ENDMDL
MODEL 3
REMARK VINA RESULT:      -8.9      5.512      8.908
REMARK  6 active torsions:
REMARK  status: ('A' for Active; 'I' for Inactive)
REMARK    1  A    between atoms: C_3  and  O_4 
REMARK    2  A    between atoms: O_4  and  C_5 
REMARK    3  A    between atoms: C_5  and  C_6 
REMARK       I    between atoms: C_6  and  N_7 
REMARK    4  A    between atoms: N_7  and  C_8 
REMARK    5  A    between atoms: C_15  and  C_16 
REMARK       I    between atoms: C_16  and  N_17 
REMARK    6  A    between atoms: C_23  and  C_24 
ROOT
HETATM    1  C   UNL     1      -8.921   0.762 -34.210  1.00  0.00     0.246 C 
HETATM    2  N   UNL     1      -9.821   1.687 -34.723  1.00  0.00    -0.325 N 
HETATM    3  O   UNL     1      -9.148  -0.068 -33.338  1.00  0.00    -0.271 OA
HETATM    4  H   UNL     1      -9.498   2.240 -35.507  1.00  0.00     0.169 HD
ENDROOT
BRANCH   2   5
HETATM    5  C   UNL     1     -11.133   1.952 -34.272  1.00  0.00     0.035 A 
HETATM    6  C   UNL     1     -11.427   2.722 -33.138  1.00  0.00     0.046 A 
HETATM    7  C   UNL     1     -12.773   2.962 -32.783  1.00  0.00     0.030 A 
HETATM    8  C   UNL     1     -13.780   2.428 -33.577  1.00  0.00     0.063 A 
HETATM    9  C   UNL     1     -13.454   3.665 -31.744  1.00  0.00     0.156 A 
HETATM   10  N   UNL     1     -14.951   2.831 -32.996  1.00  0.00    -0.277 N 
HETATM   11  C   UNL     1     -13.528   1.653 -34.710  1.00  0.00     0.034 A 
HETATM   12  H   UNL     1     -15.893   2.629 -33.311  1.00  0.00     0.189 HD
HETATM   13  N   UNL     1     -14.796   3.574 -31.888  1.00  0.00    -0.168 NA
HETATM   14  C   UNL     1     -12.184   1.424 -35.036  1.00  0.00     0.032 A 
BRANCH   9  15
HETATM   15  C   UNL     1     -12.859   4.412 -30.626  1.00  0.00     0.270 C 
HETATM   16  N   UNL     1     -12.111   3.644 -29.776  1.00  0.00    -0.365 N 
HETATM   17  H   UNL     1     -12.017   2.654 -29.972  1.00  0.00     0.159 HD
HETATM   18  H   UNL     1     -11.655   4.073 -28.988  1.00  0.00     0.159 HD
HETATM   19  O   UNL     1     -12.995   5.616 -30.436  1.00  0.00    -0.266 OA
ENDBRANCH   9  15
ENDBRANCH   2   5
BRANCH   1  20
HETATM   20  C   UNL     1      -7.524   0.900 -34.815  1.00  0.00     0.278 C 
BRANCH  20  21
HETATM   21  O   UNL     1      -6.544   0.961 -33.784  1.00  0.00    -0.342 OA
BRANCH  21  22
HETATM   22  C   UNL     1      -5.720  -0.137 -33.716  1.00  0.00     0.075 A 
HETATM   23  C   UNL     1      -4.547  -0.006 -32.959  1.00  0.00    -0.029 A 
HETATM   24  C   UNL     1      -4.195   1.288 -32.281  1.00  0.00     0.051 C 
HETATM   25  C   UNL     1      -3.695  -1.113 -32.824  1.00  0.00     0.010 A 
HETATM   26  C   UNL     1      -4.002  -2.328 -33.439  1.00  0.00     0.008 A 
HETATM   27  C   UNL     1      -5.173  -2.471 -34.193  1.00  0.00    -0.052 A 
HETATM   28  C   UNL     1      -6.028  -1.363 -34.319  1.00  0.00     0.044 A 
BRANCH  27  29
HETATM   29  C   UNL     1      -5.489  -3.800 -34.857  1.00  0.00     0.010 C 
HETATM   30  C   UNL     1      -4.639  -4.942 -34.292  1.00  0.00     0.015 C 
HETATM   31  C   UNL     1      -6.981  -4.127 -34.748  1.00  0.00     0.015 C 
ENDBRANCH  27  29
ENDBRANCH  21  22
ENDBRANCH  20  21
ENDBRANCH   1  20
TORSDOF 6
ENDMDL
MODEL 4
REMARK VINA RESULT:      -8.9      5.331      9.242
REMARK  6 active torsions:
REMARK  status: ('A' for Active; 'I' for Inactive)
REMARK    1  A    between atoms: C_3  and  O_4 
REMARK    2  A    between atoms: O_4  and  C_5 
REMARK    3  A    between atoms: C_5  and  C_6 
REMARK       I    between atoms: C_6  and  N_7 
REMARK    4  A    between atoms: N_7  and  C_8 
REMARK    5  A    between atoms: C_15  and  C_16 
REMARK       I    between atoms: C_16  and  N_17 
REMARK    6  A    between atoms: C_23  and  C_24 
ROOT
HETATM    1  C   UNL     1      -8.138   0.987 -33.903  1.00  0.00     0.246 C 
HETATM    2  N   UNL     1      -9.007   1.926 -34.445  1.00  0.00    -0.325 N 
HETATM    3  O   UNL     1      -8.347   0.283 -32.922  1.00  0.00    -0.271 OA
HETATM    4  H   UNL     1      -8.716   2.357 -35.314  1.00  0.00     0.169 HD
ENDROOT
BRANCH   2   5
HETATM    5  C   UNL     1     -10.246   2.355 -33.920  1.00  0.00     0.035 A 
HETATM    6  C   UNL     1     -11.440   1.633 -34.051  1.00  0.00     0.046 A 
HETATM    7  C   UNL     1     -12.626   2.125 -33.463  1.00  0.00     0.030 A 
HETATM    8  C   UNL     1     -12.577   3.322 -32.759  1.00  0.00     0.063 A 
HETATM    9  C   UNL     1     -13.986   1.701 -33.378  1.00  0.00     0.156 A 
HETATM   10  N   UNL     1     -13.851   3.529 -32.308  1.00  0.00    -0.277 N 
HETATM   11  C   UNL     1     -11.409   4.071 -32.610  1.00  0.00     0.034 A 
HETATM   12  H   UNL     1     -14.186   4.307 -31.750  1.00  0.00     0.189 HD
HETATM   13  N   UNL     1     -14.729   2.577 -32.664  1.00  0.00    -0.168 NA
HETATM   14  C   UNL     1     -10.248   3.564 -33.209  1.00  0.00     0.032 A 
BRANCH   9  15
HETATM   15  C   UNL     1     -14.588   0.492 -33.959  1.00  0.00     0.270 C 
HETATM   16  N   UNL     1     -14.063  -0.678 -33.482  1.00  0.00    -0.365 N 
HETATM   17  H   UNL     1     -13.330  -0.632 -32.784  1.00  0.00     0.159 HD
HETATM   18  H   UNL     1     -14.423  -1.557 -33.814  1.00  0.00     0.159 HD
HETATM   19  O   UNL     1     -15.483   0.488 -34.797  1.00  0.00    -0.266 OA
ENDBRANCH   9  15
ENDBRANCH   2   5
BRANCH   1  20
HETATM   20  C   UNL     1      -6.797   0.932 -34.635  1.00  0.00     0.278 C 
BRANCH  20  21
HETATM   21  O   UNL     1      -5.725   0.926 -33.700  1.00  0.00    -0.342 OA
BRANCH  21  22
HETATM   22  C   UNL     1      -5.106  -0.292 -33.551  1.00  0.00     0.075 A 
HETATM   23  C   UNL     1      -4.062  -0.365 -32.618  1.00  0.00    -0.029 A 
HETATM   24  C   UNL     1      -3.623   0.843 -31.840  1.00  0.00     0.051 C 
HETATM   25  C   UNL     1      -3.428  -1.598 -32.399  1.00  0.00     0.010 A 
HETATM   26  C   UNL     1      -3.820  -2.737 -33.105  1.00  0.00     0.008 A 
HETATM   27  C   UNL     1      -4.864  -2.676 -34.035  1.00  0.00    -0.052 A 
HETATM   28  C   UNL     1      -5.503  -1.442 -34.245  1.00  0.00     0.044 A 
BRANCH  27  29
HETATM   29  C   UNL     1      -5.277  -3.925 -34.795  1.00  0.00     0.010 C 
HETATM   30  C   UNL     1      -4.641  -5.190 -34.211  1.00  0.00     0.015 C 
HETATM   31  C   UNL     1      -6.801  -4.057 -34.849  1.00  0.00     0.015 C 
ENDBRANCH  27  29
ENDBRANCH  21  22
ENDBRANCH  20  21
ENDBRANCH   1  20
TORSDOF 6
ENDMDL
MODEL 5
REMARK VINA RESULT:      -8.8      2.990      8.862
REMARK  6 active torsions:
REMARK  status: ('A' for Active; 'I' for Inactive)
REMARK    1  A    between atoms: C_3  and  O_4 
REMARK    2  A    between atoms: O_4  and  C_5 
REMARK    3  A    between atoms: C_5  and  C_6 
REMARK       I    between atoms: C_6  and  N_7 
REMARK    4  A    between atoms: N_7  and  C_8 
REMARK    5  A    between atoms: C_15  and  C_16 
REMARK       I    between atoms: C_16  and  N_17 
REMARK    6  A    between atoms: C_23  and  C_24 
ROOT
HETATM    1  C   UNL     1      -4.385   1.882 -31.622  1.00  0.00     0.246 C 
HETATM    2  N   UNL     1      -4.190   1.318 -32.876  1.00  0.00    -0.325 N 
HETATM    3  O   UNL     1      -5.060   1.419 -30.711  1.00  0.00    -0.271 OA
HETATM    4  H   UNL     1      -3.527   1.785 -33.481  1.00  0.00     0.169 HD
ENDROOT
BRANCH   2   5
HETATM    5  C   UNL     1      -4.818   0.170 -33.409  1.00  0.00     0.035 A 
HETATM    6  C   UNL     1      -4.281  -1.122 -33.326  1.00  0.00     0.046 A 
HETATM    7  C   UNL     1      -4.998  -2.215 -33.859  1.00  0.00     0.030 A 
HETATM    8  C   UNL     1      -6.231  -1.981 -34.454  1.00  0.00     0.063 A 
HETATM    9  C   UNL     1      -4.796  -3.624 -33.968  1.00  0.00     0.156 A 
HETATM   10  N   UNL     1      -6.678  -3.209 -34.859  1.00  0.00    -0.277 N 
HETATM   11  C   UNL     1      -6.797  -0.710 -34.560  1.00  0.00     0.034 A 
HETATM   12  H   UNL     1      -7.551  -3.420 -35.328  1.00  0.00     0.189 HD
HETATM   13  N   UNL     1      -5.840  -4.223 -34.588  1.00  0.00    -0.168 NA
HETATM   14  C   UNL     1      -6.062   0.359 -34.029  1.00  0.00     0.032 A 
BRANCH   9  15
HETATM   15  C   UNL     1      -3.641  -4.405 -33.502  1.00  0.00     0.270 C 
HETATM   16  N   UNL     1      -3.175  -5.312 -34.414  1.00  0.00    -0.365 N 
HETATM   17  H   UNL     1      -3.635  -5.376 -35.314  1.00  0.00     0.159 HD
HETATM   18  H   UNL     1      -2.377  -5.883 -34.186  1.00  0.00     0.159 HD
HETATM   19  O   UNL     1      -3.111  -4.284 -32.403  1.00  0.00    -0.266 OA
ENDBRANCH   9  15
ENDBRANCH   2   5
BRANCH   1  20
HETATM   20  C   UNL     1      -3.692   3.237 -31.471  1.00  0.00     0.278 C 
BRANCH  20  21
HETATM   21  O   UNL     1      -3.460   3.817 -32.750  1.00  0.00    -0.342 OA
BRANCH  21  22
HETATM   22  C   UNL     1      -2.490   4.791 -32.766  1.00  0.00     0.075 A 
HETATM   23  C   UNL     1      -2.466   5.647 -33.877  1.00  0.00    -0.029 A 
HETATM   24  C   UNL     1      -3.439   5.483 -35.011  1.00  0.00     0.051 C 
HETATM   25  C   UNL     1      -1.522   6.684 -33.919  1.00  0.00     0.010 A 
HETATM   26  C   UNL     1      -0.611   6.861 -32.876  1.00  0.00     0.008 A 
HETATM   27  C   UNL     1      -0.629   6.016 -31.760  1.00  0.00    -0.052 A 
HETATM   28  C   UNL     1      -1.582   4.983 -31.717  1.00  0.00     0.044 A 
BRANCH  27  29
HETATM   29  C   UNL     1       0.371   6.223 -30.636  1.00  0.00     0.010 C 
HETATM   30  C   UNL     1      -0.085   7.303 -29.652  1.00  0.00     0.015 C 
HETATM   31  C   UNL     1       0.657   4.907 -29.907  1.00  0.00     0.015 C 
ENDBRANCH  27  29
ENDBRANCH  21  22
ENDBRANCH  20  21
ENDBRANCH   1  20
TORSDOF 6
ENDMDL
MODEL 6
REMARK VINA RESULT:      -8.7      5.104      8.097
REMARK  6 active torsions:
REMARK  status: ('A' for Active; 'I' for Inactive)
REMARK    1  A    between atoms: C_3  and  O_4 
REMARK    2  A    between atoms: O_4  and  C_5 
REMARK    3  A    between atoms: C_5  and  C_6 
REMARK       I    between atoms: C_6  and  N_7 
REMARK    4  A    between atoms: N_7  and  C_8 
REMARK    5  A    between atoms: C_15  and  C_16 
REMARK       I    between atoms: C_16  and  N_17 
REMARK    6  A    between atoms: C_23  and  C_24 
ROOT
HETATM    1  C   UNL     1      -6.834   2.168 -31.824  1.00  0.00     0.246 C 
HETATM    2  N   UNL     1      -8.128   1.667 -31.762  1.00  0.00    -0.325 N 
HETATM    3  O   UNL     1      -6.511   3.349 -31.863  1.00  0.00    -0.271 OA
HETATM    4  H   UNL     1      -8.216   0.666 -31.643  1.00  0.00     0.169 HD
ENDROOT
BRANCH   2   5
HETATM    5  C   UNL     1      -9.336   2.393 -31.855  1.00  0.00     0.035 A 
HETATM    6  C   UNL     1     -10.215   2.308 -32.944  1.00  0.00     0.046 A 
HETATM    7  C   UNL     1     -11.418   3.047 -32.934  1.00  0.00     0.030 A 
HETATM    8  C   UNL     1     -11.706   3.843 -31.831  1.00  0.00     0.063 A 
HETATM    9  C   UNL     1     -12.527   3.223 -33.816  1.00  0.00     0.156 A 
HETATM   10  N   UNL     1     -12.918   4.415 -32.104  1.00  0.00    -0.277 N 
HETATM   11  C   UNL     1     -10.855   3.956 -30.731  1.00  0.00     0.034 A 
HETATM   12  H   UNL     1     -13.440   5.054 -31.516  1.00  0.00     0.189 HD
HETATM   13  N   UNL     1     -13.442   4.069 -33.291  1.00  0.00    -0.168 NA
HETATM   14  C   UNL     1      -9.664   3.219 -30.770  1.00  0.00     0.032 A 
BRANCH   9  15
HETATM   15  C   UNL     1     -12.729   2.609 -35.137  1.00  0.00     0.270 C 
HETATM   16  N   UNL     1     -12.016   3.201 -36.143  1.00  0.00    -0.365 N 
HETATM   17  H   UNL     1     -11.417   3.986 -35.916  1.00  0.00     0.159 HD
HETATM   18  H   UNL     1     -12.083   2.839 -37.080  1.00  0.00     0.159 HD
HETATM   19  O   UNL     1     -13.461   1.650 -35.359  1.00  0.00    -0.266 OA
ENDBRANCH   9  15
ENDBRANCH   2   5
BRANCH   1  20
HETATM   20  C   UNL     1      -5.777   1.065 -31.899  1.00  0.00     0.278 C 
BRANCH  20  21
HETATM   21  O   UNL     1      -5.374   0.859 -33.248  1.00  0.00    -0.342 OA
BRANCH  21  22
HETATM   22  C   UNL     1      -5.401  -0.453 -33.656  1.00  0.00     0.075 A 
HETATM   23  C   UNL     1      -6.421  -0.822 -34.546  1.00  0.00    -0.029 A 
HETATM   24  C   UNL     1      -7.453   0.168 -35.005  1.00  0.00     0.051 C 
HETATM   25  C   UNL     1      -6.463  -2.140 -35.025  1.00  0.00     0.010 A 
HETATM   26  C   UNL     1      -5.512  -3.078 -34.618  1.00  0.00     0.008 A 
HETATM   27  C   UNL     1      -4.488  -2.719 -33.735  1.00  0.00    -0.052 A 
HETATM   28  C   UNL     1      -4.442  -1.396 -33.264  1.00  0.00     0.044 A 
BRANCH  27  29
HETATM   29  C   UNL     1      -3.463  -3.754 -33.302  1.00  0.00     0.010 C 
HETATM   30  C   UNL     1      -3.026  -3.557 -31.848  1.00  0.00     0.015 C 
HETATM   31  C   UNL     1      -3.987  -5.174 -33.527  1.00  0.00     0.015 C 
ENDBRANCH  27  29
ENDBRANCH  21  22
ENDBRANCH  20  21
ENDBRANCH   1  20
TORSDOF 6
ENDMDL
MODEL 7
REMARK VINA RESULT:      -8.3      2.560      3.740
REMARK  6 active torsions:
REMARK  status: ('A' for Active; 'I' for Inactive)
REMARK    1  A    between atoms: C_3  and  O_4 
REMARK    2  A    between atoms: O_4  and  C_5 
REMARK    3  A    between atoms: C_5  and  C_6 
REMARK       I    between atoms: C_6  and  N_7 
REMARK    4  A    between atoms: N_7  and  C_8 
REMARK    5  A    between atoms: C_15  and  C_16 
REMARK       I    between atoms: C_16  and  N_17 
REMARK    6  A    between atoms: C_23  and  C_24 
ROOT
HETATM    1  C   UNL     1      -5.310   2.948 -30.956  1.00  0.00     0.246 C 
HETATM    2  N   UNL     1      -3.947   3.218 -30.966  1.00  0.00    -0.325 N 
HETATM    3  O   UNL     1      -6.175   3.545 -31.585  1.00  0.00    -0.271 OA
HETATM    4  H   UNL     1      -3.358   2.569 -30.460  1.00  0.00     0.169 HD
ENDROOT
BRANCH   2   5
HETATM    5  C   UNL     1      -3.290   4.299 -31.593  1.00  0.00     0.035 A 
HETATM    6  C   UNL     1      -3.451   5.638 -31.209  1.00  0.00     0.046 A 
HETATM    7  C   UNL     1      -2.725   6.650 -31.874  1.00  0.00     0.030 A 
HETATM    8  C   UNL     1      -1.857   6.290 -32.897  1.00  0.00     0.063 A 
HETATM    9  C   UNL     1      -2.618   8.071 -31.782  1.00  0.00     0.156 A 
HETATM   10  N   UNL     1      -1.303   7.462 -33.332  1.00  0.00    -0.277 N 
HETATM   11  C   UNL     1      -1.673   4.970 -33.311  1.00  0.00     0.034 A 
HETATM   12  H   UNL     1      -0.617   7.580 -34.069  1.00  0.00     0.189 HD
HETATM   13  N   UNL     1      -1.739   8.557 -32.688  1.00  0.00    -0.168 NA
HETATM   14  C   UNL     1      -2.411   3.985 -32.640  1.00  0.00     0.032 A 
BRANCH   9  15
HETATM   15  C   UNL     1      -3.332   8.967 -30.860  1.00  0.00     0.270 C 
HETATM   16  N   UNL     1      -3.019   8.776 -29.542  1.00  0.00    -0.365 N 
HETATM   17  H   UNL     1      -2.339   8.064 -29.302  1.00  0.00     0.159 HD
HETATM   18  H   UNL     1      -3.451   9.354 -28.839  1.00  0.00     0.159 HD
HETATM   19  O   UNL     1      -4.141   9.823 -31.200  1.00  0.00    -0.266 OA
ENDBRANCH   9  15
ENDBRANCH   2   5
BRANCH   1  20
HETATM   20  C   UNL     1      -5.679   1.811 -30.002  1.00  0.00     0.278 C 
BRANCH  20  21
HETATM   21  O   UNL     1      -4.875   0.667 -30.264  1.00  0.00    -0.342 OA
BRANCH  21  22
HETATM   22  C   UNL     1      -5.121   0.062 -31.473  1.00  0.00     0.075 A 
HETATM   23  C   UNL     1      -4.040  -0.579 -32.095  1.00  0.00    -0.029 A 
HETATM   24  C   UNL     1      -2.670  -0.576 -31.479  1.00  0.00     0.051 C 
HETATM   25  C   UNL     1      -4.251  -1.248 -33.310  1.00  0.00     0.010 A 
HETATM   26  C   UNL     1      -5.516  -1.270 -33.902  1.00  0.00     0.008 A 
HETATM   27  C   UNL     1      -6.603  -0.637 -33.287  1.00  0.00    -0.052 A 
HETATM   28  C   UNL     1      -6.390   0.024 -32.065  1.00  0.00     0.044 A 
BRANCH  27  29
HETATM   29  C   UNL     1      -7.971  -0.670 -33.946  1.00  0.00     0.010 C 
HETATM   30  C   UNL     1      -9.060  -0.087 -33.040  1.00  0.00     0.015 C 
HETATM   31  C   UNL     1      -7.947   0.045 -35.298  1.00  0.00     0.015 C 
ENDBRANCH  27  29
ENDBRANCH  21  22
ENDBRANCH  20  21
ENDBRANCH   1  20
TORSDOF 6
ENDMDL
MODEL 8
REMARK VINA RESULT:      -8.2      5.522      9.314
REMARK  6 active torsions:
REMARK  status: ('A' for Active; 'I' for Inactive)
REMARK    1  A    between atoms: C_3  and  O_4 
REMARK    2  A    between atoms: O_4  and  C_5 
REMARK    3  A    between atoms: C_5  and  C_6 
REMARK       I    between atoms: C_6  and  N_7 
REMARK    4  A    between atoms: N_7  and  C_8 
REMARK    5  A    between atoms: C_15  and  C_16 
REMARK       I    between atoms: C_16  and  N_17 
REMARK    6  A    between atoms: C_23  and  C_24 
ROOT
HETATM    1  C   UNL     1      -9.058   0.799 -34.163  1.00  0.00     0.246 C 
HETATM    2  N   UNL     1      -9.980   1.706 -34.670  1.00  0.00    -0.325 N 
HETATM    3  O   UNL     1      -9.266  -0.046 -33.301  1.00  0.00    -0.271 OA
HETATM    4  H   UNL     1      -9.669   2.275 -35.447  1.00  0.00     0.169 HD
ENDROOT
BRANCH   2   5
HETATM    5  C   UNL     1     -11.300   1.932 -34.222  1.00  0.00     0.035 A 
HETATM    6  C   UNL     1     -11.621   2.718 -33.106  1.00  0.00     0.046 A 
HETATM    7  C   UNL     1     -12.974   2.915 -32.753  1.00  0.00     0.030 A 
HETATM    8  C   UNL     1     -13.962   2.323 -33.530  1.00  0.00     0.063 A 
HETATM    9  C   UNL     1     -13.679   3.617 -31.729  1.00  0.00     0.156 A 
HETATM   10  N   UNL     1     -15.146   2.696 -32.955  1.00  0.00    -0.277 N 
HETATM   11  C   UNL     1     -13.683   1.531 -34.644  1.00  0.00     0.034 A 
HETATM   12  H   UNL     1     -16.080   2.451 -33.262  1.00  0.00     0.189 HD
HETATM   13  N   UNL     1     -15.017   3.471 -31.867  1.00  0.00    -0.168 NA
HETATM   14  C   UNL     1     -12.332   1.346 -34.969  1.00  0.00     0.032 A 
BRANCH   9  15
HETATM   15  C   UNL     1     -13.110   4.414 -30.632  1.00  0.00     0.270 C 
HETATM   16  N   UNL     1     -12.382   3.685 -29.732  1.00  0.00    -0.365 N 
HETATM   17  H   UNL     1     -12.282   2.687 -29.882  1.00  0.00     0.159 HD
HETATM   18  H   UNL     1     -11.944   4.149 -28.953  1.00  0.00     0.159 HD
HETATM   19  O   UNL     1     -13.252   5.624 -30.498  1.00  0.00    -0.266 OA
ENDBRANCH   9  15
ENDBRANCH   2   5
BRANCH   1  20
HETATM   20  C   UNL     1      -7.663   0.980 -34.761  1.00  0.00     0.278 C 
BRANCH  20  21
HETATM   21  O   UNL     1      -6.965  -0.261 -34.769  1.00  0.00    -0.342 OA
BRANCH  21  22
HETATM   22  C   UNL     1      -5.859  -0.297 -33.955  1.00  0.00     0.075 A 
HETATM   23  C   UNL     1      -5.119  -1.489 -33.940  1.00  0.00    -0.029 A 
HETATM   24  C   UNL     1      -5.538  -2.679 -34.755  1.00  0.00     0.051 C 
HETATM   25  C   UNL     1      -3.956  -1.559 -33.158  1.00  0.00     0.010 A 
HETATM   26  C   UNL     1      -3.541  -0.465 -32.396  1.00  0.00     0.008 A 
HETATM   27  C   UNL     1      -4.270   0.730 -32.408  1.00  0.00    -0.052 A 
HETATM   28  C   UNL     1      -5.429   0.801 -33.199  1.00  0.00     0.044 A 
BRANCH  27  29
HETATM   29  C   UNL     1      -3.804   1.909 -31.571  1.00  0.00     0.010 C 
HETATM   30  C   UNL     1      -3.211   3.028 -32.433  1.00  0.00     0.015 C 
HETATM   31  C   UNL     1      -4.940   2.442 -30.693  1.00  0.00     0.015 C 
ENDBRANCH  27  29
ENDBRANCH  21  22
ENDBRANCH  20  21
ENDBRANCH   1  20
TORSDOF 6
ENDMDL
MODEL 9
REMARK VINA RESULT:      -8.1      1.667      3.368
REMARK  6 active torsions:
REMARK  status: ('A' for Active; 'I' for Inactive)
REMARK    1  A    between atoms: C_3  and  O_4 
REMARK    2  A    between atoms: O_4  and  C_5 
REMARK    3  A    between atoms: C_5  and  C_6 
REMARK       I    between atoms: C_6  and  N_7 
REMARK    4  A    between atoms: N_7  and  C_8 
REMARK    5  A    between atoms: C_15  and  C_16 
REMARK       I    between atoms: C_16  and  N_17 
REMARK    6  A    between atoms: C_23  and  C_24 
ROOT
HETATM    1  C   UNL     1      -5.175   2.393 -30.494  1.00  0.00     0.246 C 
HETATM    2  N   UNL     1      -4.502   2.501 -31.705  1.00  0.00    -0.325 N 
HETATM    3  O   UNL     1      -5.405   3.302 -29.705  1.00  0.00    -0.271 OA
HETATM    4  H   UNL     1      -4.479   1.669 -32.281  1.00  0.00     0.169 HD
ENDROOT
BRANCH   2   5
HETATM    5  C   UNL     1      -3.840   3.636 -32.222  1.00  0.00     0.035 A 
HETATM    6  C   UNL     1      -2.608   4.105 -31.742  1.00  0.00     0.046 A 
HETATM    7  C   UNL     1      -2.004   5.230 -32.345  1.00  0.00     0.030 A 
HETATM    8  C   UNL     1      -2.648   5.846 -33.411  1.00  0.00     0.063 A 
HETATM    9  C   UNL     1      -0.806   5.982 -32.153  1.00  0.00     0.156 A 
HETATM   10  N   UNL     1      -1.831   6.879 -33.780  1.00  0.00    -0.277 N 
HETATM   11  C   UNL     1      -3.876   5.412 -33.913  1.00  0.00     0.034 A 
HETATM   12  H   UNL     1      -1.983   7.542 -34.532  1.00  0.00     0.189 HD
HETATM   13  N   UNL     1      -0.714   6.996 -33.044  1.00  0.00    -0.168 NA
HETATM   14  C   UNL     1      -4.458   4.298 -33.292  1.00  0.00     0.032 A 
BRANCH   9  15
HETATM   15  C   UNL     1       0.242   5.760 -31.146  1.00  0.00     0.270 C 
HETATM   16  N   UNL     1       0.435   6.815 -30.298  1.00  0.00    -0.365 N 
HETATM   17  H   UNL     1      -0.139   7.642 -30.413  1.00  0.00     0.159 HD
HETATM   18  H   UNL     1       1.125   6.748 -29.567  1.00  0.00     0.159 HD
HETATM   19  O   UNL     1       0.906   4.734 -31.040  1.00  0.00    -0.266 OA
ENDBRANCH   9  15
ENDBRANCH   2   5
BRANCH   1  20
HETATM   20  C   UNL     1      -5.587   0.956 -30.175  1.00  0.00     0.278 C 
BRANCH  20  21
HETATM   21  O   UNL     1      -4.907   0.046 -31.031  1.00  0.00    -0.342 OA
BRANCH  21  22
HETATM   22  C   UNL     1      -5.640  -0.372 -32.116  1.00  0.00     0.075 A 
HETATM   23  C   UNL     1      -5.067  -1.363 -32.927  1.00  0.00    -0.029 A 
HETATM   24  C   UNL     1      -3.702  -1.918 -32.638  1.00  0.00     0.051 C 
HETATM   25  C   UNL     1      -5.796  -1.853 -34.022  1.00  0.00     0.010 A 
HETATM   26  C   UNL     1      -7.070  -1.358 -34.310  1.00  0.00     0.008 A 
HETATM   27  C   UNL     1      -7.652  -0.373 -33.504  1.00  0.00    -0.052 A 
HETATM   28  C   UNL     1      -6.924   0.109 -32.403  1.00  0.00     0.044 A 
BRANCH  27  29
HETATM   29  C   UNL     1      -9.038   0.155 -33.834  1.00  0.00     0.010 C 
HETATM   30  C   UNL     1     -10.027  -0.073 -32.687  1.00  0.00     0.015 C 
HETATM   31  C   UNL     1      -8.984   1.634 -34.222  1.00  0.00     0.015 C 
ENDBRANCH  27  29
ENDBRANCH  21  22
ENDBRANCH  20  21
ENDBRANCH   1  20
TORSDOF 6
ENDMDL
MODEL 10
REMARK VINA RESULT:      -8.0      2.098      3.100
REMARK  6 active torsions:
REMARK  status: ('A' for Active; 'I' for Inactive)
REMARK    1  A    between atoms: C_3  and  O_4 
REMARK    2  A    between atoms: O_4  and  C_5 
REMARK    3  A    between atoms: C_5  and  C_6 
REMARK       I    between atoms: C_6  and  N_7 
REMARK    4  A    between atoms: N_7  and  C_8 
REMARK    5  A    between atoms: C_15  and  C_16 
REMARK       I    between atoms: C_16  and  N_17 
REMARK    6  A    between atoms: C_23  and  C_24 
ROOT
HETATM    1  C   UNL     1      -4.712   4.627 -33.728  1.00  0.00     0.246 C 
HETATM    2  N   UNL     1      -4.504   4.678 -32.355  1.00  0.00    -0.325 N 
HETATM    3  O   UNL     1      -4.060   5.211 -34.585  1.00  0.00    -0.271 OA
HETATM    4  H   UNL     1      -5.076   4.062 -31.792  1.00  0.00     0.169 HD
ENDROOT
BRANCH   2   5
HETATM    5  C   UNL     1      -3.594   5.499 -31.653  1.00  0.00     0.035 A 
HETATM    6  C   UNL     1      -2.291   5.106 -31.316  1.00  0.00     0.046 A 
HETATM    7  C   UNL     1      -1.439   6.008 -30.642  1.00  0.00     0.030 A 
HETATM    8  C   UNL     1      -1.916   7.275 -30.331  1.00  0.00     0.063 A 
HETATM    9  C   UNL     1      -0.101   5.985 -30.145  1.00  0.00     0.156 A 
HETATM   10  N   UNL     1      -0.880   7.908 -29.702  1.00  0.00    -0.277 N 
HETATM   11  C   UNL     1      -3.207   7.701 -30.646  1.00  0.00     0.034 A 
HETATM   12  H   UNL     1      -0.869   8.855 -29.340  1.00  0.00     0.189 HD
HETATM   13  N   UNL     1       0.229   7.163 -29.567  1.00  0.00    -0.168 NA
HETATM   14  C   UNL     1      -4.035   6.785 -31.309  1.00  0.00     0.032 A 
BRANCH   9  15
HETATM   15  C   UNL     1       0.860   4.873 -30.205  1.00  0.00     0.270 C 
HETATM   16  N   UNL     1       1.096   4.273 -28.999  1.00  0.00    -0.365 N 
HETATM   17  H   UNL     1       0.607   4.617 -28.181  1.00  0.00     0.159 HD
HETATM   18  H   UNL     1       1.732   3.494 -28.946  1.00  0.00     0.159 HD
HETATM   19  O   UNL     1       1.422   4.487 -31.224  1.00  0.00    -0.266 OA
ENDBRANCH   9  15
ENDBRANCH   2   5
BRANCH   1  20
HETATM   20  C   UNL     1      -5.923   3.775 -34.110  1.00  0.00     0.278 C 
BRANCH  20  21
HETATM   21  O   UNL     1      -6.604   3.334 -32.941  1.00  0.00    -0.342 OA
BRANCH  21  22
HETATM   22  C   UNL     1      -6.385   2.016 -32.618  1.00  0.00     0.075 A 
HETATM   23  C   UNL     1      -6.479   1.669 -31.262  1.00  0.00    -0.029 A 
HETATM   24  C   UNL     1      -6.775   2.700 -30.211  1.00  0.00     0.051 C 
HETATM   25  C   UNL     1      -6.307   0.327 -30.888  1.00  0.00     0.010 A 
HETATM   26  C   UNL     1      -6.036  -0.651 -31.846  1.00  0.00     0.008 A 
HETATM   27  C   UNL     1      -5.945  -0.317 -33.202  1.00  0.00    -0.052 A 
HETATM   28  C   UNL     1      -6.127   1.026 -33.575  1.00  0.00     0.044 A 
BRANCH  27  29
HETATM   29  C   UNL     1      -5.648  -1.394 -34.231  1.00  0.00     0.010 C 
HETATM   30  C   UNL     1      -4.415  -2.222 -33.858  1.00  0.00     0.015 C 
HETATM   31  C   UNL     1      -6.865  -2.297 -34.447  1.00  0.00     0.015 C 
ENDBRANCH  27  29
ENDBRANCH  21  22
ENDBRANCH  20  21
ENDBRANCH   1  20
TORSDOF 6
ENDMDL
