MODEL 1
REMARK VINA RESULT:      -7.9      0.000      0.000
REMARK  7 active torsions:
REMARK  status: ('A' for Active; 'I' for Inactive)
REMARK    1  A    between atoms: C_6  and  C_7 
REMARK    2  A    between atoms: C_7  and  S_8 
REMARK    3  A    between atoms: S_8  and  C_9 
REMARK    4  A    between atoms: N_10  and  C_11 
REMARK    5  A    between atoms: C_14  and  C_15 
REMARK    6  A    between atoms: C_15  and  O_16 
REMARK    7  A    between atoms: C_20  and  N_21 
ROOT
HETATM    1  C   UNL     1      -6.599  -3.222 -34.817  1.00  0.00     0.001 A 
HETATM    2  C   UNL     1      -7.083  -2.061 -34.218  1.00  0.00     0.017 A 
HETATM    3  C   UNL     1      -6.195  -1.136 -33.615  1.00  0.00     0.033 A 
HETATM    4  C   UNL     1      -4.820  -1.389 -33.612  1.00  0.00     0.072 A 
HETATM    5  N   UNL     1      -3.936  -0.562 -33.043  1.00  0.00    -0.232 NA
HETATM    6  C   UNL     1      -4.413   0.544 -32.440  1.00  0.00     0.138 A 
HETATM    7  N   UNL     1      -5.716   0.880 -32.385  1.00  0.00    -0.220 NA
HETATM    8  C   UNL     1      -6.579   0.053 -32.987  1.00  0.00     0.115 A 
HETATM    9  C   UNL     1      -4.361  -2.552 -34.219  1.00  0.00     0.032 A 
HETATM   10  C   UNL     1      -5.232  -3.467 -34.820  1.00  0.00     0.002 A 
ENDROOT
BRANCH   6  11
HETATM   11  C   UNL     1      -3.420   1.438 -31.737  1.00  0.00     0.163 C 
BRANCH  11  12
HETATM   12  S   UNL     1      -4.112   3.079 -31.343  1.00  0.00    -0.082 SA
BRANCH  12  13
HETATM   13  C   UNL     1      -2.823   4.089 -31.899  1.00  0.00     0.192 A 
HETATM   14  N   UNL     1      -2.864   4.991 -32.939  1.00  0.00    -0.305 N 
HETATM   15  C   UNL     1      -1.589   5.518 -33.007  1.00  0.00     0.154 A 
HETATM   16  N   UNL     1      -0.849   4.991 -32.050  1.00  0.00    -0.132 NA
HETATM   17  N   UNL     1      -1.622   4.096 -31.363  1.00  0.00    -0.123 NA
BRANCH  14  18
HETATM   18  C   UNL     1      -3.948   5.409 -33.815  1.00  0.00     0.094 A 
HETATM   19  C   UNL     1      -3.953   5.188 -35.315  1.00  0.00     0.028 A 
HETATM   20  C   UNL     1      -4.931   4.452 -34.463  1.00  0.00     0.028 A 
ENDBRANCH  14  18
BRANCH  15  21
HETATM   21  C   UNL     1      -1.125   6.536 -33.983  1.00  0.00     0.244 C 
BRANCH  21  22
HETATM   22  O   UNL     1      -1.503   7.827 -33.510  1.00  0.00    -0.393 OA
HETATM   23  H   UNL     1      -0.722   8.406 -33.617  1.00  0.00     0.209 HD
ENDBRANCH  21  22
ENDBRANCH  15  21
ENDBRANCH  12  13
ENDBRANCH  11  12
ENDBRANCH   6  11
BRANCH   8  24
HETATM   24  N   UNL     1      -7.919   0.456 -32.925  1.00  0.00    -0.286 NA
HETATM   25  H   UNL     1      -8.178   0.751 -33.864  1.00  0.00     0.125 HD
HETATM   26  H   UNL     1      -8.509  -0.301 -32.600  1.00  0.00     0.125 HD
ENDBRANCH   8  24
TORSDOF 7
ENDMDL
MODEL 2
REMARK VINA RESULT:      -7.7      1.955      3.327
REMARK  7 active torsions:
REMARK  status: ('A' for Active; 'I' for Inactive)
REMARK    1  A    between atoms: C_6  and  C_7 
REMARK    2  A    between atoms: C_7  and  S_8 
REMARK    3  A    between atoms: S_8  and  C_9 
REMARK    4  A    between atoms: N_10  and  C_11 
REMARK    5  A    between atoms: C_14  and  C_15 
REMARK    6  A    between atoms: C_15  and  O_16 
REMARK    7  A    between atoms: C_20  and  N_21 
ROOT
HETATM    1  C   UNL     1      -4.693  -4.879 -34.362  1.00  0.00     0.001 A 
HETATM    2  C   UNL     1      -4.119  -3.743 -33.796  1.00  0.00     0.017 A 
HETATM    3  C   UNL     1      -4.781  -2.492 -33.859  1.00  0.00     0.033 A 
HETATM    4  C   UNL     1      -6.019  -2.389 -34.500  1.00  0.00     0.072 A 
HETATM    5  N   UNL     1      -6.681  -1.231 -34.607  1.00  0.00    -0.232 NA
HETATM    6  C   UNL     1      -6.107  -0.132 -34.083  1.00  0.00     0.138 A 
HETATM    7  N   UNL     1      -4.920  -0.121 -33.447  1.00  0.00    -0.220 NA
HETATM    8  C   UNL     1      -4.289  -1.296 -33.327  1.00  0.00     0.115 A 
HETATM    9  C   UNL     1      -6.573  -3.537 -35.054  1.00  0.00     0.032 A 
HETATM   10  C   UNL     1      -5.926  -4.775 -34.991  1.00  0.00     0.002 A 
ENDROOT
BRANCH   6  11
HETATM   11  C   UNL     1      -6.823   1.185 -34.268  1.00  0.00     0.163 C 
BRANCH  11  12
HETATM   12  S   UNL     1      -6.765   2.229 -32.775  1.00  0.00    -0.082 SA
BRANCH  12  13
HETATM   13  C   UNL     1      -5.912   3.598 -33.400  1.00  0.00     0.192 A 
HETATM   14  N   UNL     1      -4.567   3.868 -33.274  1.00  0.00    -0.305 N 
HETATM   15  C   UNL     1      -4.383   5.080 -33.910  1.00  0.00     0.154 A 
HETATM   16  N   UNL     1      -5.535   5.487 -34.412  1.00  0.00    -0.132 NA
HETATM   17  N   UNL     1      -6.487   4.561 -34.088  1.00  0.00    -0.123 NA
BRANCH  14  18
HETATM   18  C   UNL     1      -3.482   3.112 -32.666  1.00  0.00     0.094 A 
HETATM   19  C   UNL     1      -2.635   3.627 -31.519  1.00  0.00     0.028 A 
HETATM   20  C   UNL     1      -3.558   2.477 -31.291  1.00  0.00     0.028 A 
ENDBRANCH  14  18
BRANCH  15  21
HETATM   21  C   UNL     1      -3.093   5.803 -34.036  1.00  0.00     0.244 C 
BRANCH  21  22
HETATM   22  O   UNL     1      -2.508   5.476 -35.295  1.00  0.00    -0.393 OA
HETATM   23  H   UNL     1      -1.626   5.897 -35.313  1.00  0.00     0.209 HD
ENDBRANCH  21  22
ENDBRANCH  15  21
ENDBRANCH  12  13
ENDBRANCH  11  12
ENDBRANCH   6  11
BRANCH   8  24
HETATM   24  N   UNL     1      -3.072  -1.239 -32.637  1.00  0.00    -0.286 NA
HETATM   25  H   UNL     1      -2.363  -1.610 -33.265  1.00  0.00     0.125 HD
HETATM   26  H   UNL     1      -2.857  -0.289 -32.359  1.00  0.00     0.125 HD
ENDBRANCH   8  24
TORSDOF 7
ENDMDL
MODEL 3
REMARK VINA RESULT:      -7.6      1.119      2.089
REMARK  7 active torsions:
REMARK  status: ('A' for Active; 'I' for Inactive)
REMARK    1  A    between atoms: C_6  and  C_7 
REMARK    2  A    between atoms: C_7  and  S_8 
REMARK    3  A    between atoms: S_8  and  C_9 
REMARK    4  A    between atoms: N_10  and  C_11 
REMARK    5  A    between atoms: C_14  and  C_15 
REMARK    6  A    between atoms: C_15  and  O_16 
REMARK    7  A    between atoms: C_20  and  N_21 
ROOT
HETATM    1  C   UNL     1      -5.652  -2.990 -34.775  1.00  0.00     0.001 A 
HETATM    2  C   UNL     1      -4.662  -3.058 -33.797  1.00  0.00     0.017 A 
HETATM    3  C   UNL     1      -4.327  -1.914 -33.029  1.00  0.00     0.033 A 
HETATM    4  C   UNL     1      -4.987  -0.703 -33.257  1.00  0.00     0.072 A 
HETATM    5  N   UNL     1      -4.701   0.413 -32.577  1.00  0.00    -0.232 NA
HETATM    6  C   UNL     1      -3.723   0.349 -31.653  1.00  0.00     0.138 A 
HETATM    7  N   UNL     1      -3.026  -0.765 -31.358  1.00  0.00    -0.220 NA
HETATM    8  C   UNL     1      -3.350  -1.876 -32.030  1.00  0.00     0.115 A 
HETATM    9  C   UNL     1      -5.974  -0.662 -34.236  1.00  0.00     0.032 A 
HETATM   10  C   UNL     1      -6.312  -1.788 -34.993  1.00  0.00     0.002 A 
ENDROOT
BRANCH   6  11
HETATM   11  C   UNL     1      -3.353   1.626 -30.939  1.00  0.00     0.163 C 
BRANCH  11  12
HETATM   12  S   UNL     1      -4.295   3.065 -31.546  1.00  0.00    -0.082 SA
BRANCH  12  13
HETATM   13  C   UNL     1      -2.994   4.062 -32.100  1.00  0.00     0.192 A 
HETATM   14  N   UNL     1      -3.018   4.950 -33.152  1.00  0.00    -0.305 N 
HETATM   15  C   UNL     1      -1.740   5.470 -33.212  1.00  0.00     0.154 A 
HETATM   16  N   UNL     1      -1.013   4.953 -32.239  1.00  0.00    -0.132 NA
HETATM   17  N   UNL     1      -1.800   4.071 -31.549  1.00  0.00    -0.123 NA
BRANCH  14  18
HETATM   18  C   UNL     1      -4.090   5.361 -34.047  1.00  0.00     0.094 A 
HETATM   19  C   UNL     1      -5.214   4.446 -34.493  1.00  0.00     0.028 A 
HETATM   20  C   UNL     1      -5.519   5.603 -33.602  1.00  0.00     0.028 A 
ENDBRANCH  14  18
BRANCH  15  21
HETATM   21  C   UNL     1      -1.260   6.472 -34.196  1.00  0.00     0.244 C 
BRANCH  21  22
HETATM   22  O   UNL     1      -1.568   7.776 -33.707  1.00  0.00    -0.393 OA
HETATM   23  H   UNL     1      -2.410   8.043 -34.127  1.00  0.00     0.209 HD
ENDBRANCH  21  22
ENDBRANCH  15  21
ENDBRANCH  12  13
ENDBRANCH  11  12
ENDBRANCH   6  11
BRANCH   8  24
HETATM   24  N   UNL     1      -2.615  -3.014 -31.671  1.00  0.00    -0.286 NA
HETATM   25  H   UNL     1      -2.533  -2.999 -30.658  1.00  0.00     0.125 HD
HETATM   26  H   UNL     1      -3.076  -3.857 -31.992  1.00  0.00     0.125 HD
ENDBRANCH   8  24
TORSDOF 7
ENDMDL
MODEL 4
REMARK VINA RESULT:      -7.5      1.653      2.377
REMARK  7 active torsions:
REMARK  status: ('A' for Active; 'I' for Inactive)
REMARK    1  A    between atoms: C_6  and  C_7 
REMARK    2  A    between atoms: C_7  and  S_8 
REMARK    3  A    between atoms: S_8  and  C_9 
REMARK    4  A    between atoms: N_10  and  C_11 
REMARK    5  A    between atoms: C_14  and  C_15 
REMARK    6  A    between atoms: C_15  and  O_16 
REMARK    7  A    between atoms: C_20  and  N_21 
ROOT
HETATM    1  C   UNL     1      -5.890  -3.249 -34.962  1.00  0.00     0.001 A 
HETATM    2  C   UNL     1      -6.718  -2.134 -35.067  1.00  0.00     0.017 A 
HETATM    3  C   UNL     1      -6.382  -0.921 -34.415  1.00  0.00     0.033 A 
HETATM    4  C   UNL     1      -5.212  -0.840 -33.653  1.00  0.00     0.072 A 
HETATM    5  N   UNL     1      -4.853   0.271 -33.001  1.00  0.00    -0.232 NA
HETATM    6  C   UNL     1      -5.672   1.337 -33.082  1.00  0.00     0.138 A 
HETATM    7  N   UNL     1      -6.819   1.364 -33.786  1.00  0.00    -0.220 NA
HETATM    8  C   UNL     1      -7.144   0.250 -34.454  1.00  0.00     0.115 A 
HETATM    9  C   UNL     1      -4.400  -1.966 -33.567  1.00  0.00     0.032 A 
HETATM   10  C   UNL     1      -4.726  -3.163 -34.212  1.00  0.00     0.002 A 
ENDROOT
BRANCH   6  11
HETATM   11  C   UNL     1      -5.299   2.565 -32.287  1.00  0.00     0.163 C 
BRANCH  11  12
HETATM   12  S   UNL     1      -6.103   4.076 -32.916  1.00  0.00    -0.082 SA
BRANCH  12  13
HETATM   13  C   UNL     1      -4.757   4.827 -33.700  1.00  0.00     0.192 A 
HETATM   14  N   UNL     1      -3.624   5.334 -33.102  1.00  0.00    -0.305 N 
HETATM   15  C   UNL     1      -2.872   5.851 -34.139  1.00  0.00     0.154 A 
HETATM   16  N   UNL     1      -3.498   5.634 -35.281  1.00  0.00    -0.132 NA
HETATM   17  N   UNL     1      -4.676   4.998 -35.002  1.00  0.00    -0.123 NA
BRANCH  14  18
HETATM   18  C   UNL     1      -3.188   5.351 -31.714  1.00  0.00     0.094 A 
HETATM   19  C   UNL     1      -2.980   6.619 -30.910  1.00  0.00     0.028 A 
HETATM   20  C   UNL     1      -4.092   5.695 -30.546  1.00  0.00     0.028 A 
ENDBRANCH  14  18
BRANCH  15  21
HETATM   21  C   UNL     1      -1.555   6.521 -34.001  1.00  0.00     0.244 C 
BRANCH  21  22
HETATM   22  O   UNL     1      -1.767   7.927 -33.892  1.00  0.00    -0.393 OA
HETATM   23  H   UNL     1      -2.517   8.052 -33.276  1.00  0.00     0.209 HD
ENDBRANCH  21  22
ENDBRANCH  15  21
ENDBRANCH  12  13
ENDBRANCH  11  12
ENDBRANCH   6  11
BRANCH   8  24
HETATM   24  N   UNL     1      -8.332   0.334 -35.192  1.00  0.00    -0.286 NA
HETATM   25  H   UNL     1      -8.138  -0.071 -36.104  1.00  0.00     0.125 HD
HETATM   26  H   UNL     1      -9.084  -0.158 -34.722  1.00  0.00     0.125 HD
ENDBRANCH   8  24
TORSDOF 7
ENDMDL
MODEL 5
REMARK VINA RESULT:      -7.5      4.834      7.013
REMARK  7 active torsions:
REMARK  status: ('A' for Active; 'I' for Inactive)
REMARK    1  A    between atoms: C_6  and  C_7 
REMARK    2  A    between atoms: C_7  and  S_8 
REMARK    3  A    between atoms: S_8  and  C_9 
REMARK    4  A    between atoms: N_10  and  C_11 
REMARK    5  A    between atoms: C_14  and  C_15 
REMARK    6  A    between atoms: C_15  and  O_16 
REMARK    7  A    between atoms: C_20  and  N_21 
ROOT
HETATM    1  C   UNL     1      -4.577  -3.271 -34.545  1.00  0.00     0.001 A 
HETATM    2  C   UNL     1      -4.200  -2.339 -33.581  1.00  0.00     0.017 A 
HETATM    3  C   UNL     1      -5.136  -1.398 -33.083  1.00  0.00     0.033 A 
HETATM    4  C   UNL     1      -6.449  -1.398 -33.564  1.00  0.00     0.072 A 
HETATM    5  N   UNL     1      -7.370  -0.524 -33.144  1.00  0.00    -0.232 NA
HETATM    6  C   UNL     1      -6.993   0.394 -32.235  1.00  0.00     0.138 A 
HETATM    7  N   UNL     1      -5.757   0.482 -31.708  1.00  0.00    -0.220 NA
HETATM    8  C   UNL     1      -4.859  -0.422 -32.121  1.00  0.00     0.115 A 
HETATM    9  C   UNL     1      -6.801  -2.342 -34.523  1.00  0.00     0.032 A 
HETATM   10  C   UNL     1      -5.883  -3.274 -35.015  1.00  0.00     0.002 A 
ENDROOT
BRANCH   6  11
HETATM   11  C   UNL     1      -8.015   1.424 -31.817  1.00  0.00     0.163 C 
BRANCH  11  12
HETATM   12  S   UNL     1      -9.728   0.852 -32.067  1.00  0.00    -0.082 SA
BRANCH  12  13
HETATM   13  C   UNL     1     -10.207   1.896 -33.360  1.00  0.00     0.192 A 
HETATM   14  N   UNL     1     -11.460   2.004 -33.920  1.00  0.00    -0.305 N 
HETATM   15  C   UNL     1     -11.324   2.938 -34.928  1.00  0.00     0.154 A 
HETATM   16  N   UNL     1     -10.082   3.384 -34.943  1.00  0.00    -0.132 NA
HETATM   17  N   UNL     1      -9.387   2.728 -33.964  1.00  0.00    -0.123 NA
BRANCH  14  18
HETATM   18  C   UNL     1     -12.725   1.361 -33.593  1.00  0.00     0.094 A 
HETATM   19  C   UNL     1     -13.606   0.666 -34.611  1.00  0.00     0.028 A 
HETATM   20  C   UNL     1     -12.927  -0.142 -33.557  1.00  0.00     0.028 A 
ENDBRANCH  14  18
BRANCH  15  21
HETATM   21  C   UNL     1     -12.406   3.394 -35.836  1.00  0.00     0.244 C 
BRANCH  21  22
HETATM   22  O   UNL     1     -12.299   2.683 -37.067  1.00  0.00    -0.393 OA
HETATM   23  H   UNL     1     -13.211   2.480 -37.356  1.00  0.00     0.209 HD
ENDBRANCH  21  22
ENDBRANCH  15  21
ENDBRANCH  12  13
ENDBRANCH  11  12
ENDBRANCH   6  11
BRANCH   8  24
HETATM   24  N   UNL     1      -3.596  -0.307 -31.528  1.00  0.00    -0.286 NA
HETATM   25  H   UNL     1      -3.060  -1.119 -31.824  1.00  0.00     0.125 HD
HETATM   26  H   UNL     1      -3.143   0.556 -31.806  1.00  0.00     0.125 HD
ENDBRANCH   8  24
TORSDOF 7
ENDMDL
MODEL 6
REMARK VINA RESULT:      -7.4      5.085      6.963
REMARK  7 active torsions:
REMARK  status: ('A' for Active; 'I' for Inactive)
REMARK    1  A    between atoms: C_6  and  C_7 
REMARK    2  A    between atoms: C_7  and  S_8 
REMARK    3  A    between atoms: S_8  and  C_9 
REMARK    4  A    between atoms: N_10  and  C_11 
REMARK    5  A    between atoms: C_14  and  C_15 
REMARK    6  A    between atoms: C_15  and  O_16 
REMARK    7  A    between atoms: C_20  and  N_21 
ROOT
HETATM    1  C   UNL     1      -4.537  -4.712 -34.276  1.00  0.00     0.001 A 
HETATM    2  C   UNL     1      -4.132  -3.444 -33.862  1.00  0.00     0.017 A 
HETATM    3  C   UNL     1      -4.996  -2.329 -34.004  1.00  0.00     0.033 A 
HETATM    4  C   UNL     1      -6.263  -2.496 -34.569  1.00  0.00     0.072 A 
HETATM    5  N   UNL     1      -7.114  -1.478 -34.744  1.00  0.00    -0.232 NA
HETATM    6  C   UNL     1      -6.706  -0.251 -34.370  1.00  0.00     0.138 A 
HETATM    7  N   UNL     1      -5.507   0.018 -33.819  1.00  0.00    -0.220 NA
HETATM    8  C   UNL     1      -4.684  -1.020 -33.626  1.00  0.00     0.115 A 
HETATM    9  C   UNL     1      -6.646  -3.771 -34.970  1.00  0.00     0.032 A 
HETATM   10  C   UNL     1      -5.800  -4.876 -34.828  1.00  0.00     0.002 A 
ENDROOT
BRANCH   6  11
HETATM   11  C   UNL     1      -7.639   0.906 -34.636  1.00  0.00     0.163 C 
BRANCH  11  12
HETATM   12  S   UNL     1      -8.265   1.667 -33.101  1.00  0.00    -0.082 SA
BRANCH  12  13
HETATM   13  C   UNL     1      -9.967   1.482 -33.348  1.00  0.00     0.192 A 
HETATM   14  N   UNL     1     -10.878   2.476 -33.630  1.00  0.00    -0.305 N 
HETATM   15  C   UNL     1     -12.099   1.833 -33.703  1.00  0.00     0.154 A 
HETATM   16  N   UNL     1     -11.921   0.539 -33.514  1.00  0.00    -0.132 NA
HETATM   17  N   UNL     1     -10.589   0.325 -33.289  1.00  0.00    -0.123 NA
BRANCH  14  18
HETATM   18  C   UNL     1     -10.713   3.904 -33.857  1.00  0.00     0.094 A 
HETATM   19  C   UNL     1      -9.457   4.527 -34.434  1.00  0.00     0.028 A 
HETATM   20  C   UNL     1     -10.718   4.550 -35.229  1.00  0.00     0.028 A 
ENDBRANCH  14  18
BRANCH  15  21
HETATM   21  C   UNL     1     -13.403   2.485 -33.979  1.00  0.00     0.244 C 
BRANCH  21  22
HETATM   22  O   UNL     1     -14.156   1.648 -34.854  1.00  0.00    -0.393 OA
HETATM   23  H   UNL     1     -13.517   1.235 -35.468  1.00  0.00     0.209 HD
ENDBRANCH  21  22
ENDBRANCH  15  21
ENDBRANCH  12  13
ENDBRANCH  11  12
ENDBRANCH   6  11
BRANCH   8  24
HETATM   24  N   UNL     1      -3.461  -0.695 -33.027  1.00  0.00    -0.286 NA
HETATM   25  H   UNL     1      -3.161   0.187 -33.435  1.00  0.00     0.125 HD
HETATM   26  H   UNL     1      -3.559  -0.621 -32.021  1.00  0.00     0.125 HD
ENDBRANCH   8  24
TORSDOF 7
ENDMDL
MODEL 7
REMARK VINA RESULT:      -7.4      3.328      4.463
REMARK  7 active torsions:
REMARK  status: ('A' for Active; 'I' for Inactive)
REMARK    1  A    between atoms: C_6  and  C_7 
REMARK    2  A    between atoms: C_7  and  S_8 
REMARK    3  A    between atoms: S_8  and  C_9 
REMARK    4  A    between atoms: N_10  and  C_11 
REMARK    5  A    between atoms: C_14  and  C_15 
REMARK    6  A    between atoms: C_15  and  O_16 
REMARK    7  A    between atoms: C_20  and  N_21 
ROOT
HETATM    1  C   UNL     1      -4.421  -4.802 -34.182  1.00  0.00     0.001 A 
HETATM    2  C   UNL     1      -4.025  -3.528 -33.780  1.00  0.00     0.017 A 
HETATM    3  C   UNL     1      -4.867  -2.409 -33.995  1.00  0.00     0.033 A 
HETATM    4  C   UNL     1      -6.104  -2.578 -34.622  1.00  0.00     0.072 A 
HETATM    5  N   UNL     1      -6.933  -1.556 -34.869  1.00  0.00    -0.232 NA
HETATM    6  C   UNL     1      -6.531  -0.323 -34.504  1.00  0.00     0.138 A 
HETATM    7  N   UNL     1      -5.361  -0.052 -33.897  1.00  0.00    -0.220 NA
HETATM    8  C   UNL     1      -4.561  -1.093 -33.634  1.00  0.00     0.115 A 
HETATM    9  C   UNL     1      -6.480  -3.859 -35.011  1.00  0.00     0.032 A 
HETATM   10  C   UNL     1      -5.655  -4.967 -34.797  1.00  0.00     0.002 A 
ENDROOT
BRANCH   6  11
HETATM   11  C   UNL     1      -7.436   0.835 -34.848  1.00  0.00     0.163 C 
BRANCH  11  12
HETATM   12  S   UNL     1      -8.422   1.400 -33.422  1.00  0.00    -0.082 SA
BRANCH  12  13
HETATM   13  C   UNL     1      -7.368   2.617 -32.792  1.00  0.00     0.192 A 
HETATM   14  N   UNL     1      -6.718   2.606 -31.578  1.00  0.00    -0.305 N 
HETATM   15  C   UNL     1      -6.031   3.803 -31.527  1.00  0.00     0.154 A 
HETATM   16  N   UNL     1      -6.231   4.467 -32.650  1.00  0.00    -0.132 NA
HETATM   17  N   UNL     1      -7.069   3.724 -33.436  1.00  0.00    -0.123 NA
BRANCH  14  18
HETATM   18  C   UNL     1      -6.659   1.606 -30.521  1.00  0.00     0.094 A 
HETATM   19  C   UNL     1      -6.797   0.116 -30.761  1.00  0.00     0.028 A 
HETATM   20  C   UNL     1      -5.488   0.667 -30.307  1.00  0.00     0.028 A 
ENDBRANCH  14  18
BRANCH  15  21
HETATM   21  C   UNL     1      -5.181   4.264 -30.401  1.00  0.00     0.244 C 
BRANCH  21  22
HETATM   22  O   UNL     1      -3.817   3.996 -30.720  1.00  0.00    -0.393 OA
HETATM   23  H   UNL     1      -3.637   3.077 -30.438  1.00  0.00     0.209 HD
ENDBRANCH  21  22
ENDBRANCH  15  21
ENDBRANCH  12  13
ENDBRANCH  11  12
ENDBRANCH   6  11
BRANCH   8  24
HETATM   24  N   UNL     1      -3.367  -0.766 -32.979  1.00  0.00    -0.286 NA
HETATM   25  H   UNL     1      -2.655  -1.397 -33.338  1.00  0.00     0.125 HD
HETATM   26  H   UNL     1      -3.119   0.203 -33.144  1.00  0.00     0.125 HD
ENDBRANCH   8  24
TORSDOF 7
ENDMDL
MODEL 8
REMARK VINA RESULT:      -7.1      5.358      9.019
REMARK  7 active torsions:
REMARK  status: ('A' for Active; 'I' for Inactive)
REMARK    1  A    between atoms: C_6  and  C_7 
REMARK    2  A    between atoms: C_7  and  S_8 
REMARK    3  A    between atoms: S_8  and  C_9 
REMARK    4  A    between atoms: N_10  and  C_11 
REMARK    5  A    between atoms: C_14  and  C_15 
REMARK    6  A    between atoms: C_15  and  O_16 
REMARK    7  A    between atoms: C_20  and  N_21 
ROOT
HETATM    1  C   UNL     1       1.876   8.699 -26.645  1.00  0.00     0.001 A 
HETATM    2  C   UNL     1       1.497   7.555 -27.345  1.00  0.00     0.017 A 
HETATM    3  C   UNL     1       0.247   7.497 -28.010  1.00  0.00     0.033 A 
HETATM    4  C   UNL     1      -0.620   8.592 -27.961  1.00  0.00     0.072 A 
HETATM    5  N   UNL     1      -1.820   8.587 -28.553  1.00  0.00    -0.232 NA
HETATM    6  C   UNL     1      -2.193   7.468 -29.203  1.00  0.00     0.138 A 
HETATM    7  N   UNL     1      -1.434   6.361 -29.309  1.00  0.00    -0.220 NA
HETATM    8  C   UNL     1      -0.226   6.398 -28.734  1.00  0.00     0.115 A 
HETATM    9  C   UNL     1      -0.219   9.723 -27.259  1.00  0.00     0.032 A 
HETATM   10  C   UNL     1       1.015   9.787 -26.605  1.00  0.00     0.002 A 
ENDROOT
BRANCH   6  11
HETATM   11  C   UNL     1      -3.575   7.441 -29.810  1.00  0.00     0.163 C 
BRANCH  11  12
HETATM   12  S   UNL     1      -3.745   8.588 -31.217  1.00  0.00    -0.082 SA
BRANCH  12  13
HETATM   13  C   UNL     1      -2.804   7.751 -32.402  1.00  0.00     0.192 A 
HETATM   14  N   UNL     1      -3.072   6.519 -32.956  1.00  0.00    -0.305 N 
HETATM   15  C   UNL     1      -2.019   6.276 -33.816  1.00  0.00     0.154 A 
HETATM   16  N   UNL     1      -1.197   7.309 -33.801  1.00  0.00    -0.132 NA
HETATM   17  N   UNL     1      -1.690   8.226 -32.914  1.00  0.00    -0.123 NA
BRANCH  14  18
HETATM   18  C   UNL     1      -4.191   5.604 -32.785  1.00  0.00     0.094 A 
HETATM   19  C   UNL     1      -5.633   6.050 -32.652  1.00  0.00     0.028 A 
HETATM   20  C   UNL     1      -5.208   5.297 -33.867  1.00  0.00     0.028 A 
ENDBRANCH  14  18
BRANCH  15  21
HETATM   21  C   UNL     1      -1.846   5.059 -34.648  1.00  0.00     0.244 C 
BRANCH  21  22
HETATM   22  O   UNL     1      -0.824   5.306 -35.612  1.00  0.00    -0.393 OA
HETATM   23  H   UNL     1      -0.991   6.199 -35.976  1.00  0.00     0.209 HD
ENDBRANCH  21  22
ENDBRANCH  15  21
ENDBRANCH  12  13
ENDBRANCH  11  12
ENDBRANCH   6  11
BRANCH   8  24
HETATM   24  N   UNL     1       0.535   5.234 -28.892  1.00  0.00    -0.286 NA
HETATM   25  H   UNL     1       1.363   5.497 -29.421  1.00  0.00     0.125 HD
HETATM   26  H   UNL     1       0.783   4.839 -27.992  1.00  0.00     0.125 HD
ENDBRANCH   8  24
TORSDOF 7
ENDMDL
MODEL 9
REMARK VINA RESULT:      -7.1      1.707      2.627
REMARK  7 active torsions:
REMARK  status: ('A' for Active; 'I' for Inactive)
REMARK    1  A    between atoms: C_6  and  C_7 
REMARK    2  A    between atoms: C_7  and  S_8 
REMARK    3  A    between atoms: S_8  and  C_9 
REMARK    4  A    between atoms: N_10  and  C_11 
REMARK    5  A    between atoms: C_14  and  C_15 
REMARK    6  A    between atoms: C_15  and  O_16 
REMARK    7  A    between atoms: C_20  and  N_21 
ROOT
HETATM    1  C   UNL     1      -5.497  -2.920 -34.669  1.00  0.00     0.001 A 
HETATM    2  C   UNL     1      -4.510  -2.739 -33.702  1.00  0.00     0.017 A 
HETATM    3  C   UNL     1      -4.384  -1.502 -33.023  1.00  0.00     0.033 A 
HETATM    4  C   UNL     1      -5.249  -0.447 -33.327  1.00  0.00     0.072 A 
HETATM    5  N   UNL     1      -5.166   0.748 -32.732  1.00  0.00    -0.232 NA
HETATM    6  C   UNL     1      -4.192   0.926 -31.820  1.00  0.00     0.138 A 
HETATM    7  N   UNL     1      -3.307  -0.021 -31.456  1.00  0.00    -0.220 NA
HETATM    8  C   UNL     1      -3.428  -1.218 -32.042  1.00  0.00     0.115 A 
HETATM    9  C   UNL     1      -6.228  -0.653 -34.293  1.00  0.00     0.032 A 
HETATM   10  C   UNL     1      -6.361  -1.874 -34.963  1.00  0.00     0.002 A 
ENDROOT
BRANCH   6  11
HETATM   11  C   UNL     1      -4.055   2.298 -31.203  1.00  0.00     0.163 C 
BRANCH  11  12
HETATM   12  S   UNL     1      -4.468   3.635 -32.372  1.00  0.00    -0.082 SA
BRANCH  12  13
HETATM   13  C   UNL     1      -3.500   4.912 -31.720  1.00  0.00     0.192 A 
HETATM   14  N   UNL     1      -2.307   5.387 -32.218  1.00  0.00    -0.305 N 
HETATM   15  C   UNL     1      -1.918   6.375 -31.334  1.00  0.00     0.154 A 
HETATM   16  N   UNL     1      -2.835   6.503 -30.394  1.00  0.00    -0.132 NA
HETATM   17  N   UNL     1      -3.819   5.585 -30.636  1.00  0.00    -0.123 NA
BRANCH  14  18
HETATM   18  C   UNL     1      -1.548   5.038 -33.410  1.00  0.00     0.094 A 
HETATM   19  C   UNL     1      -2.146   4.972 -34.801  1.00  0.00     0.028 A 
HETATM   20  C   UNL     1      -1.148   6.033 -34.482  1.00  0.00     0.028 A 
ENDBRANCH  14  18
BRANCH  15  21
HETATM   21  C   UNL     1      -0.679   7.186 -31.436  1.00  0.00     0.244 C 
BRANCH  21  22
HETATM   22  O   UNL     1       0.248   6.728 -30.454  1.00  0.00    -0.393 OA
HETATM   23  H   UNL     1       0.653   5.911 -30.807  1.00  0.00     0.209 HD
ENDBRANCH  21  22
ENDBRANCH  15  21
ENDBRANCH  12  13
ENDBRANCH  11  12
ENDBRANCH   6  11
BRANCH   8  24
HETATM   24  N   UNL     1      -2.503  -2.178 -31.614  1.00  0.00    -0.286 NA
HETATM   25  H   UNL     1      -2.980  -2.757 -30.926  1.00  0.00     0.125 HD
HETATM   26  H   UNL     1      -2.169  -2.732 -32.394  1.00  0.00     0.125 HD
ENDBRANCH   8  24
TORSDOF 7
ENDMDL
MODEL 10
REMARK VINA RESULT:      -7.1      2.033      2.587
REMARK  7 active torsions:
REMARK  status: ('A' for Active; 'I' for Inactive)
REMARK    1  A    between atoms: C_6  and  C_7 
REMARK    2  A    between atoms: C_7  and  S_8 
REMARK    3  A    between atoms: S_8  and  C_9 
REMARK    4  A    between atoms: N_10  and  C_11 
REMARK    5  A    between atoms: C_14  and  C_15 
REMARK    6  A    between atoms: C_15  and  O_16 
REMARK    7  A    between atoms: C_20  and  N_21 
ROOT
HETATM    1  C   UNL     1      -6.082  -2.227 -34.585  1.00  0.00     0.001 A 
HETATM    2  C   UNL     1      -7.051  -1.236 -34.737  1.00  0.00     0.017 A 
HETATM    3  C   UNL     1      -6.861   0.050 -34.174  1.00  0.00     0.033 A 
HETATM    4  C   UNL     1      -5.696   0.331 -33.453  1.00  0.00     0.072 A 
HETATM    5  N   UNL     1      -5.471   1.521 -32.884  1.00  0.00    -0.232 NA
HETATM    6  C   UNL     1      -6.423   2.465 -33.008  1.00  0.00     0.138 A 
HETATM    7  N   UNL     1      -7.579   2.297 -33.679  1.00  0.00    -0.220 NA
HETATM    8  C   UNL     1      -7.770   1.109 -34.265  1.00  0.00     0.115 A 
HETATM    9  C   UNL     1      -4.743  -0.672 -33.319  1.00  0.00     0.032 A 
HETATM   10  C   UNL     1      -4.923  -1.942 -33.877  1.00  0.00     0.002 A 
ENDROOT
BRANCH   6  11
HETATM   11  C   UNL     1      -6.197   3.781 -32.305  1.00  0.00     0.163 C 
BRANCH  11  12
HETATM   12  S   UNL     1      -5.253   4.965 -33.321  1.00  0.00    -0.082 SA
BRANCH  12  13
HETATM   13  C   UNL     1      -4.006   5.392 -32.201  1.00  0.00     0.192 A 
HETATM   14  N   UNL     1      -2.646   5.271 -32.387  1.00  0.00    -0.305 N 
HETATM   15  C   UNL     1      -2.082   5.710 -31.205  1.00  0.00     0.154 A 
HETATM   16  N   UNL     1      -3.040   6.101 -30.385  1.00  0.00    -0.132 NA
HETATM   17  N   UNL     1      -4.240   5.897 -31.010  1.00  0.00    -0.123 NA
BRANCH  14  18
HETATM   18  C   UNL     1      -1.861   4.830 -33.530  1.00  0.00     0.094 A 
HETATM   19  C   UNL     1      -2.296   5.009 -34.971  1.00  0.00     0.028 A 
HETATM   20  C   UNL     1      -1.118   5.769 -34.461  1.00  0.00     0.028 A 
ENDBRANCH  14  18
BRANCH  15  21
HETATM   21  C   UNL     1      -0.629   5.763 -30.908  1.00  0.00     0.244 C 
BRANCH  21  22
HETATM   22  O   UNL     1      -0.363   4.930 -29.782  1.00  0.00    -0.393 OA
HETATM   23  H   UNL     1      -1.214   4.803 -29.317  1.00  0.00     0.209 HD
ENDBRANCH  21  22
ENDBRANCH  15  21
ENDBRANCH  12  13
ENDBRANCH  11  12
ENDBRANCH   6  11
BRANCH   8  24
HETATM   24  N   UNL     1      -8.974   0.990 -34.971  1.00  0.00    -0.286 NA
HETATM   25  H   UNL     1      -9.341   0.063 -34.767  1.00  0.00     0.125 HD
HETATM   26  H   UNL     1      -9.627   1.714 -34.696  1.00  0.00     0.125 HD
ENDBRANCH   8  24
TORSDOF 7
ENDMDL
