MODEL 1
REMARK VINA RESULT:      -8.9      0.000      0.000
REMARK  3 active torsions:
REMARK  status: ('A' for Active; 'I' for Inactive)
REMARK    1  A    between atoms: C_4  and  N_5 
REMARK       I    between atoms: N_5  and  C_6 
REMARK    2  A    between atoms: C_6  and  C_7 
REMARK    3  A    between atoms: C_7  and  C_8 
ROOT
HETATM    1  C   UNL     1      -3.636   3.356 -31.718  1.00  0.00     0.286 C 
HETATM    2  N   UNL     1      -2.760   3.803 -32.890  1.00  0.00    -0.056 N 
HETATM    3  H   UNL     1      -1.890   4.177 -32.492  1.00  0.00     0.278 HD
HETATM    4  H   UNL     1      -2.452   2.950 -33.404  1.00  0.00     0.278 HD
HETATM    5  C   UNL     1      -3.384   4.801 -33.824  1.00  0.00     0.209 C 
HETATM    6  C   UNL     1      -3.851   6.018 -32.993  1.00  0.00     0.115 C 
HETATM    7  N   UNL     1      -4.722   5.603 -31.900  1.00  0.00    -0.353 N 
HETATM    8  C   UNL     1      -4.600   4.437 -31.193  1.00  0.00     0.249 C 
HETATM    9  O   UNL     1      -5.289   4.259 -30.193  1.00  0.00    -0.271 OA
HETATM   10  C   UNL     1      -2.366   5.193 -34.894  1.00  0.00     0.035 C 
HETATM   11  C   UNL     1      -1.203   6.022 -34.348  1.00  0.00     0.002 C 
HETATM   12  C   UNL     1      -1.691   7.228 -33.551  1.00  0.00     0.002 C 
HETATM   13  C   UNL     1      -2.668   6.834 -32.447  1.00  0.00     0.027 C 
HETATM   14  H   UNL     1      -5.357   6.284 -31.485  1.00  0.00     0.163 HD
ENDROOT
BRANCH   1  15
HETATM   15  C   UNL     1      -4.421   2.072 -32.033  1.00  0.00     0.146 C 
BRANCH  15  16
HETATM   16  C   UNL     1      -3.556   0.867 -31.773  1.00  0.00     0.224 C 
HETATM   17  N   UNL     1      -3.853  -0.373 -32.235  1.00  0.00    -0.327 N 
HETATM   18  H   UNL     1      -3.282  -1.095 -31.804  1.00  0.00     0.169 HD
HETATM   19  O   UNL     1      -2.559   1.014 -31.049  1.00  0.00    -0.273 OA
BRANCH  17  20
HETATM   20  C   UNL     1      -4.813  -0.844 -33.148  1.00  0.00     0.035 A 
HETATM   21  C   UNL     1      -5.824  -0.061 -33.708  1.00  0.00     0.036 A 
HETATM   22  C   UNL     1      -6.748  -0.623 -34.602  1.00  0.00    -0.059 A 
HETATM   23  C   UNL     1      -7.822   0.219 -35.231  1.00  0.00     0.048 C 
HETATM   24  C   UNL     1      -6.628  -1.971 -34.961  1.00  0.00     0.013 A 
HETATM   25  C   UNL     1      -5.594  -2.756 -34.446  1.00  0.00    -0.059 A 
HETATM   26  C   UNL     1      -4.691  -2.183 -33.543  1.00  0.00     0.036 A 
HETATM   27  C   UNL     1      -5.494  -4.210 -34.810  1.00  0.00     0.048 C 
ENDBRANCH  17  20
ENDBRANCH  15  16
ENDBRANCH   1  15
TORSDOF 3
ENDMDL
MODEL 2
REMARK VINA RESULT:      -8.9      1.535      1.919
REMARK  3 active torsions:
REMARK  status: ('A' for Active; 'I' for Inactive)
REMARK    1  A    between atoms: C_4  and  N_5 
REMARK       I    between atoms: N_5  and  C_6 
REMARK    2  A    between atoms: C_6  and  C_7 
REMARK    3  A    between atoms: C_7  and  C_8 
ROOT
HETATM    1  C   UNL     1      -4.896   1.881 -30.485  1.00  0.00     0.286 C 
HETATM    2  N   UNL     1      -3.705   2.633 -31.083  1.00  0.00    -0.056 N 
HETATM    3  H   UNL     1      -3.562   3.475 -30.513  1.00  0.00     0.278 HD
HETATM    4  H   UNL     1      -2.848   2.066 -30.908  1.00  0.00     0.278 HD
HETATM    5  C   UNL     1      -3.827   2.994 -32.536  1.00  0.00     0.209 C 
HETATM    6  C   UNL     1      -5.134   3.796 -32.730  1.00  0.00     0.115 C 
HETATM    7  N   UNL     1      -6.280   3.066 -32.202  1.00  0.00    -0.353 N 
HETATM    8  C   UNL     1      -6.260   2.258 -31.097  1.00  0.00     0.249 C 
HETATM    9  O   UNL     1      -7.314   1.816 -30.649  1.00  0.00    -0.271 OA
HETATM   10  C   UNL     1      -2.594   3.792 -32.961  1.00  0.00     0.035 C 
HETATM   11  C   UNL     1      -2.533   5.187 -32.339  1.00  0.00     0.002 C 
HETATM   12  C   UNL     1      -3.826   5.965 -32.562  1.00  0.00     0.002 C 
HETATM   13  C   UNL     1      -5.054   5.192 -32.091  1.00  0.00     0.027 C 
HETATM   14  H   UNL     1      -7.214   3.296 -32.540  1.00  0.00     0.163 HD
ENDROOT
BRANCH   1  15
HETATM   15  C   UNL     1      -4.711   0.356 -30.538  1.00  0.00     0.146 C 
BRANCH  15  16
HETATM   16  C   UNL     1      -3.499   0.017 -31.366  1.00  0.00     0.224 C 
HETATM   17  N   UNL     1      -3.570  -0.642 -32.549  1.00  0.00    -0.327 N 
HETATM   18  H   UNL     1      -2.661  -0.964 -32.870  1.00  0.00     0.169 HD
HETATM   19  O   UNL     1      -2.383   0.304 -30.906  1.00  0.00    -0.273 OA
BRANCH  17  20
HETATM   20  C   UNL     1      -4.649  -0.995 -33.378  1.00  0.00     0.035 A 
HETATM   21  C   UNL     1      -5.606  -0.099 -33.857  1.00  0.00     0.036 A 
HETATM   22  C   UNL     1      -6.659  -0.547 -34.670  1.00  0.00    -0.059 A 
HETATM   23  C   UNL     1      -7.677   0.416 -35.212  1.00  0.00     0.048 C 
HETATM   24  C   UNL     1      -6.724  -1.898 -35.032  1.00  0.00     0.013 A 
HETATM   25  C   UNL     1      -5.748  -2.799 -34.600  1.00  0.00    -0.059 A 
HETATM   26  C   UNL     1      -4.714  -2.337 -33.777  1.00  0.00     0.036 A 
HETATM   27  C   UNL     1      -5.845  -4.253 -34.965  1.00  0.00     0.048 C 
ENDBRANCH  17  20
ENDBRANCH  15  16
ENDBRANCH   1  15
TORSDOF 3
ENDMDL
MODEL 3
REMARK VINA RESULT:      -8.7      2.241      7.081
REMARK  3 active torsions:
REMARK  status: ('A' for Active; 'I' for Inactive)
REMARK    1  A    between atoms: C_4  and  N_5 
REMARK       I    between atoms: N_5  and  C_6 
REMARK    2  A    between atoms: C_6  and  C_7 
REMARK    3  A    between atoms: C_7  and  C_8 
ROOT
HETATM    1  C   UNL     1      -5.840   3.200 -33.092  1.00  0.00     0.286 C 
HETATM    2  N   UNL     1      -5.657   1.694 -32.898  1.00  0.00    -0.056 N 
HETATM    3  H   UNL     1      -5.155   1.341 -33.721  1.00  0.00     0.278 HD
HETATM    4  H   UNL     1      -4.983   1.551 -32.115  1.00  0.00     0.278 HD
HETATM    5  C   UNL     1      -6.918   0.909 -32.674  1.00  0.00     0.209 C 
HETATM    6  C   UNL     1      -7.884   1.196 -33.846  1.00  0.00     0.115 C 
HETATM    7  N   UNL     1      -8.098   2.629 -34.010  1.00  0.00    -0.353 N 
HETATM    8  C   UNL     1      -7.156   3.598 -33.790  1.00  0.00     0.249 C 
HETATM    9  O   UNL     1      -7.394   4.759 -34.107  1.00  0.00    -0.271 OA
HETATM   10  C   UNL     1      -6.574  -0.576 -32.564  1.00  0.00     0.035 C 
HETATM   11  C   UNL     1      -6.105  -1.187 -33.885  1.00  0.00     0.002 C 
HETATM   12  C   UNL     1      -7.085  -0.907 -35.020  1.00  0.00     0.002 C 
HETATM   13  C   UNL     1      -7.390   0.581 -35.165  1.00  0.00     0.027 C 
HETATM   14  H   UNL     1      -8.932   2.955 -34.497  1.00  0.00     0.163 HD
ENDROOT
BRANCH   1  15
HETATM   15  C   UNL     1      -5.699   3.981 -31.775  1.00  0.00     0.146 C 
BRANCH  15  16
HETATM   16  C   UNL     1      -4.729   3.275 -30.864  1.00  0.00     0.224 C 
HETATM   17  N   UNL     1      -3.387   3.454 -30.927  1.00  0.00    -0.327 N 
HETATM   18  H   UNL     1      -2.876   2.760 -30.387  1.00  0.00     0.169 HD
HETATM   19  O   UNL     1      -5.186   2.445 -30.062  1.00  0.00    -0.273 OA
BRANCH  17  20
HETATM   20  C   UNL     1      -2.582   4.376 -31.618  1.00  0.00     0.035 A 
HETATM   21  C   UNL     1      -2.322   4.329 -32.989  1.00  0.00     0.036 A 
HETATM   22  C   UNL     1      -1.492   5.287 -33.591  1.00  0.00    -0.059 A 
HETATM   23  C   UNL     1      -1.230   5.259 -35.070  1.00  0.00     0.048 C 
HETATM   24  C   UNL     1      -0.953   6.319 -32.813  1.00  0.00     0.013 A 
HETATM   25  C   UNL     1      -1.241   6.408 -31.449  1.00  0.00    -0.059 A 
HETATM   26  C   UNL     1      -2.059   5.434 -30.862  1.00  0.00     0.036 A 
HETATM   27  C   UNL     1      -0.631   7.499 -30.616  1.00  0.00     0.048 C 
ENDBRANCH  17  20
ENDBRANCH  15  16
ENDBRANCH   1  15
TORSDOF 3
ENDMDL
MODEL 4
REMARK VINA RESULT:      -8.7      2.161      7.093
REMARK  3 active torsions:
REMARK  status: ('A' for Active; 'I' for Inactive)
REMARK    1  A    between atoms: C_4  and  N_5 
REMARK       I    between atoms: N_5  and  C_6 
REMARK    2  A    between atoms: C_6  and  C_7 
REMARK    3  A    between atoms: C_7  and  C_8 
ROOT
HETATM    1  C   UNL     1      -5.916   3.229 -33.056  1.00  0.00     0.286 C 
HETATM    2  N   UNL     1      -5.626   1.745 -32.827  1.00  0.00    -0.056 N 
HETATM    3  H   UNL     1      -5.065   1.419 -33.623  1.00  0.00     0.278 HD
HETATM    4  H   UNL     1      -4.975   1.667 -32.016  1.00  0.00     0.278 HD
HETATM    5  C   UNL     1      -6.831   0.869 -32.637  1.00  0.00     0.209 C 
HETATM    6  C   UNL     1      -7.769   1.062 -33.852  1.00  0.00     0.115 C 
HETATM    7  N   UNL     1      -8.085   2.471 -34.050  1.00  0.00    -0.353 N 
HETATM    8  C   UNL     1      -7.229   3.513 -33.812  1.00  0.00     0.249 C 
HETATM    9  O   UNL     1      -7.543   4.648 -34.160  1.00  0.00    -0.271 OA
HETATM   10  C   UNL     1      -6.379  -0.583 -32.487  1.00  0.00     0.035 C 
HETATM   11  C   UNL     1      -5.812  -1.177 -33.776  1.00  0.00     0.002 C 
HETATM   12  C   UNL     1      -6.764  -0.992 -34.953  1.00  0.00     0.002 C 
HETATM   13  C   UNL     1      -7.176   0.466 -35.139  1.00  0.00     0.027 C 
HETATM   14  H   UNL     1      -8.921   2.724 -34.575  1.00  0.00     0.163 HD
ENDROOT
BRANCH   1  15
HETATM   15  C   UNL     1      -5.888   4.039 -31.750  1.00  0.00     0.146 C 
BRANCH  15  16
HETATM   16  C   UNL     1      -4.787   3.530 -30.857  1.00  0.00     0.224 C 
HETATM   17  N   UNL     1      -3.506   3.967 -30.935  1.00  0.00    -0.327 N 
HETATM   18  H   UNL     1      -2.863   3.382 -30.408  1.00  0.00     0.169 HD
HETATM   19  O   UNL     1      -5.063   2.623 -30.055  1.00  0.00    -0.273 OA
BRANCH  17  20
HETATM   20  C   UNL     1      -2.904   5.031 -31.630  1.00  0.00     0.035 A 
HETATM   21  C   UNL     1      -2.819   6.340 -31.154  1.00  0.00     0.036 A 
HETATM   22  C   UNL     1      -2.211   7.341 -31.927  1.00  0.00    -0.059 A 
HETATM   23  C   UNL     1      -2.092   8.747 -31.411  1.00  0.00     0.048 C 
HETATM   24  C   UNL     1      -1.654   7.011 -33.168  1.00  0.00     0.013 A 
HETATM   25  C   UNL     1      -1.688   5.696 -33.638  1.00  0.00    -0.059 A 
HETATM   26  C   UNL     1      -2.312   4.713 -32.860  1.00  0.00     0.036 A 
HETATM   27  C   UNL     1      -1.117   5.358 -34.985  1.00  0.00     0.048 C 
ENDBRANCH  17  20
ENDBRANCH  15  16
ENDBRANCH   1  15
TORSDOF 3
ENDMDL
MODEL 5
REMARK VINA RESULT:      -8.7      2.131      3.128
REMARK  3 active torsions:
REMARK  status: ('A' for Active; 'I' for Inactive)
REMARK    1  A    between atoms: C_4  and  N_5 
REMARK       I    between atoms: N_5  and  C_6 
REMARK    2  A    between atoms: C_6  and  C_7 
REMARK    3  A    between atoms: C_7  and  C_8 
ROOT
HETATM    1  C   UNL     1      -4.121   5.053 -33.259  1.00  0.00     0.286 C 
HETATM    2  N   UNL     1      -3.185   5.086 -32.049  1.00  0.00    -0.056 N 
HETATM    3  H   UNL     1      -3.196   6.046 -31.684  1.00  0.00     0.278 HD
HETATM    4  H   UNL     1      -3.625   4.526 -31.288  1.00  0.00     0.278 HD
HETATM    5  C   UNL     1      -1.776   4.635 -32.306  1.00  0.00     0.209 C 
HETATM    6  C   UNL     1      -1.199   5.478 -33.467  1.00  0.00     0.115 C 
HETATM    7  N   UNL     1      -2.064   5.416 -34.639  1.00  0.00    -0.353 N 
HETATM    8  C   UNL     1      -3.431   5.338 -34.607  1.00  0.00     0.249 C 
HETATM    9  O   UNL     1      -4.069   5.448 -35.650  1.00  0.00    -0.271 OA
HETATM   10  C   UNL     1      -0.957   4.789 -31.024  1.00  0.00     0.035 C 
HETATM   11  C   UNL     1      -0.709   6.247 -30.636  1.00  0.00     0.002 C 
HETATM   12  C   UNL     1      -0.122   7.050 -31.792  1.00  0.00     0.002 C 
HETATM   13  C   UNL     1      -0.965   6.941 -33.059  1.00  0.00     0.027 C 
HETATM   14  H   UNL     1      -1.675   5.630 -35.556  1.00  0.00     0.163 HD
ENDROOT
BRANCH   1  15
HETATM   15  C   UNL     1      -4.911   3.737 -33.351  1.00  0.00     0.146 C 
BRANCH  15  16
HETATM   16  C   UNL     1      -5.509   3.405 -32.009  1.00  0.00     0.224 C 
HETATM   17  N   UNL     1      -5.858   2.147 -31.643  1.00  0.00    -0.327 N 
HETATM   18  H   UNL     1      -6.425   2.131 -30.799  1.00  0.00     0.169 HD
HETATM   19  O   UNL     1      -5.747   4.343 -31.232  1.00  0.00    -0.273 OA
BRANCH  17  20
HETATM   20  C   UNL     1      -5.624   0.888 -32.223  1.00  0.00     0.035 A 
HETATM   21  C   UNL     1      -6.425   0.308 -33.207  1.00  0.00     0.036 A 
HETATM   22  C   UNL     1      -6.120  -0.963 -33.718  1.00  0.00    -0.059 A 
HETATM   23  C   UNL     1      -6.963  -1.582 -34.797  1.00  0.00     0.048 C 
HETATM   24  C   UNL     1      -4.980  -1.634 -33.261  1.00  0.00     0.013 A 
HETATM   25  C   UNL     1      -4.140  -1.048 -32.311  1.00  0.00    -0.059 A 
HETATM   26  C   UNL     1      -4.469   0.215 -31.801  1.00  0.00     0.036 A 
HETATM   27  C   UNL     1      -2.938  -1.789 -31.802  1.00  0.00     0.048 C 
ENDBRANCH  17  20
ENDBRANCH  15  16
ENDBRANCH   1  15
TORSDOF 3
ENDMDL
MODEL 6
REMARK VINA RESULT:      -8.6      2.263      3.407
REMARK  3 active torsions:
REMARK  status: ('A' for Active; 'I' for Inactive)
REMARK    1  A    between atoms: C_4  and  N_5 
REMARK       I    between atoms: N_5  and  C_6 
REMARK    2  A    between atoms: C_6  and  C_7 
REMARK    3  A    between atoms: C_7  and  C_8 
ROOT
HETATM    1  C   UNL     1      -3.572   4.974 -31.853  1.00  0.00     0.286 C 
HETATM    2  N   UNL     1      -2.428   4.898 -30.841  1.00  0.00    -0.056 N 
HETATM    3  H   UNL     1      -2.517   5.712 -30.222  1.00  0.00     0.278 HD
HETATM    4  H   UNL     1      -2.609   4.086 -30.213  1.00  0.00     0.278 HD
HETATM    5  C   UNL     1      -1.046   4.829 -31.426  1.00  0.00     0.209 C 
HETATM    6  C   UNL     1      -0.859   6.036 -32.375  1.00  0.00     0.115 C 
HETATM    7  N   UNL     1      -1.923   6.089 -33.370  1.00  0.00    -0.353 N 
HETATM    8  C   UNL     1      -3.224   5.723 -33.155  1.00  0.00     0.249 C 
HETATM    9  O   UNL     1      -4.070   5.955 -34.014  1.00  0.00    -0.271 OA
HETATM   10  C   UNL     1      -0.019   4.824 -30.294  1.00  0.00     0.035 C 
HETATM   11  C   UNL     1       0.066   6.157 -29.550  1.00  0.00     0.002 C 
HETATM   12  C   UNL     1       0.272   7.328 -30.506  1.00  0.00     0.002 C 
HETATM   13  C   UNL     1      -0.783   7.366 -31.608  1.00  0.00     0.027 C 
HETATM   14  H   UNL     1      -1.767   6.602 -34.237  1.00  0.00     0.163 HD
ENDROOT
BRANCH   1  15
HETATM   15  C   UNL     1      -4.144   3.588 -32.194  1.00  0.00     0.146 C 
BRANCH  15  16
HETATM   16  C   UNL     1      -4.960   3.074 -31.037  1.00  0.00     0.224 C 
HETATM   17  N   UNL     1      -5.463   1.815 -30.985  1.00  0.00    -0.327 N 
HETATM   18  H   UNL     1      -6.147   1.701 -30.242  1.00  0.00     0.169 HD
HETATM   19  O   UNL     1      -5.231   3.866 -30.121  1.00  0.00    -0.273 OA
BRANCH  17  20
HETATM   20  C   UNL     1      -5.251   0.673 -31.776  1.00  0.00     0.035 A 
HETATM   21  C   UNL     1      -4.323  -0.329 -31.489  1.00  0.00     0.036 A 
HETATM   22  C   UNL     1      -4.172  -1.429 -32.347  1.00  0.00    -0.059 A 
HETATM   23  C   UNL     1      -3.193  -2.524 -32.030  1.00  0.00     0.048 C 
HETATM   24  C   UNL     1      -4.987  -1.536 -33.480  1.00  0.00     0.013 A 
HETATM   25  C   UNL     1      -5.954  -0.567 -33.757  1.00  0.00    -0.059 A 
HETATM   26  C   UNL     1      -6.080   0.531 -32.897  1.00  0.00     0.036 A 
HETATM   27  C   UNL     1      -6.801  -0.674 -34.992  1.00  0.00     0.048 C 
ENDBRANCH  17  20
ENDBRANCH  15  16
ENDBRANCH   1  15
TORSDOF 3
ENDMDL
MODEL 7
REMARK VINA RESULT:      -8.4      2.491      3.447
REMARK  3 active torsions:
REMARK  status: ('A' for Active; 'I' for Inactive)
REMARK    1  A    between atoms: C_4  and  N_5 
REMARK       I    between atoms: N_5  and  C_6 
REMARK    2  A    between atoms: C_6  and  C_7 
REMARK    3  A    between atoms: C_7  and  C_8 
ROOT
HETATM    1  C   UNL     1      -6.913   3.623 -32.639  1.00  0.00     0.286 C 
HETATM    2  N   UNL     1      -5.546   3.236 -32.071  1.00  0.00    -0.056 N 
HETATM    3  H   UNL     1      -5.371   3.843 -31.262  1.00  0.00     0.278 HD
HETATM    4  H   UNL     1      -5.630   2.284 -31.655  1.00  0.00     0.278 HD
HETATM    5  C   UNL     1      -4.398   3.303 -33.038  1.00  0.00     0.209 C 
HETATM    6  C   UNL     1      -4.356   4.724 -33.645  1.00  0.00     0.115 C 
HETATM    7  N   UNL     1      -5.644   5.084 -34.227  1.00  0.00    -0.353 N 
HETATM    8  C   UNL     1      -6.865   4.703 -33.738  1.00  0.00     0.249 C 
HETATM    9  O   UNL     1      -7.887   5.189 -34.213  1.00  0.00    -0.271 OA
HETATM   10  C   UNL     1      -3.103   2.953 -32.306  1.00  0.00     0.035 C 
HETATM   11  C   UNL     1      -2.671   4.018 -31.298  1.00  0.00     0.002 C 
HETATM   12  C   UNL     1      -2.617   5.406 -31.927  1.00  0.00     0.002 C 
HETATM   13  C   UNL     1      -3.928   5.780 -32.614  1.00  0.00     0.027 C 
HETATM   14  H   UNL     1      -5.683   5.818 -34.933  1.00  0.00     0.163 HD
ENDROOT
BRANCH   1  15
HETATM   15  C   UNL     1      -7.702   2.405 -33.146  1.00  0.00     0.146 C 
BRANCH  15  16
HETATM   16  C   UNL     1      -8.111   1.541 -31.982  1.00  0.00     0.224 C 
HETATM   17  N   UNL     1      -7.624   0.292 -31.778  1.00  0.00    -0.327 N 
HETATM   18  H   UNL     1      -8.149  -0.219 -31.074  1.00  0.00     0.169 HD
HETATM   19  O   UNL     1      -8.983   1.978 -31.214  1.00  0.00    -0.273 OA
BRANCH  17  20
HETATM   20  C   UNL     1      -6.575  -0.429 -32.375  1.00  0.00     0.035 A 
HETATM   21  C   UNL     1      -6.723  -1.282 -33.470  1.00  0.00     0.036 A 
HETATM   22  C   UNL     1      -5.619  -1.973 -33.990  1.00  0.00    -0.059 A 
HETATM   23  C   UNL     1      -5.765  -2.871 -35.185  1.00  0.00     0.048 C 
HETATM   24  C   UNL     1      -4.353  -1.774 -33.426  1.00  0.00     0.013 A 
HETATM   25  C   UNL     1      -4.179  -0.888 -32.360  1.00  0.00    -0.059 A 
HETATM   26  C   UNL     1      -5.295  -0.219 -31.844  1.00  0.00     0.036 A 
HETATM   27  C   UNL     1      -2.823  -0.706 -31.740  1.00  0.00     0.048 C 
ENDBRANCH  17  20
ENDBRANCH  15  16
ENDBRANCH   1  15
TORSDOF 3
ENDMDL
MODEL 8
REMARK VINA RESULT:      -8.4      3.020      5.242
REMARK  3 active torsions:
REMARK  status: ('A' for Active; 'I' for Inactive)
REMARK    1  A    between atoms: C_4  and  N_5 
REMARK       I    between atoms: N_5  and  C_6 
REMARK    2  A    between atoms: C_6  and  C_7 
REMARK    3  A    between atoms: C_7  and  C_8 
ROOT
HETATM    1  C   UNL     1      -6.523   2.746 -31.271  1.00  0.00     0.286 C 
HETATM    2  N   UNL     1      -7.189   1.877 -32.339  1.00  0.00    -0.056 N 
HETATM    3  H   UNL     1      -7.457   2.498 -33.112  1.00  0.00     0.278 HD
HETATM    4  H   UNL     1      -6.457   1.263 -32.756  1.00  0.00     0.278 HD
HETATM    5  C   UNL     1      -8.370   1.071 -31.879  1.00  0.00     0.209 C 
HETATM    6  C   UNL     1      -9.397   2.035 -31.239  1.00  0.00     0.115 C 
HETATM    7  N   UNL     1      -8.779   2.836 -30.189  1.00  0.00    -0.353 N 
HETATM    8  C   UNL     1      -7.489   3.295 -30.202  1.00  0.00     0.249 C 
HETATM    9  O   UNL     1      -7.119   4.090 -29.344  1.00  0.00    -0.271 OA
HETATM   10  C   UNL     1      -8.959   0.314 -33.069  1.00  0.00     0.035 C 
HETATM   11  C   UNL     1      -9.635   1.227 -34.092  1.00  0.00     0.002 C 
HETATM   12  C   UNL     1     -10.657   2.152 -33.438  1.00  0.00     0.002 C 
HETATM   13  C   UNL     1     -10.059   2.949 -32.282  1.00  0.00     0.027 C 
HETATM   14  H   UNL     1      -9.369   3.258 -29.473  1.00  0.00     0.163 HD
ENDROOT
BRANCH   1  15
HETATM   15  C   UNL     1      -5.348   2.031 -30.585  1.00  0.00     0.146 C 
BRANCH  15  16
HETATM   16  C   UNL     1      -4.071   2.315 -31.333  1.00  0.00     0.224 C 
HETATM   17  N   UNL     1      -3.385   1.366 -32.017  1.00  0.00    -0.327 N 
HETATM   18  H   UNL     1      -2.456   1.678 -32.287  1.00  0.00     0.169 HD
HETATM   19  O   UNL     1      -3.601   3.461 -31.262  1.00  0.00    -0.273 OA
BRANCH  17  20
HETATM   20  C   UNL     1      -3.694   0.044 -32.378  1.00  0.00     0.035 A 
HETATM   21  C   UNL     1      -3.080  -1.089 -31.842  1.00  0.00     0.036 A 
HETATM   22  C   UNL     1      -3.446  -2.372 -32.276  1.00  0.00    -0.059 A 
HETATM   23  C   UNL     1      -2.808  -3.597 -31.684  1.00  0.00     0.048 C 
HETATM   24  C   UNL     1      -4.462  -2.514 -33.228  1.00  0.00     0.013 A 
HETATM   25  C   UNL     1      -5.120  -1.394 -33.740  1.00  0.00    -0.059 A 
HETATM   26  C   UNL     1      -4.731  -0.120 -33.307  1.00  0.00     0.036 A 
HETATM   27  C   UNL     1      -6.186  -1.554 -34.786  1.00  0.00     0.048 C 
ENDBRANCH  17  20
ENDBRANCH  15  16
ENDBRANCH   1  15
TORSDOF 3
ENDMDL
MODEL 9
REMARK VINA RESULT:      -8.2      2.571      3.335
REMARK  3 active torsions:
REMARK  status: ('A' for Active; 'I' for Inactive)
REMARK    1  A    between atoms: C_4  and  N_5 
REMARK       I    between atoms: N_5  and  C_6 
REMARK    2  A    between atoms: C_6  and  C_7 
REMARK    3  A    between atoms: C_7  and  C_8 
ROOT
HETATM    1  C   UNL     1      -6.502   3.261 -33.343  1.00  0.00     0.286 C 
HETATM    2  N   UNL     1      -5.064   3.137 -32.835  1.00  0.00    -0.056 N 
HETATM    3  H   UNL     1      -5.086   3.302 -31.821  1.00  0.00     0.278 HD
HETATM    4  H   UNL     1      -4.780   2.138 -32.919  1.00  0.00     0.278 HD
HETATM    5  C   UNL     1      -4.062   4.041 -33.494  1.00  0.00     0.209 C 
HETATM    6  C   UNL     1      -4.564   5.498 -33.368  1.00  0.00     0.115 C 
HETATM    7  N   UNL     1      -5.917   5.633 -33.891  1.00  0.00    -0.353 N 
HETATM    8  C   UNL     1      -6.895   4.678 -33.805  1.00  0.00     0.249 C 
HETATM    9  O   UNL     1      -8.044   4.954 -34.140  1.00  0.00    -0.271 OA
HETATM   10  C   UNL     1      -2.697   3.845 -32.834  1.00  0.00     0.035 C 
HETATM   11  C   UNL     1      -2.637   4.372 -31.400  1.00  0.00     0.002 C 
HETATM   12  C   UNL     1      -3.117   5.817 -31.307  1.00  0.00     0.002 C 
HETATM   13  C   UNL     1      -4.503   6.006 -31.918  1.00  0.00     0.027 C 
HETATM   14  H   UNL     1      -6.250   6.552 -34.179  1.00  0.00     0.163 HD
ENDROOT
BRANCH   1  15
HETATM   15  C   UNL     1      -6.817   2.250 -34.457  1.00  0.00     0.146 C 
BRANCH  15  16
HETATM   16  C   UNL     1      -7.974   1.378 -34.043  1.00  0.00     0.224 C 
HETATM   17  N   UNL     1      -7.872   0.035 -33.886  1.00  0.00    -0.327 N 
HETATM   18  H   UNL     1      -8.779  -0.416 -33.804  1.00  0.00     0.169 HD
HETATM   19  O   UNL     1      -9.084   1.916 -33.902  1.00  0.00    -0.273 OA
BRANCH  17  20
HETATM   20  C   UNL     1      -6.772  -0.839 -33.858  1.00  0.00     0.035 A 
HETATM   21  C   UNL     1      -5.589  -0.601 -33.156  1.00  0.00     0.036 A 
HETATM   22  C   UNL     1      -4.536  -1.527 -33.198  1.00  0.00    -0.059 A 
HETATM   23  C   UNL     1      -3.270  -1.291 -32.423  1.00  0.00     0.048 C 
HETATM   24  C   UNL     1      -4.691  -2.715 -33.922  1.00  0.00     0.013 A 
HETATM   25  C   UNL     1      -5.886  -2.991 -34.591  1.00  0.00    -0.059 A 
HETATM   26  C   UNL     1      -6.920  -2.048 -34.550  1.00  0.00     0.036 A 
HETATM   27  C   UNL     1      -6.031  -4.253 -35.392  1.00  0.00     0.048 C 
ENDBRANCH  17  20
ENDBRANCH  15  16
ENDBRANCH   1  15
TORSDOF 3
ENDMDL
MODEL 10
REMARK VINA RESULT:      -8.2     16.525     18.284
REMARK  3 active torsions:
REMARK  status: ('A' for Active; 'I' for Inactive)
REMARK    1  A    between atoms: C_4  and  N_5 
REMARK       I    between atoms: N_5  and  C_6 
REMARK    2  A    between atoms: C_6  and  C_7 
REMARK    3  A    between atoms: C_7  and  C_8 
ROOT
HETATM    1  C   UNL     1      -6.215 -13.554 -41.021  1.00  0.00     0.286 C 
HETATM    2  N   UNL     1      -7.562 -14.279 -41.004  1.00  0.00    -0.056 N 
HETATM    3  H   UNL     1      -8.174 -13.797 -41.672  1.00  0.00     0.278 HD
HETATM    4  H   UNL     1      -7.424 -15.222 -41.428  1.00  0.00     0.278 HD
HETATM    5  C   UNL     1      -8.226 -14.384 -39.661  1.00  0.00     0.209 C 
HETATM    6  C   UNL     1      -8.363 -12.960 -39.074  1.00  0.00     0.115 C 
HETATM    7  N   UNL     1      -7.075 -12.279 -39.047  1.00  0.00    -0.353 N 
HETATM    8  C   UNL     1      -6.086 -12.422 -39.983  1.00  0.00     0.249 C 
HETATM    9  O   UNL     1      -5.106 -11.685 -39.948  1.00  0.00    -0.271 OA
HETATM   10  C   UNL     1      -9.582 -15.072 -39.823  1.00  0.00     0.035 C 
HETATM   11  C   UNL     1     -10.608 -14.218 -40.567  1.00  0.00     0.002 C 
HETATM   12  C   UNL     1     -10.739 -12.826 -39.956  1.00  0.00     0.002 C 
HETATM   13  C   UNL     1      -9.394 -12.116 -39.841  1.00  0.00     0.027 C 
HETATM   14  H   UNL     1      -6.940 -11.497 -38.407  1.00  0.00     0.163 HD
ENDROOT
BRANCH   1  15
HETATM   15  C   UNL     1      -5.028 -14.521 -40.879  1.00  0.00     0.146 C 
BRANCH  15  16
HETATM   16  C   UNL     1      -3.885 -14.057 -41.743  1.00  0.00     0.224 C 
HETATM   17  N   UNL     1      -2.659 -13.750 -41.249  1.00  0.00    -0.327 N 
HETATM   18  H   UNL     1      -2.077 -13.267 -41.928  1.00  0.00     0.169 HD
HETATM   19  O   UNL     1      -4.102 -13.891 -42.953  1.00  0.00    -0.273 OA
BRANCH  17  20
HETATM   20  C   UNL     1      -2.070 -13.932 -39.986  1.00  0.00     0.035 A 
HETATM   21  C   UNL     1      -2.768 -13.926 -38.777  1.00  0.00     0.036 A 
HETATM   22  C   UNL     1      -2.090 -14.102 -37.562  1.00  0.00    -0.059 A 
HETATM   23  C   UNL     1      -2.838 -14.124 -36.259  1.00  0.00     0.048 C 
HETATM   24  C   UNL     1      -0.707 -14.323 -37.568  1.00  0.00     0.013 A 
HETATM   25  C   UNL     1      -0.001 -14.379 -38.772  1.00  0.00    -0.059 A 
HETATM   26  C   UNL     1      -0.691 -14.186 -39.975  1.00  0.00     0.036 A 
HETATM   27  C   UNL     1       1.487 -14.583 -38.767  1.00  0.00     0.048 C 
ENDBRANCH  17  20
ENDBRANCH  15  16
ENDBRANCH   1  15
TORSDOF 3
ENDMDL
