MODEL 1
REMARK VINA RESULT:      -9.8      0.000      0.000
REMARK  7 active torsions:
REMARK  status: ('A' for Active; 'I' for Inactive)
REMARK    1  A    between atoms: C_2  and  N_3 
REMARK    2  A    between atoms: C_2  and  C_25 
REMARK       I    between atoms: N_3  and  C_4 
REMARK    3  A    between atoms: C_4  and  C_5 
REMARK    4  A    between atoms: C_8  and  C_9 
REMARK       I    between atoms: C_9  and  N_10 
REMARK    5  A    between atoms: N_10  and  C_11 
REMARK    6  A    between atoms: N_19  and  C_20 
REMARK    7  A    between atoms: C_33  and  O_34 
ROOT
HETATM    1  C   UNL     1      -5.291   5.454 -32.515  1.00  0.00     0.098 A 
HETATM    2  C   UNL     1      -5.160   5.793 -31.065  1.00  0.00     0.206 A 
HETATM    3  O   UNL     1      -6.047   5.490 -30.263  1.00  0.00    -0.286 OA
HETATM    4  C   UNL     1      -3.923   6.492 -30.602  1.00  0.00     0.098 A 
HETATM    5  C   UNL     1      -3.049   6.865 -31.552  1.00  0.00     0.112 A 
HETATM    6  N   UNL     1      -3.233   6.633 -32.901  1.00  0.00    -0.360 N 
HETATM    7  C   UNL     1      -4.314   5.890 -33.329  1.00  0.00     0.112 A 
ENDROOT
BRANCH   1   8
HETATM    8  C   UNL     1      -6.415   4.668 -33.098  1.00  0.00     0.257 C 
HETATM    9  N   UNL     1      -6.878   3.648 -32.313  1.00  0.00    -0.348 N 
HETATM   10  H   UNL     1      -6.429   3.487 -31.411  1.00  0.00     0.163 HD
HETATM   11  O   UNL     1      -6.878   4.925 -34.206  1.00  0.00    -0.267 OA
BRANCH   9  12
HETATM   12  C   UNL     1      -7.943   2.744 -32.704  1.00  0.00     0.114 C 
HETATM   13  C   UNL     1      -8.905   2.469 -31.545  1.00  0.00     0.037 C 
BRANCH  12  14
HETATM   14  C   UNL     1      -7.328   1.468 -33.254  1.00  0.00    -0.035 A 
HETATM   15  C   UNL     1      -6.184   0.922 -32.649  1.00  0.00     0.021 A 
HETATM   16  C   UNL     1      -5.627  -0.289 -33.098  1.00  0.00    -0.025 A 
HETATM   17  C   UNL     1      -6.230  -0.974 -34.174  1.00  0.00    -0.023 A 
HETATM   18  C   UNL     1      -4.487  -0.842 -32.494  1.00  0.00     0.015 A 
HETATM   19  C   UNL     1      -7.372  -0.428 -34.779  1.00  0.00     0.013 A 
HETATM   20  C   UNL     1      -5.681  -2.189 -34.612  1.00  0.00     0.049 A 
HETATM   21  C   UNL     1      -7.915   0.775 -34.324  1.00  0.00     0.010 A 
HETATM   22  C   UNL     1      -4.548  -2.735 -34.001  1.00  0.00     0.069 A 
HETATM   23  C   UNL     1      -3.951  -2.056 -32.941  1.00  0.00     0.037 A 
BRANCH  22  24
HETATM   24  O   UNL     1      -4.132  -3.926 -34.530  1.00  0.00    -0.356 OA
HETATM   25  C   UNL     1      -3.670  -4.910 -33.614  1.00  0.00     0.210 C 
ENDBRANCH  22  24
ENDBRANCH  12  14
ENDBRANCH   9  12
ENDBRANCH   1   8
BRANCH   4  26
HETATM   26  C   UNL     1      -3.596   6.772 -29.176  1.00  0.00     0.257 C 
HETATM   27  N   UNL     1      -2.256   6.877 -28.898  1.00  0.00    -0.352 N 
HETATM   28  H   UNL     1      -1.597   6.626 -29.634  1.00  0.00     0.163 HD
HETATM   29  O   UNL     1      -4.473   6.913 -28.329  1.00  0.00    -0.267 OA
BRANCH  27  30
HETATM   30  C   UNL     1      -1.732   7.081 -27.554  1.00  0.00     0.084 C 
HETATM   31  C   UNL     1      -0.415   6.318 -27.354  1.00  0.00     0.025 C 
HETATM   32  C   UNL     1       0.746   6.941 -28.130  1.00  0.00     0.002 C 
HETATM   33  C   UNL     1       0.910   8.423 -27.804  1.00  0.00     0.000 C 
HETATM   34  C   UNL     1      -0.383   9.199 -28.030  1.00  0.00     0.002 C 
HETATM   35  C   UNL     1      -1.555   8.579 -27.268  1.00  0.00     0.025 C 
ENDBRANCH  27  30
ENDBRANCH   4  26
BRANCH   6  36
HETATM   36  C   UNL     1      -2.140   6.932 -33.837  1.00  0.00     0.089 A 
HETATM   37  C   UNL     1      -0.698   6.653 -33.500  1.00  0.00     0.028 A 
HETATM   38  C   UNL     1      -1.392   5.832 -34.544  1.00  0.00     0.028 A 
ENDBRANCH   6  36
TORSDOF 7
ENDMDL
MODEL 2
REMARK VINA RESULT:      -9.6      2.013      3.336
REMARK  7 active torsions:
REMARK  status: ('A' for Active; 'I' for Inactive)
REMARK    1  A    between atoms: C_2  and  N_3 
REMARK    2  A    between atoms: C_2  and  C_25 
REMARK       I    between atoms: N_3  and  C_4 
REMARK    3  A    between atoms: C_4  and  C_5 
REMARK    4  A    between atoms: C_8  and  C_9 
REMARK       I    between atoms: C_9  and  N_10 
REMARK    5  A    between atoms: N_10  and  C_11 
REMARK    6  A    between atoms: N_19  and  C_20 
REMARK    7  A    between atoms: C_33  and  O_34 
ROOT
HETATM    1  C   UNL     1      -6.253   5.736 -32.579  1.00  0.00     0.098 A 
HETATM    2  C   UNL     1      -4.768   5.865 -32.695  1.00  0.00     0.206 A 
HETATM    3  O   UNL     1      -4.128   5.132 -33.453  1.00  0.00    -0.286 OA
HETATM    4  C   UNL     1      -4.075   6.912 -31.886  1.00  0.00     0.098 A 
HETATM    5  C   UNL     1      -4.833   7.606 -31.020  1.00  0.00     0.112 A 
HETATM    6  N   UNL     1      -6.189   7.405 -30.852  1.00  0.00    -0.360 N 
HETATM    7  C   UNL     1      -6.859   6.521 -31.673  1.00  0.00     0.112 A 
ENDROOT
BRANCH   1   8
HETATM    8  C   UNL     1      -7.085   4.812 -33.402  1.00  0.00     0.257 C 
HETATM    9  N   UNL     1      -6.968   3.488 -33.082  1.00  0.00    -0.348 N 
HETATM   10  H   UNL     1      -6.328   3.223 -32.334  1.00  0.00     0.163 HD
HETATM   11  O   UNL     1      -7.814   5.224 -34.300  1.00  0.00    -0.267 OA
BRANCH   9  12
HETATM   12  C   UNL     1      -7.666   2.422 -33.778  1.00  0.00     0.114 C 
HETATM   13  C   UNL     1      -9.070   2.200 -33.208  1.00  0.00     0.037 C 
BRANCH  12  14
HETATM   14  C   UNL     1      -6.819   1.162 -33.725  1.00  0.00    -0.035 A 
HETATM   15  C   UNL     1      -7.294  -0.029 -34.296  1.00  0.00     0.021 A 
HETATM   16  C   UNL     1      -6.508  -1.196 -34.315  1.00  0.00    -0.025 A 
HETATM   17  C   UNL     1      -5.215  -1.170 -33.753  1.00  0.00    -0.023 A 
HETATM   18  C   UNL     1      -6.976  -2.388 -34.890  1.00  0.00     0.015 A 
HETATM   19  C   UNL     1      -4.740   0.019 -33.181  1.00  0.00     0.013 A 
HETATM   20  C   UNL     1      -4.427  -2.332 -33.785  1.00  0.00     0.049 A 
HETATM   21  C   UNL     1      -5.530   1.170 -33.168  1.00  0.00     0.010 A 
HETATM   22  C   UNL     1      -4.899  -3.513 -34.364  1.00  0.00     0.069 A 
HETATM   23  C   UNL     1      -6.178  -3.538 -34.915  1.00  0.00     0.037 A 
BRANCH  22  24
HETATM   24  O   UNL     1      -4.018  -4.559 -34.327  1.00  0.00    -0.356 OA
HETATM   25  C   UNL     1      -3.315  -4.764 -33.109  1.00  0.00     0.210 C 
ENDBRANCH  22  24
ENDBRANCH  12  14
ENDBRANCH   9  12
ENDBRANCH   1   8
BRANCH   4  26
HETATM   26  C   UNL     1      -2.627   7.244 -31.998  1.00  0.00     0.257 C 
HETATM   27  N   UNL     1      -1.875   6.941 -30.890  1.00  0.00    -0.352 N 
HETATM   28  H   UNL     1      -2.368   6.651 -30.045  1.00  0.00     0.163 HD
HETATM   29  O   UNL     1      -2.155   7.733 -33.019  1.00  0.00    -0.267 OA
BRANCH  27  30
HETATM   30  C   UNL     1      -0.455   7.250 -30.778  1.00  0.00     0.084 C 
HETATM   31  C   UNL     1      -0.103   7.721 -29.361  1.00  0.00     0.025 C 
HETATM   32  C   UNL     1      -0.153   6.586 -28.338  1.00  0.00     0.002 C 
HETATM   33  C   UNL     1       0.719   5.407 -28.761  1.00  0.00     0.000 C 
HETATM   34  C   UNL     1       0.356   4.908 -30.156  1.00  0.00     0.002 C 
HETATM   35  C   UNL     1       0.392   6.036 -31.187  1.00  0.00     0.025 C 
ENDBRANCH  27  30
ENDBRANCH   4  26
BRANCH   6  36
HETATM   36  C   UNL     1      -6.952   8.330 -30.002  1.00  0.00     0.089 A 
HETATM   37  C   UNL     1      -6.970   8.208 -28.500  1.00  0.00     0.028 A 
HETATM   38  C   UNL     1      -6.260   9.358 -29.146  1.00  0.00     0.028 A 
ENDBRANCH   6  36
TORSDOF 7
ENDMDL
MODEL 3
REMARK VINA RESULT:      -9.6      0.779      1.472
REMARK  7 active torsions:
REMARK  status: ('A' for Active; 'I' for Inactive)
REMARK    1  A    between atoms: C_2  and  N_3 
REMARK    2  A    between atoms: C_2  and  C_25 
REMARK       I    between atoms: N_3  and  C_4 
REMARK    3  A    between atoms: C_4  and  C_5 
REMARK    4  A    between atoms: C_8  and  C_9 
REMARK       I    between atoms: C_9  and  N_10 
REMARK    5  A    between atoms: N_10  and  C_11 
REMARK    6  A    between atoms: N_19  and  C_20 
REMARK    7  A    between atoms: C_33  and  O_34 
ROOT
HETATM    1  C   UNL     1      -5.131   5.765 -32.216  1.00  0.00     0.098 A 
HETATM    2  C   UNL     1      -5.028   6.395 -30.864  1.00  0.00     0.206 A 
HETATM    3  O   UNL     1      -5.914   6.231 -30.022  1.00  0.00    -0.286 OA
HETATM    4  C   UNL     1      -3.821   7.216 -30.546  1.00  0.00     0.098 A 
HETATM    5  C   UNL     1      -2.947   7.418 -31.548  1.00  0.00     0.112 A 
HETATM    6  N   UNL     1      -3.107   6.911 -32.822  1.00  0.00    -0.360 N 
HETATM    7  C   UNL     1      -4.159   6.059 -33.096  1.00  0.00     0.112 A 
ENDROOT
BRANCH   1   8
HETATM    8  C   UNL     1      -6.221   4.838 -32.633  1.00  0.00     0.257 C 
HETATM    9  N   UNL     1      -6.283   3.664 -31.935  1.00  0.00    -0.348 N 
HETATM   10  H   UNL     1      -5.591   3.496 -31.204  1.00  0.00     0.163 HD
HETATM   11  O   UNL     1      -6.997   5.120 -33.542  1.00  0.00    -0.267 OA
BRANCH   9  12
HETATM   12  C   UNL     1      -7.247   2.613 -32.201  1.00  0.00     0.114 C 
HETATM   13  C   UNL     1      -8.236   2.447 -31.043  1.00  0.00     0.037 C 
BRANCH  12  14
HETATM   14  C   UNL     1      -6.500   1.326 -32.507  1.00  0.00    -0.035 A 
HETATM   15  C   UNL     1      -7.117   0.320 -33.269  1.00  0.00     0.021 A 
HETATM   16  C   UNL     1      -6.430  -0.857 -33.619  1.00  0.00    -0.025 A 
HETATM   17  C   UNL     1      -5.094  -1.030 -33.201  1.00  0.00    -0.023 A 
HETATM   18  C   UNL     1      -7.039  -1.863 -34.384  1.00  0.00     0.015 A 
HETATM   19  C   UNL     1      -4.478  -0.026 -32.439  1.00  0.00     0.013 A 
HETATM   20  C   UNL     1      -4.405  -2.200 -33.563  1.00  0.00     0.049 A 
HETATM   21  C   UNL     1      -5.171   1.137 -32.099  1.00  0.00     0.010 A 
HETATM   22  C   UNL     1      -5.018  -3.194 -34.330  1.00  0.00     0.069 A 
HETATM   23  C   UNL     1      -6.339  -3.024 -34.737  1.00  0.00     0.037 A 
BRANCH  22  24
HETATM   24  O   UNL     1      -4.222  -4.272 -34.609  1.00  0.00    -0.356 OA
HETATM   25  C   UNL     1      -3.358  -4.718 -33.573  1.00  0.00     0.210 C 
ENDBRANCH  22  24
ENDBRANCH  12  14
ENDBRANCH   9  12
ENDBRANCH   1   8
BRANCH   4  26
HETATM   26  C   UNL     1      -3.520   7.790 -29.205  1.00  0.00     0.257 C 
HETATM   27  N   UNL     1      -2.204   7.714 -28.823  1.00  0.00    -0.352 N 
HETATM   28  H   UNL     1      -1.572   7.163 -29.403  1.00  0.00     0.163 HD
HETATM   29  O   UNL     1      -4.394   8.306 -28.514  1.00  0.00    -0.267 OA
BRANCH  27  30
HETATM   30  C   UNL     1      -1.722   8.159 -27.522  1.00  0.00     0.084 C 
HETATM   31  C   UNL     1      -1.424   6.964 -26.607  1.00  0.00     0.025 C 
HETATM   32  C   UNL     1      -0.178   6.191 -27.039  1.00  0.00     0.002 C 
HETATM   33  C   UNL     1       1.036   7.106 -27.167  1.00  0.00     0.000 C 
HETATM   34  C   UNL     1       0.764   8.281 -28.101  1.00  0.00     0.002 C 
HETATM   35  C   UNL     1      -0.486   9.056 -27.685  1.00  0.00     0.025 C 
ENDBRANCH  27  30
ENDBRANCH   4  26
BRANCH   6  36
HETATM   36  C   UNL     1      -2.014   7.051 -33.793  1.00  0.00     0.089 A 
HETATM   37  C   UNL     1      -0.613   6.578 -33.497  1.00  0.00     0.028 A 
HETATM   38  C   UNL     1      -1.445   5.853 -34.511  1.00  0.00     0.028 A 
ENDBRANCH   6  36
TORSDOF 7
ENDMDL
MODEL 4
REMARK VINA RESULT:      -9.4      2.734     10.592
REMARK  7 active torsions:
REMARK  status: ('A' for Active; 'I' for Inactive)
REMARK    1  A    between atoms: C_2  and  N_3 
REMARK    2  A    between atoms: C_2  and  C_25 
REMARK       I    between atoms: N_3  and  C_4 
REMARK    3  A    between atoms: C_4  and  C_5 
REMARK    4  A    between atoms: C_8  and  C_9 
REMARK       I    between atoms: C_9  and  N_10 
REMARK    5  A    between atoms: N_10  and  C_11 
REMARK    6  A    between atoms: N_19  and  C_20 
REMARK    7  A    between atoms: C_33  and  O_34 
ROOT
HETATM    1  C   UNL     1      -3.511   5.142 -31.443  1.00  0.00     0.098 A 
HETATM    2  C   UNL     1      -3.895   3.698 -31.393  1.00  0.00     0.206 A 
HETATM    3  O   UNL     1      -3.038   2.814 -31.467  1.00  0.00    -0.286 OA
HETATM    4  C   UNL     1      -5.338   3.346 -31.235  1.00  0.00     0.098 A 
HETATM    5  C   UNL     1      -6.214   4.366 -31.252  1.00  0.00     0.112 A 
HETATM    6  N   UNL     1      -5.850   5.690 -31.401  1.00  0.00    -0.360 N 
HETATM    7  C   UNL     1      -4.514   6.036 -31.434  1.00  0.00     0.112 A 
ENDROOT
BRANCH   1   8
HETATM    8  C   UNL     1      -2.106   5.639 -31.491  1.00  0.00     0.257 C 
HETATM    9  N   UNL     1      -1.401   5.498 -30.328  1.00  0.00    -0.348 N 
HETATM   10  H   UNL     1      -1.871   5.086 -29.522  1.00  0.00     0.163 HD
HETATM   11  O   UNL     1      -1.632   6.142 -32.506  1.00  0.00    -0.267 OA
BRANCH   9  12
HETATM   12  C   UNL     1      -0.031   5.944 -30.152  1.00  0.00     0.114 C 
HETATM   13  C   UNL     1       0.895   4.784 -29.774  1.00  0.00     0.037 C 
BRANCH  12  14
HETATM   14  C   UNL     1      -0.006   7.058 -29.120  1.00  0.00    -0.035 A 
HETATM   15  C   UNL     1       0.970   7.059 -28.110  1.00  0.00     0.021 A 
HETATM   16  C   UNL     1       1.057   8.108 -27.177  1.00  0.00    -0.025 A 
HETATM   17  C   UNL     1       0.149   9.184 -27.257  1.00  0.00    -0.023 A 
HETATM   18  C   UNL     1       2.034   8.116 -26.169  1.00  0.00     0.015 A 
HETATM   19  C   UNL     1      -0.827   9.183 -28.264  1.00  0.00     0.013 A 
HETATM   20  C   UNL     1       0.245  10.237 -26.333  1.00  0.00     0.049 A 
HETATM   21  C   UNL     1      -0.902   8.136 -29.185  1.00  0.00     0.010 A 
HETATM   22  C   UNL     1       1.224  10.239 -25.336  1.00  0.00     0.069 A 
HETATM   23  C   UNL     1       2.117   9.174 -25.255  1.00  0.00     0.037 A 
BRANCH  22  24
HETATM   24  O   UNL     1       1.200  11.333 -24.514  1.00  0.00    -0.356 OA
HETATM   25  C   UNL     1       0.653  11.148 -23.215  1.00  0.00     0.210 C 
ENDBRANCH  22  24
ENDBRANCH  12  14
ENDBRANCH   9  12
ENDBRANCH   1   8
BRANCH   4  26
HETATM   26  C   UNL     1      -5.852   1.962 -31.036  1.00  0.00     0.257 C 
HETATM   27  N   UNL     1      -6.277   1.332 -32.179  1.00  0.00    -0.352 N 
HETATM   28  H   UNL     1      -6.341   1.886 -33.032  1.00  0.00     0.163 HD
HETATM   29  O   UNL     1      -5.869   1.433 -29.928  1.00  0.00    -0.267 OA
BRANCH  27  30
HETATM   30  C   UNL     1      -6.874   0.002 -32.183  1.00  0.00     0.084 C 
HETATM   31  C   UNL     1      -8.142  -0.030 -33.047  1.00  0.00     0.025 C 
HETATM   32  C   UNL     1      -7.836   0.068 -34.541  1.00  0.00     0.002 C 
HETATM   33  C   UNL     1      -6.838  -0.999 -34.983  1.00  0.00     0.000 C 
HETATM   34  C   UNL     1      -5.559  -0.956 -34.154  1.00  0.00     0.002 C 
HETATM   35  C   UNL     1      -5.853  -1.043 -32.656  1.00  0.00     0.025 C 
ENDBRANCH  27  30
ENDBRANCH   4  26
BRANCH   6  36
HETATM   36  C   UNL     1      -6.868   6.736 -31.239  1.00  0.00     0.089 A 
HETATM   37  C   UNL     1      -7.857   7.068 -32.328  1.00  0.00     0.028 A 
HETATM   38  C   UNL     1      -8.326   6.392 -31.076  1.00  0.00     0.028 A 
ENDBRANCH   6  36
TORSDOF 7
ENDMDL
MODEL 5
REMARK VINA RESULT:      -9.1      2.624      9.921
REMARK  7 active torsions:
REMARK  status: ('A' for Active; 'I' for Inactive)
REMARK    1  A    between atoms: C_2  and  N_3 
REMARK    2  A    between atoms: C_2  and  C_25 
REMARK       I    between atoms: N_3  and  C_4 
REMARK    3  A    between atoms: C_4  and  C_5 
REMARK    4  A    between atoms: C_8  and  C_9 
REMARK       I    between atoms: C_9  and  N_10 
REMARK    5  A    between atoms: N_10  and  C_11 
REMARK    6  A    between atoms: N_19  and  C_20 
REMARK    7  A    between atoms: C_33  and  O_34 
ROOT
HETATM    1  C   UNL     1      -5.396   3.481 -33.172  1.00  0.00     0.098 A 
HETATM    2  C   UNL     1      -6.856   3.561 -32.856  1.00  0.00     0.206 A 
HETATM    3  O   UNL     1      -7.479   4.614 -33.012  1.00  0.00    -0.286 OA
HETATM    4  C   UNL     1      -7.549   2.333 -32.362  1.00  0.00     0.098 A 
HETATM    5  C   UNL     1      -6.779   1.255 -32.135  1.00  0.00     0.112 A 
HETATM    6  N   UNL     1      -5.413   1.228 -32.336  1.00  0.00    -0.360 N 
HETATM    7  C   UNL     1      -4.781   2.319 -32.899  1.00  0.00     0.112 A 
ENDROOT
BRANCH   1   8
HETATM    8  C   UNL     1      -4.602   4.592 -33.770  1.00  0.00     0.257 C 
HETATM    9  N   UNL     1      -3.345   4.748 -33.254  1.00  0.00    -0.348 N 
HETATM   10  H   UNL     1      -3.045   4.123 -32.506  1.00  0.00     0.163 HD
HETATM   11  O   UNL     1      -5.057   5.309 -34.657  1.00  0.00    -0.267 OA
BRANCH   9  12
HETATM   12  C   UNL     1      -2.421   5.786 -33.673  1.00  0.00     0.114 C 
HETATM   13  C   UNL     1      -1.526   5.315 -34.823  1.00  0.00     0.037 C 
BRANCH  12  14
HETATM   14  C   UNL     1      -1.615   6.242 -32.469  1.00  0.00    -0.035 A 
HETATM   15  C   UNL     1      -2.080   7.301 -31.672  1.00  0.00     0.021 A 
HETATM   16  C   UNL     1      -1.386   7.707 -30.518  1.00  0.00    -0.025 A 
HETATM   17  C   UNL     1      -0.202   7.035 -30.148  1.00  0.00    -0.023 A 
HETATM   18  C   UNL     1      -1.849   8.761 -29.715  1.00  0.00     0.015 A 
HETATM   19  C   UNL     1       0.263   5.979 -30.944  1.00  0.00     0.013 A 
HETATM   20  C   UNL     1       0.481   7.433 -28.988  1.00  0.00     0.049 A 
HETATM   21  C   UNL     1      -0.435   5.586 -32.088  1.00  0.00     0.010 A 
HETATM   22  C   UNL     1       0.010   8.480 -28.191  1.00  0.00     0.069 A 
HETATM   23  C   UNL     1      -1.156   9.146 -28.560  1.00  0.00     0.037 A 
BRANCH  22  24
HETATM   24  O   UNL     1       0.777   8.750 -27.090  1.00  0.00    -0.356 OA
HETATM   25  C   UNL     1       0.927  10.117 -26.731  1.00  0.00     0.210 C 
ENDBRANCH  22  24
ENDBRANCH  12  14
ENDBRANCH   9  12
ENDBRANCH   1   8
BRANCH   4  26
HETATM   26  C   UNL     1      -9.018   2.227 -32.136  1.00  0.00     0.257 C 
HETATM   27  N   UNL     1      -9.794   2.916 -33.035  1.00  0.00    -0.352 N 
HETATM   28  H   UNL     1      -9.324   3.544 -33.686  1.00  0.00     0.163 HD
HETATM   29  O   UNL     1      -9.482   1.555 -31.221  1.00  0.00    -0.267 OA
BRANCH  27  30
HETATM   30  C   UNL     1     -11.246   2.990 -32.944  1.00  0.00     0.084 C 
HETATM   31  C   UNL     1     -11.771   4.291 -33.567  1.00  0.00     0.025 C 
HETATM   32  C   UNL     1     -11.655   4.299 -35.091  1.00  0.00     0.002 C 
HETATM   33  C   UNL     1     -12.326   3.077 -35.713  1.00  0.00     0.000 C 
HETATM   34  C   UNL     1     -11.789   1.776 -35.126  1.00  0.00     0.002 C 
HETATM   35  C   UNL     1     -11.890   1.760 -33.600  1.00  0.00     0.025 C 
ENDBRANCH  27  30
ENDBRANCH   4  26
BRANCH   6  36
HETATM   36  C   UNL     1      -4.695  -0.047 -32.217  1.00  0.00     0.089 A 
HETATM   37  C   UNL     1      -4.683  -1.068 -33.326  1.00  0.00     0.028 A 
HETATM   38  C   UNL     1      -3.433  -0.311 -32.997  1.00  0.00     0.028 A 
ENDBRANCH   6  36
TORSDOF 7
ENDMDL
MODEL 6
REMARK VINA RESULT:      -8.9      1.441      2.156
REMARK  7 active torsions:
REMARK  status: ('A' for Active; 'I' for Inactive)
REMARK    1  A    between atoms: C_2  and  N_3 
REMARK    2  A    between atoms: C_2  and  C_25 
REMARK       I    between atoms: N_3  and  C_4 
REMARK    3  A    between atoms: C_4  and  C_5 
REMARK    4  A    between atoms: C_8  and  C_9 
REMARK       I    between atoms: C_9  and  N_10 
REMARK    5  A    between atoms: N_10  and  C_11 
REMARK    6  A    between atoms: N_19  and  C_20 
REMARK    7  A    between atoms: C_33  and  O_34 
ROOT
HETATM    1  C   UNL     1      -4.818   5.803 -31.332  1.00  0.00     0.098 A 
HETATM    2  C   UNL     1      -3.959   6.285 -30.207  1.00  0.00     0.206 A 
HETATM    3  O   UNL     1      -4.383   6.294 -29.049  1.00  0.00    -0.286 OA
HETATM    4  C   UNL     1      -2.569   6.740 -30.511  1.00  0.00     0.098 A 
HETATM    5  C   UNL     1      -2.218   6.782 -31.808  1.00  0.00     0.112 A 
HETATM    6  N   UNL     1      -3.059   6.429 -32.845  1.00  0.00    -0.360 N 
HETATM    7  C   UNL     1      -4.304   5.900 -32.570  1.00  0.00     0.112 A 
ENDROOT
BRANCH   1   8
HETATM    8  C   UNL     1      -6.181   5.223 -31.164  1.00  0.00     0.257 C 
HETATM    9  N   UNL     1      -6.313   3.925 -31.572  1.00  0.00    -0.348 N 
HETATM   10  H   UNL     1      -5.498   3.454 -31.967  1.00  0.00     0.163 HD
HETATM   11  O   UNL     1      -7.109   5.877 -30.695  1.00  0.00    -0.267 OA
BRANCH   9  12
HETATM   12  C   UNL     1      -7.559   3.183 -31.524  1.00  0.00     0.114 C 
HETATM   13  C   UNL     1      -8.004   2.919 -30.083  1.00  0.00     0.037 C 
BRANCH  12  14
HETATM   14  C   UNL     1      -7.399   1.899 -32.320  1.00  0.00    -0.035 A 
HETATM   15  C   UNL     1      -6.142   1.281 -32.410  1.00  0.00     0.021 A 
HETATM   16  C   UNL     1      -5.974   0.060 -33.089  1.00  0.00    -0.025 A 
HETATM   17  C   UNL     1      -7.090  -0.559 -33.688  1.00  0.00    -0.023 A 
HETATM   18  C   UNL     1      -4.720  -0.565 -33.178  1.00  0.00     0.015 A 
HETATM   19  C   UNL     1      -8.346   0.059 -33.600  1.00  0.00     0.013 A 
HETATM   20  C   UNL     1      -6.923  -1.784 -34.354  1.00  0.00     0.049 A 
HETATM   21  C   UNL     1      -8.499   1.270 -32.923  1.00  0.00     0.010 A 
HETATM   22  C   UNL     1      -5.672  -2.402 -34.433  1.00  0.00     0.069 A 
HETATM   23  C   UNL     1      -4.569  -1.787 -33.845  1.00  0.00     0.037 A 
BRANCH  22  24
HETATM   24  O   UNL     1      -5.664  -3.593 -35.107  1.00  0.00    -0.356 OA
HETATM   25  C   UNL     1      -4.980  -4.676 -34.490  1.00  0.00     0.210 C 
ENDBRANCH  22  24
ENDBRANCH  12  14
ENDBRANCH   9  12
ENDBRANCH   1   8
BRANCH   4  26
HETATM   26  C   UNL     1      -1.560   7.116 -29.481  1.00  0.00     0.257 C 
HETATM   27  N   UNL     1      -2.057   7.824 -28.415  1.00  0.00    -0.352 N 
HETATM   28  H   UNL     1      -3.020   8.153 -28.469  1.00  0.00     0.163 HD
HETATM   29  O   UNL     1      -0.381   6.793 -29.586  1.00  0.00    -0.267 OA
BRANCH  27  30
HETATM   30  C   UNL     1      -1.220   8.340 -27.340  1.00  0.00     0.084 C 
HETATM   31  C   UNL     1      -1.708   9.719 -26.875  1.00  0.00     0.025 C 
HETATM   32  C   UNL     1      -3.024   9.644 -26.101  1.00  0.00     0.002 C 
HETATM   33  C   UNL     1      -2.935   8.667 -24.932  1.00  0.00     0.000 C 
HETATM   34  C   UNL     1      -2.483   7.282 -25.386  1.00  0.00     0.002 C 
HETATM   35  C   UNL     1      -1.172   7.345 -26.172  1.00  0.00     0.025 C 
ENDBRANCH  27  30
ENDBRANCH   4  26
BRANCH   6  36
HETATM   36  C   UNL     1      -2.522   6.352 -34.210  1.00  0.00     0.089 A 
HETATM   37  C   UNL     1      -1.541   5.286 -34.628  1.00  0.00     0.028 A 
HETATM   38  C   UNL     1      -2.942   5.257 -35.157  1.00  0.00     0.028 A 
ENDBRANCH   6  36
TORSDOF 7
ENDMDL
MODEL 7
REMARK VINA RESULT:      -8.8      3.162      7.014
REMARK  7 active torsions:
REMARK  status: ('A' for Active; 'I' for Inactive)
REMARK    1  A    between atoms: C_2  and  N_3 
REMARK    2  A    between atoms: C_2  and  C_25 
REMARK       I    between atoms: N_3  and  C_4 
REMARK    3  A    between atoms: C_4  and  C_5 
REMARK    4  A    between atoms: C_8  and  C_9 
REMARK       I    between atoms: C_9  and  N_10 
REMARK    5  A    between atoms: N_10  and  C_11 
REMARK    6  A    between atoms: N_19  and  C_20 
REMARK    7  A    between atoms: C_33  and  O_34 
ROOT
HETATM    1  C   UNL     1      -5.408   5.722 -31.809  1.00  0.00     0.098 A 
HETATM    2  C   UNL     1      -5.365   4.235 -31.651  1.00  0.00     0.206 A 
HETATM    3  O   UNL     1      -6.403   3.586 -31.505  1.00  0.00    -0.286 OA
HETATM    4  C   UNL     1      -4.038   3.549 -31.689  1.00  0.00     0.098 A 
HETATM    5  C   UNL     1      -2.952   4.338 -31.761  1.00  0.00     0.112 A 
HETATM    6  N   UNL     1      -3.005   5.718 -31.805  1.00  0.00    -0.360 N 
HETATM    7  C   UNL     1      -4.226   6.356 -31.884  1.00  0.00     0.112 A 
ENDROOT
BRANCH   1   8
HETATM    8  C   UNL     1      -6.661   6.524 -31.897  1.00  0.00     0.257 C 
HETATM    9  N   UNL     1      -7.801   5.859 -31.537  1.00  0.00    -0.348 N 
HETATM   10  H   UNL     1      -7.725   4.883 -31.253  1.00  0.00     0.163 HD
HETATM   11  O   UNL     1      -6.656   7.693 -32.272  1.00  0.00    -0.267 OA
BRANCH   9  12
HETATM   12  C   UNL     1      -9.128   6.445 -31.580  1.00  0.00     0.114 C 
HETATM   13  C   UNL     1      -9.533   7.026 -30.222  1.00  0.00     0.037 C 
BRANCH  12  14
HETATM   14  C   UNL     1     -10.112   5.399 -32.073  1.00  0.00    -0.035 A 
HETATM   15  C   UNL     1      -9.658   4.118 -32.426  1.00  0.00     0.021 A 
HETATM   16  C   UNL     1     -10.552   3.110 -32.829  1.00  0.00    -0.025 A 
HETATM   17  C   UNL     1     -11.934   3.387 -32.877  1.00  0.00    -0.023 A 
HETATM   18  C   UNL     1     -10.104   1.826 -33.178  1.00  0.00     0.015 A 
HETATM   19  C   UNL     1     -12.388   4.667 -32.526  1.00  0.00     0.013 A 
HETATM   20  C   UNL     1     -12.827   2.376 -33.267  1.00  0.00     0.049 A 
HETATM   21  C   UNL     1     -11.490   5.659 -32.127  1.00  0.00     0.010 A 
HETATM   22  C   UNL     1     -12.372   1.099 -33.607  1.00  0.00     0.069 A 
HETATM   23  C   UNL     1     -11.007   0.828 -33.564  1.00  0.00     0.037 A 
BRANCH  22  24
HETATM   24  O   UNL     1     -13.357   0.217 -33.960  1.00  0.00    -0.356 OA
HETATM   25  C   UNL     1     -14.613   0.771 -34.330  1.00  0.00     0.210 C 
ENDBRANCH  22  24
ENDBRANCH  12  14
ENDBRANCH   9  12
ENDBRANCH   1   8
BRANCH   4  26
HETATM   26  C   UNL     1      -3.852   2.071 -31.679  1.00  0.00     0.257 C 
HETATM   27  N   UNL     1      -4.821   1.361 -32.342  1.00  0.00    -0.352 N 
HETATM   28  H   UNL     1      -5.646   1.866 -32.663  1.00  0.00     0.163 HD
HETATM   29  O   UNL     1      -2.889   1.546 -31.130  1.00  0.00    -0.267 OA
BRANCH  27  30
HETATM   30  C   UNL     1      -4.853  -0.095 -32.389  1.00  0.00     0.084 C 
HETATM   31  C   UNL     1      -6.031  -0.647 -31.574  1.00  0.00     0.025 C 
HETATM   32  C   UNL     1      -7.380  -0.386 -32.244  1.00  0.00     0.002 C 
HETATM   33  C   UNL     1      -7.407  -0.906 -33.678  1.00  0.00     0.000 C 
HETATM   34  C   UNL     1      -6.261  -0.339 -34.508  1.00  0.00     0.002 C 
HETATM   35  C   UNL     1      -4.906  -0.585 -33.844  1.00  0.00     0.025 C 
ENDBRANCH  27  30
ENDBRANCH   4  26
BRANCH   6  36
HETATM   36  C   UNL     1      -1.770   6.475 -32.050  1.00  0.00     0.089 A 
HETATM   37  C   UNL     1      -1.211   6.670 -33.437  1.00  0.00     0.028 A 
HETATM   38  C   UNL     1      -1.802   7.834 -32.702  1.00  0.00     0.028 A 
ENDBRANCH   6  36
TORSDOF 7
ENDMDL
MODEL 8
REMARK VINA RESULT:      -8.8      3.443      7.632
REMARK  7 active torsions:
REMARK  status: ('A' for Active; 'I' for Inactive)
REMARK    1  A    between atoms: C_2  and  N_3 
REMARK    2  A    between atoms: C_2  and  C_25 
REMARK       I    between atoms: N_3  and  C_4 
REMARK    3  A    between atoms: C_4  and  C_5 
REMARK    4  A    between atoms: C_8  and  C_9 
REMARK       I    between atoms: C_9  and  N_10 
REMARK    5  A    between atoms: N_10  and  C_11 
REMARK    6  A    between atoms: N_19  and  C_20 
REMARK    7  A    between atoms: C_33  and  O_34 
ROOT
HETATM    1  C   UNL     1      -7.014   5.242 -31.687  1.00  0.00     0.098 A 
HETATM    2  C   UNL     1      -7.814   4.691 -32.824  1.00  0.00     0.206 A 
HETATM    3  O   UNL     1      -7.584   3.565 -33.270  1.00  0.00    -0.286 OA
HETATM    4  C   UNL     1      -8.911   5.526 -33.399  1.00  0.00     0.098 A 
HETATM    5  C   UNL     1      -9.037   6.774 -32.914  1.00  0.00     0.112 A 
HETATM    6  N   UNL     1      -8.224   7.304 -31.933  1.00  0.00    -0.360 N 
HETATM    7  C   UNL     1      -7.282   6.506 -31.316  1.00  0.00     0.112 A 
ENDROOT
BRANCH   1   8
HETATM    8  C   UNL     1      -5.965   4.483 -30.949  1.00  0.00     0.257 C 
HETATM    9  N   UNL     1      -5.072   3.812 -31.739  1.00  0.00    -0.348 N 
HETATM   10  H   UNL     1      -5.186   3.861 -32.751  1.00  0.00     0.163 HD
HETATM   11  O   UNL     1      -5.920   4.467 -29.722  1.00  0.00    -0.267 OA
BRANCH   9  12
HETATM   12  C   UNL     1      -3.994   2.989 -31.223  1.00  0.00     0.114 C 
HETATM   13  C   UNL     1      -2.623   3.605 -31.518  1.00  0.00     0.037 C 
BRANCH  12  14
HETATM   14  C   UNL     1      -4.129   1.587 -31.793  1.00  0.00    -0.035 A 
HETATM   15  C   UNL     1      -5.115   1.311 -32.753  1.00  0.00     0.021 A 
HETATM   16  C   UNL     1      -5.226   0.039 -33.343  1.00  0.00    -0.025 A 
HETATM   17  C   UNL     1      -4.326  -0.980 -32.967  1.00  0.00    -0.023 A 
HETATM   18  C   UNL     1      -6.207  -0.241 -34.307  1.00  0.00     0.015 A 
HETATM   19  C   UNL     1      -3.342  -0.705 -32.007  1.00  0.00     0.013 A 
HETATM   20  C   UNL     1      -4.430  -2.246 -33.566  1.00  0.00     0.049 A 
HETATM   21  C   UNL     1      -3.242   0.562 -31.429  1.00  0.00     0.010 A 
HETATM   22  C   UNL     1      -5.407  -2.514 -34.530  1.00  0.00     0.069 A 
HETATM   23  C   UNL     1      -6.297  -1.508 -34.896  1.00  0.00     0.037 A 
BRANCH  22  24
HETATM   24  O   UNL     1      -5.381  -3.788 -35.029  1.00  0.00    -0.356 OA
HETATM   25  C   UNL     1      -6.630  -4.457 -35.147  1.00  0.00     0.210 C 
ENDBRANCH  22  24
ENDBRANCH  12  14
ENDBRANCH   9  12
ENDBRANCH   1   8
BRANCH   4  26
HETATM   26  C   UNL     1      -9.872   5.059 -34.437  1.00  0.00     0.257 C 
HETATM   27  N   UNL     1     -10.811   4.160 -33.996  1.00  0.00    -0.352 N 
HETATM   28  H   UNL     1     -10.701   3.781 -33.056  1.00  0.00     0.163 HD
HETATM   29  O   UNL     1      -9.825   5.472 -35.592  1.00  0.00    -0.267 OA
BRANCH  27  30
HETATM   30  C   UNL     1     -11.794   3.536 -34.872  1.00  0.00     0.084 C 
HETATM   31  C   UNL     1     -11.522   2.033 -35.024  1.00  0.00     0.025 C 
HETATM   32  C   UNL     1     -11.845   1.248 -33.753  1.00  0.00     0.002 C 
HETATM   33  C   UNL     1     -13.272   1.507 -33.279  1.00  0.00     0.000 C 
HETATM   34  C   UNL     1     -13.545   2.996 -33.091  1.00  0.00     0.002 C 
HETATM   35  C   UNL     1     -13.216   3.794 -34.353  1.00  0.00     0.025 C 
ENDBRANCH  27  30
ENDBRANCH   4  26
BRANCH   6  36
HETATM   36  C   UNL     1      -8.552   8.616 -31.359  1.00  0.00     0.089 A 
HETATM   37  C   UNL     1      -7.524   9.709 -31.215  1.00  0.00     0.028 A 
HETATM   38  C   UNL     1      -8.625   9.851 -32.220  1.00  0.00     0.028 A 
ENDBRANCH   6  36
TORSDOF 7
ENDMDL
MODEL 9
REMARK VINA RESULT:      -8.7      2.819      9.868
REMARK  7 active torsions:
REMARK  status: ('A' for Active; 'I' for Inactive)
REMARK    1  A    between atoms: C_2  and  N_3 
REMARK    2  A    between atoms: C_2  and  C_25 
REMARK       I    between atoms: N_3  and  C_4 
REMARK    3  A    between atoms: C_4  and  C_5 
REMARK    4  A    between atoms: C_8  and  C_9 
REMARK       I    between atoms: C_9  and  N_10 
REMARK    5  A    between atoms: N_10  and  C_11 
REMARK    6  A    between atoms: N_19  and  C_20 
REMARK    7  A    between atoms: C_33  and  O_34 
ROOT
HETATM    1  C   UNL     1      -5.827   3.369 -33.458  1.00  0.00     0.098 A 
HETATM    2  C   UNL     1      -7.043   4.180 -33.776  1.00  0.00     0.206 A 
HETATM    3  O   UNL     1      -6.978   5.408 -33.862  1.00  0.00    -0.286 OA
HETATM    4  C   UNL     1      -8.336   3.469 -34.005  1.00  0.00     0.098 A 
HETATM    5  C   UNL     1      -8.339   2.140 -33.805  1.00  0.00     0.112 A 
HETATM    6  N   UNL     1      -7.229   1.418 -33.412  1.00  0.00    -0.360 N 
HETATM    7  C   UNL     1      -6.004   2.046 -33.308  1.00  0.00     0.112 A 
ENDROOT
BRANCH   1   8
HETATM    8  C   UNL     1      -4.454   3.932 -33.311  1.00  0.00     0.257 C 
HETATM    9  N   UNL     1      -4.249   5.130 -33.938  1.00  0.00    -0.348 N 
HETATM   10  H   UNL     1      -5.020   5.543 -34.461  1.00  0.00     0.163 HD
HETATM   11  O   UNL     1      -3.581   3.349 -32.675  1.00  0.00    -0.267 OA
BRANCH   9  12
HETATM   12  C   UNL     1      -2.979   5.833 -33.945  1.00  0.00     0.114 C 
HETATM   13  C   UNL     1      -1.896   5.033 -34.675  1.00  0.00     0.037 C 
BRANCH  12  14
HETATM   14  C   UNL     1      -2.587   6.156 -32.513  1.00  0.00    -0.035 A 
HETATM   15  C   UNL     1      -1.390   5.650 -31.982  1.00  0.00     0.021 A 
HETATM   16  C   UNL     1      -0.971   5.981 -30.680  1.00  0.00    -0.025 A 
HETATM   17  C   UNL     1      -1.765   6.840 -29.893  1.00  0.00    -0.023 A 
HETATM   18  C   UNL     1       0.228   5.483 -30.145  1.00  0.00     0.015 A 
HETATM   19  C   UNL     1      -2.962   7.344 -30.423  1.00  0.00     0.013 A 
HETATM   20  C   UNL     1      -1.339   7.179 -28.599  1.00  0.00     0.049 A 
HETATM   21  C   UNL     1      -3.366   7.008 -31.716  1.00  0.00     0.010 A 
HETATM   22  C   UNL     1      -0.141   6.683 -28.076  1.00  0.00     0.069 A 
HETATM   23  C   UNL     1       0.640   5.831 -28.853  1.00  0.00     0.037 A 
BRANCH  22  24
HETATM   24  O   UNL     1       0.147   7.105 -26.806  1.00  0.00    -0.356 OA
HETATM   25  C   UNL     1       1.492   7.481 -26.544  1.00  0.00     0.210 C 
ENDBRANCH  22  24
ENDBRANCH  12  14
ENDBRANCH   9  12
ENDBRANCH   1   8
BRANCH   4  26
HETATM   26  C   UNL     1      -9.593   4.129 -34.459  1.00  0.00     0.257 C 
HETATM   27  N   UNL     1     -10.746   3.449 -34.157  1.00  0.00    -0.352 N 
HETATM   28  H   UNL     1     -10.658   2.505 -33.782  1.00  0.00     0.163 HD
HETATM   29  O   UNL     1      -9.579   5.210 -35.040  1.00  0.00    -0.267 OA
BRANCH  27  30
HETATM   30  C   UNL     1     -12.069   3.897 -34.573  1.00  0.00     0.084 C 
HETATM   31  C   UNL     1     -12.730   2.871 -35.505  1.00  0.00     0.025 C 
HETATM   32  C   UNL     1     -13.159   1.602 -34.769  1.00  0.00     0.002 C 
HETATM   33  C   UNL     1     -14.052   1.919 -33.573  1.00  0.00     0.000 C 
HETATM   34  C   UNL     1     -13.393   2.912 -32.621  1.00  0.00     0.002 C 
HETATM   35  C   UNL     1     -12.949   4.182 -33.348  1.00  0.00     0.025 C 
ENDBRANCH  27  30
ENDBRANCH   4  26
BRANCH   6  36
HETATM   36  C   UNL     1      -7.299  -0.049 -33.384  1.00  0.00     0.089 A 
HETATM   37  C   UNL     1      -7.166  -0.882 -34.633  1.00  0.00     0.028 A 
HETATM   38  C   UNL     1      -6.073  -0.896 -33.609  1.00  0.00     0.028 A 
ENDBRANCH   6  36
TORSDOF 7
ENDMDL
MODEL 10
REMARK VINA RESULT:      -8.6      1.918      2.557
REMARK  7 active torsions:
REMARK  status: ('A' for Active; 'I' for Inactive)
REMARK    1  A    between atoms: C_2  and  N_3 
REMARK    2  A    between atoms: C_2  and  C_25 
REMARK       I    between atoms: N_3  and  C_4 
REMARK    3  A    between atoms: C_4  and  C_5 
REMARK    4  A    between atoms: C_8  and  C_9 
REMARK       I    between atoms: C_9  and  N_10 
REMARK    5  A    between atoms: N_10  and  C_11 
REMARK    6  A    between atoms: N_19  and  C_20 
REMARK    7  A    between atoms: C_33  and  O_34 
ROOT
HETATM    1  C   UNL     1      -5.555   5.379 -32.255  1.00  0.00     0.098 A 
HETATM    2  C   UNL     1      -5.822   5.877 -30.870  1.00  0.00     0.206 A 
HETATM    3  O   UNL     1      -6.949   5.790 -30.375  1.00  0.00    -0.286 OA
HETATM    4  C   UNL     1      -4.693   6.465 -30.090  1.00  0.00     0.098 A 
HETATM    5  C   UNL     1      -3.521   6.603 -30.734  1.00  0.00     0.112 A 
HETATM    6  N   UNL     1      -3.317   6.232 -32.049  1.00  0.00    -0.360 N 
HETATM    7  C   UNL     1      -4.319   5.584 -32.742  1.00  0.00     0.112 A 
ENDROOT
BRANCH   1   8
HETATM    8  C   UNL     1      -6.556   4.676 -33.106  1.00  0.00     0.257 C 
HETATM    9  N   UNL     1      -7.176   3.611 -32.511  1.00  0.00    -0.348 N 
HETATM   10  H   UNL     1      -6.912   3.366 -31.557  1.00  0.00     0.163 HD
HETATM   11  O   UNL     1      -6.793   5.033 -34.256  1.00  0.00    -0.267 OA
BRANCH   9  12
HETATM   12  C   UNL     1      -8.158   2.773 -33.173  1.00  0.00     0.114 C 
HETATM   13  C   UNL     1      -9.360   2.489 -32.268  1.00  0.00     0.037 C 
BRANCH  12  14
HETATM   14  C   UNL     1      -7.480   1.497 -33.642  1.00  0.00    -0.035 A 
HETATM   15  C   UNL     1      -6.328   1.032 -32.986  1.00  0.00     0.021 A 
HETATM   16  C   UNL     1      -5.713  -0.177 -33.359  1.00  0.00    -0.025 A 
HETATM   17  C   UNL     1      -6.264  -0.942 -34.408  1.00  0.00    -0.023 A 
HETATM   18  C   UNL     1      -4.565  -0.650 -32.704  1.00  0.00     0.015 A 
HETATM   19  C   UNL     1      -7.413  -0.476 -35.064  1.00  0.00     0.013 A 
HETATM   20  C   UNL     1      -5.655  -2.154 -34.770  1.00  0.00     0.049 A 
HETATM   21  C   UNL     1      -8.014   0.725 -34.685  1.00  0.00     0.010 A 
HETATM   22  C   UNL     1      -4.515  -2.620 -34.109  1.00  0.00     0.069 A 
HETATM   23  C   UNL     1      -3.970  -1.862 -33.075  1.00  0.00     0.037 A 
BRANCH  22  24
HETATM   24  O   UNL     1      -4.039  -3.818 -34.566  1.00  0.00    -0.356 OA
HETATM   25  C   UNL     1      -3.507  -4.710 -33.595  1.00  0.00     0.210 C 
ENDBRANCH  22  24
ENDBRANCH  12  14
ENDBRANCH   9  12
ENDBRANCH   1   8
BRANCH   4  26
HETATM   26  C   UNL     1      -4.778   6.876 -28.660  1.00  0.00     0.257 C 
HETATM   27  N   UNL     1      -4.824   8.231 -28.448  1.00  0.00    -0.352 N 
HETATM   28  H   UNL     1      -4.660   8.843 -29.246  1.00  0.00     0.163 HD
HETATM   29  O   UNL     1      -4.823   6.049 -27.754  1.00  0.00    -0.267 OA
BRANCH  27  30
HETATM   30  C   UNL     1      -4.842   8.832 -27.120  1.00  0.00     0.084 C 
HETATM   31  C   UNL     1      -3.953  10.081 -27.069  1.00  0.00     0.025 C 
HETATM   32  C   UNL     1      -4.551  11.258 -27.840  1.00  0.00     0.002 C 
HETATM   33  C   UNL     1      -5.972  11.570 -27.379  1.00  0.00     0.000 C 
HETATM   34  C   UNL     1      -6.875  10.344 -27.457  1.00  0.00     0.002 C 
HETATM   35  C   UNL     1      -6.282   9.156 -26.698  1.00  0.00     0.025 C 
ENDBRANCH  27  30
ENDBRANCH   4  26
BRANCH   6  36
HETATM   36  C   UNL     1      -1.957   6.271 -32.603  1.00  0.00     0.089 A 
HETATM   37  C   UNL     1      -0.979   5.141 -32.410  1.00  0.00     0.028 A 
HETATM   38  C   UNL     1      -1.560   5.399 -33.767  1.00  0.00     0.028 A 
ENDBRANCH   6  36
TORSDOF 7
ENDMDL
