MODEL 1
REMARK VINA RESULT:      -9.2      0.000      0.000
REMARK  6 active torsions:
REMARK  status: ('A' for Active; 'I' for Inactive)
REMARK    1  A    between atoms: C_2  and  C_3 
REMARK    2  A    between atoms: C_3  and  C_4 
REMARK    3  A    between atoms: C_4  and  C_5 
REMARK    4  A    between atoms: C_4  and  C_21 
REMARK       I    between atoms: C_5  and  N_6 
REMARK    5  A    between atoms: N_6  and  C_7 
REMARK    6  A    between atoms: C_14  and  C_15 
REMARK       I    between atoms: C_15  and  N_16 
ROOT
HETATM    1  C   UNL     1      -9.054   1.556 -33.750  1.00  0.00     0.035 A 
HETATM    2  C   UNL     1     -10.299   0.915 -33.689  1.00  0.00     0.046 A 
HETATM    3  C   UNL     1     -11.478   1.661 -33.903  1.00  0.00     0.030 A 
HETATM    4  C   UNL     1     -11.372   3.025 -34.148  1.00  0.00     0.063 A 
HETATM    5  N   UNL     1     -12.657   3.467 -34.293  1.00  0.00    -0.277 N 
HETATM    6  H   UNL     1     -12.962   4.418 -34.471  1.00  0.00     0.189 HD
HETATM    7  N   UNL     1     -13.592   2.508 -34.198  1.00  0.00    -0.168 NA
HETATM    8  C   UNL     1     -12.877   1.383 -33.963  1.00  0.00     0.156 A 
HETATM    9  C   UNL     1     -10.149   3.694 -34.215  1.00  0.00     0.034 A 
HETATM   10  C   UNL     1      -8.993   2.927 -34.028  1.00  0.00     0.032 A 
ENDROOT
BRANCH   1  11
HETATM   11  N   UNL     1      -7.826   0.879 -33.582  1.00  0.00    -0.327 N 
HETATM   12  C   UNL     1      -6.935   0.520 -34.585  1.00  0.00     0.231 C 
HETATM   13  O   UNL     1      -7.162   0.606 -35.790  1.00  0.00    -0.272 OA
HETATM   14  H   UNL     1      -7.636   0.533 -32.652  1.00  0.00     0.169 HD
BRANCH  12  15
HETATM   15  C   UNL     1      -5.627  -0.104 -34.042  1.00  0.00     0.115 C 
BRANCH  15  16
HETATM   16  C   UNL     1      -5.400   0.324 -32.560  1.00  0.00    -0.001 C 
HETATM   17  C   UNL     1      -5.836  -0.765 -31.567  1.00  0.00     0.011 C 
BRANCH  16  18
HETATM   18  C   UNL     1      -3.940   0.752 -32.269  1.00  0.00     0.001 C 
HETATM   19  C   UNL     1      -3.144  -0.191 -31.375  1.00  0.00     0.005 C 
ENDBRANCH  16  18
ENDBRANCH  15  16
BRANCH  15  20
HETATM   20  C   UNL     1      -5.626  -1.620 -34.242  1.00  0.00    -0.045 A 
HETATM   21  C   UNL     1      -6.828  -2.289 -34.528  1.00  0.00     0.008 A 
HETATM   22  C   UNL     1      -6.843  -3.669 -34.738  1.00  0.00     0.001 A 
HETATM   23  C   UNL     1      -5.660  -4.401 -34.662  1.00  0.00     0.000 A 
HETATM   24  C   UNL     1      -4.461  -3.752 -34.378  1.00  0.00     0.001 A 
HETATM   25  C   UNL     1      -4.443  -2.372 -34.174  1.00  0.00     0.008 A 
ENDBRANCH  15  20
ENDBRANCH  12  15
ENDBRANCH   1  11
BRANCH   8  26
HETATM   26  C   UNL     1     -13.540   0.078 -33.821  1.00  0.00     0.270 C 
HETATM   27  N   UNL     1     -14.818   0.045 -34.310  1.00  0.00    -0.365 N 
HETATM   28  H   UNL     1     -15.195   0.883 -34.738  1.00  0.00     0.159 HD
HETATM   29  H   UNL     1     -15.337  -0.818 -34.286  1.00  0.00     0.159 HD
HETATM   30  O   UNL     1     -13.024  -0.919 -33.329  1.00  0.00    -0.266 OA
ENDBRANCH   8  26
TORSDOF 6
ENDMDL
MODEL 2
REMARK VINA RESULT:      -8.8      1.104      3.164
REMARK  6 active torsions:
REMARK  status: ('A' for Active; 'I' for Inactive)
REMARK    1  A    between atoms: C_2  and  C_3 
REMARK    2  A    between atoms: C_3  and  C_4 
REMARK    3  A    between atoms: C_4  and  C_5 
REMARK    4  A    between atoms: C_4  and  C_21 
REMARK       I    between atoms: C_5  and  N_6 
REMARK    5  A    between atoms: N_6  and  C_7 
REMARK    6  A    between atoms: C_14  and  C_15 
REMARK       I    between atoms: C_15  and  N_16 
ROOT
HETATM    1  C   UNL     1      -9.614   1.032 -33.076  1.00  0.00     0.035 A 
HETATM    2  C   UNL     1     -10.936   0.640 -33.328  1.00  0.00     0.046 A 
HETATM    3  C   UNL     1     -11.936   1.624 -33.485  1.00  0.00     0.030 A 
HETATM    4  C   UNL     1     -11.583   2.963 -33.364  1.00  0.00     0.063 A 
HETATM    5  N   UNL     1     -12.743   3.661 -33.544  1.00  0.00    -0.277 N 
HETATM    6  H   UNL     1     -12.866   4.667 -33.511  1.00  0.00     0.189 HD
HETATM    7  N   UNL     1     -13.818   2.899 -33.807  1.00  0.00    -0.168 NA
HETATM    8  C   UNL     1     -13.332   1.636 -33.780  1.00  0.00     0.156 A 
HETATM    9  C   UNL     1     -10.277   3.387 -33.113  1.00  0.00     0.034 A 
HETATM   10  C   UNL     1      -9.298   2.394 -32.989  1.00  0.00     0.032 A 
ENDROOT
BRANCH   1  11
HETATM   11  N   UNL     1      -8.547   0.115 -32.940  1.00  0.00    -0.327 N 
HETATM   12  C   UNL     1      -7.708  -0.335 -33.950  1.00  0.00     0.231 C 
HETATM   13  O   UNL     1      -7.871  -0.114 -35.148  1.00  0.00    -0.272 OA
HETATM   14  H   UNL     1      -8.462  -0.331 -32.037  1.00  0.00     0.169 HD
BRANCH  12  15
HETATM   15  C   UNL     1      -6.567  -1.243 -33.434  1.00  0.00     0.115 C 
BRANCH  15  16
HETATM   16  C   UNL     1      -6.014  -2.126 -34.595  1.00  0.00    -0.001 C 
HETATM   17  C   UNL     1      -4.527  -2.467 -34.408  1.00  0.00     0.011 C 
BRANCH  16  18
HETATM   18  C   UNL     1      -6.832  -3.423 -34.814  1.00  0.00     0.001 C 
HETATM   19  C   UNL     1      -6.014  -4.704 -34.928  1.00  0.00     0.005 C 
ENDBRANCH  16  18
ENDBRANCH  15  16
BRANCH  15  20
HETATM   20  C   UNL     1      -5.489  -0.415 -32.736  1.00  0.00    -0.045 A 
HETATM   21  C   UNL     1      -5.201   0.883 -33.189  1.00  0.00     0.008 A 
HETATM   22  C   UNL     1      -4.236   1.665 -32.549  1.00  0.00     0.001 A 
HETATM   23  C   UNL     1      -3.544   1.160 -31.451  1.00  0.00     0.000 A 
HETATM   24  C   UNL     1      -3.817  -0.126 -30.991  1.00  0.00     0.001 A 
HETATM   25  C   UNL     1      -4.785  -0.906 -31.625  1.00  0.00     0.008 A 
ENDBRANCH  15  20
ENDBRANCH  12  15
ENDBRANCH   1  11
BRANCH   8  26
HETATM   26  C   UNL     1     -14.202   0.483 -34.052  1.00  0.00     0.270 C 
HETATM   27  N   UNL     1     -13.818  -0.669 -33.421  1.00  0.00    -0.365 N 
HETATM   28  H   UNL     1     -13.005  -0.641 -32.816  1.00  0.00     0.159 HD
HETATM   29  H   UNL     1     -14.375  -1.501 -33.523  1.00  0.00     0.159 HD
HETATM   30  O   UNL     1     -15.201   0.512 -34.763  1.00  0.00    -0.266 OA
ENDBRANCH   8  26
TORSDOF 6
ENDMDL
MODEL 3
REMARK VINA RESULT:      -8.5      1.791      4.283
REMARK  6 active torsions:
REMARK  status: ('A' for Active; 'I' for Inactive)
REMARK    1  A    between atoms: C_2  and  C_3 
REMARK    2  A    between atoms: C_3  and  C_4 
REMARK    3  A    between atoms: C_4  and  C_5 
REMARK    4  A    between atoms: C_4  and  C_21 
REMARK       I    between atoms: C_5  and  N_6 
REMARK    5  A    between atoms: N_6  and  C_7 
REMARK    6  A    between atoms: C_14  and  C_15 
REMARK       I    between atoms: C_15  and  N_16 
ROOT
HETATM    1  C   UNL     1     -10.063   1.075 -33.706  1.00  0.00     0.035 A 
HETATM    2  C   UNL     1      -9.875   2.410 -34.088  1.00  0.00     0.046 A 
HETATM    3  C   UNL     1     -10.996   3.213 -34.391  1.00  0.00     0.030 A 
HETATM    4  C   UNL     1     -12.263   2.646 -34.323  1.00  0.00     0.063 A 
HETATM    5  N   UNL     1     -13.125   3.644 -34.683  1.00  0.00    -0.277 N 
HETATM    6  H   UNL     1     -14.134   3.585 -34.756  1.00  0.00     0.189 HD
HETATM    7  N   UNL     1     -12.537   4.822 -34.947  1.00  0.00    -0.168 NA
HETATM    8  C   UNL     1     -11.219   4.573 -34.765  1.00  0.00     0.156 A 
HETATM    9  C   UNL     1     -12.486   1.321 -33.947  1.00  0.00     0.034 A 
HETATM   10  C   UNL     1     -11.361   0.553 -33.624  1.00  0.00     0.032 A 
ENDROOT
BRANCH   1  11
HETATM   11  N   UNL     1      -9.001   0.214 -33.353  1.00  0.00    -0.327 N 
HETATM   12  C   UNL     1      -8.005  -0.260 -34.196  1.00  0.00     0.231 C 
HETATM   13  O   UNL     1      -7.992  -0.118 -35.417  1.00  0.00    -0.272 OA
HETATM   14  H   UNL     1      -9.038  -0.174 -32.421  1.00  0.00     0.169 HD
BRANCH  12  15
HETATM   15  C   UNL     1      -6.926  -1.088 -33.458  1.00  0.00     0.115 C 
BRANCH  15  16
HETATM   16  C   UNL     1      -6.145  -1.980 -34.471  1.00  0.00    -0.001 C 
HETATM   17  C   UNL     1      -4.700  -2.245 -34.018  1.00  0.00     0.011 C 
BRANCH  16  18
HETATM   18  C   UNL     1      -6.858  -3.322 -34.774  1.00  0.00     0.001 C 
HETATM   19  C   UNL     1      -5.943  -4.524 -34.967  1.00  0.00     0.005 C 
ENDBRANCH  16  18
ENDBRANCH  15  16
BRANCH  15  20
HETATM   20  C   UNL     1      -6.020  -0.179 -32.627  1.00  0.00    -0.045 A 
HETATM   21  C   UNL     1      -5.462   0.972 -33.207  1.00  0.00     0.008 A 
HETATM   22  C   UNL     1      -4.652   1.828 -32.458  1.00  0.00     0.001 A 
HETATM   23  C   UNL     1      -4.384   1.544 -31.121  1.00  0.00     0.000 A 
HETATM   24  C   UNL     1      -4.929   0.405 -30.532  1.00  0.00     0.001 A 
HETATM   25  C   UNL     1      -5.743  -0.448 -31.278  1.00  0.00     0.008 A 
ENDBRANCH  15  20
ENDBRANCH  12  15
ENDBRANCH   1  11
BRANCH   8  26
HETATM   26  C   UNL     1     -10.216   5.634 -34.932  1.00  0.00     0.270 C 
HETATM   27  N   UNL     1      -9.697   6.103 -33.755  1.00  0.00    -0.365 N 
HETATM   28  H   UNL     1     -10.013   5.687 -32.887  1.00  0.00     0.159 HD
HETATM   29  H   UNL     1      -8.978   6.808 -33.775  1.00  0.00     0.159 HD
HETATM   30  O   UNL     1      -9.838   6.077 -36.011  1.00  0.00    -0.266 OA
ENDBRANCH   8  26
TORSDOF 6
ENDMDL
MODEL 4
REMARK VINA RESULT:      -8.4      1.564      2.782
REMARK  6 active torsions:
REMARK  status: ('A' for Active; 'I' for Inactive)
REMARK    1  A    between atoms: C_2  and  C_3 
REMARK    2  A    between atoms: C_3  and  C_4 
REMARK    3  A    between atoms: C_4  and  C_5 
REMARK    4  A    between atoms: C_4  and  C_21 
REMARK       I    between atoms: C_5  and  N_6 
REMARK    5  A    between atoms: N_6  and  C_7 
REMARK    6  A    between atoms: C_14  and  C_15 
REMARK       I    between atoms: C_15  and  N_16 
ROOT
HETATM    1  C   UNL     1      -9.305   1.262 -33.765  1.00  0.00     0.035 A 
HETATM    2  C   UNL     1      -9.487   2.589 -34.180  1.00  0.00     0.046 A 
HETATM    3  C   UNL     1     -10.794   3.110 -34.290  1.00  0.00     0.030 A 
HETATM    4  C   UNL     1     -11.873   2.282 -34.003  1.00  0.00     0.063 A 
HETATM    5  N   UNL     1     -12.984   3.049 -34.214  1.00  0.00    -0.277 N 
HETATM    6  H   UNL     1     -13.952   2.766 -34.113  1.00  0.00     0.189 HD
HETATM    7  N   UNL     1     -12.727   4.315 -34.580  1.00  0.00    -0.168 NA
HETATM    8  C   UNL     1     -11.376   4.370 -34.625  1.00  0.00     0.156 A 
HETATM    9  C   UNL     1     -11.727   0.957 -33.589  1.00  0.00     0.034 A 
HETATM   10  C   UNL     1     -10.420   0.471 -33.460  1.00  0.00     0.032 A 
ENDROOT
BRANCH   1  11
HETATM   11  N   UNL     1      -8.033   0.672 -33.596  1.00  0.00    -0.327 N 
HETATM   12  C   UNL     1      -7.074   0.476 -34.580  1.00  0.00     0.231 C 
HETATM   13  O   UNL     1      -7.256   0.653 -35.783  1.00  0.00    -0.272 OA
HETATM   14  H   UNL     1      -7.854   0.260 -32.691  1.00  0.00     0.169 HD
BRANCH  12  15
HETATM   15  C   UNL     1      -5.743  -0.088 -34.030  1.00  0.00     0.115 C 
BRANCH  15  16
HETATM   16  C   UNL     1      -5.540   0.357 -32.549  1.00  0.00    -0.001 C 
HETATM   17  C   UNL     1      -5.905  -0.755 -31.552  1.00  0.00     0.011 C 
BRANCH  16  18
HETATM   18  C   UNL     1      -4.108   0.876 -32.262  1.00  0.00     0.001 C 
HETATM   19  C   UNL     1      -3.237  -0.038 -31.409  1.00  0.00     0.005 C 
ENDBRANCH  16  18
ENDBRANCH  15  16
BRANCH  15  20
HETATM   20  C   UNL     1      -5.677  -1.604 -34.221  1.00  0.00    -0.045 A 
HETATM   21  C   UNL     1      -6.845  -2.322 -34.529  1.00  0.00     0.008 A 
HETATM   22  C   UNL     1      -6.800  -3.703 -34.731  1.00  0.00     0.001 A 
HETATM   23  C   UNL     1      -5.591  -4.386 -34.625  1.00  0.00     0.000 A 
HETATM   24  C   UNL     1      -4.425  -3.689 -34.320  1.00  0.00     0.001 A 
HETATM   25  C   UNL     1      -4.467  -2.308 -34.123  1.00  0.00     0.008 A 
ENDBRANCH  15  20
ENDBRANCH  12  15
ENDBRANCH   1  11
BRANCH   8  26
HETATM   26  C   UNL     1     -10.679   5.619 -34.966  1.00  0.00     0.270 C 
HETATM   27  N   UNL     1     -11.165   6.724 -34.322  1.00  0.00    -0.365 N 
HETATM   28  H   UNL     1     -11.927   6.605 -33.664  1.00  0.00     0.159 HD
HETATM   29  H   UNL     1     -10.725   7.618 -34.468  1.00  0.00     0.159 HD
HETATM   30  O   UNL     1      -9.732   5.703 -35.741  1.00  0.00    -0.266 OA
ENDBRANCH   8  26
TORSDOF 6
ENDMDL
MODEL 5
REMARK VINA RESULT:      -8.1      4.223      7.339
REMARK  6 active torsions:
REMARK  status: ('A' for Active; 'I' for Inactive)
REMARK    1  A    between atoms: C_2  and  C_3 
REMARK    2  A    between atoms: C_3  and  C_4 
REMARK    3  A    between atoms: C_4  and  C_5 
REMARK    4  A    between atoms: C_4  and  C_21 
REMARK       I    between atoms: C_5  and  N_6 
REMARK    5  A    between atoms: N_6  and  C_7 
REMARK    6  A    between atoms: C_14  and  C_15 
REMARK       I    between atoms: C_15  and  N_16 
ROOT
HETATM    1  C   UNL     1      -5.601   3.197 -31.863  1.00  0.00     0.035 A 
HETATM    2  C   UNL     1      -4.284   3.612 -32.097  1.00  0.00     0.046 A 
HETATM    3  C   UNL     1      -3.742   4.673 -31.339  1.00  0.00     0.030 A 
HETATM    4  C   UNL     1      -4.545   5.295 -30.390  1.00  0.00     0.063 A 
HETATM    5  N   UNL     1      -3.765   6.275 -29.843  1.00  0.00    -0.277 N 
HETATM    6  H   UNL     1      -4.028   6.938 -29.123  1.00  0.00     0.189 HD
HETATM    7  N   UNL     1      -2.513   6.327 -30.327  1.00  0.00    -0.168 NA
HETATM    8  C   UNL     1      -2.482   5.338 -31.249  1.00  0.00     0.156 A 
HETATM    9  C   UNL     1      -5.860   4.907 -30.132  1.00  0.00     0.034 A 
HETATM   10  C   UNL     1      -6.365   3.834 -30.877  1.00  0.00     0.032 A 
ENDROOT
BRANCH   1  11
HETATM   11  N   UNL     1      -6.209   2.123 -32.552  1.00  0.00    -0.327 N 
HETATM   12  C   UNL     1      -6.478   0.860 -32.043  1.00  0.00     0.231 C 
HETATM   13  O   UNL     1      -6.085   0.443 -30.955  1.00  0.00    -0.272 OA
HETATM   14  H   UNL     1      -6.362   2.263 -33.540  1.00  0.00     0.169 HD
BRANCH  12  15
HETATM   15  C   UNL     1      -7.261  -0.039 -33.028  1.00  0.00     0.115 C 
BRANCH  15  16
HETATM   16  C   UNL     1      -7.882   0.824 -34.170  1.00  0.00    -0.001 C 
HETATM   17  C   UNL     1      -7.234   0.536 -35.534  1.00  0.00     0.011 C 
BRANCH  16  18
HETATM   18  C   UNL     1      -9.421   0.678 -34.273  1.00  0.00     0.001 C 
HETATM   19  C   UNL     1     -10.164   0.593 -32.946  1.00  0.00     0.005 C 
ENDBRANCH  16  18
ENDBRANCH  15  16
BRANCH  15  20
HETATM   20  C   UNL     1      -6.379  -1.178 -33.541  1.00  0.00    -0.045 A 
HETATM   21  C   UNL     1      -6.966  -2.289 -34.168  1.00  0.00     0.008 A 
HETATM   22  C   UNL     1      -6.175  -3.328 -34.664  1.00  0.00     0.001 A 
HETATM   23  C   UNL     1      -4.789  -3.273 -34.538  1.00  0.00     0.000 A 
HETATM   24  C   UNL     1      -4.193  -2.178 -33.917  1.00  0.00     0.001 A 
HETATM   25  C   UNL     1      -4.981  -1.136 -33.426  1.00  0.00     0.008 A 
ENDBRANCH  15  20
ENDBRANCH  12  15
ENDBRANCH   1  11
BRANCH   8  26
HETATM   26  C   UNL     1      -1.255   5.041 -32.003  1.00  0.00     0.270 C 
HETATM   27  N   UNL     1      -1.381   5.190 -33.357  1.00  0.00    -0.365 N 
HETATM   28  H   UNL     1      -2.270   5.504 -33.729  1.00  0.00     0.159 HD
HETATM   29  H   UNL     1      -0.581   5.041 -33.950  1.00  0.00     0.159 HD
HETATM   30  O   UNL     1      -0.189   4.702 -31.499  1.00  0.00    -0.266 OA
ENDBRANCH   8  26
TORSDOF 6
ENDMDL
MODEL 6
REMARK VINA RESULT:      -8.1      5.035      8.322
REMARK  6 active torsions:
REMARK  status: ('A' for Active; 'I' for Inactive)
REMARK    1  A    between atoms: C_2  and  C_3 
REMARK    2  A    between atoms: C_3  and  C_4 
REMARK    3  A    between atoms: C_4  and  C_5 
REMARK    4  A    between atoms: C_4  and  C_21 
REMARK       I    between atoms: C_5  and  N_6 
REMARK    5  A    between atoms: N_6  and  C_7 
REMARK    6  A    between atoms: C_14  and  C_15 
REMARK       I    between atoms: C_15  and  N_16 
ROOT
HETATM    1  C   UNL     1      -3.892   3.699 -32.707  1.00  0.00     0.035 A 
HETATM    2  C   UNL     1      -2.677   3.890 -32.033  1.00  0.00     0.046 A 
HETATM    3  C   UNL     1      -1.920   5.056 -32.279  1.00  0.00     0.030 A 
HETATM    4  C   UNL     1      -2.393   5.978 -33.204  1.00  0.00     0.063 A 
HETATM    5  N   UNL     1      -1.453   6.970 -33.239  1.00  0.00    -0.277 N 
HETATM    6  H   UNL     1      -1.463   7.805 -33.814  1.00  0.00     0.189 HD
HETATM    7  N   UNL     1      -0.426   6.795 -32.392  1.00  0.00    -0.168 NA
HETATM    8  C   UNL     1      -0.703   5.617 -31.787  1.00  0.00     0.156 A 
HETATM    9  C   UNL     1      -3.596   5.820 -33.893  1.00  0.00     0.034 A 
HETATM   10  C   UNL     1      -4.343   4.669 -33.611  1.00  0.00     0.032 A 
ENDROOT
BRANCH   1  11
HETATM   11  N   UNL     1      -4.727   2.580 -32.495  1.00  0.00    -0.327 N 
HETATM   12  C   UNL     1      -5.334   2.214 -31.302  1.00  0.00     0.231 C 
HETATM   13  O   UNL     1      -5.108   2.733 -30.211  1.00  0.00    -0.272 OA
HETATM   14  H   UNL     1      -4.797   1.930 -33.266  1.00  0.00     0.169 HD
BRANCH  12  15
HETATM   15  C   UNL     1      -6.282   1.000 -31.448  1.00  0.00     0.115 C 
BRANCH  15  16
HETATM   16  C   UNL     1      -7.632   1.443 -32.091  1.00  0.00    -0.001 C 
HETATM   17  C   UNL     1      -8.792   0.511 -31.706  1.00  0.00     0.011 C 
BRANCH  16  18
HETATM   18  C   UNL     1      -8.003   2.913 -31.769  1.00  0.00     0.001 C 
HETATM   19  C   UNL     1      -8.866   3.116 -30.530  1.00  0.00     0.005 C 
ENDBRANCH  16  18
ENDBRANCH  15  16
BRANCH  15  20
HETATM   20  C   UNL     1      -5.594  -0.136 -32.206  1.00  0.00    -0.045 A 
HETATM   21  C   UNL     1      -6.089  -0.544 -33.456  1.00  0.00     0.008 A 
HETATM   22  C   UNL     1      -5.460  -1.563 -34.174  1.00  0.00     0.001 A 
HETATM   23  C   UNL     1      -4.331  -2.191 -33.654  1.00  0.00     0.000 A 
HETATM   24  C   UNL     1      -3.829  -1.799 -32.415  1.00  0.00     0.001 A 
HETATM   25  C   UNL     1      -4.453  -0.777 -31.699  1.00  0.00     0.008 A 
ENDBRANCH  15  20
ENDBRANCH  12  15
ENDBRANCH   1  11
BRANCH   8  26
HETATM   26  C   UNL     1       0.182   5.070 -30.748  1.00  0.00     0.270 C 
HETATM   27  N   UNL     1      -0.276   5.251 -29.471  1.00  0.00    -0.365 N 
HETATM   28  H   UNL     1      -1.169   5.711 -29.338  1.00  0.00     0.159 HD
HETATM   29  H   UNL     1       0.249   4.878 -28.697  1.00  0.00     0.159 HD
HETATM   30  O   UNL     1       1.237   4.484 -30.965  1.00  0.00    -0.266 OA
ENDBRANCH   8  26
TORSDOF 6
ENDMDL
MODEL 7
REMARK VINA RESULT:      -8.0      5.057      7.931
REMARK  6 active torsions:
REMARK  status: ('A' for Active; 'I' for Inactive)
REMARK    1  A    between atoms: C_2  and  C_3 
REMARK    2  A    between atoms: C_3  and  C_4 
REMARK    3  A    between atoms: C_4  and  C_5 
REMARK    4  A    between atoms: C_4  and  C_21 
REMARK       I    between atoms: C_5  and  N_6 
REMARK    5  A    between atoms: N_6  and  C_7 
REMARK    6  A    between atoms: C_14  and  C_15 
REMARK       I    between atoms: C_15  and  N_16 
ROOT
HETATM    1  C   UNL     1      -5.160   3.599 -31.624  1.00  0.00     0.035 A 
HETATM    2  C   UNL     1      -5.645   2.674 -32.559  1.00  0.00     0.046 A 
HETATM    3  C   UNL     1      -6.778   1.893 -32.242  1.00  0.00     0.030 A 
HETATM    4  C   UNL     1      -7.371   2.049 -30.995  1.00  0.00     0.063 A 
HETATM    5  N   UNL     1      -8.411   1.162 -30.976  1.00  0.00    -0.277 N 
HETATM    6  H   UNL     1      -9.060   0.994 -30.215  1.00  0.00     0.189 HD
HETATM    7  N   UNL     1      -8.571   0.465 -32.113  1.00  0.00    -0.168 NA
HETATM    8  C   UNL     1      -7.571   0.910 -32.908  1.00  0.00     0.156 A 
HETATM    9  C   UNL     1      -6.914   2.960 -30.042  1.00  0.00     0.034 A 
HETATM   10  C   UNL     1      -5.807   3.743 -30.390  1.00  0.00     0.032 A 
ENDROOT
BRANCH   1  11
HETATM   11  N   UNL     1      -4.055   4.443 -31.873  1.00  0.00    -0.327 N 
HETATM   12  C   UNL     1      -2.714   4.109 -31.746  1.00  0.00     0.231 C 
HETATM   13  O   UNL     1      -2.294   3.067 -31.248  1.00  0.00    -0.272 OA
HETATM   14  H   UNL     1      -4.273   5.412 -32.058  1.00  0.00     0.169 HD
BRANCH  12  15
HETATM   15  C   UNL     1      -1.760   5.233 -32.214  1.00  0.00     0.115 C 
BRANCH  15  16
HETATM   16  C   UNL     1      -2.427   6.069 -33.349  1.00  0.00    -0.001 C 
HETATM   17  C   UNL     1      -1.773   7.451 -33.514  1.00  0.00     0.011 C 
BRANCH  16  18
HETATM   18  C   UNL     1      -2.454   5.330 -34.711  1.00  0.00     0.001 C 
HETATM   19  C   UNL     1      -3.834   5.141 -35.329  1.00  0.00     0.005 C 
ENDBRANCH  16  18
ENDBRANCH  15  16
BRANCH  15  20
HETATM   20  C   UNL     1      -1.298   6.081 -31.029  1.00  0.00    -0.045 A 
HETATM   21  C   UNL     1       0.074   6.276 -30.800  1.00  0.00     0.008 A 
HETATM   22  C   UNL     1       0.515   7.066 -29.736  1.00  0.00     0.001 A 
HETATM   23  C   UNL     1      -0.408   7.670 -28.885  1.00  0.00     0.000 A 
HETATM   24  C   UNL     1      -1.772   7.486 -29.099  1.00  0.00     0.001 A 
HETATM   25  C   UNL     1      -2.214   6.700 -30.164  1.00  0.00     0.008 A 
ENDBRANCH  15  20
ENDBRANCH  12  15
ENDBRANCH   1  11
BRANCH   8  26
HETATM   26  C   UNL     1      -7.411   0.406 -34.280  1.00  0.00     0.270 C 
HETATM   27  N   UNL     1      -8.497   0.619 -35.084  1.00  0.00    -0.365 N 
HETATM   28  H   UNL     1      -9.295   1.111 -34.700  1.00  0.00     0.159 HD
HETATM   29  H   UNL     1      -8.463   0.337 -36.050  1.00  0.00     0.159 HD
HETATM   30  O   UNL     1      -6.404  -0.149 -34.708  1.00  0.00    -0.266 OA
ENDBRANCH   8  26
TORSDOF 6
ENDMDL
MODEL 8
REMARK VINA RESULT:      -7.9      2.526      3.439
REMARK  6 active torsions:
REMARK  status: ('A' for Active; 'I' for Inactive)
REMARK    1  A    between atoms: C_2  and  C_3 
REMARK    2  A    between atoms: C_3  and  C_4 
REMARK    3  A    between atoms: C_4  and  C_5 
REMARK    4  A    between atoms: C_4  and  C_21 
REMARK       I    between atoms: C_5  and  N_6 
REMARK    5  A    between atoms: N_6  and  C_7 
REMARK    6  A    between atoms: C_14  and  C_15 
REMARK       I    between atoms: C_15  and  N_16 
ROOT
HETATM    1  C   UNL     1     -10.810   2.063 -33.940  1.00  0.00     0.035 A 
HETATM    2  C   UNL     1     -11.418   2.830 -32.938  1.00  0.00     0.046 A 
HETATM    3  C   UNL     1     -12.822   2.791 -32.786  1.00  0.00     0.030 A 
HETATM    4  C   UNL     1     -13.568   2.005 -33.655  1.00  0.00     0.063 A 
HETATM    5  N   UNL     1     -14.869   2.184 -33.279  1.00  0.00    -0.277 N 
HETATM    6  H   UNL     1     -15.692   1.771 -33.701  1.00  0.00     0.189 HD
HETATM    7  N   UNL     1     -15.037   2.991 -32.218  1.00  0.00    -0.168 NA
HETATM    8  C   UNL     1     -13.778   3.370 -31.898  1.00  0.00     0.156 A 
HETATM    9  C   UNL     1     -12.994   1.229 -34.664  1.00  0.00     0.034 A 
HETATM   10  C   UNL     1     -11.599   1.262 -34.777  1.00  0.00     0.032 A 
ENDROOT
BRANCH   1  11
HETATM   11  N   UNL     1      -9.412   2.017 -34.139  1.00  0.00    -0.327 N 
HETATM   12  C   UNL     1      -8.526   1.109 -33.576  1.00  0.00     0.231 C 
HETATM   13  O   UNL     1      -8.813   0.302 -32.695  1.00  0.00    -0.272 OA
HETATM   14  H   UNL     1      -9.015   2.786 -34.659  1.00  0.00     0.169 HD
BRANCH  12  15
HETATM   15  C   UNL     1      -7.079   1.266 -34.099  1.00  0.00     0.115 C 
BRANCH  15  16
HETATM   16  C   UNL     1      -6.327   2.365 -33.287  1.00  0.00    -0.001 C 
HETATM   17  C   UNL     1      -6.178   3.674 -34.080  1.00  0.00     0.011 C 
BRANCH  16  18
HETATM   18  C   UNL     1      -6.976   2.652 -31.910  1.00  0.00     0.001 C 
HETATM   19  C   UNL     1      -7.418   4.092 -31.678  1.00  0.00     0.005 C 
ENDBRANCH  16  18
ENDBRANCH  15  16
BRANCH  15  20
HETATM   20  C   UNL     1      -6.356  -0.081 -34.108  1.00  0.00    -0.045 A 
HETATM   21  C   UNL     1      -6.841  -1.129 -34.908  1.00  0.00     0.008 A 
HETATM   22  C   UNL     1      -6.181  -2.360 -34.948  1.00  0.00     0.001 A 
HETATM   23  C   UNL     1      -5.032  -2.561 -34.188  1.00  0.00     0.000 A 
HETATM   24  C   UNL     1      -4.540  -1.532 -33.389  1.00  0.00     0.001 A 
HETATM   25  C   UNL     1      -5.194  -0.301 -33.352  1.00  0.00     0.008 A 
ENDBRANCH  15  20
ENDBRANCH  12  15
ENDBRANCH   1  11
BRANCH   8  26
HETATM   26  C   UNL     1     -13.520   4.253 -30.751  1.00  0.00     0.270 C 
HETATM   27  N   UNL     1     -12.664   3.726 -29.822  1.00  0.00    -0.365 N 
HETATM   28  H   UNL     1     -12.267   2.810 -29.995  1.00  0.00     0.159 HD
HETATM   29  H   UNL     1     -12.403   4.275 -29.019  1.00  0.00     0.159 HD
HETATM   30  O   UNL     1     -13.996   5.374 -30.610  1.00  0.00    -0.266 OA
ENDBRANCH   8  26
TORSDOF 6
ENDMDL
MODEL 9
REMARK VINA RESULT:      -7.7      2.599      7.944
REMARK  6 active torsions:
REMARK  status: ('A' for Active; 'I' for Inactive)
REMARK    1  A    between atoms: C_2  and  C_3 
REMARK    2  A    between atoms: C_3  and  C_4 
REMARK    3  A    between atoms: C_4  and  C_5 
REMARK    4  A    between atoms: C_4  and  C_21 
REMARK       I    between atoms: C_5  and  N_6 
REMARK    5  A    between atoms: N_6  and  C_7 
REMARK    6  A    between atoms: C_14  and  C_15 
REMARK       I    between atoms: C_15  and  N_16 
ROOT
HETATM    1  C   UNL     1      -7.560   0.150 -33.883  1.00  0.00     0.035 A 
HETATM    2  C   UNL     1      -6.520   0.173 -32.944  1.00  0.00     0.046 A 
HETATM    3  C   UNL     1      -5.503  -0.804 -33.007  1.00  0.00     0.030 A 
HETATM    4  C   UNL     1      -5.574  -1.782 -33.991  1.00  0.00     0.063 A 
HETATM    5  N   UNL     1      -4.483  -2.579 -33.789  1.00  0.00    -0.277 N 
HETATM    6  H   UNL     1      -4.219  -3.403 -34.317  1.00  0.00     0.189 HD
HETATM    7  N   UNL     1      -3.686  -2.189 -32.781  1.00  0.00    -0.168 NA
HETATM    8  C   UNL     1      -4.301  -1.088 -32.290  1.00  0.00     0.156 A 
HETATM    9  C   UNL     1      -6.595  -1.835 -34.941  1.00  0.00     0.034 A 
HETATM   10  C   UNL     1      -7.577  -0.838 -34.876  1.00  0.00     0.032 A 
ENDROOT
BRANCH   1  11
HETATM   11  N   UNL     1      -8.597   1.109 -33.913  1.00  0.00    -0.327 N 
HETATM   12  C   UNL     1      -9.541   1.339 -32.921  1.00  0.00     0.231 C 
HETATM   13  O   UNL     1      -9.703   0.631 -31.929  1.00  0.00    -0.272 OA
HETATM   14  H   UNL     1      -8.722   1.597 -34.789  1.00  0.00     0.169 HD
BRANCH  12  15
HETATM   15  C   UNL     1     -10.460   2.545 -33.224  1.00  0.00     0.115 C 
BRANCH  15  16
HETATM   16  C   UNL     1      -9.937   3.323 -34.470  1.00  0.00    -0.001 C 
HETATM   17  C   UNL     1     -11.079   3.771 -35.397  1.00  0.00     0.011 C 
BRANCH  16  18
HETATM   18  C   UNL     1      -9.050   4.538 -34.098  1.00  0.00     0.001 C 
HETATM   19  C   UNL     1      -9.697   5.905 -34.283  1.00  0.00     0.005 C 
ENDBRANCH  16  18
ENDBRANCH  15  16
BRANCH  15  20
HETATM   20  C   UNL     1     -11.916   2.097 -33.357  1.00  0.00    -0.045 A 
HETATM   21  C   UNL     1     -12.221   0.902 -34.029  1.00  0.00     0.008 A 
HETATM   22  C   UNL     1     -13.543   0.463 -34.140  1.00  0.00     0.001 A 
HETATM   23  C   UNL     1     -14.577   1.213 -33.585  1.00  0.00     0.000 A 
HETATM   24  C   UNL     1     -14.290   2.400 -32.915  1.00  0.00     0.001 A 
HETATM   25  C   UNL     1     -12.970   2.837 -32.799  1.00  0.00     0.008 A 
ENDBRANCH  15  20
ENDBRANCH  12  15
ENDBRANCH   1  11
BRANCH   8  26
HETATM   26  C   UNL     1      -3.722  -0.330 -31.172  1.00  0.00     0.270 C 
HETATM   27  N   UNL     1      -2.360  -0.425 -31.078  1.00  0.00    -0.365 N 
HETATM   28  H   UNL     1      -1.864  -0.973 -31.772  1.00  0.00     0.159 HD
HETATM   29  H   UNL     1      -1.874   0.089 -30.362  1.00  0.00     0.159 HD
HETATM   30  O   UNL     1      -4.365   0.353 -30.381  1.00  0.00    -0.266 OA
ENDBRANCH   8  26
TORSDOF 6
ENDMDL
MODEL 10
REMARK VINA RESULT:      -7.4      2.508      7.416
REMARK  6 active torsions:
REMARK  status: ('A' for Active; 'I' for Inactive)
REMARK    1  A    between atoms: C_2  and  C_3 
REMARK    2  A    between atoms: C_3  and  C_4 
REMARK    3  A    between atoms: C_4  and  C_5 
REMARK    4  A    between atoms: C_4  and  C_21 
REMARK       I    between atoms: C_5  and  N_6 
REMARK    5  A    between atoms: N_6  and  C_7 
REMARK    6  A    between atoms: C_14  and  C_15 
REMARK       I    between atoms: C_15  and  N_16 
ROOT
HETATM    1  C   UNL     1      -7.252   1.032 -33.641  1.00  0.00     0.035 A 
HETATM    2  C   UNL     1      -7.088  -0.299 -34.049  1.00  0.00     0.046 A 
HETATM    3  C   UNL     1      -5.846  -0.941 -33.849  1.00  0.00     0.030 A 
HETATM    4  C   UNL     1      -4.807  -0.223 -33.270  1.00  0.00     0.063 A 
HETATM    5  N   UNL     1      -3.750  -1.088 -33.226  1.00  0.00    -0.277 N 
HETATM    6  H   UNL     1      -2.818  -0.900 -32.876  1.00  0.00     0.189 HD
HETATM    7  N   UNL     1      -4.017  -2.318 -33.694  1.00  0.00    -0.168 NA
HETATM    8  C   UNL     1      -5.312  -2.244 -34.077  1.00  0.00     0.156 A 
HETATM    9  C   UNL     1      -4.935   1.103 -32.854  1.00  0.00     0.034 A 
HETATM   10  C   UNL     1      -6.185   1.709 -33.036  1.00  0.00     0.032 A 
ENDROOT
BRANCH   1  11
HETATM   11  N   UNL     1      -8.468   1.738 -33.772  1.00  0.00    -0.327 N 
HETATM   12  C   UNL     1      -9.397   1.979 -32.769  1.00  0.00     0.231 C 
HETATM   13  O   UNL     1      -9.365   1.477 -31.647  1.00  0.00    -0.272 OA
HETATM   14  H   UNL     1      -8.729   1.997 -34.713  1.00  0.00     0.169 HD
BRANCH  12  15
HETATM   15  C   UNL     1     -10.563   2.888 -33.225  1.00  0.00     0.115 C 
BRANCH  15  16
HETATM   16  C   UNL     1     -10.183   3.633 -34.541  1.00  0.00    -0.001 C 
HETATM   17  C   UNL     1     -11.319   3.598 -35.577  1.00  0.00     0.011 C 
BRANCH  16  18
HETATM   18  C   UNL     1      -9.730   5.095 -34.302  1.00  0.00     0.001 C 
HETATM   19  C   UNL     1      -8.274   5.273 -33.886  1.00  0.00     0.005 C 
ENDBRANCH  16  18
ENDBRANCH  15  16
BRANCH  15  20
HETATM   20  C   UNL     1     -11.862   2.090 -33.333  1.00  0.00    -0.045 A 
HETATM   21  C   UNL     1     -11.824   0.742 -33.729  1.00  0.00     0.008 A 
HETATM   22  C   UNL     1     -12.998  -0.011 -33.811  1.00  0.00     0.001 A 
HETATM   23  C   UNL     1     -14.225   0.572 -33.503  1.00  0.00     0.000 A 
HETATM   24  C   UNL     1     -14.279   1.907 -33.111  1.00  0.00     0.001 A 
HETATM   25  C   UNL     1     -13.107   2.659 -33.023  1.00  0.00     0.008 A 
ENDBRANCH  15  20
ENDBRANCH  12  15
ENDBRANCH   1  11
BRANCH   8  26
HETATM   26  C   UNL     1      -6.008  -3.416 -34.630  1.00  0.00     0.270 C 
HETATM   27  N   UNL     1      -5.265  -4.565 -34.615  1.00  0.00    -0.365 N 
HETATM   28  H   UNL     1      -4.333  -4.534 -34.219  1.00  0.00     0.159 HD
HETATM   29  H   UNL     1      -5.674  -5.425 -34.943  1.00  0.00     0.159 HD
HETATM   30  O   UNL     1      -7.156  -3.409 -35.062  1.00  0.00    -0.266 OA
ENDBRANCH   8  26
TORSDOF 6
ENDMDL
