MODEL 1
REMARK VINA RESULT:      -9.7      0.000      0.000
REMARK  5 active torsions:
REMARK  status: ('A' for Active; 'I' for Inactive)
REMARK    1  A    between atoms: O_2  and  C_3 
REMARK    2  A    between atoms: C_4  and  C_5 
REMARK    3  A    between atoms: C_9  and  S_10 
REMARK    4  A    between atoms: S_10  and  C_11 
REMARK    5  A    between atoms: C_11  and  C_12 
REMARK       I    between atoms: C_12  and  N_13 
ROOT
HETATM    1  C   UNL     1      -3.187   3.949 -31.421  1.00  0.00     0.185 A 
HETATM    2  N   UNL     1      -4.357   4.249 -30.833  1.00  0.00    -0.152 NA
HETATM    3  N   UNL     1      -4.829   3.033 -30.521  1.00  0.00    -0.253 N 
HETATM    4  H   UNL     1      -5.703   2.964 -30.019  1.00  0.00     0.191 HD
HETATM    5  C   UNL     1      -3.979   2.052 -30.921  1.00  0.00     0.185 A 
HETATM    6  N   UNL     1      -2.920   2.594 -31.470  1.00  0.00    -0.201 NA
ENDROOT
BRANCH   5   7
HETATM    7  S   UNL     1      -4.219   0.369 -30.630  1.00  0.00    -0.081 SA
BRANCH   7   8
HETATM    8  C   UNL     1      -2.868  -0.419 -31.537  1.00  0.00     0.185 C 
BRANCH   8   9
HETATM    9  C   UNL     1      -3.349  -1.695 -32.219  1.00  0.00     0.234 C 
HETATM   10  N   UNL     1      -4.325  -1.603 -33.223  1.00  0.00    -0.317 N 
HETATM   11  C   UNL     1      -4.879  -2.771 -33.880  1.00  0.00     0.043 A 
HETATM   12  C   UNL     1      -4.860  -0.321 -33.709  1.00  0.00     0.132 C 
HETATM   13  C   UNL     1      -6.101  -2.668 -34.586  1.00  0.00    -0.031 A 
HETATM   14  C   UNL     1      -4.249  -4.025 -33.858  1.00  0.00     0.030 A 
HETATM   15  C   UNL     1      -6.651  -3.796 -35.228  1.00  0.00     0.009 A 
HETATM   16  C   UNL     1      -6.859  -1.371 -34.705  1.00  0.00     0.042 C 
HETATM   17  C   UNL     1      -6.010  -5.028 -35.174  1.00  0.00     0.001 A 
HETATM   18  C   UNL     1      -4.808  -5.140 -34.493  1.00  0.00     0.002 A 
HETATM   19  C   UNL     1      -6.377  -0.332 -33.711  1.00  0.00     0.025 C 
HETATM   20  O   UNL     1      -2.881  -2.754 -31.783  1.00  0.00    -0.272 OA
ENDBRANCH   8   9
ENDBRANCH   7   8
ENDBRANCH   5   7
BRANCH   1  21
HETATM   21  C   UNL     1      -2.203   4.942 -31.838  1.00  0.00     0.048 A 
HETATM   22  C   UNL     1      -2.038   5.334 -33.178  1.00  0.00     0.082 A 
HETATM   23  C   UNL     1      -1.100   6.322 -33.511  1.00  0.00     0.039 A 
HETATM   24  C   UNL     1      -0.347   6.942 -32.513  1.00  0.00     0.026 A 
HETATM   25  C   UNL     1      -0.510   6.556 -31.185  1.00  0.00     0.035 A 
HETATM   26  C   UNL     1      -1.422   5.559 -30.846  1.00  0.00     0.042 A 
HETATM   27 CL   UNL     1       0.423   7.319 -29.957  1.00  0.00    -0.084 Cl
BRANCH  22  28
HETATM   28  O   UNL     1      -2.722   4.668 -34.163  1.00  0.00    -0.355 OA
HETATM   29  C   UNL     1      -3.836   5.403 -34.667  1.00  0.00     0.210 C 
ENDBRANCH  22  28
ENDBRANCH   1  21
TORSDOF 5
ENDMDL
MODEL 2
REMARK VINA RESULT:      -9.4      2.048      2.977
REMARK  5 active torsions:
REMARK  status: ('A' for Active; 'I' for Inactive)
REMARK    1  A    between atoms: O_2  and  C_3 
REMARK    2  A    between atoms: C_4  and  C_5 
REMARK    3  A    between atoms: C_9  and  S_10 
REMARK    4  A    between atoms: S_10  and  C_11 
REMARK    5  A    between atoms: C_11  and  C_12 
REMARK       I    between atoms: C_12  and  N_13 
ROOT
HETATM    1  C   UNL     1      -2.957   4.400 -31.891  1.00  0.00     0.185 A 
HETATM    2  N   UNL     1      -3.003   3.382 -32.766  1.00  0.00    -0.152 NA
HETATM    3  N   UNL     1      -4.303   3.054 -32.740  1.00  0.00    -0.253 N 
HETATM    4  H   UNL     1      -4.634   2.322 -33.355  1.00  0.00     0.191 HD
HETATM    5  C   UNL     1      -4.997   3.839 -31.874  1.00  0.00     0.185 A 
HETATM    6  N   UNL     1      -4.184   4.715 -31.339  1.00  0.00    -0.201 NA
ENDROOT
BRANCH   5   7
HETATM    7  S   UNL     1      -6.702   3.755 -31.627  1.00  0.00    -0.081 SA
BRANCH   7   8
HETATM    8  C   UNL     1      -6.944   2.133 -30.865  1.00  0.00     0.185 C 
BRANCH   8   9
HETATM    9  C   UNL     1      -6.921   1.033 -31.920  1.00  0.00     0.234 C 
HETATM   10  N   UNL     1      -5.904   0.066 -31.872  1.00  0.00    -0.317 N 
HETATM   11  C   UNL     1      -5.775  -0.978 -32.869  1.00  0.00     0.043 A 
HETATM   12  C   UNL     1      -4.893   0.014 -30.803  1.00  0.00     0.132 C 
HETATM   13  C   UNL     1      -4.551  -1.675 -33.005  1.00  0.00    -0.031 A 
HETATM   14  C   UNL     1      -6.827  -1.348 -33.723  1.00  0.00     0.030 A 
HETATM   15  C   UNL     1      -4.412  -2.692 -33.971  1.00  0.00     0.009 A 
HETATM   16  C   UNL     1      -3.357  -1.390 -32.130  1.00  0.00     0.042 C 
HETATM   17  C   UNL     1      -5.468  -3.023 -34.812  1.00  0.00     0.001 A 
HETATM   18  C   UNL     1      -6.675  -2.353 -34.684  1.00  0.00     0.002 A 
HETATM   19  C   UNL     1      -3.495  -0.077 -31.384  1.00  0.00     0.025 C 
HETATM   20  O   UNL     1      -7.782   1.109 -32.804  1.00  0.00    -0.272 OA
ENDBRANCH   8   9
ENDBRANCH   7   8
ENDBRANCH   5   7
BRANCH   1  21
HETATM   21  C   UNL     1      -1.771   5.212 -31.643  1.00  0.00     0.048 A 
HETATM   22  C   UNL     1      -1.332   6.211 -32.529  1.00  0.00     0.082 A 
HETATM   23  C   UNL     1      -0.205   6.983 -32.216  1.00  0.00     0.039 A 
HETATM   24  C   UNL     1       0.471   6.785 -31.010  1.00  0.00     0.026 A 
HETATM   25  C   UNL     1       0.037   5.797 -30.131  1.00  0.00     0.035 A 
HETATM   26  C   UNL     1      -1.068   5.008 -30.443  1.00  0.00     0.042 A 
HETATM   27 CL   UNL     1       0.874   5.552 -28.647  1.00  0.00    -0.084 Cl
BRANCH  22  28
HETATM   28  O   UNL     1      -1.950   6.349 -33.747  1.00  0.00    -0.355 OA
HETATM   29  C   UNL     1      -1.256   5.691 -34.805  1.00  0.00     0.210 C 
ENDBRANCH  22  28
ENDBRANCH   1  21
TORSDOF 5
ENDMDL
MODEL 3
REMARK VINA RESULT:      -9.2      2.605      3.639
REMARK  5 active torsions:
REMARK  status: ('A' for Active; 'I' for Inactive)
REMARK    1  A    between atoms: O_2  and  C_3 
REMARK    2  A    between atoms: C_4  and  C_5 
REMARK    3  A    between atoms: C_9  and  S_10 
REMARK    4  A    between atoms: S_10  and  C_11 
REMARK    5  A    between atoms: C_11  and  C_12 
REMARK       I    between atoms: C_12  and  N_13 
ROOT
HETATM    1  C   UNL     1      -2.890   5.611 -33.287  1.00  0.00     0.185 A 
HETATM    2  N   UNL     1      -2.842   5.679 -34.628  1.00  0.00    -0.152 NA
HETATM    3  N   UNL     1      -4.068   5.255 -34.970  1.00  0.00    -0.253 N 
HETATM    4  H   UNL     1      -4.325   5.244 -35.948  1.00  0.00     0.191 HD
HETATM    5  C   UNL     1      -4.808   4.936 -33.875  1.00  0.00     0.185 A 
HETATM    6  N   UNL     1      -4.105   5.172 -32.795  1.00  0.00    -0.201 NA
ENDROOT
BRANCH   5   7
HETATM    7  S   UNL     1      -6.453   4.421 -33.921  1.00  0.00    -0.081 SA
BRANCH   7   8
HETATM    8  C   UNL     1      -6.530   3.125 -32.662  1.00  0.00     0.185 C 
BRANCH   8   9
HETATM    9  C   UNL     1      -6.597   1.747 -33.310  1.00  0.00     0.234 C 
HETATM   10  N   UNL     1      -5.702   0.752 -32.887  1.00  0.00    -0.317 N 
HETATM   11  C   UNL     1      -5.659  -0.566 -33.490  1.00  0.00     0.043 A 
HETATM   12  C   UNL     1      -4.743   0.948 -31.787  1.00  0.00     0.132 C 
HETATM   13  C   UNL     1      -4.521  -1.386 -33.310  1.00  0.00    -0.031 A 
HETATM   14  C   UNL     1      -6.715  -1.085 -34.256  1.00  0.00     0.030 A 
HETATM   15  C   UNL     1      -4.466  -2.668 -33.893  1.00  0.00     0.009 A 
HETATM   16  C   UNL     1      -3.334  -0.953 -32.487  1.00  0.00     0.042 C 
HETATM   17  C   UNL     1      -5.522  -3.147 -34.659  1.00  0.00     0.001 A 
HETATM   18  C   UNL     1      -6.647  -2.356 -34.836  1.00  0.00     0.002 A 
HETATM   19  C   UNL     1      -3.345   0.537 -32.207  1.00  0.00     0.025 C 
HETATM   20  O   UNL     1      -7.410   1.619 -34.232  1.00  0.00    -0.272 OA
ENDBRANCH   8   9
ENDBRANCH   7   8
ENDBRANCH   5   7
BRANCH   1  21
HETATM   21  C   UNL     1      -1.832   6.093 -32.406  1.00  0.00     0.048 A 
HETATM   22  C   UNL     1      -1.857   7.366 -31.811  1.00  0.00     0.082 A 
HETATM   23  C   UNL     1      -0.828   7.756 -30.943  1.00  0.00     0.039 A 
HETATM   24  C   UNL     1       0.211   6.874 -30.641  1.00  0.00     0.026 A 
HETATM   25  C   UNL     1       0.236   5.612 -31.228  1.00  0.00     0.035 A 
HETATM   26  C   UNL     1      -0.769   5.222 -32.111  1.00  0.00     0.042 A 
HETATM   27 CL   UNL     1       1.520   4.527 -30.858  1.00  0.00    -0.084 Cl
BRANCH  22  28
HETATM   28  O   UNL     1      -2.836   8.258 -32.170  1.00  0.00    -0.355 OA
HETATM   29  C   UNL     1      -3.819   8.450 -31.155  1.00  0.00     0.210 C 
ENDBRANCH  22  28
ENDBRANCH   1  21
TORSDOF 5
ENDMDL
MODEL 4
REMARK VINA RESULT:      -9.2      4.742      6.519
REMARK  5 active torsions:
REMARK  status: ('A' for Active; 'I' for Inactive)
REMARK    1  A    between atoms: O_2  and  C_3 
REMARK    2  A    between atoms: C_4  and  C_5 
REMARK    3  A    between atoms: C_9  and  S_10 
REMARK    4  A    between atoms: S_10  and  C_11 
REMARK    5  A    between atoms: C_11  and  C_12 
REMARK       I    between atoms: C_12  and  N_13 
ROOT
HETATM    1  C   UNL     1      -9.267   2.371 -31.914  1.00  0.00     0.185 A 
HETATM    2  N   UNL     1      -9.468   2.993 -30.741  1.00  0.00    -0.152 NA
HETATM    3  N   UNL     1      -8.317   2.745 -30.097  1.00  0.00    -0.253 N 
HETATM    4  H   UNL     1      -8.178   3.144 -29.178  1.00  0.00     0.191 HD
HETATM    5  C   UNL     1      -7.475   1.995 -30.854  1.00  0.00     0.185 A 
HETATM    6  N   UNL     1      -8.032   1.761 -32.017  1.00  0.00    -0.201 NA
ENDROOT
BRANCH   5   7
HETATM    7  S   UNL     1      -5.879   1.539 -30.384  1.00  0.00    -0.081 SA
BRANCH   7   8
HETATM    8  C   UNL     1      -5.006   1.358 -31.958  1.00  0.00     0.185 C 
BRANCH   8   9
HETATM    9  C   UNL     1      -4.580  -0.090 -32.174  1.00  0.00     0.234 C 
HETATM   10  N   UNL     1      -5.099  -0.795 -33.271  1.00  0.00    -0.317 N 
HETATM   11  C   UNL     1      -4.792  -2.190 -33.516  1.00  0.00     0.043 A 
HETATM   12  C   UNL     1      -5.983  -0.181 -34.276  1.00  0.00     0.132 C 
HETATM   13  C   UNL     1      -5.614  -2.951 -34.380  1.00  0.00    -0.031 A 
HETATM   14  C   UNL     1      -3.692  -2.840 -32.933  1.00  0.00     0.030 A 
HETATM   15  C   UNL     1      -5.327  -4.309 -34.626  1.00  0.00     0.009 A 
HETATM   16  C   UNL     1      -6.808  -2.361 -35.087  1.00  0.00     0.042 C 
HETATM   17  C   UNL     1      -4.239  -4.927 -34.020  1.00  0.00     0.001 A 
HETATM   18  C   UNL     1      -3.421  -4.190 -33.178  1.00  0.00     0.002 A 
HETATM   19  C   UNL     1      -7.222  -1.028 -34.496  1.00  0.00     0.025 C 
HETATM   20  O   UNL     1      -3.840  -0.573 -31.309  1.00  0.00    -0.272 OA
ENDBRANCH   8   9
ENDBRANCH   7   8
ENDBRANCH   5   7
BRANCH   1  21
HETATM   21  C   UNL     1     -10.185   2.444 -33.046  1.00  0.00     0.048 A 
HETATM   22  C   UNL     1     -10.032   3.370 -34.092  1.00  0.00     0.082 A 
HETATM   23  C   UNL     1     -10.927   3.366 -35.171  1.00  0.00     0.039 A 
HETATM   24  C   UNL     1     -11.955   2.424 -35.229  1.00  0.00     0.026 A 
HETATM   25  C   UNL     1     -12.107   1.505 -34.194  1.00  0.00     0.035 A 
HETATM   26  C   UNL     1     -11.238   1.515 -33.106  1.00  0.00     0.042 A 
HETATM   27 CL   UNL     1     -13.379   0.347 -34.266  1.00  0.00    -0.084 Cl
BRANCH  22  28
HETATM   28  O   UNL     1      -9.069   4.343 -33.994  1.00  0.00    -0.355 OA
HETATM   29  C   UNL     1      -9.522   5.625 -34.427  1.00  0.00     0.210 C 
ENDBRANCH  22  28
ENDBRANCH   1  21
TORSDOF 5
ENDMDL
MODEL 5
REMARK VINA RESULT:      -9.2      3.622      8.938
REMARK  5 active torsions:
REMARK  status: ('A' for Active; 'I' for Inactive)
REMARK    1  A    between atoms: O_2  and  C_3 
REMARK    2  A    between atoms: C_4  and  C_5 
REMARK    3  A    between atoms: C_9  and  S_10 
REMARK    4  A    between atoms: S_10  and  C_11 
REMARK    5  A    between atoms: C_11  and  C_12 
REMARK       I    between atoms: C_12  and  N_13 
ROOT
HETATM    1  C   UNL     1      -6.615   0.114 -33.145  1.00  0.00     0.185 A 
HETATM    2  N   UNL     1      -7.679   0.095 -32.325  1.00  0.00    -0.152 NA
HETATM    3  N   UNL     1      -8.063   1.380 -32.341  1.00  0.00    -0.253 N 
HETATM    4  H   UNL     1      -8.890   1.648 -31.825  1.00  0.00     0.191 HD
HETATM    5  C   UNL     1      -7.250   2.132 -33.130  1.00  0.00     0.185 A 
HETATM    6  N   UNL     1      -6.341   1.361 -33.672  1.00  0.00    -0.201 NA
ENDROOT
BRANCH   5   7
HETATM    7  S   UNL     1      -7.476   3.812 -33.447  1.00  0.00    -0.081 SA
BRANCH   7   8
HETATM    8  C   UNL     1      -5.897   4.327 -34.164  1.00  0.00     0.185 C 
BRANCH   8   9
HETATM    9  C   UNL     1      -5.047   5.054 -33.128  1.00  0.00     0.234 C 
HETATM   10  N   UNL     1      -3.812   5.596 -33.520  1.00  0.00    -0.317 N 
HETATM   11  C   UNL     1      -2.917   6.251 -32.587  1.00  0.00     0.043 A 
HETATM   12  C   UNL     1      -3.326   5.564 -34.910  1.00  0.00     0.132 C 
HETATM   13  C   UNL     1      -1.556   6.432 -32.926  1.00  0.00    -0.031 A 
HETATM   14  C   UNL     1      -3.341   6.731 -31.338  1.00  0.00     0.030 A 
HETATM   15  C   UNL     1      -0.674   7.065 -32.027  1.00  0.00     0.009 A 
HETATM   16  C   UNL     1      -0.985   5.984 -34.248  1.00  0.00     0.042 C 
HETATM   17  C   UNL     1      -1.122   7.516 -30.791  1.00  0.00     0.001 A 
HETATM   18  C   UNL     1      -2.456   7.352 -30.450  1.00  0.00     0.002 A 
HETATM   19  C   UNL     1      -1.909   5.026 -34.975  1.00  0.00     0.025 C 
HETATM   20  O   UNL     1      -5.484   5.057 -31.972  1.00  0.00    -0.272 OA
ENDBRANCH   8   9
ENDBRANCH   7   8
ENDBRANCH   5   7
BRANCH   1  21
HETATM   21  C   UNL     1      -5.894  -1.079 -33.575  1.00  0.00     0.048 A 
HETATM   22  C   UNL     1      -4.541  -1.304 -33.267  1.00  0.00     0.082 A 
HETATM   23  C   UNL     1      -3.914  -2.488 -33.678  1.00  0.00     0.039 A 
HETATM   24  C   UNL     1      -4.635  -3.464 -34.369  1.00  0.00     0.026 A 
HETATM   25  C   UNL     1      -5.976  -3.243 -34.673  1.00  0.00     0.035 A 
HETATM   26  C   UNL     1      -6.603  -2.060 -34.290  1.00  0.00     0.042 A 
HETATM   27 CL   UNL     1      -6.862  -4.445 -35.528  1.00  0.00    -0.084 Cl
BRANCH  22  28
HETATM   28  O   UNL     1      -3.815  -0.310 -32.659  1.00  0.00    -0.355 OA
HETATM   29  C   UNL     1      -2.813  -0.810 -31.775  1.00  0.00     0.210 C 
ENDBRANCH  22  28
ENDBRANCH   1  21
TORSDOF 5
ENDMDL
MODEL 6
REMARK VINA RESULT:      -9.2      3.899      8.255
REMARK  5 active torsions:
REMARK  status: ('A' for Active; 'I' for Inactive)
REMARK    1  A    between atoms: O_2  and  C_3 
REMARK    2  A    between atoms: C_4  and  C_5 
REMARK    3  A    between atoms: C_9  and  S_10 
REMARK    4  A    between atoms: S_10  and  C_11 
REMARK    5  A    between atoms: C_11  and  C_12 
REMARK       I    between atoms: C_12  and  N_13 
ROOT
HETATM    1  C   UNL     1      -6.944  -0.008 -32.631  1.00  0.00     0.185 A 
HETATM    2  N   UNL     1      -7.218   0.007 -31.316  1.00  0.00    -0.152 NA
HETATM    3  N   UNL     1      -8.097   1.016 -31.229  1.00  0.00    -0.253 N 
HETATM    4  H   UNL     1      -8.510   1.226 -30.330  1.00  0.00     0.191 HD
HETATM    5  C   UNL     1      -8.324   1.585 -32.442  1.00  0.00     0.185 A 
HETATM    6  N   UNL     1      -7.632   0.948 -33.354  1.00  0.00    -0.201 NA
ENDROOT
BRANCH   5   7
HETATM    7  S   UNL     1      -9.446   2.863 -32.730  1.00  0.00    -0.081 SA
BRANCH   7   8
HETATM    8  C   UNL     1      -8.572   4.337 -32.151  1.00  0.00     0.185 C 
BRANCH   8   9
HETATM    9  C   UNL     1      -7.355   4.620 -33.025  1.00  0.00     0.234 C 
HETATM   10  N   UNL     1      -6.075   4.536 -32.456  1.00  0.00    -0.317 N 
HETATM   11  C   UNL     1      -4.870   4.845 -33.200  1.00  0.00     0.043 A 
HETATM   12  C   UNL     1      -5.839   4.112 -31.066  1.00  0.00     0.132 C 
HETATM   13  C   UNL     1      -3.666   5.120 -32.509  1.00  0.00    -0.031 A 
HETATM   14  C   UNL     1      -4.832   4.882 -34.603  1.00  0.00     0.030 A 
HETATM   15  C   UNL     1      -2.488   5.424 -33.221  1.00  0.00     0.009 A 
HETATM   16  C   UNL     1      -3.572   5.085 -31.005  1.00  0.00     0.042 C 
HETATM   17  C   UNL     1      -2.488   5.467 -34.610  1.00  0.00     0.001 A 
HETATM   18  C   UNL     1      -3.659   5.192 -35.300  1.00  0.00     0.002 A 
HETATM   19  C   UNL     1      -4.937   5.095 -30.345  1.00  0.00     0.025 C 
HETATM   20  O   UNL     1      -7.591   4.977 -34.185  1.00  0.00    -0.272 OA
ENDBRANCH   8   9
ENDBRANCH   7   8
ENDBRANCH   5   7
BRANCH   1  21
HETATM   21  C   UNL     1      -6.122  -1.021 -33.283  1.00  0.00     0.048 A 
HETATM   22  C   UNL     1      -4.720  -1.048 -33.179  1.00  0.00     0.082 A 
HETATM   23  C   UNL     1      -3.988  -2.070 -33.799  1.00  0.00     0.039 A 
HETATM   24  C   UNL     1      -4.647  -3.083 -34.498  1.00  0.00     0.026 A 
HETATM   25  C   UNL     1      -6.035  -3.059 -34.601  1.00  0.00     0.035 A 
HETATM   26  C   UNL     1      -6.771  -2.035 -34.009  1.00  0.00     0.042 A 
HETATM   27 CL   UNL     1      -6.845  -4.306 -35.467  1.00  0.00    -0.084 Cl
BRANCH  22  28
HETATM   28  O   UNL     1      -4.072  -0.009 -32.558  1.00  0.00    -0.355 OA
HETATM   29  C   UNL     1      -3.050  -0.442 -31.663  1.00  0.00     0.210 C 
ENDBRANCH  22  28
ENDBRANCH   1  21
TORSDOF 5
ENDMDL
MODEL 7
REMARK VINA RESULT:      -8.9      3.556      8.842
REMARK  5 active torsions:
REMARK  status: ('A' for Active; 'I' for Inactive)
REMARK    1  A    between atoms: O_2  and  C_3 
REMARK    2  A    between atoms: C_4  and  C_5 
REMARK    3  A    between atoms: C_9  and  S_10 
REMARK    4  A    between atoms: S_10  and  C_11 
REMARK    5  A    between atoms: C_11  and  C_12 
REMARK       I    between atoms: C_12  and  N_13 
ROOT
HETATM    1  C   UNL     1      -6.378   0.815 -31.306  1.00  0.00     0.185 A 
HETATM    2  N   UNL     1      -6.277   0.383 -30.038  1.00  0.00    -0.152 NA
HETATM    3  N   UNL     1      -6.360   1.531 -29.349  1.00  0.00    -0.253 N 
HETATM    4  H   UNL     1      -6.352   1.493 -28.338  1.00  0.00     0.191 HD
HETATM    5  C   UNL     1      -6.491   2.600 -30.176  1.00  0.00     0.185 A 
HETATM    6  N   UNL     1      -6.530   2.184 -31.418  1.00  0.00    -0.201 NA
ENDROOT
BRANCH   5   7
HETATM    7  S   UNL     1      -6.694   4.229 -29.647  1.00  0.00    -0.081 SA
BRANCH   7   8
HETATM    8  C   UNL     1      -5.847   5.200 -30.917  1.00  0.00     0.185 C 
BRANCH   8   9
HETATM    9  C   UNL     1      -4.549   5.784 -30.372  1.00  0.00     0.234 C 
HETATM   10  N   UNL     1      -3.422   5.833 -31.208  1.00  0.00    -0.317 N 
HETATM   11  C   UNL     1      -2.134   6.319 -30.752  1.00  0.00     0.043 A 
HETATM   12  C   UNL     1      -3.449   5.416 -32.620  1.00  0.00     0.132 C 
HETATM   13  C   UNL     1      -0.964   6.000 -31.480  1.00  0.00    -0.031 A 
HETATM   14  C   UNL     1      -1.985   7.112 -29.603  1.00  0.00     0.030 A 
HETATM   15  C   UNL     1       0.295   6.464 -31.046  1.00  0.00     0.009 A 
HETATM   16  C   UNL     1      -0.996   5.179 -32.744  1.00  0.00     0.042 C 
HETATM   17  C   UNL     1       0.410   7.234 -29.895  1.00  0.00     0.001 A 
HETATM   18  C   UNL     1      -0.730   7.561 -29.177  1.00  0.00     0.002 A 
HETATM   19  C   UNL     1      -2.316   4.455 -32.922  1.00  0.00     0.025 C 
HETATM   20  O   UNL     1      -4.561   6.120 -29.182  1.00  0.00    -0.272 OA
ENDBRANCH   8   9
ENDBRANCH   7   8
ENDBRANCH   5   7
BRANCH   1  21
HETATM   21  C   UNL     1      -6.474  -0.066 -32.465  1.00  0.00     0.048 A 
HETATM   22  C   UNL     1      -7.548  -0.020 -33.371  1.00  0.00     0.082 A 
HETATM   23  C   UNL     1      -7.564  -0.869 -34.486  1.00  0.00     0.039 A 
HETATM   24  C   UNL     1      -6.500  -1.742 -34.721  1.00  0.00     0.026 A 
HETATM   25  C   UNL     1      -5.435  -1.788 -33.826  1.00  0.00     0.035 A 
HETATM   26  C   UNL     1      -5.420  -0.966 -32.702  1.00  0.00     0.042 A 
HETATM   27 CL   UNL     1      -4.127  -2.869 -34.116  1.00  0.00    -0.084 Cl
BRANCH  22  28
HETATM   28  O   UNL     1      -8.627   0.782 -33.095  1.00  0.00    -0.355 OA
HETATM   29  C   UNL     1      -9.786   0.047 -32.706  1.00  0.00     0.210 C 
ENDBRANCH  22  28
ENDBRANCH   1  21
TORSDOF 5
ENDMDL
MODEL 8
REMARK VINA RESULT:      -8.7      3.419      9.406
REMARK  5 active torsions:
REMARK  status: ('A' for Active; 'I' for Inactive)
REMARK    1  A    between atoms: O_2  and  C_3 
REMARK    2  A    between atoms: C_4  and  C_5 
REMARK    3  A    between atoms: C_9  and  S_10 
REMARK    4  A    between atoms: S_10  and  C_11 
REMARK    5  A    between atoms: C_11  and  C_12 
REMARK       I    between atoms: C_12  and  N_13 
ROOT
HETATM    1  C   UNL     1      -4.286   1.534 -32.121  1.00  0.00     0.185 A 
HETATM    2  N   UNL     1      -3.122   2.203 -32.177  1.00  0.00    -0.152 NA
HETATM    3  N   UNL     1      -3.412   3.319 -31.492  1.00  0.00    -0.253 N 
HETATM    4  H   UNL     1      -2.681   4.001 -31.341  1.00  0.00     0.191 HD
HETATM    5  C   UNL     1      -4.700   3.317 -31.059  1.00  0.00     0.185 A 
HETATM    6  N   UNL     1      -5.274   2.195 -31.417  1.00  0.00    -0.201 NA
ENDROOT
BRANCH   5   7
HETATM    7  S   UNL     1      -5.409   4.554 -30.088  1.00  0.00    -0.081 SA
BRANCH   7   8
HETATM    8  C   UNL     1      -4.702   6.079 -30.756  1.00  0.00     0.185 C 
BRANCH   8   9
HETATM    9  C   UNL     1      -3.716   6.693 -29.769  1.00  0.00     0.234 C 
HETATM   10  N   UNL     1      -2.395   6.926 -30.183  1.00  0.00    -0.317 N 
HETATM   11  C   UNL     1      -1.381   7.452 -29.291  1.00  0.00     0.043 A 
HETATM   12  C   UNL     1      -1.927   6.676 -31.556  1.00  0.00     0.132 C 
HETATM   13  C   UNL     1      -0.012   7.312 -29.620  1.00  0.00    -0.031 A 
HETATM   14  C   UNL     1      -1.692   8.115 -28.093  1.00  0.00     0.030 A 
HETATM   15  C   UNL     1       0.984   7.817 -28.761  1.00  0.00     0.009 A 
HETATM   16  C   UNL     1       0.449   6.644 -30.891  1.00  0.00     0.042 C 
HETATM   17  C   UNL     1       0.643   8.455 -27.574  1.00  0.00     0.001 A 
HETATM   18  C   UNL     1      -0.695   8.606 -27.243  1.00  0.00     0.002 A 
HETATM   19  C   UNL     1      -0.657   5.847 -31.553  1.00  0.00     0.025 C 
HETATM   20  O   UNL     1      -4.142   6.886 -28.624  1.00  0.00    -0.272 OA
ENDBRANCH   8   9
ENDBRANCH   7   8
ENDBRANCH   5   7
BRANCH   1  21
HETATM   21  C   UNL     1      -4.472   0.174 -32.614  1.00  0.00     0.048 A 
HETATM   22  C   UNL     1      -5.336  -0.139 -33.678  1.00  0.00     0.082 A 
HETATM   23  C   UNL     1      -5.443  -1.461 -34.131  1.00  0.00     0.039 A 
HETATM   24  C   UNL     1      -4.671  -2.469 -33.550  1.00  0.00     0.026 A 
HETATM   25  C   UNL     1      -3.813  -2.161 -32.498  1.00  0.00     0.035 A 
HETATM   26  C   UNL     1      -3.717  -0.854 -32.024  1.00  0.00     0.042 A 
HETATM   27 CL   UNL     1      -2.866  -3.405 -31.780  1.00  0.00    -0.084 Cl
BRANCH  22  28
HETATM   28  O   UNL     1      -6.150   0.838 -34.193  1.00  0.00    -0.355 OA
HETATM   29  C   UNL     1      -7.011   0.363 -35.226  1.00  0.00     0.210 C 
ENDBRANCH  22  28
ENDBRANCH   1  21
TORSDOF 5
ENDMDL
MODEL 9
REMARK VINA RESULT:      -8.7      4.127      8.200
REMARK  5 active torsions:
REMARK  status: ('A' for Active; 'I' for Inactive)
REMARK    1  A    between atoms: O_2  and  C_3 
REMARK    2  A    between atoms: C_4  and  C_5 
REMARK    3  A    between atoms: C_9  and  S_10 
REMARK    4  A    between atoms: S_10  and  C_11 
REMARK    5  A    between atoms: C_11  and  C_12 
REMARK       I    between atoms: C_12  and  N_13 
ROOT
HETATM    1  C   UNL     1      -7.255  -0.469 -34.137  1.00  0.00     0.185 A 
HETATM    2  N   UNL     1      -7.394   0.115 -35.338  1.00  0.00    -0.152 NA
HETATM    3  N   UNL     1      -8.594   0.703 -35.222  1.00  0.00    -0.253 N 
HETATM    4  H   UNL     1      -8.938   1.263 -35.990  1.00  0.00     0.191 HD
HETATM    5  C   UNL     1      -9.148   0.466 -34.004  1.00  0.00     0.185 A 
HETATM    6  N   UNL     1      -8.320  -0.250 -33.284  1.00  0.00    -0.201 NA
ENDROOT
BRANCH   5   7
HETATM    7  S   UNL     1     -10.652   1.119 -33.469  1.00  0.00    -0.081 SA
BRANCH   7   8
HETATM    8  C   UNL     1     -10.376   2.906 -33.495  1.00  0.00     0.185 C 
BRANCH   8   9
HETATM    9  C   UNL     1      -9.589   3.348 -32.266  1.00  0.00     0.234 C 
HETATM   10  N   UNL     1      -8.254   3.754 -32.424  1.00  0.00    -0.317 N 
HETATM   11  C   UNL     1      -7.418   4.133 -31.302  1.00  0.00     0.043 A 
HETATM   12  C   UNL     1      -7.592   3.849 -33.735  1.00  0.00     0.132 C 
HETATM   13  C   UNL     1      -6.011   4.160 -31.449  1.00  0.00    -0.031 A 
HETATM   14  C   UNL     1      -7.943   4.488 -30.049  1.00  0.00     0.030 A 
HETATM   15  C   UNL     1      -5.187   4.524 -30.366  1.00  0.00     0.009 A 
HETATM   16  C   UNL     1      -5.328   3.825 -32.751  1.00  0.00     0.042 C 
HETATM   17  C   UNL     1      -5.737   4.856 -29.134  1.00  0.00     0.001 A 
HETATM   18  C   UNL     1      -7.115   4.841 -28.978  1.00  0.00     0.002 A 
HETATM   19  C   UNL     1      -6.259   3.125 -33.722  1.00  0.00     0.025 C 
HETATM   20  O   UNL     1     -10.175   3.251 -31.182  1.00  0.00    -0.272 OA
ENDBRANCH   8   9
ENDBRANCH   7   8
ENDBRANCH   5   7
BRANCH   1  21
HETATM   21  C   UNL     1      -6.041  -1.146 -33.693  1.00  0.00     0.048 A 
HETATM   22  C   UNL     1      -5.642  -2.399 -34.190  1.00  0.00     0.082 A 
HETATM   23  C   UNL     1      -4.445  -2.981 -33.751  1.00  0.00     0.039 A 
HETATM   24  C   UNL     1      -3.628  -2.309 -32.840  1.00  0.00     0.026 A 
HETATM   25  C   UNL     1      -4.021  -1.067 -32.348  1.00  0.00     0.035 A 
HETATM   26  C   UNL     1      -5.220  -0.490 -32.759  1.00  0.00     0.042 A 
HETATM   27 CL   UNL     1      -3.014  -0.242 -31.222  1.00  0.00    -0.084 Cl
BRANCH  22  28
HETATM   28  O   UNL     1      -6.485  -3.091 -35.023  1.00  0.00    -0.355 OA
HETATM   29  C   UNL     1      -6.239  -4.496 -35.027  1.00  0.00     0.210 C 
ENDBRANCH  22  28
ENDBRANCH   1  21
TORSDOF 5
ENDMDL
MODEL 10
REMARK VINA RESULT:      -8.5      5.397      7.583
REMARK  5 active torsions:
REMARK  status: ('A' for Active; 'I' for Inactive)
REMARK    1  A    between atoms: O_2  and  C_3 
REMARK    2  A    between atoms: C_4  and  C_5 
REMARK    3  A    between atoms: C_9  and  S_10 
REMARK    4  A    between atoms: S_10  and  C_11 
REMARK    5  A    between atoms: C_11  and  C_12 
REMARK       I    between atoms: C_12  and  N_13 
ROOT
HETATM    1  C   UNL     1      -9.768   2.241 -33.182  1.00  0.00     0.185 A 
HETATM    2  N   UNL     1      -9.476   2.574 -31.914  1.00  0.00    -0.152 NA
HETATM    3  N   UNL     1      -8.153   2.780 -31.979  1.00  0.00    -0.253 N 
HETATM    4  H   UNL     1      -7.666   3.091 -31.149  1.00  0.00     0.191 HD
HETATM    5  C   UNL     1      -7.677   2.565 -33.234  1.00  0.00     0.185 A 
HETATM    6  N   UNL     1      -8.672   2.247 -34.024  1.00  0.00    -0.201 NA
ENDROOT
BRANCH   5   7
HETATM    7  S   UNL     1      -6.037   2.799 -33.713  1.00  0.00    -0.081 SA
BRANCH   7   8
HETATM    8  C   UNL     1      -5.145   1.492 -32.837  1.00  0.00     0.185 C 
BRANCH   8   9
HETATM    9  C   UNL     1      -5.366   0.144 -33.512  1.00  0.00     0.234 C 
HETATM   10  N   UNL     1      -4.801  -1.006 -32.936  1.00  0.00    -0.317 N 
HETATM   11  C   UNL     1      -4.914  -2.317 -33.544  1.00  0.00     0.043 A 
HETATM   12  C   UNL     1      -4.064  -0.987 -31.662  1.00  0.00     0.132 C 
HETATM   13  C   UNL     1      -4.031  -3.352 -33.155  1.00  0.00    -0.031 A 
HETATM   14  C   UNL     1      -5.879  -2.623 -34.517  1.00  0.00     0.030 A 
HETATM   15  C   UNL     1      -4.128  -4.630 -33.739  1.00  0.00     0.009 A 
HETATM   16  C   UNL     1      -2.971  -3.155 -32.101  1.00  0.00     0.042 C 
HETATM   17  C   UNL     1      -5.085  -4.897 -34.711  1.00  0.00     0.001 A 
HETATM   18  C   UNL     1      -5.962  -3.894 -35.097  1.00  0.00     0.002 A 
HETATM   19  C   UNL     1      -2.727  -1.690 -31.800  1.00  0.00     0.025 C 
HETATM   20  O   UNL     1      -5.986   0.166 -34.582  1.00  0.00    -0.272 OA
ENDBRANCH   8   9
ENDBRANCH   7   8
ENDBRANCH   5   7
BRANCH   1  21
HETATM   21  C   UNL     1     -11.122   2.037 -33.683  1.00  0.00     0.048 A 
HETATM   22  C   UNL     1     -11.799   2.993 -34.460  1.00  0.00     0.082 A 
HETATM   23  C   UNL     1     -13.087   2.722 -34.944  1.00  0.00     0.039 A 
HETATM   24  C   UNL     1     -13.692   1.492 -34.683  1.00  0.00     0.026 A 
HETATM   25  C   UNL     1     -13.023   0.543 -33.914  1.00  0.00     0.035 A 
HETATM   26  C   UNL     1     -11.753   0.811 -33.409  1.00  0.00     0.042 A 
HETATM   27 CL   UNL     1     -13.773  -0.971 -33.590  1.00  0.00    -0.084 Cl
BRANCH  22  28
HETATM   28  O   UNL     1     -11.234   4.230 -34.649  1.00  0.00    -0.355 OA
HETATM   29  C   UNL     1     -11.567   5.160 -33.620  1.00  0.00     0.210 C 
ENDBRANCH  22  28
ENDBRANCH   1  21
TORSDOF 5
ENDMDL
