MODEL 1
REMARK VINA RESULT:      -7.7      0.000      0.000
REMARK  5 active torsions:
REMARK  status: ('A' for Active; 'I' for Inactive)
REMARK    1  A    between atoms: C_2  and  O_3 
REMARK    2  A    between atoms: C_4  and  C_5 
REMARK    3  A    between atoms: C_5  and  O_6 
REMARK    4  A    between atoms: C_9  and  C_10 
REMARK    5  A    between atoms: C_22  and  O_23 
ROOT
HETATM    1  C   UNL     1      -8.540   3.639 -33.329  1.00  0.00     0.047 C 
HETATM    2  C   UNL     1      -7.798   2.418 -32.758  1.00  0.00     0.073 C 
HETATM    3  C   UNL     1      -6.479   2.114 -33.543  1.00  0.00     0.133 C 
HETATM    4  C   UNL     1      -5.510   1.066 -32.920  1.00  0.00     0.074 C 
HETATM    5  C   UNL     1      -5.650   0.978 -31.440  1.00  0.00     0.030 A 
HETATM    6  C   UNL     1      -6.600   1.657 -30.708  1.00  0.00     0.042 A 
HETATM    7  N   UNL     1      -6.378   1.358 -29.393  1.00  0.00    -0.279 N 
HETATM    8  H   UNL     1      -6.875   1.691 -28.573  1.00  0.00     0.189 HD
HETATM    9  N   UNL     1      -5.333   0.522 -29.218  1.00  0.00    -0.149 NA
HETATM   10  C   UNL     1      -4.898   0.333 -30.456  1.00  0.00     0.190 A 
HETATM   11  C   UNL     1      -7.618   2.605 -31.224  1.00  0.00     0.097 C 
ENDROOT
BRANCH   4  12
HETATM   12  C   UNL     1      -5.678  -0.336 -33.505  1.00  0.00    -0.048 A 
HETATM   13  C   UNL     1      -4.510  -1.077 -33.777  1.00  0.00     0.009 A 
HETATM   14  C   UNL     1      -4.578  -2.363 -34.319  1.00  0.00     0.024 A 
HETATM   15  C   UNL     1      -5.816  -2.926 -34.609  1.00  0.00     0.034 A 
HETATM   16 CL   UNL     1      -5.903  -4.510 -35.275  1.00  0.00    -0.084 Cl
HETATM   17  C   UNL     1      -6.985  -2.214 -34.359  1.00  0.00     0.024 A 
HETATM   18  C   UNL     1      -6.916  -0.929 -33.809  1.00  0.00     0.009 A 
ENDBRANCH   4  12
BRANCH   3  19
HETATM   19  C   UNL     1      -5.681   3.387 -33.733  1.00  0.00     0.266 C 
HETATM   20  O   UNL     1      -5.952   4.270 -34.534  1.00  0.00    -0.265 OA
BRANCH  19  21
HETATM   21  O   UNL     1      -4.615   3.405 -32.884  1.00  0.00    -0.326 OA
HETATM   22  C   UNL     1      -4.530   4.577 -32.071  1.00  0.00     0.213 C 
ENDBRANCH  19  21
ENDBRANCH   3  19
BRANCH   2  23
HETATM   23  O   UNL     1      -8.714   1.326 -32.983  1.00  0.00    -0.389 OA
HETATM   24  H   UNL     1      -8.327   0.524 -32.594  1.00  0.00     0.210 HD
ENDBRANCH   2  23
BRANCH  10  25
HETATM   25  O   UNL     1      -3.817  -0.431 -30.571  1.00  0.00    -0.343 OA
HETATM   26  H   UNL     1      -4.152  -1.280 -30.906  1.00  0.00     0.219 HD
ENDBRANCH  10  25
TORSDOF 5
ENDMDL
MODEL 2
REMARK VINA RESULT:      -7.5      2.061      3.106
REMARK  5 active torsions:
REMARK  status: ('A' for Active; 'I' for Inactive)
REMARK    1  A    between atoms: C_2  and  O_3 
REMARK    2  A    between atoms: C_4  and  C_5 
REMARK    3  A    between atoms: C_5  and  O_6 
REMARK    4  A    between atoms: C_9  and  C_10 
REMARK    5  A    between atoms: C_22  and  O_23 
ROOT
HETATM    1  C   UNL     1      -4.204   5.668 -34.075  1.00  0.00     0.047 C 
HETATM    2  C   UNL     1      -4.888   4.487 -33.364  1.00  0.00     0.073 C 
HETATM    3  C   UNL     1      -3.857   3.560 -32.640  1.00  0.00     0.133 C 
HETATM    4  C   UNL     1      -4.431   2.477 -31.679  1.00  0.00     0.074 C 
HETATM    5  C   UNL     1      -5.755   2.863 -31.119  1.00  0.00     0.030 A 
HETATM    6  C   UNL     1      -6.454   3.993 -31.488  1.00  0.00     0.042 A 
HETATM    7  N   UNL     1      -7.589   4.024 -30.727  1.00  0.00    -0.279 N 
HETATM    8  H   UNL     1      -8.329   4.720 -30.718  1.00  0.00     0.189 HD
HETATM    9  N   UNL     1      -7.675   2.980 -29.876  1.00  0.00    -0.149 NA
HETATM   10  C   UNL     1      -6.552   2.316 -30.111  1.00  0.00     0.190 A 
HETATM   11  C   UNL     1      -6.028   5.032 -32.457  1.00  0.00     0.097 C 
ENDROOT
BRANCH   4  12
HETATM   12  C   UNL     1      -4.564   1.101 -32.330  1.00  0.00    -0.048 A 
HETATM   13  C   UNL     1      -3.519   0.178 -32.132  1.00  0.00     0.009 A 
HETATM   14  C   UNL     1      -3.561  -1.099 -32.700  1.00  0.00     0.024 A 
HETATM   15  C   UNL     1      -4.646  -1.469 -33.485  1.00  0.00     0.034 A 
HETATM   16 CL   UNL     1      -4.703  -3.040 -34.184  1.00  0.00    -0.084 Cl
HETATM   17  C   UNL     1      -5.690  -0.575 -33.705  1.00  0.00     0.024 A 
HETATM   18  C   UNL     1      -5.649   0.700 -33.130  1.00  0.00     0.009 A 
ENDBRANCH   4  12
BRANCH   3  19
HETATM   19  C   UNL     1      -2.889   4.395 -31.827  1.00  0.00     0.266 C 
HETATM   20  O   UNL     1      -3.204   5.123 -30.895  1.00  0.00    -0.265 OA
BRANCH  19  21
HETATM   21  O   UNL     1      -1.618   4.222 -32.285  1.00  0.00    -0.326 OA
HETATM   22  C   UNL     1      -0.773   5.363 -32.123  1.00  0.00     0.213 C 
ENDBRANCH  19  21
ENDBRANCH   3  19
BRANCH   2  23
HETATM   23  O   UNL     1      -5.482   3.736 -34.444  1.00  0.00    -0.389 OA
HETATM   24  H   UNL     1      -4.787   3.188 -34.847  1.00  0.00     0.210 HD
ENDBRANCH   2  23
BRANCH  10  25
HETATM   25  O   UNL     1      -6.353   1.244 -29.354  1.00  0.00    -0.343 OA
HETATM   26  H   UNL     1      -5.620   1.492 -28.766  1.00  0.00     0.219 HD
ENDBRANCH  10  25
TORSDOF 5
ENDMDL
MODEL 3
REMARK VINA RESULT:      -7.4      4.028      6.466
REMARK  5 active torsions:
REMARK  status: ('A' for Active; 'I' for Inactive)
REMARK    1  A    between atoms: C_2  and  O_3 
REMARK    2  A    between atoms: C_4  and  C_5 
REMARK    3  A    between atoms: C_5  and  O_6 
REMARK    4  A    between atoms: C_9  and  C_10 
REMARK    5  A    between atoms: C_22  and  O_23 
ROOT
HETATM    1  C   UNL     1      -5.766   0.774 -29.701  1.00  0.00     0.047 C 
HETATM    2  C   UNL     1      -5.561   2.064 -30.514  1.00  0.00     0.073 C 
HETATM    3  C   UNL     1      -4.237   2.029 -31.346  1.00  0.00     0.133 C 
HETATM    4  C   UNL     1      -4.033   3.158 -32.400  1.00  0.00     0.074 C 
HETATM    5  C   UNL     1      -5.324   3.709 -32.895  1.00  0.00     0.030 A 
HETATM    6  C   UNL     1      -6.561   3.350 -32.402  1.00  0.00     0.042 A 
HETATM    7  N   UNL     1      -7.493   4.029 -33.136  1.00  0.00    -0.279 N 
HETATM    8  H   UNL     1      -8.505   3.998 -33.062  1.00  0.00     0.189 HD
HETATM    9  N   UNL     1      -6.939   4.812 -34.085  1.00  0.00    -0.149 NA
HETATM   10  C   UNL     1      -5.643   4.581 -33.938  1.00  0.00     0.190 A 
HETATM   11  C   UNL     1      -6.847   2.353 -31.342  1.00  0.00     0.097 C 
ENDROOT
BRANCH   4  12
HETATM   12  C   UNL     1      -3.177   4.316 -31.888  1.00  0.00    -0.048 A 
HETATM   13  C   UNL     1      -1.841   4.388 -32.327  1.00  0.00     0.009 A 
HETATM   14  C   UNL     1      -0.991   5.412 -31.899  1.00  0.00     0.024 A 
HETATM   15  C   UNL     1      -1.462   6.375 -31.014  1.00  0.00     0.034 A 
HETATM   16 CL   UNL     1      -0.420   7.638 -30.486  1.00  0.00    -0.084 Cl
HETATM   17  C   UNL     1      -2.775   6.324 -30.557  1.00  0.00     0.024 A 
HETATM   18  C   UNL     1      -3.627   5.302 -30.992  1.00  0.00     0.009 A 
ENDBRANCH   4  12
BRANCH   3  19
HETATM   19  C   UNL     1      -4.124   0.714 -32.089  1.00  0.00     0.266 C 
HETATM   20  O   UNL     1      -4.822   0.383 -33.037  1.00  0.00    -0.265 OA
BRANCH  19  21
HETATM   21  O   UNL     1      -3.135  -0.050 -31.545  1.00  0.00    -0.326 OA
HETATM   22  C   UNL     1      -3.161  -1.421 -31.950  1.00  0.00     0.213 C 
ENDBRANCH  19  21
ENDBRANCH   3  19
BRANCH   2  23
HETATM   23  O   UNL     1      -5.427   3.086 -29.504  1.00  0.00    -0.389 OA
HETATM   24  H   UNL     1      -4.499   3.375 -29.489  1.00  0.00     0.210 HD
ENDBRANCH   2  23
BRANCH  10  25
HETATM   25  O   UNL     1      -4.849   5.203 -34.802  1.00  0.00    -0.343 OA
HETATM   26  H   UNL     1      -5.383   5.945 -35.134  1.00  0.00     0.219 HD
ENDBRANCH  10  25
TORSDOF 5
ENDMDL
MODEL 4
REMARK VINA RESULT:      -7.3      2.354      3.541
REMARK  5 active torsions:
REMARK  status: ('A' for Active; 'I' for Inactive)
REMARK    1  A    between atoms: C_2  and  O_3 
REMARK    2  A    between atoms: C_4  and  C_5 
REMARK    3  A    between atoms: C_5  and  O_6 
REMARK    4  A    between atoms: C_9  and  C_10 
REMARK    5  A    between atoms: C_22  and  O_23 
ROOT
HETATM    1  C   UNL     1      -8.861   3.119 -30.458  1.00  0.00     0.047 C 
HETATM    2  C   UNL     1      -7.352   2.930 -30.692  1.00  0.00     0.073 C 
HETATM    3  C   UNL     1      -7.046   2.366 -32.120  1.00  0.00     0.133 C 
HETATM    4  C   UNL     1      -5.556   2.364 -32.575  1.00  0.00     0.074 C 
HETATM    5  C   UNL     1      -4.756   3.420 -31.897  1.00  0.00     0.030 A 
HETATM    6  C   UNL     1      -5.239   4.238 -30.897  1.00  0.00     0.042 A 
HETATM    7  N   UNL     1      -4.231   5.099 -30.567  1.00  0.00    -0.279 N 
HETATM    8  H   UNL     1      -4.235   5.849 -29.882  1.00  0.00     0.189 HD
HETATM    9  N   UNL     1      -3.113   4.897 -31.295  1.00  0.00    -0.149 NA
HETATM   10  C   UNL     1      -3.463   3.906 -32.102  1.00  0.00     0.190 A 
HETATM   11  C   UNL     1      -6.614   4.253 -30.339  1.00  0.00     0.097 C 
ENDROOT
BRANCH   4  12
HETATM   12  C   UNL     1      -4.862   1.020 -32.362  1.00  0.00    -0.048 A 
HETATM   13  C   UNL     1      -5.187  -0.033 -33.239  1.00  0.00     0.009 A 
HETATM   14  C   UNL     1      -4.601  -1.295 -33.107  1.00  0.00     0.024 A 
HETATM   15  C   UNL     1      -3.687  -1.528 -32.086  1.00  0.00     0.034 A 
HETATM   16 CL   UNL     1      -2.962  -3.080 -31.921  1.00  0.00    -0.084 Cl
HETATM   17  C   UNL     1      -3.352  -0.510 -31.200  1.00  0.00     0.024 A 
HETATM   18  C   UNL     1      -3.934   0.756 -31.338  1.00  0.00     0.009 A 
ENDBRANCH   4  12
BRANCH   3  19
HETATM   19  C   UNL     1      -7.820   3.145 -33.163  1.00  0.00     0.266 C 
HETATM   20  O   UNL     1      -7.509   4.251 -33.583  1.00  0.00    -0.265 OA
BRANCH  19  21
HETATM   21  O   UNL     1      -8.913   2.438 -33.563  1.00  0.00    -0.326 OA
HETATM   22  C   UNL     1      -8.610   1.197 -34.202  1.00  0.00     0.213 C 
ENDBRANCH  19  21
ENDBRANCH   3  19
BRANCH   2  23
HETATM   23  O   UNL     1      -6.980   1.925 -29.726  1.00  0.00    -0.389 OA
HETATM   24  H   UNL     1      -6.045   1.699 -29.871  1.00  0.00     0.210 HD
ENDBRANCH   2  23
BRANCH  10  25
HETATM   25  O   UNL     1      -2.541   3.531 -32.981  1.00  0.00    -0.343 OA
HETATM   26  H   UNL     1      -3.046   3.284 -33.775  1.00  0.00     0.219 HD
ENDBRANCH  10  25
TORSDOF 5
ENDMDL
MODEL 5
REMARK VINA RESULT:      -7.3      2.932      4.101
REMARK  5 active torsions:
REMARK  status: ('A' for Active; 'I' for Inactive)
REMARK    1  A    between atoms: C_2  and  O_3 
REMARK    2  A    between atoms: C_4  and  C_5 
REMARK    3  A    between atoms: C_5  and  O_6 
REMARK    4  A    between atoms: C_9  and  C_10 
REMARK    5  A    between atoms: C_22  and  O_23 
ROOT
HETATM    1  C   UNL     1      -5.431   3.367 -29.975  1.00  0.00     0.047 C 
HETATM    2  C   UNL     1      -5.952   2.207 -30.843  1.00  0.00     0.073 C 
HETATM    3  C   UNL     1      -6.480   2.704 -32.229  1.00  0.00     0.133 C 
HETATM    4  C   UNL     1      -6.802   1.614 -33.295  1.00  0.00     0.074 C 
HETATM    5  C   UNL     1      -6.006   0.372 -33.091  1.00  0.00     0.030 A 
HETATM    6  C   UNL     1      -5.163   0.157 -32.022  1.00  0.00     0.042 A 
HETATM    7  N   UNL     1      -4.584  -1.065 -32.213  1.00  0.00    -0.279 N 
HETATM    8  H   UNL     1      -3.898  -1.541 -31.633  1.00  0.00     0.189 HD
HETATM    9  N   UNL     1      -4.995  -1.666 -33.349  1.00  0.00    -0.149 NA
HETATM   10  C   UNL     1      -5.824  -0.773 -33.869  1.00  0.00     0.190 A 
HETATM   11  C   UNL     1      -4.863   1.099 -30.915  1.00  0.00     0.097 C 
ENDROOT
BRANCH   4  12
HETATM   12  C   UNL     1      -8.281   1.237 -33.347  1.00  0.00    -0.048 A 
HETATM   13  C   UNL     1      -9.135   2.038 -34.130  1.00  0.00     0.009 A 
HETATM   14  C   UNL     1     -10.503   1.765 -34.224  1.00  0.00     0.024 A 
HETATM   15  C   UNL     1     -11.041   0.690 -33.525  1.00  0.00     0.034 A 
HETATM   16 CL   UNL     1     -12.724   0.349 -33.639  1.00  0.00    -0.084 Cl
HETATM   17  C   UNL     1     -10.224  -0.113 -32.737  1.00  0.00     0.024 A 
HETATM   18  C   UNL     1      -8.853   0.157 -32.650  1.00  0.00     0.009 A 
ENDBRANCH   4  12
BRANCH   3  19
HETATM   19  C   UNL     1      -5.478   3.648 -32.860  1.00  0.00     0.266 C 
HETATM   20  O   UNL     1      -4.310   3.372 -33.098  1.00  0.00    -0.265 OA
BRANCH  19  21
HETATM   21  O   UNL     1      -6.063   4.851 -33.119  1.00  0.00    -0.326 OA
HETATM   22  C   UNL     1      -5.219   5.979 -32.881  1.00  0.00     0.213 C 
ENDBRANCH  19  21
ENDBRANCH   3  19
BRANCH   2  23
HETATM   23  O   UNL     1      -7.075   1.699 -30.093  1.00  0.00    -0.389 OA
HETATM   24  H   UNL     1      -7.313   0.830 -30.459  1.00  0.00     0.210 HD
ENDBRANCH   2  23
BRANCH  10  25
HETATM   25  O   UNL     1      -6.347  -1.096 -35.047  1.00  0.00    -0.343 OA
HETATM   26  H   UNL     1      -5.585  -1.360 -35.590  1.00  0.00     0.219 HD
ENDBRANCH  10  25
TORSDOF 5
ENDMDL
MODEL 6
REMARK VINA RESULT:      -7.3      2.988      5.261
REMARK  5 active torsions:
REMARK  status: ('A' for Active; 'I' for Inactive)
REMARK    1  A    between atoms: C_2  and  O_3 
REMARK    2  A    between atoms: C_4  and  C_5 
REMARK    3  A    between atoms: C_5  and  O_6 
REMARK    4  A    between atoms: C_9  and  C_10 
REMARK    5  A    between atoms: C_22  and  O_23 
ROOT
HETATM    1  C   UNL     1      -6.124  -1.195 -33.320  1.00  0.00     0.047 C 
HETATM    2  C   UNL     1      -5.879   0.203 -32.726  1.00  0.00     0.073 C 
HETATM    3  C   UNL     1      -6.253   1.341 -33.732  1.00  0.00     0.133 C 
HETATM    4  C   UNL     1      -6.290   2.795 -33.174  1.00  0.00     0.074 C 
HETATM    5  C   UNL     1      -6.577   2.832 -31.713  1.00  0.00     0.030 A 
HETATM    6  C   UNL     1      -6.688   1.713 -30.915  1.00  0.00     0.042 A 
HETATM    7  N   UNL     1      -7.001   2.151 -29.659  1.00  0.00    -0.279 N 
HETATM    8  H   UNL     1      -7.173   1.604 -28.821  1.00  0.00     0.189 HD
HETATM    9  N   UNL     1      -7.105   3.494 -29.586  1.00  0.00    -0.149 NA
HETATM   10  C   UNL     1      -6.875   3.875 -30.834  1.00  0.00     0.190 A 
HETATM   11  C   UNL     1      -6.580   0.296 -31.341  1.00  0.00     0.097 C 
ENDROOT
BRANCH   4  12
HETATM   12  C   UNL     1      -5.001   3.574 -33.432  1.00  0.00    -0.048 A 
HETATM   13  C   UNL     1      -5.002   4.513 -34.484  1.00  0.00     0.009 A 
HETATM   14  C   UNL     1      -3.862   5.261 -34.789  1.00  0.00     0.024 A 
HETATM   15  C   UNL     1      -2.697   5.074 -34.054  1.00  0.00     0.034 A 
HETATM   16 CL   UNL     1      -1.291   5.995 -34.426  1.00  0.00    -0.084 Cl
HETATM   17  C   UNL     1      -2.664   4.149 -33.016  1.00  0.00     0.024 A 
HETATM   18  C   UNL     1      -3.809   3.406 -32.706  1.00  0.00     0.009 A 
ENDBRANCH   4  12
BRANCH   3  19
HETATM   19  C   UNL     1      -7.615   1.072 -34.338  1.00  0.00     0.266 C 
HETATM   20  O   UNL     1      -7.822   0.342 -35.297  1.00  0.00    -0.265 OA
BRANCH  19  21
HETATM   21  O   UNL     1      -8.575   1.765 -33.664  1.00  0.00    -0.326 OA
HETATM   22  C   UNL     1      -9.694   0.976 -33.257  1.00  0.00     0.213 C 
ENDBRANCH  19  21
ENDBRANCH   3  19
BRANCH   2  23
HETATM   23  O   UNL     1      -4.451   0.240 -32.521  1.00  0.00    -0.389 OA
HETATM   24  H   UNL     1      -4.020   0.223 -33.392  1.00  0.00     0.210 HD
ENDBRANCH   2  23
BRANCH  10  25
HETATM   25  O   UNL     1      -6.968   5.181 -31.060  1.00  0.00    -0.343 OA
HETATM   26  H   UNL     1      -7.910   5.385 -30.932  1.00  0.00     0.219 HD
ENDBRANCH  10  25
TORSDOF 5
ENDMDL
MODEL 7
REMARK VINA RESULT:      -7.3      2.708      3.740
REMARK  5 active torsions:
REMARK  status: ('A' for Active; 'I' for Inactive)
REMARK    1  A    between atoms: C_2  and  O_3 
REMARK    2  A    between atoms: C_4  and  C_5 
REMARK    3  A    between atoms: C_5  and  O_6 
REMARK    4  A    between atoms: C_9  and  C_10 
REMARK    5  A    between atoms: C_22  and  O_23 
ROOT
HETATM    1  C   UNL     1      -6.519   5.139 -32.716  1.00  0.00     0.047 C 
HETATM    2  C   UNL     1      -7.207   3.814 -33.090  1.00  0.00     0.073 C 
HETATM    3  C   UNL     1      -6.956   2.701 -32.020  1.00  0.00     0.133 C 
HETATM    4  C   UNL     1      -7.795   1.395 -32.147  1.00  0.00     0.074 C 
HETATM    5  C   UNL     1      -9.095   1.623 -32.836  1.00  0.00     0.030 A 
HETATM    6  C   UNL     1      -9.473   2.823 -33.401  1.00  0.00     0.042 A 
HETATM    7  N   UNL     1     -10.738   2.650 -33.889  1.00  0.00    -0.279 N 
HETATM    8  H   UNL     1     -11.336   3.325 -34.356  1.00  0.00     0.189 HD
HETATM    9  N   UNL     1     -11.214   1.406 -33.676  1.00  0.00    -0.149 NA
HETATM   10  C   UNL     1     -10.223   0.821 -33.019  1.00  0.00     0.190 A 
HETATM   11  C   UNL     1      -8.705   4.092 -33.407  1.00  0.00     0.097 C 
ENDROOT
BRANCH   4  12
HETATM   12  C   UNL     1      -7.056   0.270 -32.869  1.00  0.00    -0.048 A 
HETATM   13  C   UNL     1      -6.022  -0.388 -32.175  1.00  0.00     0.009 A 
HETATM   14  C   UNL     1      -5.293  -1.422 -32.768  1.00  0.00     0.024 A 
HETATM   15  C   UNL     1      -5.580  -1.809 -34.072  1.00  0.00     0.034 A 
HETATM   16 CL   UNL     1      -4.686  -3.084 -34.805  1.00  0.00    -0.084 Cl
HETATM   17  C   UNL     1      -6.590  -1.173 -34.785  1.00  0.00     0.024 A 
HETATM   18  C   UNL     1      -7.325  -0.142 -34.187  1.00  0.00     0.009 A 
ENDBRANCH   4  12
BRANCH   3  19
HETATM   19  C   UNL     1      -7.209   3.248 -30.630  1.00  0.00     0.266 C 
HETATM   20  O   UNL     1      -8.315   3.444 -30.146  1.00  0.00    -0.265 OA
BRANCH  19  21
HETATM   21  O   UNL     1      -6.027   3.495 -29.999  1.00  0.00    -0.326 OA
HETATM   22  C   UNL     1      -4.957   2.635 -30.396  1.00  0.00     0.213 C 
ENDBRANCH  19  21
ENDBRANCH   3  19
BRANCH   2  23
HETATM   23  O   UNL     1      -6.546   3.419 -34.309  1.00  0.00    -0.389 OA
HETATM   24  H   UNL     1      -5.710   3.912 -34.373  1.00  0.00     0.210 HD
ENDBRANCH   2  23
BRANCH  10  25
HETATM   25  O   UNL     1     -10.452  -0.429 -32.632  1.00  0.00    -0.343 OA
HETATM   26  H   UNL     1      -9.572  -0.788 -32.429  1.00  0.00     0.219 HD
ENDBRANCH  10  25
TORSDOF 5
ENDMDL
MODEL 8
REMARK VINA RESULT:      -7.1      4.522      5.908
REMARK  5 active torsions:
REMARK  status: ('A' for Active; 'I' for Inactive)
REMARK    1  A    between atoms: C_2  and  O_3 
REMARK    2  A    between atoms: C_4  and  C_5 
REMARK    3  A    between atoms: C_5  and  O_6 
REMARK    4  A    between atoms: C_9  and  C_10 
REMARK    5  A    between atoms: C_22  and  O_23 
ROOT
HETATM    1  C   UNL     1     -11.032   5.746 -34.182  1.00  0.00     0.047 C 
HETATM    2  C   UNL     1     -11.129   4.214 -34.288  1.00  0.00     0.073 C 
HETATM    3  C   UNL     1     -10.546   3.501 -33.023  1.00  0.00     0.133 C 
HETATM    4  C   UNL     1     -10.808   1.971 -32.889  1.00  0.00     0.074 C 
HETATM    5  C   UNL     1     -12.042   1.544 -33.603  1.00  0.00     0.030 A 
HETATM    6  C   UNL     1     -12.812   2.376 -34.388  1.00  0.00     0.042 A 
HETATM    7  N   UNL     1     -13.875   1.638 -34.827  1.00  0.00    -0.279 N 
HETATM    8  H   UNL     1     -14.652   1.928 -35.412  1.00  0.00     0.189 HD
HETATM    9  N   UNL     1     -13.850   0.367 -34.372  1.00  0.00    -0.149 NA
HETATM   10  C   UNL     1     -12.759   0.346 -33.620  1.00  0.00     0.190 A 
HETATM   11  C   UNL     1     -12.592   3.821 -34.645  1.00  0.00     0.097 C 
ENDROOT
BRANCH   4  12
HETATM   12  C   UNL     1      -9.643   1.114 -33.383  1.00  0.00    -0.048 A 
HETATM   13  C   UNL     1      -8.890   0.413 -32.421  1.00  0.00     0.009 A 
HETATM   14  C   UNL     1      -7.805  -0.387 -32.791  1.00  0.00     0.024 A 
HETATM   15  C   UNL     1      -7.449  -0.491 -34.130  1.00  0.00     0.034 A 
HETATM   16 CL   UNL     1      -6.115  -1.476 -34.589  1.00  0.00    -0.084 Cl
HETATM   17  C   UNL     1      -8.169   0.196 -35.102  1.00  0.00     0.024 A 
HETATM   18  C   UNL     1      -9.260   0.991 -34.731  1.00  0.00     0.009 A 
ENDBRANCH   4  12
BRANCH   3  19
HETATM   19  C   UNL     1     -11.088   4.147 -31.765  1.00  0.00     0.266 C 
HETATM   20  O   UNL     1     -12.246   4.066 -31.380  1.00  0.00    -0.265 OA
BRANCH  19  21
HETATM   21  O   UNL     1     -10.101   4.836 -31.127  1.00  0.00    -0.326 OA
HETATM   22  C   UNL     1      -9.177   4.013 -30.412  1.00  0.00     0.213 C 
ENDBRANCH  19  21
ENDBRANCH   3  19
BRANCH   2  23
HETATM   23  O   UNL     1     -10.282   3.894 -35.411  1.00  0.00    -0.389 OA
HETATM   24  H   UNL     1      -9.358   4.015 -35.135  1.00  0.00     0.210 HD
ENDBRANCH   2  23
BRANCH  10  25
HETATM   25  O   UNL     1     -12.517  -0.801 -32.996  1.00  0.00    -0.343 OA
HETATM   26  H   UNL     1     -13.048  -1.459 -33.477  1.00  0.00     0.219 HD
ENDBRANCH  10  25
TORSDOF 5
ENDMDL
MODEL 9
REMARK VINA RESULT:      -7.1      2.016      3.127
REMARK  5 active torsions:
REMARK  status: ('A' for Active; 'I' for Inactive)
REMARK    1  A    between atoms: C_2  and  O_3 
REMARK    2  A    between atoms: C_4  and  C_5 
REMARK    3  A    between atoms: C_5  and  O_6 
REMARK    4  A    between atoms: C_9  and  C_10 
REMARK    5  A    between atoms: C_22  and  O_23 
ROOT
HETATM    1  C   UNL     1     -10.567   3.710 -31.028  1.00  0.00     0.047 C 
HETATM    2  C   UNL     1      -9.166   3.110 -31.239  1.00  0.00     0.073 C 
HETATM    3  C   UNL     1      -8.755   3.098 -32.749  1.00  0.00     0.133 C 
HETATM    4  C   UNL     1      -7.272   2.752 -33.076  1.00  0.00     0.074 C 
HETATM    5  C   UNL     1      -6.352   3.089 -31.955  1.00  0.00     0.030 A 
HETATM    6  C   UNL     1      -6.767   3.549 -30.723  1.00  0.00     0.042 A 
HETATM    7  N   UNL     1      -5.639   3.788 -29.989  1.00  0.00    -0.279 N 
HETATM    8  H   UNL     1      -5.562   4.148 -29.042  1.00  0.00     0.189 HD
HETATM    9  N   UNL     1      -4.506   3.513 -30.668  1.00  0.00    -0.149 NA
HETATM   10  C   UNL     1      -4.960   3.124 -31.851  1.00  0.00     0.190 A 
HETATM   11  C   UNL     1      -8.159   3.824 -30.292  1.00  0.00     0.097 C 
ENDROOT
BRANCH   4  12
HETATM   12  C   UNL     1      -7.062   1.285 -33.448  1.00  0.00    -0.048 A 
HETATM   13  C   UNL     1      -7.300   0.907 -34.785  1.00  0.00     0.009 A 
HETATM   14  C   UNL     1      -7.138  -0.417 -35.204  1.00  0.00     0.024 A 
HETATM   15  C   UNL     1      -6.746  -1.387 -34.290  1.00  0.00     0.034 A 
HETATM   16 CL   UNL     1      -6.543  -3.017 -34.802  1.00  0.00    -0.084 Cl
HETATM   17  C   UNL     1      -6.512  -1.045 -32.962  1.00  0.00     0.024 A 
HETATM   18  C   UNL     1      -6.667   0.282 -32.545  1.00  0.00     0.009 A 
ENDBRANCH   4  12
BRANCH   3  19
HETATM   19  C   UNL     1      -9.035   4.449 -33.375  1.00  0.00     0.266 C 
HETATM   20  O   UNL     1      -8.461   5.488 -33.082  1.00  0.00    -0.265 OA
BRANCH  19  21
HETATM   21  O   UNL     1     -10.023   4.340 -34.307  1.00  0.00    -0.326 OA
HETATM   22  C   UNL     1     -10.122   5.457 -35.193  1.00  0.00     0.213 C 
ENDBRANCH  19  21
ENDBRANCH   3  19
BRANCH   2  23
HETATM   23  O   UNL     1      -9.311   1.742 -30.805  1.00  0.00    -0.389 OA
HETATM   24  H   UNL     1     -10.261   1.546 -30.740  1.00  0.00     0.210 HD
ENDBRANCH   2  23
BRANCH  10  25
HETATM   25  O   UNL     1      -4.030   2.834 -32.753  1.00  0.00    -0.343 OA
HETATM   26  H   UNL     1      -4.499   2.315 -33.430  1.00  0.00     0.219 HD
ENDBRANCH  10  25
TORSDOF 5
ENDMDL
MODEL 10
REMARK VINA RESULT:      -6.9     14.893     17.452
REMARK  5 active torsions:
REMARK  status: ('A' for Active; 'I' for Inactive)
REMARK    1  A    between atoms: C_2  and  O_3 
REMARK    2  A    between atoms: C_4  and  C_5 
REMARK    3  A    between atoms: C_5  and  O_6 
REMARK    4  A    between atoms: C_9  and  C_10 
REMARK    5  A    between atoms: C_22  and  O_23 
ROOT
HETATM    1  C   UNL     1      -2.571 -15.995 -42.554  1.00  0.00     0.047 C 
HETATM    2  C   UNL     1      -3.098 -14.896 -41.614  1.00  0.00     0.073 C 
HETATM    3  C   UNL     1      -4.153 -15.449 -40.599  1.00  0.00     0.133 C 
HETATM    4  C   UNL     1      -4.578 -14.504 -39.436  1.00  0.00     0.074 C 
HETATM    5  C   UNL     1      -3.519 -13.515 -39.095  1.00  0.00     0.030 A 
HETATM    6  C   UNL     1      -2.340 -13.369 -39.795  1.00  0.00     0.042 A 
HETATM    7  N   UNL     1      -1.616 -12.403 -39.154  1.00  0.00    -0.279 N 
HETATM    8  H   UNL     1      -0.692 -12.047 -39.381  1.00  0.00     0.189 HD
HETATM    9  N   UNL     1      -2.250 -11.908 -38.071  1.00  0.00    -0.149 NA
HETATM   10  C   UNL     1      -3.373 -12.610 -38.042  1.00  0.00     0.190 A 
HETATM   11  C   UNL     1      -1.890 -14.160 -40.966  1.00  0.00     0.097 C 
ENDROOT
BRANCH   4  12
HETATM   12  C   UNL     1      -5.875 -13.746 -39.716  1.00  0.00    -0.048 A 
HETATM   13  C   UNL     1      -7.054 -14.213 -39.101  1.00  0.00     0.009 A 
HETATM   14  C   UNL     1      -8.281 -13.579 -39.312  1.00  0.00     0.024 A 
HETATM   15  C   UNL     1      -8.353 -12.474 -40.152  1.00  0.00     0.034 A 
HETATM   16 CL   UNL     1      -9.862 -11.690 -40.412  1.00  0.00    -0.084 Cl
HETATM   17  C   UNL     1      -7.207 -11.996 -40.779  1.00  0.00     0.024 A 
HETATM   18  C   UNL     1      -5.976 -12.627 -40.561  1.00  0.00     0.009 A 
ENDBRANCH   4  12
BRANCH   3  19
HETATM   19  C   UNL     1      -3.643 -16.724 -39.961  1.00  0.00     0.266 C 
HETATM   20  O   UNL     1      -2.781 -16.777 -39.095  1.00  0.00    -0.265 OA
BRANCH  19  21
HETATM   21  O   UNL     1      -4.280 -17.805 -40.494  1.00  0.00    -0.326 OA
HETATM   22  C   UNL     1      -5.667 -17.594 -40.768  1.00  0.00     0.213 C 
ENDBRANCH  19  21
ENDBRANCH   3  19
BRANCH   2  23
HETATM   23  O   UNL     1      -3.770 -13.980 -42.503  1.00  0.00    -0.389 OA
HETATM   24  H   UNL     1      -3.219 -13.184 -42.588  1.00  0.00     0.210 HD
ENDBRANCH   2  23
BRANCH  10  25
HETATM   25  O   UNL     1      -4.182 -12.354 -37.020  1.00  0.00    -0.343 OA
HETATM   26  H   UNL     1      -4.006 -11.424 -36.797  1.00  0.00     0.219 HD
ENDBRANCH  10  25
TORSDOF 5
ENDMDL
