MODEL 1
REMARK VINA RESULT:      -8.1      0.000      0.000
REMARK  7 active torsions:
REMARK  status: ('A' for Active; 'I' for Inactive)
REMARK    1  A    between atoms: O_2  and  C_3 
REMARK    2  A    between atoms: C_4  and  C_5 
REMARK    3  A    between atoms: C_5  and  N_6 
REMARK    4  A    between atoms: N_6  and  C_7 
REMARK    5  A    between atoms: C_9  and  N_10 
REMARK    6  A    between atoms: N_10  and  C_11 
REMARK    7  A    between atoms: C_11  and  C_12 
ROOT
HETATM    1  C   UNL     1      -7.658   0.312 -32.425  1.00  0.00     0.119 A 
HETATM    2  N   UNL     1      -8.842  -0.053 -32.953  1.00  0.00    -0.207 NA
HETATM    3  C   UNL     1      -9.925   0.663 -32.626  1.00  0.00     0.181 A 
HETATM    4  N   UNL     1      -9.880   1.728 -31.836  1.00  0.00    -0.330 N 
HETATM    5  H   UNL     1     -10.736   2.254 -31.722  1.00  0.00     0.168 HD
HETATM    6  C   UNL     1      -8.742   2.111 -31.250  1.00  0.00     0.048 A 
HETATM    7  C   UNL     1      -7.561   1.382 -31.505  1.00  0.00     0.031 A 
HETATM    8  C   UNL     1      -8.733   3.226 -30.399  1.00  0.00     0.030 A 
HETATM    9  C   UNL     1      -7.552   3.620 -29.774  1.00  0.00     0.002 A 
HETATM   10  C   UNL     1      -6.380   2.901 -29.988  1.00  0.00     0.001 A 
HETATM   11  C   UNL     1      -6.381   1.793 -30.841  1.00  0.00     0.017 A 
ENDROOT
BRANCH   1  12
HETATM   12  N   UNL     1      -6.515  -0.436 -32.742  1.00  0.00    -0.272 NA
HETATM   13  H   UNL     1      -5.669   0.040 -32.440  1.00  0.00     0.129 HD
BRANCH  12  14
HETATM   14  C   UNL     1      -6.343  -0.842 -34.145  1.00  0.00     0.135 C 
BRANCH  14  15
HETATM   15  C   UNL     1      -5.908  -2.277 -34.326  1.00  0.00    -0.012 A 
HETATM   16  C   UNL     1      -4.604  -2.634 -33.932  1.00  0.00     0.075 A 
HETATM   17  C   UNL     1      -4.168  -3.959 -34.008  1.00  0.00     0.037 A 
HETATM   18  C   UNL     1      -5.015  -4.939 -34.524  1.00  0.00     0.003 A 
HETATM   19  C   UNL     1      -6.295  -4.596 -34.954  1.00  0.00     0.001 A 
HETATM   20  C   UNL     1      -6.741  -3.276 -34.852  1.00  0.00     0.011 A 
BRANCH  16  21
HETATM   21  O   UNL     1      -3.818  -1.636 -33.408  1.00  0.00    -0.355 OA
HETATM   22  C   UNL     1      -3.312  -1.935 -32.109  1.00  0.00     0.210 C 
ENDBRANCH  16  21
ENDBRANCH  14  15
ENDBRANCH  12  14
ENDBRANCH   1  12
BRANCH   3  23
HETATM   23  N   UNL     1     -11.127   0.306 -33.217  1.00  0.00    -0.259 NA
HETATM   24  H   UNL     1     -11.643  -0.177 -32.475  1.00  0.00     0.130 HD
BRANCH  23  25
HETATM   25  C   UNL     1     -11.926   1.389 -33.769  1.00  0.00     0.121 C 
BRANCH  25  26
HETATM   26  C   UNL     1     -13.149   0.777 -34.381  1.00  0.00    -0.022 C 
HETATM   27  C   UNL     1     -14.165   0.227 -33.702  1.00  0.00     0.008 C 
ENDBRANCH  25  26
ENDBRANCH  23  25
ENDBRANCH   3  23
TORSDOF 7
ENDMDL
MODEL 2
REMARK VINA RESULT:      -8.0      2.358      6.029
REMARK  7 active torsions:
REMARK  status: ('A' for Active; 'I' for Inactive)
REMARK    1  A    between atoms: O_2  and  C_3 
REMARK    2  A    between atoms: C_4  and  C_5 
REMARK    3  A    between atoms: C_5  and  N_6 
REMARK    4  A    between atoms: N_6  and  C_7 
REMARK    5  A    between atoms: C_9  and  N_10 
REMARK    6  A    between atoms: N_10  and  C_11 
REMARK    7  A    between atoms: C_11  and  C_12 
ROOT
HETATM    1  C   UNL     1      -4.897  -0.829 -33.754  1.00  0.00     0.119 A 
HETATM    2  N   UNL     1      -5.852   0.011 -34.200  1.00  0.00    -0.207 NA
HETATM    3  C   UNL     1      -6.886  -0.513 -34.871  1.00  0.00     0.181 A 
HETATM    4  N   UNL     1      -7.028  -1.813 -35.088  1.00  0.00    -0.330 N 
HETATM    5  H   UNL     1      -7.887  -2.117 -35.526  1.00  0.00     0.168 HD
HETATM    6  C   UNL     1      -6.092  -2.688 -34.707  1.00  0.00     0.048 A 
HETATM    7  C   UNL     1      -4.946  -2.215 -34.034  1.00  0.00     0.031 A 
HETATM    8  C   UNL     1      -6.259  -4.054 -34.975  1.00  0.00     0.030 A 
HETATM    9  C   UNL     1      -5.280  -4.968 -34.593  1.00  0.00     0.002 A 
HETATM   10  C   UNL     1      -4.128  -4.522 -33.951  1.00  0.00     0.001 A 
HETATM   11  C   UNL     1      -3.958  -3.162 -33.676  1.00  0.00     0.017 A 
ENDROOT
BRANCH   1  12
HETATM   12  N   UNL     1      -3.798  -0.298 -33.064  1.00  0.00    -0.272 NA
HETATM   13  H   UNL     1      -2.934  -0.758 -33.340  1.00  0.00     0.129 HD
BRANCH  12  14
HETATM   14  C   UNL     1      -3.867  -0.285 -31.595  1.00  0.00     0.135 C 
BRANCH  14  15
HETATM   15  C   UNL     1      -4.690   0.847 -31.024  1.00  0.00    -0.012 A 
HETATM   16  C   UNL     1      -4.176   2.155 -31.113  1.00  0.00     0.075 A 
HETATM   17  C   UNL     1      -4.921   3.250 -30.668  1.00  0.00     0.037 A 
HETATM   18  C   UNL     1      -6.171   3.048 -30.084  1.00  0.00     0.003 A 
HETATM   19  C   UNL     1      -6.677   1.757 -29.955  1.00  0.00     0.001 A 
HETATM   20  C   UNL     1      -5.944   0.664 -30.425  1.00  0.00     0.011 A 
BRANCH  16  21
HETATM   21  O   UNL     1      -2.951   2.303 -31.717  1.00  0.00    -0.355 OA
HETATM   22  C   UNL     1      -2.887   3.418 -32.604  1.00  0.00     0.210 C 
ENDBRANCH  16  21
ENDBRANCH  14  15
ENDBRANCH  12  14
ENDBRANCH   1  12
BRANCH   3  23
HETATM   23  N   UNL     1      -7.885   0.357 -35.278  1.00  0.00    -0.259 NA
HETATM   24  H   UNL     1      -8.628  -0.255 -35.631  1.00  0.00     0.130 HD
BRANCH  23  25
HETATM   25  C   UNL     1      -8.411   1.262 -34.267  1.00  0.00     0.121 C 
BRANCH  25  26
HETATM   26  C   UNL     1      -9.402   0.491 -33.448  1.00  0.00    -0.022 C 
HETATM   27  C   UNL     1      -9.357   0.337 -32.118  1.00  0.00     0.008 C 
ENDBRANCH  25  26
ENDBRANCH  23  25
ENDBRANCH   3  23
TORSDOF 7
ENDMDL
MODEL 3
REMARK VINA RESULT:      -7.7      2.483      4.980
REMARK  7 active torsions:
REMARK  status: ('A' for Active; 'I' for Inactive)
REMARK    1  A    between atoms: O_2  and  C_3 
REMARK    2  A    between atoms: C_4  and  C_5 
REMARK    3  A    between atoms: C_5  and  N_6 
REMARK    4  A    between atoms: N_6  and  C_7 
REMARK    5  A    between atoms: C_9  and  N_10 
REMARK    6  A    between atoms: N_10  and  C_11 
REMARK    7  A    between atoms: C_11  and  C_12 
ROOT
HETATM    1  C   UNL     1      -5.989   0.864 -32.166  1.00  0.00     0.119 A 
HETATM    2  N   UNL     1      -4.699   1.223 -32.314  1.00  0.00    -0.207 NA
HETATM    3  C   UNL     1      -4.334   2.442 -31.898  1.00  0.00     0.181 A 
HETATM    4  N   UNL     1      -5.170   3.294 -31.321  1.00  0.00    -0.330 N 
HETATM    5  H   UNL     1      -4.777   4.154 -30.962  1.00  0.00     0.168 HD
HETATM    6  C   UNL     1      -6.469   3.010 -31.187  1.00  0.00     0.048 A 
HETATM    7  C   UNL     1      -6.948   1.764 -31.642  1.00  0.00     0.031 A 
HETATM    8  C   UNL     1      -7.333   3.944 -30.597  1.00  0.00     0.030 A 
HETATM    9  C   UNL     1      -8.690   3.658 -30.468  1.00  0.00     0.002 A 
HETATM   10  C   UNL     1      -9.191   2.446 -30.933  1.00  0.00     0.001 A 
HETATM   11  C   UNL     1      -8.334   1.508 -31.516  1.00  0.00     0.017 A 
ENDROOT
BRANCH   1  12
HETATM   12  N   UNL     1      -6.396  -0.402 -32.610  1.00  0.00    -0.272 NA
HETATM   13  H   UNL     1      -6.009  -1.138 -32.026  1.00  0.00     0.129 HD
BRANCH  12  14
HETATM   14  C   UNL     1      -6.132  -0.739 -34.017  1.00  0.00     0.135 C 
BRANCH  14  15
HETATM   15  C   UNL     1      -5.812  -2.197 -34.255  1.00  0.00    -0.012 A 
HETATM   16  C   UNL     1      -4.538  -2.669 -33.883  1.00  0.00     0.075 A 
HETATM   17  C   UNL     1      -4.208  -4.021 -34.012  1.00  0.00     0.037 A 
HETATM   18  C   UNL     1      -5.131  -4.911 -34.559  1.00  0.00     0.003 A 
HETATM   19  C   UNL     1      -6.382  -4.453 -34.967  1.00  0.00     0.001 A 
HETATM   20  C   UNL     1      -6.723  -3.106 -34.812  1.00  0.00     0.011 A 
BRANCH  16  21
HETATM   21  O   UNL     1      -3.674  -1.757 -33.328  1.00  0.00    -0.355 OA
HETATM   22  C   UNL     1      -3.214  -2.128 -32.030  1.00  0.00     0.210 C 
ENDBRANCH  16  21
ENDBRANCH  14  15
ENDBRANCH  12  14
ENDBRANCH   1  12
BRANCH   3  23
HETATM   23  N   UNL     1      -2.993   2.776 -32.011  1.00  0.00    -0.259 NA
HETATM   24  H   UNL     1      -2.774   2.625 -33.001  1.00  0.00     0.130 HD
BRANCH  23  25
HETATM   25  C   UNL     1      -2.625   4.126 -31.611  1.00  0.00     0.121 C 
BRANCH  25  26
HETATM   26  C   UNL     1      -1.731   4.682 -32.678  1.00  0.00    -0.022 C 
HETATM   27  C   UNL     1      -2.048   4.791 -33.976  1.00  0.00     0.008 C 
ENDBRANCH  25  26
ENDBRANCH  23  25
ENDBRANCH   3  23
TORSDOF 7
ENDMDL
MODEL 4
REMARK VINA RESULT:      -7.6      2.397      7.361
REMARK  7 active torsions:
REMARK  status: ('A' for Active; 'I' for Inactive)
REMARK    1  A    between atoms: O_2  and  C_3 
REMARK    2  A    between atoms: C_4  and  C_5 
REMARK    3  A    between atoms: C_5  and  N_6 
REMARK    4  A    between atoms: N_6  and  C_7 
REMARK    5  A    between atoms: C_9  and  N_10 
REMARK    6  A    between atoms: N_10  and  C_11 
REMARK    7  A    between atoms: C_11  and  C_12 
ROOT
HETATM    1  C   UNL     1      -6.428  -0.845 -34.005  1.00  0.00     0.119 A 
HETATM    2  N   UNL     1      -5.600   0.051 -33.433  1.00  0.00    -0.207 NA
HETATM    3  C   UNL     1      -4.366  -0.352 -33.108  1.00  0.00     0.181 A 
HETATM    4  N   UNL     1      -3.912  -1.574 -33.351  1.00  0.00    -0.330 N 
HETATM    5  H   UNL     1      -2.937  -1.753 -33.150  1.00  0.00     0.168 HD
HETATM    6  C   UNL     1      -4.701  -2.517 -33.876  1.00  0.00     0.048 A 
HETATM    7  C   UNL     1      -6.033  -2.189 -34.206  1.00  0.00     0.031 A 
HETATM    8  C   UNL     1      -4.199  -3.807 -34.096  1.00  0.00     0.030 A 
HETATM    9  C   UNL     1      -5.021  -4.796 -34.631  1.00  0.00     0.002 A 
HETATM   10  C   UNL     1      -6.347  -4.505 -34.939  1.00  0.00     0.001 A 
HETATM   11  C   UNL     1      -6.851  -3.219 -34.728  1.00  0.00     0.017 A 
ENDROOT
BRANCH   1  12
HETATM   12  N   UNL     1      -7.731  -0.448 -34.338  1.00  0.00    -0.272 NA
HETATM   13  H   UNL     1      -7.722   0.320 -35.004  1.00  0.00     0.129 HD
BRANCH  12  14
HETATM   14  C   UNL     1      -8.630  -0.091 -33.230  1.00  0.00     0.135 C 
BRANCH  14  15
HETATM   15  C   UNL     1      -9.712   0.896 -33.605  1.00  0.00    -0.012 A 
HETATM   16  C   UNL     1      -9.322   2.157 -34.099  1.00  0.00     0.075 A 
HETATM   17  C   UNL     1     -10.275   3.084 -34.528  1.00  0.00     0.037 A 
HETATM   18  C   UNL     1     -11.632   2.783 -34.425  1.00  0.00     0.003 A 
HETATM   19  C   UNL     1     -12.035   1.556 -33.903  1.00  0.00     0.001 A 
HETATM   20  C   UNL     1     -11.082   0.617 -33.500  1.00  0.00     0.011 A 
BRANCH  16  21
HETATM   21  O   UNL     1      -7.973   2.394 -34.202  1.00  0.00    -0.355 OA
HETATM   22  C   UNL     1      -7.523   3.473 -33.384  1.00  0.00     0.210 C 
ENDBRANCH  16  21
ENDBRANCH  14  15
ENDBRANCH  12  14
ENDBRANCH   1  12
BRANCH   3  23
HETATM   23  N   UNL     1      -3.510   0.595 -32.567  1.00  0.00    -0.259 NA
HETATM   24  H   UNL     1      -2.961   0.930 -33.365  1.00  0.00     0.130 HD
BRANCH  23  25
HETATM   25  C   UNL     1      -4.133   1.713 -31.876  1.00  0.00     0.121 C 
BRANCH  25  26
HETATM   26  C   UNL     1      -3.154   2.849 -31.888  1.00  0.00    -0.022 C 
HETATM   27  C   UNL     1      -3.066   3.787 -32.842  1.00  0.00     0.008 C 
ENDBRANCH  25  26
ENDBRANCH  23  25
ENDBRANCH   3  23
TORSDOF 7
ENDMDL
MODEL 5
REMARK VINA RESULT:      -7.6      1.830      1.895
REMARK  7 active torsions:
REMARK  status: ('A' for Active; 'I' for Inactive)
REMARK    1  A    between atoms: O_2  and  C_3 
REMARK    2  A    between atoms: C_4  and  C_5 
REMARK    3  A    between atoms: C_5  and  N_6 
REMARK    4  A    between atoms: N_6  and  C_7 
REMARK    5  A    between atoms: C_9  and  N_10 
REMARK    6  A    between atoms: N_10  and  C_11 
REMARK    7  A    between atoms: C_11  and  C_12 
ROOT
HETATM    1  C   UNL     1      -8.366   0.541 -33.484  1.00  0.00     0.119 A 
HETATM    2  N   UNL     1      -9.688   0.311 -33.367  1.00  0.00    -0.207 NA
HETATM    3  C   UNL     1     -10.514   1.365 -33.395  1.00  0.00     0.181 A 
HETATM    4  N   UNL     1     -10.096   2.612 -33.565  1.00  0.00    -0.330 N 
HETATM    5  H   UNL     1     -10.805   3.327 -33.663  1.00  0.00     0.168 HD
HETATM    6  C   UNL     1      -8.794   2.904 -33.645  1.00  0.00     0.048 A 
HETATM    7  C   UNL     1      -7.853   1.856 -33.576  1.00  0.00     0.031 A 
HETATM    8  C   UNL     1      -8.383   4.235 -33.798  1.00  0.00     0.030 A 
HETATM    9  C   UNL     1      -7.027   4.546 -33.866  1.00  0.00     0.002 A 
HETATM   10  C   UNL     1      -6.078   3.533 -33.774  1.00  0.00     0.001 A 
HETATM   11  C   UNL     1      -6.481   2.202 -33.628  1.00  0.00     0.017 A 
ENDROOT
BRANCH   1  12
HETATM   12  N   UNL     1      -7.483  -0.548 -33.440  1.00  0.00    -0.272 NA
HETATM   13  H   UNL     1      -6.594  -0.283 -33.023  1.00  0.00     0.129 HD
BRANCH  12  14
HETATM   14  C   UNL     1      -7.213  -1.249 -34.704  1.00  0.00     0.135 C 
BRANCH  14  15
HETATM   15  C   UNL     1      -6.259  -2.414 -34.575  1.00  0.00    -0.012 A 
HETATM   16  C   UNL     1      -4.961  -2.162 -34.090  1.00  0.00     0.075 A 
HETATM   17  C   UNL     1      -4.058  -3.208 -33.881  1.00  0.00     0.037 A 
HETATM   18  C   UNL     1      -4.425  -4.515 -34.199  1.00  0.00     0.003 A 
HETATM   19  C   UNL     1      -5.692  -4.776 -34.715  1.00  0.00     0.001 A 
HETATM   20  C   UNL     1      -6.605  -3.734 -34.897  1.00  0.00     0.011 A 
BRANCH  16  21
HETATM   21  O   UNL     1      -4.658  -0.861 -33.770  1.00  0.00    -0.355 OA
HETATM   22  C   UNL     1      -3.520  -0.737 -32.919  1.00  0.00     0.210 C 
ENDBRANCH  16  21
ENDBRANCH  14  15
ENDBRANCH  12  14
ENDBRANCH   1  12
BRANCH   3  23
HETATM   23  N   UNL     1     -11.875   1.108 -33.324  1.00  0.00    -0.259 NA
HETATM   24  H   UNL     1     -12.213   1.728 -32.582  1.00  0.00     0.130 HD
BRANCH  23  25
HETATM   25  C   UNL     1     -12.639   1.314 -34.545  1.00  0.00     0.121 C 
BRANCH  25  26
HETATM   26  C   UNL     1     -14.064   0.955 -34.247  1.00  0.00    -0.022 C 
HETATM   27  C   UNL     1     -14.773   1.397 -33.199  1.00  0.00     0.008 C 
ENDBRANCH  25  26
ENDBRANCH  23  25
ENDBRANCH   3  23
TORSDOF 7
ENDMDL
MODEL 6
REMARK VINA RESULT:      -7.5      2.462      7.341
REMARK  7 active torsions:
REMARK  status: ('A' for Active; 'I' for Inactive)
REMARK    1  A    between atoms: O_2  and  C_3 
REMARK    2  A    between atoms: C_4  and  C_5 
REMARK    3  A    between atoms: C_5  and  N_6 
REMARK    4  A    between atoms: N_6  and  C_7 
REMARK    5  A    between atoms: C_9  and  N_10 
REMARK    6  A    between atoms: N_10  and  C_11 
REMARK    7  A    between atoms: C_11  and  C_12 
ROOT
HETATM    1  C   UNL     1      -7.312  -0.123 -33.475  1.00  0.00     0.119 A 
HETATM    2  N   UNL     1      -6.867   0.907 -32.730  1.00  0.00    -0.207 NA
HETATM    3  C   UNL     1      -5.575   0.919 -32.380  1.00  0.00     0.181 A 
HETATM    4  N   UNL     1      -4.711  -0.015 -32.758  1.00  0.00    -0.330 N 
HETATM    5  H   UNL     1      -3.740   0.131 -32.518  1.00  0.00     0.168 HD
HETATM    6  C   UNL     1      -5.104  -1.081 -33.461  1.00  0.00     0.048 A 
HETATM    7  C   UNL     1      -6.460  -1.195 -33.832  1.00  0.00     0.031 A 
HETATM    8  C   UNL     1      -4.171  -2.064 -33.823  1.00  0.00     0.030 A 
HETATM    9  C   UNL     1      -4.579  -3.184 -34.543  1.00  0.00     0.002 A 
HETATM   10  C   UNL     1      -5.916  -3.333 -34.897  1.00  0.00     0.001 A 
HETATM   11  C   UNL     1      -6.850  -2.354 -34.546  1.00  0.00     0.017 A 
ENDROOT
BRANCH   1  12
HETATM   12  N   UNL     1      -8.666  -0.162 -33.837  1.00  0.00    -0.272 NA
HETATM   13  H   UNL     1      -8.809   0.228 -34.765  1.00  0.00     0.129 HD
BRANCH  12  14
HETATM   14  C   UNL     1      -9.628   0.463 -32.917  1.00  0.00     0.135 C 
BRANCH  14  15
HETATM   15  C   UNL     1     -10.880   0.979 -33.588  1.00  0.00    -0.012 A 
HETATM   16  C   UNL     1     -10.788   2.157 -34.355  1.00  0.00     0.075 A 
HETATM   17  C   UNL     1     -11.894   2.644 -35.057  1.00  0.00     0.037 A 
HETATM   18  C   UNL     1     -13.120   1.987 -34.962  1.00  0.00     0.003 A 
HETATM   19  C   UNL     1     -13.237   0.842 -34.177  1.00  0.00     0.001 A 
HETATM   20  C   UNL     1     -12.124   0.338 -33.498  1.00  0.00     0.011 A 
BRANCH  16  21
HETATM   21  O   UNL     1      -9.553   2.753 -34.434  1.00  0.00    -0.355 OA
HETATM   22  C   UNL     1      -9.587   4.161 -34.210  1.00  0.00     0.210 C 
ENDBRANCH  16  21
ENDBRANCH  14  15
ENDBRANCH  12  14
ENDBRANCH   1  12
BRANCH   3  23
HETATM   23  N   UNL     1      -5.121   2.011 -31.657  1.00  0.00    -0.259 NA
HETATM   24  H   UNL     1      -5.725   2.037 -30.829  1.00  0.00     0.130 HD
BRANCH  23  25
HETATM   25  C   UNL     1      -3.721   1.992 -31.263  1.00  0.00     0.121 C 
BRANCH  25  26
HETATM   26  C   UNL     1      -3.140   3.330 -31.609  1.00  0.00    -0.022 C 
HETATM   27  C   UNL     1      -2.831   3.746 -32.845  1.00  0.00     0.008 C 
ENDBRANCH  25  26
ENDBRANCH  23  25
ENDBRANCH   3  23
TORSDOF 7
ENDMDL
MODEL 7
REMARK VINA RESULT:      -7.4      2.644      4.698
REMARK  7 active torsions:
REMARK  status: ('A' for Active; 'I' for Inactive)
REMARK    1  A    between atoms: O_2  and  C_3 
REMARK    2  A    between atoms: C_4  and  C_5 
REMARK    3  A    between atoms: C_5  and  N_6 
REMARK    4  A    between atoms: N_6  and  C_7 
REMARK    5  A    between atoms: C_9  and  N_10 
REMARK    6  A    between atoms: N_10  and  C_11 
REMARK    7  A    between atoms: C_11  and  C_12 
ROOT
HETATM    1  C   UNL     1      -7.550   1.549 -32.937  1.00  0.00     0.119 A 
HETATM    2  N   UNL     1      -6.772   2.610 -33.229  1.00  0.00    -0.207 NA
HETATM    3  C   UNL     1      -7.347   3.670 -33.810  1.00  0.00     0.181 A 
HETATM    4  N   UNL     1      -8.644   3.737 -34.079  1.00  0.00    -0.330 N 
HETATM    5  H   UNL     1      -8.996   4.615 -34.436  1.00  0.00     0.168 HD
HETATM    6  C   UNL     1      -9.456   2.700 -33.851  1.00  0.00     0.048 A 
HETATM    7  C   UNL     1      -8.921   1.525 -33.283  1.00  0.00     0.031 A 
HETATM    8  C   UNL     1     -10.818   2.793 -34.172  1.00  0.00     0.030 A 
HETATM    9  C   UNL     1     -11.665   1.710 -33.949  1.00  0.00     0.002 A 
HETATM   10  C   UNL     1     -11.156   0.530 -33.414  1.00  0.00     0.001 A 
HETATM   11  C   UNL     1      -9.801   0.433 -33.086  1.00  0.00     0.017 A 
ENDROOT
BRANCH   1  12
HETATM   12  N   UNL     1      -6.963   0.422 -32.344  1.00  0.00    -0.272 NA
HETATM   13  H   UNL     1      -6.873   0.541 -31.338  1.00  0.00     0.129 HD
BRANCH  12  14
HETATM   14  C   UNL     1      -5.666  -0.022 -32.876  1.00  0.00     0.135 C 
BRANCH  14  15
HETATM   15  C   UNL     1      -5.714  -1.349 -33.597  1.00  0.00    -0.012 A 
HETATM   16  C   UNL     1      -4.539  -2.124 -33.645  1.00  0.00     0.075 A 
HETATM   17  C   UNL     1      -4.540  -3.392 -34.234  1.00  0.00     0.037 A 
HETATM   18  C   UNL     1      -5.703  -3.881 -34.825  1.00  0.00     0.003 A 
HETATM   19  C   UNL     1      -6.864  -3.111 -34.819  1.00  0.00     0.001 A 
HETATM   20  C   UNL     1      -6.872  -1.856 -34.205  1.00  0.00     0.011 A 
BRANCH  16  21
HETATM   21  O   UNL     1      -3.427  -1.607 -33.028  1.00  0.00    -0.355 OA
HETATM   22  C   UNL     1      -3.023  -2.342 -31.875  1.00  0.00     0.210 C 
ENDBRANCH  16  21
ENDBRANCH  14  15
ENDBRANCH  12  14
ENDBRANCH   1  12
BRANCH   3  23
HETATM   23  N   UNL     1      -6.544   4.773 -34.058  1.00  0.00    -0.259 NA
HETATM   24  H   UNL     1      -7.000   5.540 -33.554  1.00  0.00     0.130 HD
BRANCH  23  25
HETATM   25  C   UNL     1      -5.149   4.663 -33.661  1.00  0.00     0.121 C 
BRANCH  25  26
HETATM   26  C   UNL     1      -4.317   5.164 -34.802  1.00  0.00    -0.022 C 
HETATM   27  C   UNL     1      -2.978   5.223 -34.819  1.00  0.00     0.008 C 
ENDBRANCH  25  26
ENDBRANCH  23  25
ENDBRANCH   3  23
TORSDOF 7
ENDMDL
MODEL 8
REMARK VINA RESULT:      -7.4      3.504      6.313
REMARK  7 active torsions:
REMARK  status: ('A' for Active; 'I' for Inactive)
REMARK    1  A    between atoms: O_2  and  C_3 
REMARK    2  A    between atoms: C_4  and  C_5 
REMARK    3  A    between atoms: C_5  and  N_6 
REMARK    4  A    between atoms: N_6  and  C_7 
REMARK    5  A    between atoms: C_9  and  N_10 
REMARK    6  A    between atoms: N_10  and  C_11 
REMARK    7  A    between atoms: C_11  and  C_12 
ROOT
HETATM    1  C   UNL     1      -4.259   1.668 -31.318  1.00  0.00     0.119 A 
HETATM    2  N   UNL     1      -3.058   2.251 -31.497  1.00  0.00    -0.207 NA
HETATM    3  C   UNL     1      -2.941   3.553 -31.207  1.00  0.00     0.181 A 
HETATM    4  N   UNL     1      -3.938   4.282 -30.725  1.00  0.00    -0.330 N 
HETATM    5  H   UNL     1      -3.725   5.233 -30.453  1.00  0.00     0.168 HD
HETATM    6  C   UNL     1      -5.162   3.769 -30.567  1.00  0.00     0.048 A 
HETATM    7  C   UNL     1      -5.383   2.414 -30.893  1.00  0.00     0.031 A 
HETATM    8  C   UNL     1      -6.202   4.573 -30.080  1.00  0.00     0.030 A 
HETATM    9  C   UNL     1      -7.482   4.046 -29.928  1.00  0.00     0.002 A 
HETATM   10  C   UNL     1      -7.732   2.720 -30.268  1.00  0.00     0.001 A 
HETATM   11  C   UNL     1      -6.698   1.911 -30.748  1.00  0.00     0.017 A 
ENDROOT
BRANCH   1  12
HETATM   12  N   UNL     1      -4.406   0.309 -31.632  1.00  0.00    -0.272 NA
HETATM   13  H   UNL     1      -4.015  -0.281 -30.903  1.00  0.00     0.129 HD
BRANCH  12  14
HETATM   14  C   UNL     1      -3.878  -0.144 -32.928  1.00  0.00     0.135 C 
BRANCH  14  15
HETATM   15  C   UNL     1      -4.672  -1.262 -33.563  1.00  0.00    -0.012 A 
HETATM   16  C   UNL     1      -5.973  -0.978 -34.024  1.00  0.00     0.075 A 
HETATM   17  C   UNL     1      -6.728  -1.951 -34.684  1.00  0.00     0.037 A 
HETATM   18  C   UNL     1      -6.212  -3.235 -34.849  1.00  0.00     0.003 A 
HETATM   19  C   UNL     1      -4.943  -3.543 -34.365  1.00  0.00     0.001 A 
HETATM   20  C   UNL     1      -4.176  -2.563 -33.731  1.00  0.00     0.011 A 
BRANCH  16  21
HETATM   21  O   UNL     1      -6.424   0.308 -33.857  1.00  0.00    -0.355 OA
HETATM   22  C   UNL     1      -7.058   0.842 -35.018  1.00  0.00     0.210 C 
ENDBRANCH  16  21
ENDBRANCH  14  15
ENDBRANCH  12  14
ENDBRANCH   1  12
BRANCH   3  23
HETATM   23  N   UNL     1      -1.687   4.126 -31.348  1.00  0.00    -0.259 NA
HETATM   24  H   UNL     1      -1.058   3.331 -31.500  1.00  0.00     0.130 HD
BRANCH  23  25
HETATM   25  C   UNL     1      -1.535   5.103 -32.416  1.00  0.00     0.121 C 
BRANCH  25  26
HETATM   26  C   UNL     1      -0.517   6.105 -31.965  1.00  0.00    -0.022 C 
HETATM   27  C   UNL     1       0.372   5.919 -30.979  1.00  0.00     0.008 C 
ENDBRANCH  25  26
ENDBRANCH  23  25
ENDBRANCH   3  23
TORSDOF 7
ENDMDL
MODEL 9
REMARK VINA RESULT:      -7.4      2.434      5.339
REMARK  7 active torsions:
REMARK  status: ('A' for Active; 'I' for Inactive)
REMARK    1  A    between atoms: O_2  and  C_3 
REMARK    2  A    between atoms: C_4  and  C_5 
REMARK    3  A    between atoms: C_5  and  N_6 
REMARK    4  A    between atoms: N_6  and  C_7 
REMARK    5  A    between atoms: C_9  and  N_10 
REMARK    6  A    between atoms: N_10  and  C_11 
REMARK    7  A    between atoms: C_11  and  C_12 
ROOT
HETATM    1  C   UNL     1      -7.332   0.436 -31.359  1.00  0.00     0.119 A 
HETATM    2  N   UNL     1      -8.637   0.729 -31.519  1.00  0.00    -0.207 NA
HETATM    3  C   UNL     1      -9.262   0.246 -32.600  1.00  0.00     0.181 A 
HETATM    4  N   UNL     1      -8.668  -0.529 -33.498  1.00  0.00    -0.330 N 
HETATM    5  H   UNL     1      -9.248  -0.916 -34.230  1.00  0.00     0.168 HD
HETATM    6  C   UNL     1      -7.365  -0.817 -33.414  1.00  0.00     0.048 A 
HETATM    7  C   UNL     1      -6.620  -0.309 -32.329  1.00  0.00     0.031 A 
HETATM    8  C   UNL     1      -6.760  -1.617 -34.393  1.00  0.00     0.030 A 
HETATM    9  C   UNL     1      -5.400  -1.907 -34.318  1.00  0.00     0.002 A 
HETATM   10  C   UNL     1      -4.638  -1.396 -33.272  1.00  0.00     0.001 A 
HETATM   11  C   UNL     1      -5.237  -0.603 -32.288  1.00  0.00     0.017 A 
ENDROOT
BRANCH   1  12
HETATM   12  N   UNL     1      -6.655   0.947 -30.242  1.00  0.00    -0.272 NA
HETATM   13  H   UNL     1      -7.111   0.667 -29.377  1.00  0.00     0.129 HD
BRANCH  12  14
HETATM   14  C   UNL     1      -6.427   2.399 -30.197  1.00  0.00     0.135 C 
BRANCH  14  15
HETATM   15  C   UNL     1      -5.378   2.891 -31.167  1.00  0.00    -0.012 A 
HETATM   16  C   UNL     1      -5.797   3.666 -32.266  1.00  0.00     0.075 A 
HETATM   17  C   UNL     1      -4.867   4.209 -33.156  1.00  0.00     0.037 A 
HETATM   18  C   UNL     1      -3.509   3.945 -32.987  1.00  0.00     0.003 A 
HETATM   19  C   UNL     1      -3.081   3.148 -31.928  1.00  0.00     0.001 A 
HETATM   20  C   UNL     1      -4.008   2.629 -31.020  1.00  0.00     0.011 A 
BRANCH  16  21
HETATM   21  O   UNL     1      -7.143   3.916 -32.373  1.00  0.00    -0.355 OA
HETATM   22  C   UNL     1      -7.517   4.476 -33.631  1.00  0.00     0.210 C 
ENDBRANCH  16  21
ENDBRANCH  14  15
ENDBRANCH  12  14
ENDBRANCH   1  12
BRANCH   3  23
HETATM   23  N   UNL     1     -10.617   0.513 -32.724  1.00  0.00    -0.259 NA
HETATM   24  H   UNL     1     -10.843   1.076 -31.898  1.00  0.00     0.130 HD
BRANCH  23  25
HETATM   25  C   UNL     1     -11.034   1.201 -33.936  1.00  0.00     0.121 C 
BRANCH  25  26
HETATM   26  C   UNL     1     -12.530   1.126 -34.001  1.00  0.00    -0.022 C 
HETATM   27  C   UNL     1     -13.266   0.041 -33.720  1.00  0.00     0.008 C 
ENDBRANCH  25  26
ENDBRANCH  23  25
ENDBRANCH   3  23
TORSDOF 7
ENDMDL
MODEL 10
REMARK VINA RESULT:      -7.3     14.056     15.241
REMARK  7 active torsions:
REMARK  status: ('A' for Active; 'I' for Inactive)
REMARK    1  A    between atoms: O_2  and  C_3 
REMARK    2  A    between atoms: C_4  and  C_5 
REMARK    3  A    between atoms: C_5  and  N_6 
REMARK    4  A    between atoms: N_6  and  C_7 
REMARK    5  A    between atoms: C_9  and  N_10 
REMARK    6  A    between atoms: N_10  and  C_11 
REMARK    7  A    between atoms: C_11  and  C_12 
ROOT
HETATM    1  C   UNL     1      -4.127 -12.270 -38.181  1.00  0.00     0.119 A 
HETATM    2  N   UNL     1      -4.059 -12.619 -36.881  1.00  0.00    -0.207 NA
HETATM    3  C   UNL     1      -5.169 -13.089 -36.298  1.00  0.00     0.181 A 
HETATM    4  N   UNL     1      -6.316 -13.254 -36.944  1.00  0.00    -0.330 N 
HETATM    5  H   UNL     1      -7.070 -13.699 -36.438  1.00  0.00     0.168 HD
HETATM    6  C   UNL     1      -6.453 -12.886 -38.221  1.00  0.00     0.048 A 
HETATM    7  C   UNL     1      -5.344 -12.338 -38.899  1.00  0.00     0.031 A 
HETATM    8  C   UNL     1      -7.686 -13.050 -38.868  1.00  0.00     0.030 A 
HETATM    9  C   UNL     1      -7.839 -12.654 -40.195  1.00  0.00     0.002 A 
HETATM   10  C   UNL     1      -6.767 -12.086 -40.877  1.00  0.00     0.001 A 
HETATM   11  C   UNL     1      -5.533 -11.926 -40.239  1.00  0.00     0.017 A 
ENDROOT
BRANCH   1  12
HETATM   12  N   UNL     1      -2.980 -11.761 -38.806  1.00  0.00    -0.272 NA
HETATM   13  H   UNL     1      -2.974 -11.980 -39.798  1.00  0.00     0.129 HD
BRANCH  12  14
HETATM   14  C   UNL     1      -1.677 -12.143 -38.239  1.00  0.00     0.135 C 
BRANCH  14  15
HETATM   15  C   UNL     1      -1.115 -13.432 -38.792  1.00  0.00    -0.012 A 
HETATM   16  C   UNL     1      -0.802 -14.465 -37.887  1.00  0.00     0.075 A 
HETATM   17  C   UNL     1      -0.347 -15.705 -38.344  1.00  0.00     0.037 A 
HETATM   18  C   UNL     1      -0.154 -15.913 -39.709  1.00  0.00     0.003 A 
HETATM   19  C   UNL     1      -0.423 -14.888 -40.614  1.00  0.00     0.001 A 
HETATM   20  C   UNL     1      -0.905 -13.658 -40.160  1.00  0.00     0.011 A 
BRANCH  16  21
HETATM   21  O   UNL     1      -1.033 -14.217 -36.556  1.00  0.00    -0.355 OA
HETATM   22  C   UNL     1      -1.816 -15.225 -35.919  1.00  0.00     0.210 C 
ENDBRANCH  16  21
ENDBRANCH  14  15
ENDBRANCH  12  14
ENDBRANCH   1  12
BRANCH   3  23
HETATM   23  N   UNL     1      -5.070 -13.491 -34.975  1.00  0.00    -0.259 NA
HETATM   24  H   UNL     1      -5.411 -12.687 -34.437  1.00  0.00     0.130 HD
BRANCH  23  25
HETATM   25  C   UNL     1      -5.800 -14.694 -34.606  1.00  0.00     0.121 C 
BRANCH  25  26
HETATM   26  C   UNL     1      -6.313 -14.498 -33.211  1.00  0.00    -0.022 C 
HETATM   27  C   UNL     1      -5.563 -14.184 -32.145  1.00  0.00     0.008 C 
ENDBRANCH  25  26
ENDBRANCH  23  25
ENDBRANCH   3  23
TORSDOF 7
ENDMDL
