MODEL 1
REMARK VINA RESULT:     -10.4      0.000      0.000
REMARK  8 active torsions:
REMARK  status: ('A' for Active; 'I' for Inactive)
REMARK    1  A    between atoms: O_2  and  C_3 
REMARK    2  A    between atoms: C_4  and  C_5 
REMARK    3  A    between atoms: N_6  and  N_7 
REMARK    4  A    between atoms: C_18  and  C_19 
REMARK       I    between atoms: C_19  and  N_20 
REMARK    5  A    between atoms: N_20  and  C_21 
REMARK    6  A    between atoms: C_21  and  C_22 
REMARK    7  A    between atoms: C_22  and  C_23 
REMARK    8  A    between atoms: C_30  and  N_31 
ROOT
HETATM    1  N   UNL     1      -4.323   1.987 -31.211  1.00  0.00    -0.202 N 
HETATM    2  C   UNL     1      -4.801   0.930 -31.960  1.00  0.00     0.183 A 
HETATM    3  C   UNL     1      -6.191   1.020 -31.927  1.00  0.00     0.124 A 
HETATM    4  N   UNL     1      -6.963   0.159 -32.634  1.00  0.00    -0.242 NA
HETATM    5  C   UNL     1      -6.293  -0.794 -33.293  1.00  0.00     0.086 A 
HETATM    6  C   UNL     1      -4.876  -0.872 -33.303  1.00  0.00     0.088 A 
HETATM    7  N   UNL     1      -4.090   0.015 -32.662  1.00  0.00    -0.225 NA
HETATM    8  C   UNL     1      -7.033  -1.748 -33.982  1.00  0.00     0.034 A 
HETATM    9  C   UNL     1      -6.415  -2.791 -34.671  1.00  0.00     0.002 A 
HETATM   10  C   UNL     1      -5.030  -2.879 -34.675  1.00  0.00     0.002 A 
HETATM   11  C   UNL     1      -4.276  -1.917 -33.997  1.00  0.00     0.034 A 
HETATM   12  C   UNL     1      -6.549   2.124 -31.103  1.00  0.00     0.104 C 
HETATM   13  C   UNL     1      -5.378   2.517 -30.475  1.00  0.00     0.123 C 
ENDROOT
BRANCH  12  14
HETATM   14  C   UNL     1      -7.853   2.769 -31.016  1.00  0.00     0.257 C 
HETATM   15  N   UNL     1      -8.641   2.618 -32.137  1.00  0.00    -0.356 N 
HETATM   16  H   UNL     1      -8.299   1.915 -32.784  1.00  0.00     0.162 HD
HETATM   17  O   UNL     1      -8.241   3.298 -29.982  1.00  0.00    -0.267 OA
BRANCH  15  18
HETATM   18  C   UNL     1     -10.074   2.841 -32.154  1.00  0.00     0.127 C 
BRANCH  18  19
HETATM   19  C   UNL     1     -10.793   2.740 -33.506  1.00  0.00     0.053 C 
BRANCH  19  20
HETATM   20  C   UNL     1     -12.119   2.010 -33.496  1.00  0.00    -0.082 C 
HETATM   21  C   UNL     1     -13.365   2.829 -33.272  1.00  0.00     0.034 C 
HETATM   22  C   UNL     1     -14.606   1.979 -32.979  1.00  0.00     0.005 C 
HETATM   23  C   UNL     1     -14.679   0.761 -33.893  1.00  0.00     0.004 C 
HETATM   24  C   UNL     1     -13.439  -0.116 -33.739  1.00  0.00     0.027 C 
HETATM   25  C   UNL     1     -12.173   0.681 -33.702  1.00  0.00    -0.024 C 
ENDBRANCH  19  20
ENDBRANCH  18  19
ENDBRANCH  15  18
ENDBRANCH  12  14
BRANCH  13  26
HETATM   26  N   UNL     1      -5.130   3.430 -29.478  1.00  0.00    -0.286 NA
HETATM   27  H   UNL     1      -4.843   4.354 -29.809  1.00  0.00     0.125 HD
HETATM   28  H   UNL     1      -5.952   3.584 -28.878  1.00  0.00     0.125 HD
ENDBRANCH  13  26
BRANCH   1  29
HETATM   29  N   UNL     1      -3.112   2.633 -31.236  1.00  0.00    -0.176 NA
HETATM   30  C   UNL     1      -3.028   3.401 -32.283  1.00  0.00     0.153 C 
BRANCH  30  31
HETATM   31  C   UNL     1      -2.057   4.515 -32.364  1.00  0.00     0.016 A 
HETATM   32  C   UNL     1      -1.889   5.198 -33.582  1.00  0.00     0.080 A 
HETATM   33  C   UNL     1      -1.129   6.373 -33.594  1.00  0.00     0.037 A 
HETATM   34  C   UNL     1      -0.552   6.858 -32.416  1.00  0.00     0.003 A 
HETATM   35  C   UNL     1      -0.713   6.166 -31.217  1.00  0.00     0.001 A 
HETATM   36  C   UNL     1      -1.464   4.994 -31.188  1.00  0.00     0.016 A 
BRANCH  32  37
HETATM   37  O   UNL     1      -2.512   4.668 -34.681  1.00  0.00    -0.355 OA
HETATM   38  C   UNL     1      -3.653   5.346 -35.192  1.00  0.00     0.210 C 
ENDBRANCH  32  37
ENDBRANCH  30  31
ENDBRANCH   1  29
TORSDOF 8
ENDMDL
MODEL 2
REMARK VINA RESULT:     -10.3      2.088      8.470
REMARK  8 active torsions:
REMARK  status: ('A' for Active; 'I' for Inactive)
REMARK    1  A    between atoms: O_2  and  C_3 
REMARK    2  A    between atoms: C_4  and  C_5 
REMARK    3  A    between atoms: N_6  and  N_7 
REMARK    4  A    between atoms: C_18  and  C_19 
REMARK       I    between atoms: C_19  and  N_20 
REMARK    5  A    between atoms: N_20  and  C_21 
REMARK    6  A    between atoms: C_21  and  C_22 
REMARK    7  A    between atoms: C_22  and  C_23 
REMARK    8  A    between atoms: C_30  and  N_31 
ROOT
HETATM    1  N   UNL     1      -7.674   0.333 -32.950  1.00  0.00    -0.202 N 
HETATM    2  C   UNL     1      -8.651   1.156 -33.473  1.00  0.00     0.183 A 
HETATM    3  C   UNL     1      -8.138   2.450 -33.436  1.00  0.00     0.124 A 
HETATM    4  N   UNL     1      -8.834   3.493 -33.952  1.00  0.00    -0.242 NA
HETATM    5  C   UNL     1     -10.048   3.185 -34.425  1.00  0.00     0.086 A 
HETATM    6  C   UNL     1     -10.555   1.859 -34.441  1.00  0.00     0.088 A 
HETATM    7  N   UNL     1      -9.850   0.801 -33.996  1.00  0.00    -0.225 NA
HETATM    8  C   UNL     1     -10.838   4.223 -34.905  1.00  0.00     0.034 A 
HETATM    9  C   UNL     1     -12.126   3.993 -35.389  1.00  0.00     0.002 A 
HETATM   10  C   UNL     1     -12.631   2.701 -35.398  1.00  0.00     0.002 A 
HETATM   11  C   UNL     1     -11.840   1.649 -34.930  1.00  0.00     0.034 A 
HETATM   12  C   UNL     1      -6.848   2.404 -32.836  1.00  0.00     0.104 C 
HETATM   13  C   UNL     1      -6.724   1.126 -32.314  1.00  0.00     0.123 C 
ENDROOT
BRANCH  12  14
HETATM   14  C   UNL     1      -5.832   3.449 -32.854  1.00  0.00     0.257 C 
HETATM   15  N   UNL     1      -5.627   4.025 -34.090  1.00  0.00    -0.356 N 
HETATM   16  H   UNL     1      -6.344   3.795 -34.770  1.00  0.00     0.162 HD
HETATM   17  O   UNL     1      -5.297   3.844 -31.825  1.00  0.00    -0.267 OA
BRANCH  15  18
HETATM   18  C   UNL     1      -4.959   5.297 -34.288  1.00  0.00     0.127 C 
BRANCH  18  19
HETATM   19  C   UNL     1      -3.488   5.266 -34.726  1.00  0.00     0.053 C 
BRANCH  19  20
HETATM   20  C   UNL     1      -2.479   5.696 -33.683  1.00  0.00    -0.082 C 
HETATM   21  C   UNL     1      -1.924   4.632 -32.770  1.00  0.00     0.034 C 
HETATM   22  C   UNL     1      -1.157   5.201 -31.570  1.00  0.00     0.005 C 
HETATM   23  C   UNL     1      -0.259   6.363 -31.980  1.00  0.00     0.004 C 
HETATM   24  C   UNL     1      -1.072   7.487 -32.618  1.00  0.00     0.027 C 
HETATM   25  C   UNL     1      -2.085   6.980 -33.596  1.00  0.00    -0.024 C 
ENDBRANCH  19  20
ENDBRANCH  18  19
ENDBRANCH  15  18
ENDBRANCH  12  14
BRANCH  13  26
HETATM   26  N   UNL     1      -5.767   0.546 -31.515  1.00  0.00    -0.286 NA
HETATM   27  H   UNL     1      -6.094   0.283 -30.583  1.00  0.00     0.125 HD
HETATM   28  H   UNL     1      -5.377  -0.309 -31.934  1.00  0.00     0.125 HD
ENDBRANCH  13  26
BRANCH   1  29
HETATM   29  N   UNL     1      -7.443  -1.010 -33.118  1.00  0.00    -0.176 NA
HETATM   30  C   UNL     1      -6.757  -1.221 -34.203  1.00  0.00     0.153 C 
BRANCH  30  31
HETATM   31  C   UNL     1      -6.007  -2.477 -34.427  1.00  0.00     0.016 A 
HETATM   32  C   UNL     1      -4.713  -2.614 -33.894  1.00  0.00     0.080 A 
HETATM   33  C   UNL     1      -4.100  -3.871 -33.932  1.00  0.00     0.037 A 
HETATM   34  C   UNL     1      -4.765  -4.969 -34.487  1.00  0.00     0.003 A 
HETATM   35  C   UNL     1      -6.042  -4.821 -35.025  1.00  0.00     0.001 A 
HETATM   36  C   UNL     1      -6.665  -3.575 -34.998  1.00  0.00     0.016 A 
BRANCH  32  37
HETATM   37  O   UNL     1      -4.147  -1.494 -33.345  1.00  0.00    -0.355 OA
HETATM   38  C   UNL     1      -3.286  -1.662 -32.225  1.00  0.00     0.210 C 
ENDBRANCH  32  37
ENDBRANCH  30  31
ENDBRANCH   1  29
TORSDOF 8
ENDMDL
MODEL 3
REMARK VINA RESULT:      -9.7      2.092      8.645
REMARK  8 active torsions:
REMARK  status: ('A' for Active; 'I' for Inactive)
REMARK    1  A    between atoms: O_2  and  C_3 
REMARK    2  A    between atoms: C_4  and  C_5 
REMARK    3  A    between atoms: N_6  and  N_7 
REMARK    4  A    between atoms: C_18  and  C_19 
REMARK       I    between atoms: C_19  and  N_20 
REMARK    5  A    between atoms: N_20  and  C_21 
REMARK    6  A    between atoms: C_21  and  C_22 
REMARK    7  A    between atoms: C_22  and  C_23 
REMARK    8  A    between atoms: C_30  and  N_31 
ROOT
HETATM    1  N   UNL     1      -7.268   1.093 -33.317  1.00  0.00    -0.202 N 
HETATM    2  C   UNL     1      -6.719  -0.137 -33.624  1.00  0.00     0.183 A 
HETATM    3  C   UNL     1      -5.363  -0.050 -33.318  1.00  0.00     0.124 A 
HETATM    4  N   UNL     1      -4.550  -1.128 -33.441  1.00  0.00    -0.242 NA
HETATM    5  C   UNL     1      -5.136  -2.228 -33.928  1.00  0.00     0.086 A 
HETATM    6  C   UNL     1      -6.519  -2.289 -34.242  1.00  0.00     0.088 A 
HETATM    7  N   UNL     1      -7.356  -1.249 -34.063  1.00  0.00    -0.225 NA
HETATM    8  C   UNL     1      -4.339  -3.347 -34.140  1.00  0.00     0.034 A 
HETATM    9  C   UNL     1      -4.863  -4.525 -34.671  1.00  0.00     0.002 A 
HETATM   10  C   UNL     1      -6.212  -4.587 -34.991  1.00  0.00     0.002 A 
HETATM   11  C   UNL     1      -7.025  -3.473 -34.769  1.00  0.00     0.034 A 
HETATM   12  C   UNL     1      -5.089   1.271 -32.865  1.00  0.00     0.104 C 
HETATM   13  C   UNL     1      -6.233   2.004 -33.138  1.00  0.00     0.123 C 
ENDROOT
BRANCH  12  14
HETATM   14  C   UNL     1      -3.894   1.732 -32.170  1.00  0.00     0.257 C 
HETATM   15  N   UNL     1      -3.532   3.032 -32.457  1.00  0.00    -0.356 N 
HETATM   16  H   UNL     1      -4.251   3.556 -32.945  1.00  0.00     0.162 HD
HETATM   17  O   UNL     1      -3.338   1.045 -31.322  1.00  0.00    -0.267 OA
BRANCH  15  18
HETATM   18  C   UNL     1      -2.628   3.818 -31.639  1.00  0.00     0.127 C 
BRANCH  18  19
HETATM   19  C   UNL     1      -2.880   5.330 -31.554  1.00  0.00     0.053 C 
BRANCH  19  20
HETATM   20  C   UNL     1      -1.764   6.152 -30.947  1.00  0.00    -0.082 C 
HETATM   21  C   UNL     1      -2.092   6.983 -29.732  1.00  0.00     0.034 C 
HETATM   22  C   UNL     1      -0.999   7.998 -29.377  1.00  0.00     0.005 C 
HETATM   23  C   UNL     1       0.393   7.388 -29.500  1.00  0.00     0.004 C 
HETATM   24  C   UNL     1       0.644   6.874 -30.915  1.00  0.00     0.027 C 
HETATM   25  C   UNL     1      -0.523   6.119 -31.468  1.00  0.00    -0.024 C 
ENDBRANCH  19  20
ENDBRANCH  18  19
ENDBRANCH  15  18
ENDBRANCH  12  14
BRANCH  13  26
HETATM   26  N   UNL     1      -6.508   3.348 -33.050  1.00  0.00    -0.286 NA
HETATM   27  H   UNL     1      -7.249   3.673 -33.674  1.00  0.00     0.125 HD
HETATM   28  H   UNL     1      -6.793   3.625 -32.100  1.00  0.00     0.125 HD
ENDBRANCH  13  26
BRANCH   1  29
HETATM   29  N   UNL     1      -8.558   1.452 -33.014  1.00  0.00    -0.176 NA
HETATM   30  C   UNL     1      -9.250   1.623 -34.102  1.00  0.00     0.153 C 
BRANCH  30  31
HETATM   31  C   UNL     1     -10.730   1.595 -34.105  1.00  0.00     0.016 A 
HETATM   32  C   UNL     1     -11.438   2.566 -34.835  1.00  0.00     0.080 A 
HETATM   33  C   UNL     1     -12.819   2.408 -35.000  1.00  0.00     0.037 A 
HETATM   34  C   UNL     1     -13.478   1.304 -34.450  1.00  0.00     0.003 A 
HETATM   35  C   UNL     1     -12.770   0.355 -33.715  1.00  0.00     0.001 A 
HETATM   36  C   UNL     1     -11.395   0.499 -33.540  1.00  0.00     0.016 A 
BRANCH  32  37
HETATM   37  O   UNL     1     -10.709   3.599 -35.363  1.00  0.00    -0.355 OA
HETATM   38  C   UNL     1     -11.099   4.927 -35.035  1.00  0.00     0.210 C 
ENDBRANCH  32  37
ENDBRANCH  30  31
ENDBRANCH   1  29
TORSDOF 8
ENDMDL
MODEL 4
REMARK VINA RESULT:      -9.6      3.110      8.933
REMARK  8 active torsions:
REMARK  status: ('A' for Active; 'I' for Inactive)
REMARK    1  A    between atoms: O_2  and  C_3 
REMARK    2  A    between atoms: C_4  and  C_5 
REMARK    3  A    between atoms: N_6  and  N_7 
REMARK    4  A    between atoms: C_18  and  C_19 
REMARK       I    between atoms: C_19  and  N_20 
REMARK    5  A    between atoms: N_20  and  C_21 
REMARK    6  A    between atoms: C_21  and  C_22 
REMARK    7  A    between atoms: C_22  and  C_23 
REMARK    8  A    between atoms: C_30  and  N_31 
ROOT
HETATM    1  N   UNL     1      -5.220   2.730 -31.038  1.00  0.00    -0.202 N 
HETATM    2  C   UNL     1      -4.402   3.690 -31.600  1.00  0.00     0.183 A 
HETATM    3  C   UNL     1      -4.492   4.813 -30.782  1.00  0.00     0.124 A 
HETATM    4  N   UNL     1      -3.743   5.916 -31.025  1.00  0.00    -0.242 NA
HETATM    5  C   UNL     1      -2.982   5.854 -32.124  1.00  0.00     0.086 A 
HETATM    6  C   UNL     1      -2.914   4.700 -32.949  1.00  0.00     0.088 A 
HETATM    7  N   UNL     1      -3.600   3.571 -32.685  1.00  0.00    -0.225 NA
HETATM    8  C   UNL     1      -2.241   6.979 -32.465  1.00  0.00     0.034 A 
HETATM    9  C   UNL     1      -1.444   7.008 -33.609  1.00  0.00     0.002 A 
HETATM   10  C   UNL     1      -1.383   5.888 -34.425  1.00  0.00     0.002 A 
HETATM   11  C   UNL     1      -2.113   4.746 -34.085  1.00  0.00     0.034 A 
HETATM   12  C   UNL     1      -5.419   4.534 -29.738  1.00  0.00     0.104 C 
HETATM   13  C   UNL     1      -6.036   3.345 -30.094  1.00  0.00     0.123 C 
ENDROOT
BRANCH  12  14
HETATM   14  C   UNL     1      -5.608   5.288 -28.505  1.00  0.00     0.257 C 
HETATM   15  N   UNL     1      -4.456   5.851 -27.998  1.00  0.00    -0.356 N 
HETATM   16  H   UNL     1      -3.678   5.842 -28.649  1.00  0.00     0.162 HD
HETATM   17  O   UNL     1      -6.722   5.487 -28.037  1.00  0.00    -0.267 OA
BRANCH  15  18
HETATM   18  C   UNL     1      -4.442   6.921 -27.019  1.00  0.00     0.127 C 
BRANCH  18  19
HETATM   19  C   UNL     1      -3.472   8.087 -27.254  1.00  0.00     0.053 C 
BRANCH  19  20
HETATM   20  C   UNL     1      -2.056   7.703 -27.627  1.00  0.00    -0.082 C 
HETATM   21  C   UNL     1      -1.558   8.114 -28.989  1.00  0.00     0.034 C 
HETATM   22  C   UNL     1      -0.246   7.429 -29.389  1.00  0.00     0.005 C 
HETATM   23  C   UNL     1       0.739   7.385 -28.226  1.00  0.00     0.004 C 
HETATM   24  C   UNL     1       0.144   6.644 -27.031  1.00  0.00     0.027 C 
HETATM   25  C   UNL     1      -1.273   7.036 -26.758  1.00  0.00    -0.024 C 
ENDBRANCH  19  20
ENDBRANCH  18  19
ENDBRANCH  15  18
ENDBRANCH  12  14
BRANCH  13  26
HETATM   26  N   UNL     1      -7.097   2.660 -29.552  1.00  0.00    -0.286 NA
HETATM   27  H   UNL     1      -7.001   2.445 -28.557  1.00  0.00     0.125 HD
HETATM   28  H   UNL     1      -7.983   3.177 -29.647  1.00  0.00     0.125 HD
ENDBRANCH  13  26
BRANCH   1  29
HETATM   29  N   UNL     1      -5.206   1.361 -31.143  1.00  0.00    -0.176 NA
HETATM   30  C   UNL     1      -5.893   0.978 -32.179  1.00  0.00     0.153 C 
BRANCH  30  31
HETATM   31  C   UNL     1      -5.718  -0.360 -32.787  1.00  0.00     0.016 A 
HETATM   32  C   UNL     1      -6.740  -0.892 -33.595  1.00  0.00     0.080 A 
HETATM   33  C   UNL     1      -6.480  -2.055 -34.328  1.00  0.00     0.037 A 
HETATM   34  C   UNL     1      -5.228  -2.673 -34.258  1.00  0.00     0.003 A 
HETATM   35  C   UNL     1      -4.227  -2.148 -33.444  1.00  0.00     0.001 A 
HETATM   36  C   UNL     1      -4.469  -0.991 -32.706  1.00  0.00     0.016 A 
BRANCH  32  37
HETATM   37  O   UNL     1      -7.925  -0.206 -33.626  1.00  0.00    -0.355 OA
HETATM   38  C   UNL     1      -8.333   0.365 -34.863  1.00  0.00     0.210 C 
ENDBRANCH  32  37
ENDBRANCH  30  31
ENDBRANCH   1  29
TORSDOF 8
ENDMDL
MODEL 5
REMARK VINA RESULT:      -9.6      2.414      8.816
REMARK  8 active torsions:
REMARK  status: ('A' for Active; 'I' for Inactive)
REMARK    1  A    between atoms: O_2  and  C_3 
REMARK    2  A    between atoms: C_4  and  C_5 
REMARK    3  A    between atoms: N_6  and  N_7 
REMARK    4  A    between atoms: C_18  and  C_19 
REMARK       I    between atoms: C_19  and  N_20 
REMARK    5  A    between atoms: N_20  and  C_21 
REMARK    6  A    between atoms: C_21  and  C_22 
REMARK    7  A    between atoms: C_22  and  C_23 
REMARK    8  A    between atoms: C_30  and  N_31 
ROOT
HETATM    1  N   UNL     1      -6.432   0.653 -32.502  1.00  0.00    -0.202 N 
HETATM    2  C   UNL     1      -7.197   1.706 -32.965  1.00  0.00     0.183 A 
HETATM    3  C   UNL     1      -6.389   2.838 -32.902  1.00  0.00     0.124 A 
HETATM    4  N   UNL     1      -6.829   4.036 -33.360  1.00  0.00    -0.242 NA
HETATM    5  C   UNL     1      -8.092   4.045 -33.802  1.00  0.00     0.086 A 
HETATM    6  C   UNL     1      -8.901   2.879 -33.846  1.00  0.00     0.088 A 
HETATM    7  N   UNL     1      -8.458   1.667 -33.459  1.00  0.00    -0.225 NA
HETATM    8  C   UNL     1      -8.624   5.259 -34.221  1.00  0.00     0.034 A 
HETATM    9  C   UNL     1      -9.940   5.362 -34.670  1.00  0.00     0.002 A 
HETATM   10  C   UNL     1     -10.738   4.228 -34.705  1.00  0.00     0.002 A 
HETATM   11  C   UNL     1     -10.210   2.999 -34.298  1.00  0.00     0.034 A 
HETATM   12  C   UNL     1      -5.133   2.463 -32.347  1.00  0.00     0.104 C 
HETATM   13  C   UNL     1      -5.305   1.172 -31.872  1.00  0.00     0.123 C 
ENDROOT
BRANCH  12  14
HETATM   14  C   UNL     1      -3.898   3.236 -32.364  1.00  0.00     0.257 C 
HETATM   15  N   UNL     1      -3.848   4.212 -33.337  1.00  0.00    -0.356 N 
HETATM   16  H   UNL     1      -4.746   4.399 -33.771  1.00  0.00     0.162 HD
HETATM   17  O   UNL     1      -3.036   3.090 -31.506  1.00  0.00    -0.267 OA
BRANCH  15  18
HETATM   18  C   UNL     1      -2.914   5.322 -33.322  1.00  0.00     0.127 C 
BRANCH  18  19
HETATM   19  C   UNL     1      -3.095   6.387 -32.232  1.00  0.00     0.053 C 
BRANCH  19  20
HETATM   20  C   UNL     1      -1.869   6.695 -31.399  1.00  0.00    -0.082 C 
HETATM   21  C   UNL     1      -2.088   7.247 -30.014  1.00  0.00     0.034 C 
HETATM   22  C   UNL     1      -0.811   7.805 -29.373  1.00  0.00     0.005 C 
HETATM   23  C   UNL     1       0.385   6.892 -29.623  1.00  0.00     0.004 C 
HETATM   24  C   UNL     1       0.629   6.705 -31.119  1.00  0.00     0.027 C 
HETATM   25  C   UNL     1      -0.634   6.460 -31.881  1.00  0.00    -0.024 C 
ENDBRANCH  19  20
ENDBRANCH  18  19
ENDBRANCH  15  18
ENDBRANCH  12  14
BRANCH  13  26
HETATM   26  N   UNL     1      -4.495   0.350 -31.125  1.00  0.00    -0.286 NA
HETATM   27  H   UNL     1      -4.989  -0.225 -30.440  1.00  0.00     0.125 HD
HETATM   28  H   UNL     1      -3.957  -0.303 -31.711  1.00  0.00     0.125 HD
ENDBRANCH  13  26
BRANCH   1  29
HETATM   29  N   UNL     1      -6.532  -0.698 -32.723  1.00  0.00    -0.176 NA
HETATM   30  C   UNL     1      -6.113  -0.996 -33.918  1.00  0.00     0.153 C 
BRANCH  30  31
HETATM   31  C   UNL     1      -5.707  -2.370 -34.288  1.00  0.00     0.016 A 
HETATM   32  C   UNL     1      -4.501  -2.893 -33.786  1.00  0.00     0.080 A 
HETATM   33  C   UNL     1      -4.231  -4.253 -33.970  1.00  0.00     0.037 A 
HETATM   34  C   UNL     1      -5.145  -5.076 -34.637  1.00  0.00     0.003 A 
HETATM   35  C   UNL     1      -6.330  -4.545 -35.143  1.00  0.00     0.001 A 
HETATM   36  C   UNL     1      -6.613  -3.192 -34.971  1.00  0.00     0.016 A 
BRANCH  32  37
HETATM   37  O   UNL     1      -3.678  -2.023 -33.121  1.00  0.00    -0.355 OA
HETATM   38  C   UNL     1      -2.991  -2.502 -31.971  1.00  0.00     0.210 C 
ENDBRANCH  32  37
ENDBRANCH  30  31
ENDBRANCH   1  29
TORSDOF 8
ENDMDL
MODEL 6
REMARK VINA RESULT:      -9.5      2.256      6.123
REMARK  8 active torsions:
REMARK  status: ('A' for Active; 'I' for Inactive)
REMARK    1  A    between atoms: O_2  and  C_3 
REMARK    2  A    between atoms: C_4  and  C_5 
REMARK    3  A    between atoms: N_6  and  N_7 
REMARK    4  A    between atoms: C_18  and  C_19 
REMARK       I    between atoms: C_19  and  N_20 
REMARK    5  A    between atoms: N_20  and  C_21 
REMARK    6  A    between atoms: C_21  and  C_22 
REMARK    7  A    between atoms: C_22  and  C_23 
REMARK    8  A    between atoms: C_30  and  N_31 
ROOT
HETATM    1  N   UNL     1      -7.089   0.906 -33.718  1.00  0.00    -0.202 N 
HETATM    2  C   UNL     1      -6.256   1.890 -33.223  1.00  0.00     0.183 A 
HETATM    3  C   UNL     1      -7.028   3.045 -33.120  1.00  0.00     0.124 A 
HETATM    4  N   UNL     1      -6.514   4.183 -32.592  1.00  0.00    -0.242 NA
HETATM    5  C   UNL     1      -5.222   4.117 -32.250  1.00  0.00     0.086 A 
HETATM    6  C   UNL     1      -4.452   2.931 -32.375  1.00  0.00     0.088 A 
HETATM    7  N   UNL     1      -4.963   1.772 -32.834  1.00  0.00    -0.225 NA
HETATM    8  C   UNL     1      -4.620   5.272 -31.766  1.00  0.00     0.034 A 
HETATM    9  C   UNL     1      -3.271   5.298 -31.414  1.00  0.00     0.002 A 
HETATM   10  C   UNL     1      -2.511   4.145 -31.544  1.00  0.00     0.002 A 
HETATM   11  C   UNL     1      -3.109   2.974 -32.017  1.00  0.00     0.034 A 
HETATM   12  C   UNL     1      -8.334   2.757 -33.607  1.00  0.00     0.104 C 
HETATM   13  C   UNL     1      -8.241   1.511 -34.209  1.00  0.00     0.123 C 
ENDROOT
BRANCH  12  14
HETATM   14  C   UNL     1      -9.537   3.557 -33.424  1.00  0.00     0.257 C 
HETATM   15  N   UNL     1      -9.874   4.339 -34.509  1.00  0.00    -0.356 N 
HETATM   16  H   UNL     1      -9.365   4.102 -35.355  1.00  0.00     0.162 HD
HETATM   17  O   UNL     1     -10.239   3.445 -32.426  1.00  0.00    -0.267 OA
BRANCH  15  18
HETATM   18  C   UNL     1     -11.187   4.923 -34.709  1.00  0.00     0.127 C 
BRANCH  18  19
HETATM   19  C   UNL     1     -12.231   4.083 -35.458  1.00  0.00     0.053 C 
BRANCH  19  20
HETATM   20  C   UNL     1     -13.005   3.090 -34.618  1.00  0.00    -0.082 C 
HETATM   21  C   UNL     1     -13.658   3.601 -33.358  1.00  0.00     0.034 C 
HETATM   22  C   UNL     1     -14.151   2.483 -32.433  1.00  0.00     0.005 C 
HETATM   23  C   UNL     1     -14.834   1.368 -33.217  1.00  0.00     0.004 C 
HETATM   24  C   UNL     1     -13.887   0.764 -34.251  1.00  0.00     0.027 C 
HETATM   25  C   UNL     1     -13.117   1.805 -35.002  1.00  0.00    -0.024 C 
ENDBRANCH  19  20
ENDBRANCH  18  19
ENDBRANCH  15  18
ENDBRANCH  12  14
BRANCH  13  26
HETATM   26  N   UNL     1      -9.132   0.784 -34.961  1.00  0.00    -0.286 NA
HETATM   27  H   UNL     1     -10.007   0.558 -34.483  1.00  0.00     0.125 HD
HETATM   28  H   UNL     1      -9.399   1.271 -35.828  1.00  0.00     0.125 HD
ENDBRANCH  13  26
BRANCH   1  29
HETATM   29  N   UNL     1      -7.018  -0.462 -33.629  1.00  0.00    -0.176 NA
HETATM   30  C   UNL     1      -6.404  -0.953 -34.666  1.00  0.00     0.153 C 
BRANCH  30  31
HETATM   31  C   UNL     1      -5.811  -2.309 -34.657  1.00  0.00     0.016 A 
HETATM   32  C   UNL     1      -4.552  -2.510 -34.061  1.00  0.00     0.080 A 
HETATM   33  C   UNL     1      -4.098  -3.820 -33.874  1.00  0.00     0.037 A 
HETATM   34  C   UNL     1      -4.884  -4.907 -34.270  1.00  0.00     0.003 A 
HETATM   35  C   UNL     1      -6.122  -4.698 -34.873  1.00  0.00     0.001 A 
HETATM   36  C   UNL     1      -6.589  -3.400 -35.069  1.00  0.00     0.016 A 
BRANCH  32  37
HETATM   37  O   UNL     1      -3.863  -1.390 -33.677  1.00  0.00    -0.355 OA
HETATM   38  C   UNL     1      -3.352  -1.342 -32.351  1.00  0.00     0.210 C 
ENDBRANCH  32  37
ENDBRANCH  30  31
ENDBRANCH   1  29
TORSDOF 8
ENDMDL
MODEL 7
REMARK VINA RESULT:      -9.3      2.234      7.779
REMARK  8 active torsions:
REMARK  status: ('A' for Active; 'I' for Inactive)
REMARK    1  A    between atoms: O_2  and  C_3 
REMARK    2  A    between atoms: C_4  and  C_5 
REMARK    3  A    between atoms: N_6  and  N_7 
REMARK    4  A    between atoms: C_18  and  C_19 
REMARK       I    between atoms: C_19  and  N_20 
REMARK    5  A    between atoms: N_20  and  C_21 
REMARK    6  A    between atoms: C_21  and  C_22 
REMARK    7  A    between atoms: C_22  and  C_23 
REMARK    8  A    between atoms: C_30  and  N_31 
ROOT
HETATM    1  N   UNL     1      -7.471   3.764 -32.009  1.00  0.00    -0.202 N 
HETATM    2  C   UNL     1      -6.150   4.134 -32.169  1.00  0.00     0.183 A 
HETATM    3  C   UNL     1      -5.389   2.995 -31.917  1.00  0.00     0.124 A 
HETATM    4  N   UNL     1      -4.041   3.009 -32.063  1.00  0.00    -0.242 NA
HETATM    5  C   UNL     1      -3.519   4.196 -32.398  1.00  0.00     0.086 A 
HETATM    6  C   UNL     1      -4.316   5.346 -32.639  1.00  0.00     0.088 A 
HETATM    7  N   UNL     1      -5.661   5.334 -32.564  1.00  0.00    -0.225 NA
HETATM    8  C   UNL     1      -2.137   4.292 -32.497  1.00  0.00     0.034 A 
HETATM    9  C   UNL     1      -1.510   5.497 -32.813  1.00  0.00     0.002 A 
HETATM   10  C   UNL     1      -2.282   6.627 -33.039  1.00  0.00     0.002 A 
HETATM   11  C   UNL     1      -3.675   6.540 -32.955  1.00  0.00     0.034 A 
HETATM   12  C   UNL     1      -6.270   1.938 -31.553  1.00  0.00     0.104 C 
HETATM   13  C   UNL     1      -7.508   2.532 -31.365  1.00  0.00     0.123 C 
ENDROOT
BRANCH  12  14
HETATM   14  C   UNL     1      -5.958   0.516 -31.491  1.00  0.00     0.257 C 
HETATM   15  N   UNL     1      -4.839   0.144 -32.206  1.00  0.00    -0.356 N 
HETATM   16  H   UNL     1      -4.270   0.928 -32.508  1.00  0.00     0.162 HD
HETATM   17  O   UNL     1      -6.584  -0.249 -30.767  1.00  0.00    -0.267 OA
BRANCH  15  18
HETATM   18  C   UNL     1      -4.131  -1.106 -32.007  1.00  0.00     0.127 C 
BRANCH  18  19
HETATM   19  C   UNL     1      -3.605  -1.830 -33.254  1.00  0.00     0.053 C 
BRANCH  19  20
HETATM   20  C   UNL     1      -4.549  -2.832 -33.883  1.00  0.00    -0.082 C 
HETATM   21  C   UNL     1      -5.870  -2.318 -34.397  1.00  0.00     0.034 C 
HETATM   22  C   UNL     1      -6.867  -3.433 -34.733  1.00  0.00     0.005 C 
HETATM   23  C   UNL     1      -6.190  -4.588 -35.463  1.00  0.00     0.004 C 
HETATM   24  C   UNL     1      -5.058  -5.180 -34.626  1.00  0.00     0.027 C 
HETATM   25  C   UNL     1      -4.202  -4.128 -33.993  1.00  0.00    -0.024 C 
ENDBRANCH  19  20
ENDBRANCH  18  19
ENDBRANCH  15  18
ENDBRANCH  12  14
BRANCH  13  26
HETATM   26  N   UNL     1      -8.699   2.044 -30.881  1.00  0.00    -0.286 NA
HETATM   27  H   UNL     1      -8.621   1.528 -30.002  1.00  0.00     0.125 HD
HETATM   28  H   UNL     1      -9.386   2.792 -30.714  1.00  0.00     0.125 HD
ENDBRANCH  13  26
BRANCH   1  29
HETATM   29  N   UNL     1      -8.625   4.308 -32.515  1.00  0.00    -0.176 NA
HETATM   30  C   UNL     1      -8.723   4.061 -33.789  1.00  0.00     0.153 C 
BRANCH  30  31
HETATM   31  C   UNL     1     -10.015   4.140 -34.506  1.00  0.00     0.016 A 
HETATM   32  C   UNL     1     -10.798   2.980 -34.651  1.00  0.00     0.080 A 
HETATM   33  C   UNL     1     -12.101   3.106 -35.143  1.00  0.00     0.037 A 
HETATM   34  C   UNL     1     -12.615   4.362 -35.481  1.00  0.00     0.003 A 
HETATM   35  C   UNL     1     -11.827   5.504 -35.348  1.00  0.00     0.001 A 
HETATM   36  C   UNL     1     -10.526   5.396 -34.862  1.00  0.00     0.016 A 
BRANCH  32  37
HETATM   37  O   UNL     1     -10.226   1.795 -34.269  1.00  0.00    -0.355 OA
HETATM   38  C   UNL     1     -11.010   0.895 -33.495  1.00  0.00     0.210 C 
ENDBRANCH  32  37
ENDBRANCH  30  31
ENDBRANCH   1  29
TORSDOF 8
ENDMDL
MODEL 8
REMARK VINA RESULT:      -9.2      2.344      9.009
REMARK  8 active torsions:
REMARK  status: ('A' for Active; 'I' for Inactive)
REMARK    1  A    between atoms: O_2  and  C_3 
REMARK    2  A    between atoms: C_4  and  C_5 
REMARK    3  A    between atoms: N_6  and  N_7 
REMARK    4  A    between atoms: C_18  and  C_19 
REMARK       I    between atoms: C_19  and  N_20 
REMARK    5  A    between atoms: N_20  and  C_21 
REMARK    6  A    between atoms: C_21  and  C_22 
REMARK    7  A    between atoms: C_22  and  C_23 
REMARK    8  A    between atoms: C_30  and  N_31 
ROOT
HETATM    1  N   UNL     1      -7.676   3.408 -33.416  1.00  0.00    -0.202 N 
HETATM    2  C   UNL     1      -6.694   2.474 -33.149  1.00  0.00     0.183 A 
HETATM    3  C   UNL     1      -5.528   3.190 -32.892  1.00  0.00     0.124 A 
HETATM    4  N   UNL     1      -4.387   2.558 -32.522  1.00  0.00    -0.242 NA
HETATM    5  C   UNL     1      -4.464   1.222 -32.490  1.00  0.00     0.086 A 
HETATM    6  C   UNL     1      -5.663   0.513 -32.766  1.00  0.00     0.088 A 
HETATM    7  N   UNL     1      -6.823   1.127 -33.069  1.00  0.00    -0.225 NA
HETATM    8  C   UNL     1      -3.309   0.514 -32.183  1.00  0.00     0.034 A 
HETATM    9  C   UNL     1      -3.295  -0.881 -32.155  1.00  0.00     0.002 A 
HETATM   10  C   UNL     1      -4.460  -1.579 -32.435  1.00  0.00     0.002 A 
HETATM   11  C   UNL     1      -5.631  -0.877 -32.732  1.00  0.00     0.034 A 
HETATM   12  C   UNL     1      -5.808   4.576 -33.056  1.00  0.00     0.104 C 
HETATM   13  C   UNL     1      -7.065   4.637 -33.637  1.00  0.00     0.123 C 
ENDROOT
BRANCH  12  14
HETATM   14  C   UNL     1      -4.988   5.697 -32.614  1.00  0.00     0.257 C 
HETATM   15  N   UNL     1      -3.659   5.608 -32.970  1.00  0.00    -0.356 N 
HETATM   16  H   UNL     1      -3.470   4.888 -33.660  1.00  0.00     0.162 HD
HETATM   17  O   UNL     1      -5.479   6.679 -32.072  1.00  0.00    -0.267 OA
BRANCH  15  18
HETATM   18  C   UNL     1      -2.745   6.734 -32.972  1.00  0.00     0.127 C 
BRANCH  18  19
HETATM   19  C   UNL     1      -1.241   6.428 -33.001  1.00  0.00     0.053 C 
BRANCH  19  20
HETATM   20  C   UNL     1      -0.568   6.294 -31.652  1.00  0.00    -0.082 C 
HETATM   21  C   UNL     1      -0.684   7.454 -30.696  1.00  0.00     0.034 C 
HETATM   22  C   UNL     1       0.267   7.352 -29.498  1.00  0.00     0.005 C 
HETATM   23  C   UNL     1       0.310   5.935 -28.937  1.00  0.00     0.004 C 
HETATM   24  C   UNL     1       0.756   4.936 -30.001  1.00  0.00     0.027 C 
HETATM   25  C   UNL     1       0.089   5.167 -31.321  1.00  0.00    -0.024 C 
ENDBRANCH  19  20
ENDBRANCH  18  19
ENDBRANCH  15  18
ENDBRANCH  12  14
BRANCH  13  26
HETATM   26  N   UNL     1      -7.794   5.686 -34.146  1.00  0.00    -0.286 NA
HETATM   27  H   UNL     1      -8.255   6.265 -33.441  1.00  0.00     0.125 HD
HETATM   28  H   UNL     1      -7.215   6.326 -34.706  1.00  0.00     0.125 HD
ENDBRANCH  13  26
BRANCH   1  29
HETATM   29  N   UNL     1      -9.043   3.330 -33.317  1.00  0.00    -0.176 NA
HETATM   30  C   UNL     1      -9.526   2.588 -34.271  1.00  0.00     0.153 C 
BRANCH  30  31
HETATM   31  C   UNL     1     -10.874   1.983 -34.189  1.00  0.00     0.016 A 
HETATM   32  C   UNL     1     -11.913   2.498 -34.986  1.00  0.00     0.080 A 
HETATM   33  C   UNL     1     -13.119   1.792 -35.055  1.00  0.00     0.037 A 
HETATM   34  C   UNL     1     -13.284   0.597 -34.349  1.00  0.00     0.003 A 
HETATM   35  C   UNL     1     -12.255   0.102 -33.550  1.00  0.00     0.001 A 
HETATM   36  C   UNL     1     -11.048   0.794 -33.468  1.00  0.00     0.016 A 
BRANCH  32  37
HETATM   37  O   UNL     1     -11.655   3.658 -35.666  1.00  0.00    -0.355 OA
HETATM   38  C   UNL     1     -12.505   4.774 -35.429  1.00  0.00     0.210 C 
ENDBRANCH  32  37
ENDBRANCH  30  31
ENDBRANCH   1  29
TORSDOF 8
ENDMDL
MODEL 9
REMARK VINA RESULT:      -9.0      2.497      3.454
REMARK  8 active torsions:
REMARK  status: ('A' for Active; 'I' for Inactive)
REMARK    1  A    between atoms: O_2  and  C_3 
REMARK    2  A    between atoms: C_4  and  C_5 
REMARK    3  A    between atoms: N_6  and  N_7 
REMARK    4  A    between atoms: C_18  and  C_19 
REMARK       I    between atoms: C_19  and  N_20 
REMARK    5  A    between atoms: N_20  and  C_21 
REMARK    6  A    between atoms: C_21  and  C_22 
REMARK    7  A    between atoms: C_22  and  C_23 
REMARK    8  A    between atoms: C_30  and  N_31 
ROOT
HETATM    1  N   UNL     1      -6.827   4.708 -33.810  1.00  0.00    -0.202 N 
HETATM    2  C   UNL     1      -6.841   3.328 -33.767  1.00  0.00     0.183 A 
HETATM    3  C   UNL     1      -8.165   2.941 -33.960  1.00  0.00     0.124 A 
HETATM    4  N   UNL     1      -8.504   1.631 -34.044  1.00  0.00    -0.242 NA
HETATM    5  C   UNL     1      -7.495   0.771 -33.865  1.00  0.00     0.086 A 
HETATM    6  C   UNL     1      -6.154   1.190 -33.658  1.00  0.00     0.088 A 
HETATM    7  N   UNL     1      -5.787   2.486 -33.639  1.00  0.00    -0.225 NA
HETATM    8  C   UNL     1      -7.791  -0.586 -33.872  1.00  0.00     0.034 A 
HETATM    9  C   UNL     1      -6.803  -1.549 -33.665  1.00  0.00     0.002 A 
HETATM   10  C   UNL     1      -5.493  -1.145 -33.451  1.00  0.00     0.002 A 
HETATM   11  C   UNL     1      -5.181   0.217 -33.455  1.00  0.00     0.034 A 
HETATM   12  C   UNL     1      -8.963   4.114 -34.074  1.00  0.00     0.104 C 
HETATM   13  C   UNL     1      -8.137   5.165 -33.707  1.00  0.00     0.123 C 
ENDROOT
BRANCH  12  14
HETATM   14  C   UNL     1     -10.331   4.202 -34.568  1.00  0.00     0.257 C 
HETATM   15  N   UNL     1     -10.714   3.156 -35.380  1.00  0.00    -0.356 N 
HETATM   16  H   UNL     1     -10.073   2.370 -35.360  1.00  0.00     0.162 HD
HETATM   17  O   UNL     1     -11.096   5.081 -34.190  1.00  0.00    -0.267 OA
BRANCH  15  18
HETATM   18  C   UNL     1     -12.095   2.832 -35.685  1.00  0.00     0.127 C 
BRANCH  18  19
HETATM   19  C   UNL     1     -12.721   1.636 -34.956  1.00  0.00     0.053 C 
BRANCH  19  20
HETATM   20  C   UNL     1     -13.746   1.973 -33.894  1.00  0.00    -0.082 C 
HETATM   21  C   UNL     1     -15.046   1.208 -33.912  1.00  0.00     0.034 C 
HETATM   22  C   UNL     1     -16.122   1.818 -33.007  1.00  0.00     0.005 C 
HETATM   23  C   UNL     1     -15.543   2.257 -31.666  1.00  0.00     0.004 C 
HETATM   24  C   UNL     1     -14.427   3.282 -31.859  1.00  0.00     0.027 C 
HETATM   25  C   UNL     1     -13.487   2.908 -32.961  1.00  0.00    -0.024 C 
ENDBRANCH  19  20
ENDBRANCH  18  19
ENDBRANCH  15  18
ENDBRANCH  12  14
BRANCH  13  26
HETATM   26  N   UNL     1      -8.385   6.500 -33.495  1.00  0.00    -0.286 NA
HETATM   27  H   UNL     1      -8.397   6.780 -32.512  1.00  0.00     0.125 HD
HETATM   28  H   UNL     1      -7.689   7.103 -33.955  1.00  0.00     0.125 HD
ENDBRANCH  13  26
BRANCH   1  29
HETATM   29  N   UNL     1      -5.815   5.590 -34.099  1.00  0.00    -0.176 NA
HETATM   30  C   UNL     1      -4.896   5.543 -33.179  1.00  0.00     0.153 C 
BRANCH  30  31
HETATM   31  C   UNL     1      -3.523   6.042 -33.415  1.00  0.00     0.016 A 
HETATM   32  C   UNL     1      -2.992   7.033 -32.569  1.00  0.00     0.080 A 
HETATM   33  C   UNL     1      -1.632   7.345 -32.671  1.00  0.00     0.037 A 
HETATM   34  C   UNL     1      -0.818   6.682 -33.594  1.00  0.00     0.003 A 
HETATM   35  C   UNL     1      -1.356   5.713 -34.438  1.00  0.00     0.001 A 
HETATM   36  C   UNL     1      -2.709   5.391 -34.352  1.00  0.00     0.016 A 
BRANCH  32  37
HETATM   37  O   UNL     1      -3.854   7.611 -31.675  1.00  0.00    -0.355 OA
HETATM   38  C   UNL     1      -3.386   7.844 -30.352  1.00  0.00     0.210 C 
ENDBRANCH  32  37
ENDBRANCH  30  31
ENDBRANCH   1  29
TORSDOF 8
ENDMDL
MODEL 10
REMARK VINA RESULT:      -8.6      2.815      9.250
REMARK  8 active torsions:
REMARK  status: ('A' for Active; 'I' for Inactive)
REMARK    1  A    between atoms: O_2  and  C_3 
REMARK    2  A    between atoms: C_4  and  C_5 
REMARK    3  A    between atoms: N_6  and  N_7 
REMARK    4  A    between atoms: C_18  and  C_19 
REMARK       I    between atoms: C_19  and  N_20 
REMARK    5  A    between atoms: N_20  and  C_21 
REMARK    6  A    between atoms: C_21  and  C_22 
REMARK    7  A    between atoms: C_22  and  C_23 
REMARK    8  A    between atoms: C_30  and  N_31 
ROOT
HETATM    1  N   UNL     1      -5.281   2.062 -31.080  1.00  0.00    -0.202 N 
HETATM    2  C   UNL     1      -6.125   3.146 -30.937  1.00  0.00     0.183 A 
HETATM    3  C   UNL     1      -5.360   4.278 -31.204  1.00  0.00     0.124 A 
HETATM    4  N   UNL     1      -5.921   5.513 -31.218  1.00  0.00    -0.242 NA
HETATM    5  C   UNL     1      -7.220   5.548 -30.899  1.00  0.00     0.086 A 
HETATM    6  C   UNL     1      -7.977   4.380 -30.619  1.00  0.00     0.088 A 
HETATM    7  N   UNL     1      -7.452   3.140 -30.667  1.00  0.00    -0.225 NA
HETATM    8  C   UNL     1      -7.837   6.792 -30.829  1.00  0.00     0.034 A 
HETATM    9  C   UNL     1      -9.180   6.920 -30.476  1.00  0.00     0.002 A 
HETATM   10  C   UNL     1      -9.922   5.783 -30.191  1.00  0.00     0.002 A 
HETATM   11  C   UNL     1      -9.316   4.527 -30.271  1.00  0.00     0.034 A 
HETATM   12  C   UNL     1      -4.023   3.866 -31.464  1.00  0.00     0.104 C 
HETATM   13  C   UNL     1      -3.970   2.526 -31.112  1.00  0.00     0.123 C 
ENDROOT
BRANCH  12  14
HETATM   14  C   UNL     1      -2.960   4.659 -32.068  1.00  0.00     0.257 C 
HETATM   15  N   UNL     1      -1.836   4.802 -31.281  1.00  0.00    -0.356 N 
HETATM   16  H   UNL     1      -1.816   4.174 -30.484  1.00  0.00     0.162 HD
HETATM   17  O   UNL     1      -3.033   5.060 -33.223  1.00  0.00    -0.267 OA
BRANCH  15  18
HETATM   18  C   UNL     1      -0.542   5.218 -31.787  1.00  0.00     0.127 C 
BRANCH  18  19
HETATM   19  C   UNL     1       0.574   5.468 -30.763  1.00  0.00     0.053 C 
BRANCH  19  20
HETATM   20  C   UNL     1       0.185   6.283 -29.548  1.00  0.00    -0.082 C 
HETATM   21  C   UNL     1      -0.527   7.591 -29.785  1.00  0.00     0.034 C 
HETATM   22  C   UNL     1      -0.606   8.475 -28.535  1.00  0.00     0.005 C 
HETATM   23  C   UNL     1      -0.955   7.659 -27.295  1.00  0.00     0.004 C 
HETATM   24  C   UNL     1       0.077   6.560 -27.052  1.00  0.00     0.027 C 
HETATM   25  C   UNL     1       0.451   5.836 -28.307  1.00  0.00    -0.024 C 
ENDBRANCH  19  20
ENDBRANCH  18  19
ENDBRANCH  15  18
ENDBRANCH  12  14
BRANCH  13  26
HETATM   26  N   UNL     1      -2.924   1.639 -31.019  1.00  0.00    -0.286 NA
HETATM   27  H   UNL     1      -2.529   1.546 -30.080  1.00  0.00     0.125 HD
HETATM   28  H   UNL     1      -3.191   0.690 -31.312  1.00  0.00     0.125 HD
ENDBRANCH  13  26
BRANCH   1  29
HETATM   29  N   UNL     1      -5.547   0.743 -31.352  1.00  0.00    -0.176 NA
HETATM   30  C   UNL     1      -5.862   0.592 -32.605  1.00  0.00     0.153 C 
BRANCH  30  31
HETATM   31  C   UNL     1      -5.788  -0.722 -33.281  1.00  0.00     0.016 A 
HETATM   32  C   UNL     1      -6.911  -1.209 -33.974  1.00  0.00     0.080 A 
HETATM   33  C   UNL     1      -6.766  -2.344 -34.777  1.00  0.00     0.037 A 
HETATM   34  C   UNL     1      -5.525  -2.980 -34.891  1.00  0.00     0.003 A 
HETATM   35  C   UNL     1      -4.421  -2.500 -34.189  1.00  0.00     0.001 A 
HETATM   36  C   UNL     1      -4.550  -1.371 -33.383  1.00  0.00     0.016 A 
BRANCH  32  37
HETATM   37  O   UNL     1      -8.080  -0.508 -33.829  1.00  0.00    -0.355 OA
HETATM   38  C   UNL     1      -8.438   0.411 -34.853  1.00  0.00     0.210 C 
ENDBRANCH  32  37
ENDBRANCH  30  31
ENDBRANCH   1  29
TORSDOF 8
ENDMDL
