MODEL 1
REMARK VINA RESULT:      -8.8      0.000      0.000
REMARK  7 active torsions:
REMARK  status: ('A' for Active; 'I' for Inactive)
REMARK    1  A    between atoms: C_5  and  C_6 
REMARK       I    between atoms: C_6  and  N_7 
REMARK    2  A    between atoms: N_10  and  C_11 
REMARK    3  A    between atoms: C_14  and  N_15 
REMARK    4  A    between atoms: N_15  and  C_16 
REMARK    5  A    between atoms: C_16  and  N_17 
REMARK       I    between atoms: N_17  and  C_18 
REMARK    6  A    between atoms: C_18  and  C_19 
REMARK    7  A    between atoms: C_22  and  O_23 
ROOT
HETATM    1  C   UNL     1      -5.643   4.648 -31.615  1.00  0.00     0.030 A 
HETATM    2  C   UNL     1      -6.624   4.551 -30.615  1.00  0.00     0.031 A 
HETATM    3  C   UNL     1      -7.970   4.271 -30.909  1.00  0.00     0.032 A 
HETATM    4  C   UNL     1      -8.382   4.057 -32.222  1.00  0.00     0.034 A 
HETATM    5  C   UNL     1      -7.431   4.136 -33.234  1.00  0.00     0.032 A 
HETATM    6  C   UNL     1      -6.095   4.439 -32.930  1.00  0.00     0.031 A 
ENDROOT
BRANCH   4   7
HETATM    7  N   UNL     1      -9.765   3.875 -32.463  1.00  0.00    -0.333 N 
HETATM    8  H   UNL     1     -10.304   4.736 -32.413  1.00  0.00     0.168 HD
BRANCH   7   9
HETATM    9  C   UNL     1     -10.346   2.890 -33.198  1.00  0.00     0.179 C 
HETATM   10  S   UNL     1     -10.855   3.201 -34.757  1.00  0.00    -0.040 SA
BRANCH   9  11
HETATM   11  N   UNL     1     -10.576   1.654 -32.646  1.00  0.00    -0.299 N 
HETATM   12  C   UNL     1      -9.842   0.473 -32.672  1.00  0.00     0.257 C 
HETATM   13  O   UNL     1     -10.406  -0.618 -32.670  1.00  0.00    -0.267 OA
HETATM   14  H   UNL     1     -11.501   1.538 -32.252  1.00  0.00     0.171 HD
BRANCH  12  15
HETATM   15  C   UNL     1      -8.357   0.551 -32.663  1.00  0.00     0.032 A 
HETATM   16  C   UNL     1      -7.641   0.583 -31.462  1.00  0.00     0.020 A 
HETATM   17  C   UNL     1      -6.244   0.629 -31.484  1.00  0.00     0.038 A 
HETATM   18  C   UNL     1      -5.551   0.622 -32.696  1.00  0.00     0.068 A 
HETATM   19  C   UNL     1      -6.265   0.564 -33.894  1.00  0.00     0.038 A 
HETATM   20  C   UNL     1      -7.665   0.521 -33.878  1.00  0.00     0.020 A 
BRANCH  18  21
HETATM   21  O   UNL     1      -4.190   0.671 -32.570  1.00  0.00    -0.356 OA
HETATM   22  C   UNL     1      -3.636   0.179 -31.356  1.00  0.00     0.210 C 
ENDBRANCH  18  21
ENDBRANCH  12  15
ENDBRANCH   9  11
ENDBRANCH   7   9
ENDBRANCH   4   7
BRANCH   1  23
HETATM   23  N   UNL     1      -4.315   5.016 -31.358  1.00  0.00    -0.378 N 
HETATM   24  C   UNL     1      -3.281   3.964 -31.529  1.00  0.00     0.143 C 
HETATM   25  C   UNL     1      -1.883   4.590 -31.665  1.00  0.00     0.146 C 
HETATM   26  N   UNL     1      -1.564   5.488 -30.555  1.00  0.00    -0.345 N 
HETATM   27  C   UNL     1      -0.209   5.775 -30.370  1.00  0.00     0.253 C 
HETATM   28  C   UNL     1      -2.593   6.508 -30.315  1.00  0.00     0.146 C 
HETATM   29  O   UNL     1       0.673   5.374 -31.127  1.00  0.00    -0.267 OA
HETATM   30  C   UNL     1      -4.020   5.924 -30.225  1.00  0.00     0.143 C 
BRANCH  27  31
HETATM   31  C   UNL     1       0.206   6.534 -29.164  1.00  0.00     0.032 A 
HETATM   32  C   UNL     1       0.117   5.959 -27.892  1.00  0.00     0.017 A 
HETATM   33  C   UNL     1       0.608   6.648 -26.780  1.00  0.00     0.007 A 
HETATM   34  C   UNL     1       1.194   7.912 -26.930  1.00  0.00    -0.062 A 
HETATM   35  C   UNL     1       1.790   8.617 -25.746  1.00  0.00     0.048 C 
HETATM   36  C   UNL     1       1.300   8.470 -28.210  1.00  0.00     0.007 A 
HETATM   37  C   UNL     1       0.810   7.784 -29.324  1.00  0.00     0.017 A 
ENDBRANCH  27  31
ENDBRANCH   1  23
TORSDOF 7
ENDMDL
MODEL 2
REMARK VINA RESULT:      -8.4      3.278      9.201
REMARK  7 active torsions:
REMARK  status: ('A' for Active; 'I' for Inactive)
REMARK    1  A    between atoms: C_5  and  C_6 
REMARK       I    between atoms: C_6  and  N_7 
REMARK    2  A    between atoms: N_10  and  C_11 
REMARK    3  A    between atoms: C_14  and  N_15 
REMARK    4  A    between atoms: N_15  and  C_16 
REMARK    5  A    between atoms: C_16  and  N_17 
REMARK       I    between atoms: N_17  and  C_18 
REMARK    6  A    between atoms: C_18  and  C_19 
REMARK    7  A    between atoms: C_22  and  O_23 
ROOT
HETATM    1  C   UNL     1      -5.469   5.076 -30.952  1.00  0.00     0.030 A 
HETATM    2  C   UNL     1      -5.211   5.160 -29.575  1.00  0.00     0.031 A 
HETATM    3  C   UNL     1      -4.690   6.322 -28.979  1.00  0.00     0.032 A 
HETATM    4  C   UNL     1      -4.427   7.456 -29.743  1.00  0.00     0.034 A 
HETATM    5  C   UNL     1      -4.682   7.406 -31.109  1.00  0.00     0.032 A 
HETATM    6  C   UNL     1      -5.179   6.233 -31.696  1.00  0.00     0.031 A 
ENDROOT
BRANCH   4   7
HETATM    7  N   UNL     1      -3.813   8.560 -29.102  1.00  0.00    -0.333 N 
HETATM    8  H   UNL     1      -4.057   8.647 -28.119  1.00  0.00     0.168 HD
BRANCH   7   9
HETATM    9  C   UNL     1      -2.644   9.161 -29.448  1.00  0.00     0.179 C 
HETATM   10  S   UNL     1      -2.663  10.604 -30.287  1.00  0.00    -0.040 SA
BRANCH   9  11
HETATM   11  N   UNL     1      -1.442   8.560 -29.168  1.00  0.00    -0.299 N 
HETATM   12  C   UNL     1      -0.902   7.338 -29.551  1.00  0.00     0.257 C 
HETATM   13  O   UNL     1      -0.159   6.715 -28.798  1.00  0.00    -0.267 OA
HETATM   14  H   UNL     1      -0.897   9.030 -28.456  1.00  0.00     0.171 HD
BRANCH  12  15
HETATM   15  C   UNL     1      -1.207   6.813 -30.910  1.00  0.00     0.032 A 
HETATM   16  C   UNL     1      -1.102   7.628 -32.041  1.00  0.00     0.020 A 
HETATM   17  C   UNL     1      -1.368   7.101 -33.308  1.00  0.00     0.038 A 
HETATM   18  C   UNL     1      -1.719   5.758 -33.460  1.00  0.00     0.068 A 
HETATM   19  C   UNL     1      -1.800   4.938 -32.332  1.00  0.00     0.038 A 
HETATM   20  C   UNL     1      -1.537   5.463 -31.060  1.00  0.00     0.020 A 
BRANCH  18  21
HETATM   21  O   UNL     1      -1.953   5.377 -34.753  1.00  0.00    -0.356 OA
HETATM   22  C   UNL     1      -3.312   5.247 -35.151  1.00  0.00     0.210 C 
ENDBRANCH  18  21
ENDBRANCH  12  15
ENDBRANCH   9  11
ENDBRANCH   7   9
ENDBRANCH   4   7
BRANCH   1  23
HETATM   23  N   UNL     1      -5.901   3.901 -31.584  1.00  0.00    -0.378 N 
HETATM   24  C   UNL     1      -7.087   3.222 -31.003  1.00  0.00     0.143 C 
HETATM   25  C   UNL     1      -7.711   2.251 -32.018  1.00  0.00     0.146 C 
HETATM   26  N   UNL     1      -6.740   1.290 -32.542  1.00  0.00    -0.345 N 
HETATM   27  C   UNL     1      -7.273   0.141 -33.133  1.00  0.00     0.253 C 
HETATM   28  C   UNL     1      -5.524   1.921 -33.073  1.00  0.00     0.146 C 
HETATM   29  O   UNL     1      -8.480  -0.037 -33.287  1.00  0.00    -0.267 OA
HETATM   30  C   UNL     1      -4.895   2.944 -32.102  1.00  0.00     0.143 C 
BRANCH  27  31
HETATM   31  C   UNL     1      -6.354  -0.955 -33.528  1.00  0.00     0.032 A 
HETATM   32  C   UNL     1      -5.124  -1.124 -32.882  1.00  0.00     0.017 A 
HETATM   33  C   UNL     1      -4.318  -2.222 -33.195  1.00  0.00     0.007 A 
HETATM   34  C   UNL     1      -4.734  -3.159 -34.150  1.00  0.00    -0.062 A 
HETATM   35  C   UNL     1      -3.903  -4.378 -34.429  1.00  0.00     0.048 C 
HETATM   36  C   UNL     1      -5.977  -2.994 -34.774  1.00  0.00     0.007 A 
HETATM   37  C   UNL     1      -6.786  -1.898 -34.464  1.00  0.00     0.017 A 
ENDBRANCH  27  31
ENDBRANCH   1  23
TORSDOF 7
ENDMDL
MODEL 3
REMARK VINA RESULT:      -8.3      3.182      9.793
REMARK  7 active torsions:
REMARK  status: ('A' for Active; 'I' for Inactive)
REMARK    1  A    between atoms: C_5  and  C_6 
REMARK       I    between atoms: C_6  and  N_7 
REMARK    2  A    between atoms: N_10  and  C_11 
REMARK    3  A    between atoms: C_14  and  N_15 
REMARK    4  A    between atoms: N_15  and  C_16 
REMARK    5  A    between atoms: C_16  and  N_17 
REMARK       I    between atoms: N_17  and  C_18 
REMARK    6  A    between atoms: C_18  and  C_19 
REMARK    7  A    between atoms: C_22  and  O_23 
ROOT
HETATM    1  C   UNL     1      -5.129   5.671 -29.726  1.00  0.00     0.030 A 
HETATM    2  C   UNL     1      -5.427   6.116 -28.428  1.00  0.00     0.031 A 
HETATM    3  C   UNL     1      -4.668   7.107 -27.782  1.00  0.00     0.032 A 
HETATM    4  C   UNL     1      -3.587   7.707 -28.424  1.00  0.00     0.034 A 
HETATM    5  C   UNL     1      -3.273   7.294 -29.714  1.00  0.00     0.032 A 
HETATM    6  C   UNL     1      -4.025   6.286 -30.339  1.00  0.00     0.031 A 
ENDROOT
BRANCH   4   7
HETATM    7  N   UNL     1      -2.804   8.628 -27.687  1.00  0.00    -0.333 N 
HETATM    8  H   UNL     1      -3.323   9.442 -27.370  1.00  0.00     0.168 HD
BRANCH   7   9
HETATM    9  C   UNL     1      -1.687   8.355 -26.961  1.00  0.00     0.179 C 
HETATM   10  S   UNL     1      -1.802   7.464 -25.555  1.00  0.00    -0.040 SA
BRANCH   9  11
HETATM   11  N   UNL     1      -0.469   8.861 -27.342  1.00  0.00    -0.299 N 
HETATM   12  C   UNL     1       0.589   8.304 -28.051  1.00  0.00     0.257 C 
HETATM   13  O   UNL     1       1.749   8.621 -27.804  1.00  0.00    -0.267 OA
HETATM   14  H   UNL     1      -0.243   9.759 -26.932  1.00  0.00     0.171 HD
BRANCH  12  15
HETATM   15  C   UNL     1       0.290   7.342 -29.147  1.00  0.00     0.032 A 
HETATM   16  C   UNL     1       0.059   7.782 -30.454  1.00  0.00     0.020 A 
HETATM   17  C   UNL     1      -0.192   6.854 -31.468  1.00  0.00     0.038 A 
HETATM   18  C   UNL     1      -0.194   5.485 -31.195  1.00  0.00     0.068 A 
HETATM   19  C   UNL     1       0.063   5.044 -29.895  1.00  0.00     0.038 A 
HETATM   20  C   UNL     1       0.311   5.971 -28.874  1.00  0.00     0.020 A 
BRANCH  18  21
HETATM   21  O   UNL     1      -0.454   4.692 -32.279  1.00  0.00    -0.356 OA
HETATM   22  C   UNL     1      -1.755   4.781 -32.845  1.00  0.00     0.210 C 
ENDBRANCH  18  21
ENDBRANCH  12  15
ENDBRANCH   9  11
ENDBRANCH   7   9
ENDBRANCH   4   7
BRANCH   1  23
HETATM   23  N   UNL     1      -5.813   4.621 -30.355  1.00  0.00    -0.378 N 
HETATM   24  C   UNL     1      -6.771   3.849 -29.524  1.00  0.00     0.143 C 
HETATM   25  C   UNL     1      -7.753   3.065 -30.409  1.00  0.00     0.146 C 
HETATM   26  N   UNL     1      -7.071   2.213 -31.382  1.00  0.00    -0.345 N 
HETATM   27  C   UNL     1      -7.835   1.181 -31.935  1.00  0.00     0.253 C 
HETATM   28  C   UNL     1      -6.071   2.929 -32.185  1.00  0.00     0.146 C 
HETATM   29  O   UNL     1      -9.031   1.028 -31.695  1.00  0.00    -0.267 OA
HETATM   30  C   UNL     1      -5.096   3.771 -31.334  1.00  0.00     0.143 C 
BRANCH  27  31
HETATM   31  C   UNL     1      -7.165   0.173 -32.793  1.00  0.00     0.032 A 
HETATM   32  C   UNL     1      -6.058  -0.542 -32.325  1.00  0.00     0.017 A 
HETATM   33  C   UNL     1      -5.504  -1.560 -33.106  1.00  0.00     0.007 A 
HETATM   34  C   UNL     1      -6.053  -1.874 -34.356  1.00  0.00    -0.062 A 
HETATM   35  C   UNL     1      -5.506  -3.017 -35.160  1.00  0.00     0.048 C 
HETATM   36  C   UNL     1      -7.176  -1.168 -34.807  1.00  0.00     0.007 A 
HETATM   37  C   UNL     1      -7.733  -0.150 -34.029  1.00  0.00     0.017 A 
ENDBRANCH  27  31
ENDBRANCH   1  23
TORSDOF 7
ENDMDL
MODEL 4
REMARK VINA RESULT:      -8.2      1.912      2.620
REMARK  7 active torsions:
REMARK  status: ('A' for Active; 'I' for Inactive)
REMARK    1  A    between atoms: C_5  and  C_6 
REMARK       I    between atoms: C_6  and  N_7 
REMARK    2  A    between atoms: N_10  and  C_11 
REMARK    3  A    between atoms: C_14  and  N_15 
REMARK    4  A    between atoms: N_15  and  C_16 
REMARK    5  A    between atoms: C_16  and  N_17 
REMARK       I    between atoms: N_17  and  C_18 
REMARK    6  A    between atoms: C_18  and  C_19 
REMARK    7  A    between atoms: C_22  and  O_23 
ROOT
HETATM    1  C   UNL     1      -6.733   4.922 -30.916  1.00  0.00     0.030 A 
HETATM    2  C   UNL     1      -7.518   4.840 -32.077  1.00  0.00     0.031 A 
HETATM    3  C   UNL     1      -8.431   3.793 -32.293  1.00  0.00     0.032 A 
HETATM    4  C   UNL     1      -8.607   2.794 -31.339  1.00  0.00     0.034 A 
HETATM    5  C   UNL     1      -7.849   2.853 -30.174  1.00  0.00     0.032 A 
HETATM    6  C   UNL     1      -6.924   3.890 -29.981  1.00  0.00     0.031 A 
ENDROOT
BRANCH   4   7
HETATM    7  N   UNL     1      -9.468   1.716 -31.657  1.00  0.00    -0.333 N 
HETATM    8  H   UNL     1     -10.325   1.704 -31.109  1.00  0.00     0.168 HD
BRANCH   7   9
HETATM    9  C   UNL     1      -9.548   1.054 -32.842  1.00  0.00     0.179 C 
HETATM   10  S   UNL     1     -10.402   1.717 -34.113  1.00  0.00    -0.040 SA
BRANCH   9  11
HETATM   11  N   UNL     1      -8.984  -0.190 -32.983  1.00  0.00    -0.299 N 
HETATM   12  C   UNL     1      -7.679  -0.595 -33.244  1.00  0.00     0.257 C 
HETATM   13  O   UNL     1      -7.455  -1.607 -33.901  1.00  0.00    -0.267 OA
HETATM   14  H   UNL     1      -9.652  -0.949 -33.029  1.00  0.00     0.171 HD
BRANCH  12  15
HETATM   15  C   UNL     1      -6.556   0.199 -32.678  1.00  0.00     0.032 A 
HETATM   16  C   UNL     1      -6.030   1.300 -33.362  1.00  0.00     0.020 A 
HETATM   17  C   UNL     1      -4.993   2.044 -32.794  1.00  0.00     0.038 A 
HETATM   18  C   UNL     1      -4.487   1.713 -31.535  1.00  0.00     0.068 A 
HETATM   19  C   UNL     1      -5.030   0.630 -30.841  1.00  0.00     0.038 A 
HETATM   20  C   UNL     1      -6.067  -0.121 -31.408  1.00  0.00     0.020 A 
BRANCH  18  21
HETATM   21  O   UNL     1      -3.474   2.524 -31.101  1.00  0.00    -0.356 OA
HETATM   22  C   UNL     1      -2.976   3.483 -32.023  1.00  0.00     0.210 C 
ENDBRANCH  18  21
ENDBRANCH  12  15
ENDBRANCH   9  11
ENDBRANCH   7   9
ENDBRANCH   4   7
BRANCH   1  23
HETATM   23  N   UNL     1      -5.751   5.903 -30.719  1.00  0.00    -0.378 N 
HETATM   24  C   UNL     1      -5.102   6.458 -31.933  1.00  0.00     0.143 C 
HETATM   25  C   UNL     1      -4.412   7.796 -31.620  1.00  0.00     0.146 C 
HETATM   26  N   UNL     1      -3.473   7.692 -30.504  1.00  0.00    -0.345 N 
HETATM   27  C   UNL     1      -2.519   8.709 -30.409  1.00  0.00     0.253 C 
HETATM   28  C   UNL     1      -4.062   7.091 -29.300  1.00  0.00     0.146 C 
HETATM   29  O   UNL     1      -2.501   9.684 -31.157  1.00  0.00    -0.267 OA
HETATM   30  C   UNL     1      -4.810   5.770 -29.582  1.00  0.00     0.143 C 
BRANCH  27  31
HETATM   31  C   UNL     1      -1.429   8.579 -29.411  1.00  0.00     0.032 A 
HETATM   32  C   UNL     1      -0.418   7.626 -29.577  1.00  0.00     0.017 A 
HETATM   33  C   UNL     1       0.656   7.587 -28.684  1.00  0.00     0.007 A 
HETATM   34  C   UNL     1       0.732   8.501 -27.624  1.00  0.00    -0.062 A 
HETATM   35  C   UNL     1       1.924   8.507 -26.712  1.00  0.00     0.048 C 
HETATM   36  C   UNL     1      -0.273   9.466 -27.479  1.00  0.00     0.007 A 
HETATM   37  C   UNL     1      -1.348   9.508 -28.370  1.00  0.00     0.017 A 
ENDBRANCH  27  31
ENDBRANCH   1  23
TORSDOF 7
ENDMDL
MODEL 5
REMARK VINA RESULT:      -7.6      4.603      7.578
REMARK  7 active torsions:
REMARK  status: ('A' for Active; 'I' for Inactive)
REMARK    1  A    between atoms: C_5  and  C_6 
REMARK       I    between atoms: C_6  and  N_7 
REMARK    2  A    between atoms: N_10  and  C_11 
REMARK    3  A    between atoms: C_14  and  N_15 
REMARK    4  A    between atoms: N_15  and  C_16 
REMARK    5  A    between atoms: C_16  and  N_17 
REMARK       I    between atoms: N_17  and  C_18 
REMARK    6  A    between atoms: C_18  and  C_19 
REMARK    7  A    between atoms: C_22  and  O_23 
ROOT
HETATM    1  C   UNL     1      -7.594   3.559 -30.843  1.00  0.00     0.030 A 
HETATM    2  C   UNL     1      -7.429   4.887 -31.266  1.00  0.00     0.031 A 
HETATM    3  C   UNL     1      -8.480   5.819 -31.242  1.00  0.00     0.032 A 
HETATM    4  C   UNL     1      -9.740   5.458 -30.771  1.00  0.00     0.034 A 
HETATM    5  C   UNL     1      -9.933   4.151 -30.335  1.00  0.00     0.032 A 
HETATM    6  C   UNL     1      -8.881   3.224 -30.386  1.00  0.00     0.031 A 
ENDROOT
BRANCH   4   7
HETATM    7  N   UNL     1     -10.782   6.412 -30.862  1.00  0.00    -0.333 N 
HETATM    8  H   UNL     1     -10.483   7.363 -30.662  1.00  0.00     0.168 HD
BRANCH   7   9
HETATM    9  C   UNL     1     -11.909   6.324 -31.618  1.00  0.00     0.179 C 
HETATM   10  S   UNL     1     -13.350   5.857 -30.917  1.00  0.00    -0.040 SA
BRANCH   9  11
HETATM   11  N   UNL     1     -11.860   6.558 -32.970  1.00  0.00    -0.299 N 
HETATM   12  C   UNL     1     -11.446   5.767 -34.036  1.00  0.00     0.257 C 
HETATM   13  O   UNL     1     -10.918   6.270 -35.024  1.00  0.00    -0.267 OA
HETATM   14  H   UNL     1     -12.041   7.518 -33.234  1.00  0.00     0.171 HD
BRANCH  12  15
HETATM   15  C   UNL     1     -11.689   4.301 -33.978  1.00  0.00     0.032 A 
HETATM   16  C   UNL     1     -10.659   3.407 -33.666  1.00  0.00     0.020 A 
HETATM   17  C   UNL     1     -10.924   2.037 -33.591  1.00  0.00     0.038 A 
HETATM   18  C   UNL     1     -12.214   1.549 -33.804  1.00  0.00     0.068 A 
HETATM   19  C   UNL     1     -13.248   2.444 -34.090  1.00  0.00     0.038 A 
HETATM   20  C   UNL     1     -12.987   3.818 -34.170  1.00  0.00     0.020 A 
BRANCH  18  21
HETATM   21  O   UNL     1     -12.330   0.190 -33.702  1.00  0.00    -0.356 OA
HETATM   22  C   UNL     1     -13.645  -0.340 -33.606  1.00  0.00     0.210 C 
ENDBRANCH  18  21
ENDBRANCH  12  15
ENDBRANCH   9  11
ENDBRANCH   7   9
ENDBRANCH   4   7
BRANCH   1  23
HETATM   23  N   UNL     1      -6.588   2.588 -30.943  1.00  0.00    -0.378 N 
HETATM   24  C   UNL     1      -5.224   3.066 -31.283  1.00  0.00     0.143 C 
HETATM   25  C   UNL     1      -4.168   2.010 -30.919  1.00  0.00     0.146 C 
HETATM   26  N   UNL     1      -4.451   0.707 -31.521  1.00  0.00    -0.345 N 
HETATM   27  C   UNL     1      -3.375  -0.181 -31.593  1.00  0.00     0.253 C 
HETATM   28  C   UNL     1      -5.813   0.226 -31.256  1.00  0.00     0.146 C 
HETATM   29  O   UNL     1      -2.268   0.063 -31.115  1.00  0.00    -0.267 OA
HETATM   30  C   UNL     1      -6.901   1.278 -31.560  1.00  0.00     0.143 C 
BRANCH  27  31
HETATM   31  C   UNL     1      -3.540  -1.449 -32.346  1.00  0.00     0.032 A 
HETATM   32  C   UNL     1      -3.098  -2.663 -31.807  1.00  0.00     0.017 A 
HETATM   33  C   UNL     1      -3.355  -3.859 -32.482  1.00  0.00     0.007 A 
HETATM   34  C   UNL     1      -4.057  -3.854 -33.695  1.00  0.00    -0.062 A 
HETATM   35  C   UNL     1      -4.399  -5.145 -34.379  1.00  0.00     0.048 C 
HETATM   36  C   UNL     1      -4.516  -2.637 -34.215  1.00  0.00     0.007 A 
HETATM   37  C   UNL     1      -4.262  -1.439 -33.543  1.00  0.00     0.017 A 
ENDBRANCH  27  31
ENDBRANCH   1  23
TORSDOF 7
ENDMDL
MODEL 6
REMARK VINA RESULT:      -7.5      3.378      9.955
REMARK  7 active torsions:
REMARK  status: ('A' for Active; 'I' for Inactive)
REMARK    1  A    between atoms: C_5  and  C_6 
REMARK       I    between atoms: C_6  and  N_7 
REMARK    2  A    between atoms: N_10  and  C_11 
REMARK    3  A    between atoms: C_14  and  N_15 
REMARK    4  A    between atoms: N_15  and  C_16 
REMARK    5  A    between atoms: C_16  and  N_17 
REMARK       I    between atoms: N_17  and  C_18 
REMARK    6  A    between atoms: C_18  and  C_19 
REMARK    7  A    between atoms: C_22  and  O_23 
ROOT
HETATM    1  C   UNL     1      -5.802   5.863 -29.930  1.00  0.00     0.030 A 
HETATM    2  C   UNL     1      -6.585   6.921 -29.442  1.00  0.00     0.031 A 
HETATM    3  C   UNL     1      -6.023   8.032 -28.790  1.00  0.00     0.032 A 
HETATM    4  C   UNL     1      -4.644   8.134 -28.620  1.00  0.00     0.034 A 
HETATM    5  C   UNL     1      -3.841   7.105 -29.101  1.00  0.00     0.032 A 
HETATM    6  C   UNL     1      -4.417   5.990 -29.729  1.00  0.00     0.031 A 
ENDROOT
BRANCH   4   7
HETATM    7  N   UNL     1      -4.147   9.228 -27.871  1.00  0.00    -0.333 N 
HETATM    8  H   UNL     1      -4.187   9.085 -26.865  1.00  0.00     0.168 HD
BRANCH   7   9
HETATM    9  C   UNL     1      -3.226  10.145 -28.273  1.00  0.00     0.179 C 
HETATM   10  S   UNL     1      -3.267  10.740 -29.831  1.00  0.00    -0.040 SA
BRANCH   9  11
HETATM   11  N   UNL     1      -2.222  10.541 -27.424  1.00  0.00    -0.299 N 
HETATM   12  C   UNL     1      -1.295   9.820 -26.681  1.00  0.00     0.257 C 
HETATM   13  O   UNL     1      -0.904  10.233 -25.593  1.00  0.00    -0.267 OA
HETATM   14  H   UNL     1      -2.231  11.528 -27.200  1.00  0.00     0.171 HD
BRANCH  12  15
HETATM   15  C   UNL     1      -0.750   8.556 -27.245  1.00  0.00     0.032 A 
HETATM   16  C   UNL     1      -0.071   8.541 -28.468  1.00  0.00     0.020 A 
HETATM   17  C   UNL     1       0.453   7.343 -28.960  1.00  0.00     0.038 A 
HETATM   18  C   UNL     1       0.326   6.158 -28.232  1.00  0.00     0.068 A 
HETATM   19  C   UNL     1      -0.329   6.178 -26.999  1.00  0.00     0.038 A 
HETATM   20  C   UNL     1      -0.860   7.376 -26.503  1.00  0.00     0.020 A 
BRANCH  18  21
HETATM   21  O   UNL     1       0.884   5.063 -28.831  1.00  0.00    -0.356 OA
HETATM   22  C   UNL     1       0.746   4.959 -30.242  1.00  0.00     0.210 C 
ENDBRANCH  18  21
ENDBRANCH  12  15
ENDBRANCH   9  11
ENDBRANCH   7   9
ENDBRANCH   4   7
BRANCH   1  23
HETATM   23  N   UNL     1      -6.345   4.703 -30.501  1.00  0.00    -0.378 N 
HETATM   24  C   UNL     1      -7.171   3.842 -29.617  1.00  0.00     0.143 C 
HETATM   25  C   UNL     1      -8.052   2.894 -30.446  1.00  0.00     0.146 C 
HETATM   26  N   UNL     1      -7.276   2.103 -31.401  1.00  0.00    -0.345 N 
HETATM   27  C   UNL     1      -7.899   0.953 -31.893  1.00  0.00     0.253 C 
HETATM   28  C   UNL     1      -6.400   2.915 -32.256  1.00  0.00     0.146 C 
HETATM   29  O   UNL     1      -9.058   0.647 -31.619  1.00  0.00    -0.267 OA
HETATM   30  C   UNL     1      -5.536   3.919 -31.462  1.00  0.00     0.143 C 
BRANCH  27  31
HETATM   31  C   UNL     1      -7.112   0.011 -32.727  1.00  0.00     0.032 A 
HETATM   32  C   UNL     1      -5.910  -0.527 -32.257  1.00  0.00     0.017 A 
HETATM   33  C   UNL     1      -5.235  -1.491 -33.011  1.00  0.00     0.007 A 
HETATM   34  C   UNL     1      -5.757  -1.927 -34.236  1.00  0.00    -0.062 A 
HETATM   35  C   UNL     1      -5.071  -3.017 -35.007  1.00  0.00     0.048 C 
HETATM   36  C   UNL     1      -6.973  -1.400 -34.688  1.00  0.00     0.007 A 
HETATM   37  C   UNL     1      -7.651  -0.436 -33.937  1.00  0.00     0.017 A 
ENDBRANCH  27  31
ENDBRANCH   1  23
TORSDOF 7
ENDMDL
MODEL 7
REMARK VINA RESULT:      -7.5      2.030      2.833
REMARK  7 active torsions:
REMARK  status: ('A' for Active; 'I' for Inactive)
REMARK    1  A    between atoms: C_5  and  C_6 
REMARK       I    between atoms: C_6  and  N_7 
REMARK    2  A    between atoms: N_10  and  C_11 
REMARK    3  A    between atoms: C_14  and  N_15 
REMARK    4  A    between atoms: N_15  and  C_16 
REMARK    5  A    between atoms: C_16  and  N_17 
REMARK       I    between atoms: N_17  and  C_18 
REMARK    6  A    between atoms: C_18  and  C_19 
REMARK    7  A    between atoms: C_22  and  O_23 
ROOT
HETATM    1  C   UNL     1      -6.365   4.481 -33.925  1.00  0.00     0.030 A 
HETATM    2  C   UNL     1      -6.446   3.106 -34.202  1.00  0.00     0.031 A 
HETATM    3  C   UNL     1      -7.674   2.452 -34.398  1.00  0.00     0.032 A 
HETATM    4  C   UNL     1      -8.874   3.158 -34.343  1.00  0.00     0.034 A 
HETATM    5  C   UNL     1      -8.825   4.522 -34.080  1.00  0.00     0.032 A 
HETATM    6  C   UNL     1      -7.594   5.160 -33.863  1.00  0.00     0.031 A 
ENDROOT
BRANCH   4   7
HETATM    7  N   UNL     1     -10.081   2.426 -34.452  1.00  0.00    -0.333 N 
HETATM    8  H   UNL     1     -10.047   1.686 -35.149  1.00  0.00     0.168 HD
BRANCH   7   9
HETATM    9  C   UNL     1     -11.019   2.245 -33.485  1.00  0.00     0.179 C 
HETATM   10  S   UNL     1     -12.176   1.054 -33.656  1.00  0.00    -0.040 SA
BRANCH   9  11
HETATM   11  N   UNL     1     -11.063   3.077 -32.394  1.00  0.00    -0.299 N 
HETATM   12  C   UNL     1     -10.478   2.992 -31.136  1.00  0.00     0.257 C 
HETATM   13  O   UNL     1     -11.049   3.441 -30.146  1.00  0.00    -0.267 OA
HETATM   14  H   UNL     1     -11.739   3.827 -32.468  1.00  0.00     0.171 HD
BRANCH  12  15
HETATM   15  C   UNL     1      -9.127   2.383 -31.013  1.00  0.00     0.032 A 
HETATM   16  C   UNL     1      -8.906   1.040 -31.336  1.00  0.00     0.020 A 
HETATM   17  C   UNL     1      -7.620   0.502 -31.237  1.00  0.00     0.038 A 
HETATM   18  C   UNL     1      -6.544   1.297 -30.839  1.00  0.00     0.068 A 
HETATM   19  C   UNL     1      -6.760   2.645 -30.542  1.00  0.00     0.038 A 
HETATM   20  C   UNL     1      -8.048   3.188 -30.635  1.00  0.00     0.020 A 
BRANCH  18  21
HETATM   21  O   UNL     1      -5.344   0.642 -30.785  1.00  0.00    -0.356 OA
HETATM   22  C   UNL     1      -5.177  -0.470 -31.655  1.00  0.00     0.210 C 
ENDBRANCH  18  21
ENDBRANCH  12  15
ENDBRANCH   9  11
ENDBRANCH   7   9
ENDBRANCH   4   7
BRANCH   1  23
HETATM   23  N   UNL     1      -5.161   5.138 -33.635  1.00  0.00    -0.378 N 
HETATM   24  C   UNL     1      -4.043   4.945 -34.593  1.00  0.00     0.143 C 
HETATM   25  C   UNL     1      -2.979   6.041 -34.418  1.00  0.00     0.146 C 
HETATM   26  N   UNL     1      -2.501   6.140 -33.039  1.00  0.00    -0.345 N 
HETATM   27  C   UNL     1      -1.279   6.794 -32.860  1.00  0.00     0.253 C 
HETATM   28  C   UNL     1      -3.583   6.273 -32.055  1.00  0.00     0.146 C 
HETATM   29  O   UNL     1      -0.664   7.333 -33.779  1.00  0.00    -0.267 OA
HETATM   30  C   UNL     1      -4.699   5.220 -32.230  1.00  0.00     0.143 C 
BRANCH  27  31
HETATM   31  C   UNL     1      -0.647   6.780 -31.518  1.00  0.00     0.032 A 
HETATM   32  C   UNL     1      -0.834   7.844 -30.629  1.00  0.00     0.017 A 
HETATM   33  C   UNL     1      -0.318   7.768 -29.332  1.00  0.00     0.007 A 
HETATM   34  C   UNL     1       0.383   6.629 -28.913  1.00  0.00    -0.062 A 
HETATM   35  C   UNL     1       0.869   6.516 -27.497  1.00  0.00     0.048 C 
HETATM   36  C   UNL     1       0.545   5.558 -29.802  1.00  0.00     0.007 A 
HETATM   37  C   UNL     1       0.030   5.631 -31.099  1.00  0.00     0.017 A 
ENDBRANCH  27  31
ENDBRANCH   1  23
TORSDOF 7
ENDMDL
MODEL 8
REMARK VINA RESULT:      -7.5      2.197      3.200
REMARK  7 active torsions:
REMARK  status: ('A' for Active; 'I' for Inactive)
REMARK    1  A    between atoms: C_5  and  C_6 
REMARK       I    between atoms: C_6  and  N_7 
REMARK    2  A    between atoms: N_10  and  C_11 
REMARK    3  A    between atoms: C_14  and  N_15 
REMARK    4  A    between atoms: N_15  and  C_16 
REMARK    5  A    between atoms: C_16  and  N_17 
REMARK       I    between atoms: N_17  and  C_18 
REMARK    6  A    between atoms: C_18  and  C_19 
REMARK    7  A    between atoms: C_22  and  O_23 
ROOT
HETATM    1  C   UNL     1      -8.395   5.366 -32.075  1.00  0.00     0.030 A 
HETATM    2  C   UNL     1      -8.645   4.981 -33.402  1.00  0.00     0.031 A 
HETATM    3  C   UNL     1      -9.827   4.324 -33.783  1.00  0.00     0.032 A 
HETATM    4  C   UNL     1     -10.818   4.043 -32.847  1.00  0.00     0.034 A 
HETATM    5  C   UNL     1     -10.604   4.421 -31.525  1.00  0.00     0.032 A 
HETATM    6  C   UNL     1      -9.409   5.056 -31.153  1.00  0.00     0.031 A 
ENDROOT
BRANCH   4   7
HETATM    7  N   UNL     1     -11.941   3.293 -33.273  1.00  0.00    -0.333 N 
HETATM    8  H   UNL     1     -12.740   3.867 -33.529  1.00  0.00     0.168 HD
BRANCH   7   9
HETATM    9  C   UNL     1     -11.934   2.055 -33.834  1.00  0.00     0.179 C 
HETATM   10  S   UNL     1     -12.267   1.873 -35.459  1.00  0.00    -0.040 SA
BRANCH   9  11
HETATM   11  N   UNL     1     -11.715   0.941 -33.061  1.00  0.00    -0.299 N 
HETATM   12  C   UNL     1     -10.621   0.092 -32.942  1.00  0.00     0.257 C 
HETATM   13  O   UNL     1     -10.775  -1.103 -32.705  1.00  0.00    -0.267 OA
HETATM   14  H   UNL     1     -12.537   0.600 -32.578  1.00  0.00     0.171 HD
BRANCH  12  15
HETATM   15  C   UNL     1      -9.253   0.663 -33.066  1.00  0.00     0.032 A 
HETATM   16  C   UNL     1      -8.587   1.196 -31.958  1.00  0.00     0.020 A 
HETATM   17  C   UNL     1      -7.291   1.701 -32.099  1.00  0.00     0.038 A 
HETATM   18  C   UNL     1      -6.642   1.660 -33.335  1.00  0.00     0.068 A 
HETATM   19  C   UNL     1      -7.298   1.104 -34.435  1.00  0.00     0.038 A 
HETATM   20  C   UNL     1      -8.598   0.600 -34.300  1.00  0.00     0.020 A 
BRANCH  18  21
HETATM   21  O   UNL     1      -5.381   2.188 -33.330  1.00  0.00    -0.356 OA
HETATM   22  C   UNL     1      -4.462   1.655 -32.385  1.00  0.00     0.210 C 
ENDBRANCH  18  21
ENDBRANCH  12  15
ENDBRANCH   9  11
ENDBRANCH   7   9
ENDBRANCH   4   7
BRANCH   1  23
HETATM   23  N   UNL     1      -7.187   5.940 -31.654  1.00  0.00    -0.378 N 
HETATM   24  C   UNL     1      -6.875   7.299 -32.164  1.00  0.00     0.143 C 
HETATM   25  C   UNL     1      -5.799   7.973 -31.297  1.00  0.00     0.146 C 
HETATM   26  N   UNL     1      -4.594   7.154 -31.166  1.00  0.00    -0.345 N 
HETATM   27  C   UNL     1      -3.437   7.826 -30.761  1.00  0.00     0.253 C 
HETATM   28  C   UNL     1      -4.868   5.782 -30.719  1.00  0.00     0.146 C 
HETATM   29  O   UNL     1      -3.425   9.016 -30.452  1.00  0.00    -0.267 OA
HETATM   30  C   UNL     1      -5.982   5.087 -31.533  1.00  0.00     0.143 C 
BRANCH  27  31
HETATM   31  C   UNL     1      -2.144   7.099 -30.775  1.00  0.00     0.032 A 
HETATM   32  C   UNL     1      -1.455   6.844 -29.585  1.00  0.00     0.017 A 
HETATM   33  C   UNL     1      -0.292   6.069 -29.604  1.00  0.00     0.007 A 
HETATM   34  C   UNL     1       0.189   5.541 -30.810  1.00  0.00    -0.062 A 
HETATM   35  C   UNL     1       1.394   4.646 -30.819  1.00  0.00     0.048 C 
HETATM   36  C   UNL     1      -0.520   5.782 -31.994  1.00  0.00     0.007 A 
HETATM   37  C   UNL     1      -1.683   6.556 -31.978  1.00  0.00     0.017 A 
ENDBRANCH  27  31
ENDBRANCH   1  23
TORSDOF 7
ENDMDL
MODEL 9
REMARK VINA RESULT:      -7.5      3.180     10.495
REMARK  7 active torsions:
REMARK  status: ('A' for Active; 'I' for Inactive)
REMARK    1  A    between atoms: C_5  and  C_6 
REMARK       I    between atoms: C_6  and  N_7 
REMARK    2  A    between atoms: N_10  and  C_11 
REMARK    3  A    between atoms: C_14  and  N_15 
REMARK    4  A    between atoms: N_15  and  C_16 
REMARK    5  A    between atoms: C_16  and  N_17 
REMARK       I    between atoms: N_17  and  C_18 
REMARK    6  A    between atoms: C_18  and  C_19 
REMARK    7  A    between atoms: C_22  and  O_23 
ROOT
HETATM    1  C   UNL     1      -6.379   4.383 -30.408  1.00  0.00     0.030 A 
HETATM    2  C   UNL     1      -5.147   4.943 -30.781  1.00  0.00     0.031 A 
HETATM    3  C   UNL     1      -4.466   5.868 -29.971  1.00  0.00     0.032 A 
HETATM    4  C   UNL     1      -4.989   6.254 -28.740  1.00  0.00     0.034 A 
HETATM    5  C   UNL     1      -6.204   5.710 -28.337  1.00  0.00     0.032 A 
HETATM    6  C   UNL     1      -6.885   4.805 -29.166  1.00  0.00     0.031 A 
ENDROOT
BRANCH   4   7
HETATM    7  N   UNL     1      -4.306   7.261 -28.015  1.00  0.00    -0.333 N 
HETATM    8  H   UNL     1      -3.674   6.896 -27.307  1.00  0.00     0.168 HD
BRANCH   7   9
HETATM    9  C   UNL     1      -4.009   8.518 -28.441  1.00  0.00     0.179 C 
HETATM   10  S   UNL     1      -5.150   9.409 -29.271  1.00  0.00    -0.040 SA
BRANCH   9  11
HETATM   11  N   UNL     1      -2.754   9.039 -28.248  1.00  0.00    -0.299 N 
HETATM   12  C   UNL     1      -1.510   8.681 -28.755  1.00  0.00     0.257 C 
HETATM   13  O   UNL     1      -0.493   8.820 -28.081  1.00  0.00    -0.267 OA
HETATM   14  H   UNL     1      -2.698   9.732 -27.512  1.00  0.00     0.171 HD
BRANCH  12  15
HETATM   15  C   UNL     1      -1.425   8.161 -30.146  1.00  0.00     0.032 A 
HETATM   16  C   UNL     1      -2.127   8.770 -31.191  1.00  0.00     0.020 A 
HETATM   17  C   UNL     1      -2.007   8.277 -32.493  1.00  0.00     0.038 A 
HETATM   18  C   UNL     1      -1.173   7.191 -32.768  1.00  0.00     0.068 A 
HETATM   19  C   UNL     1      -0.452   6.599 -31.729  1.00  0.00     0.038 A 
HETATM   20  C   UNL     1      -0.572   7.088 -30.422  1.00  0.00     0.020 A 
BRANCH  18  21
HETATM   21  O   UNL     1      -1.151   6.813 -34.083  1.00  0.00    -0.356 OA
HETATM   22  C   UNL     1      -1.331   5.430 -34.358  1.00  0.00     0.210 C 
ENDBRANCH  18  21
ENDBRANCH  12  15
ENDBRANCH   9  11
ENDBRANCH   7   9
ENDBRANCH   4   7
BRANCH   1  23
HETATM   23  N   UNL     1      -7.121   3.530 -31.237  1.00  0.00    -0.378 N 
HETATM   24  C   UNL     1      -6.732   3.480 -32.669  1.00  0.00     0.143 C 
HETATM   25  C   UNL     1      -7.291   2.217 -33.343  1.00  0.00     0.146 C 
HETATM   26  N   UNL     1      -8.738   2.086 -33.170  1.00  0.00    -0.345 N 
HETATM   27  C   UNL     1      -9.386   1.229 -34.063  1.00  0.00     0.253 C 
HETATM   28  C   UNL     1      -9.169   2.190 -31.770  1.00  0.00     0.146 C 
HETATM   29  O   UNL     1      -8.790   0.553 -34.899  1.00  0.00    -0.267 OA
HETATM   30  C   UNL     1      -8.585   3.420 -31.042  1.00  0.00     0.143 C 
BRANCH  27  31
HETATM   31  C   UNL     1     -10.869   1.180 -34.062  1.00  0.00     0.032 A 
HETATM   32  C   UNL     1     -11.616   2.112 -34.791  1.00  0.00     0.017 A 
HETATM   33  C   UNL     1     -13.006   1.989 -34.863  1.00  0.00     0.007 A 
HETATM   34  C   UNL     1     -13.660   0.933 -34.213  1.00  0.00    -0.062 A 
HETATM   35  C   UNL     1     -15.144   0.758 -34.355  1.00  0.00     0.048 C 
HETATM   36  C   UNL     1     -12.902  -0.009 -33.504  1.00  0.00     0.007 A 
HETATM   37  C   UNL     1     -11.513   0.111 -33.430  1.00  0.00     0.017 A 
ENDBRANCH  27  31
ENDBRANCH   1  23
TORSDOF 7
ENDMDL
MODEL 10
REMARK VINA RESULT:      -7.4      3.449      9.554
REMARK  7 active torsions:
REMARK  status: ('A' for Active; 'I' for Inactive)
REMARK    1  A    between atoms: C_5  and  C_6 
REMARK       I    between atoms: C_6  and  N_7 
REMARK    2  A    between atoms: N_10  and  C_11 
REMARK    3  A    between atoms: C_14  and  N_15 
REMARK    4  A    between atoms: N_15  and  C_16 
REMARK    5  A    between atoms: C_16  and  N_17 
REMARK       I    between atoms: N_17  and  C_18 
REMARK    6  A    between atoms: C_18  and  C_19 
REMARK    7  A    between atoms: C_22  and  O_23 
ROOT
HETATM    1  C   UNL     1      -5.591   4.525 -30.140  1.00  0.00     0.030 A 
HETATM    2  C   UNL     1      -4.578   5.439 -30.470  1.00  0.00     0.031 A 
HETATM    3  C   UNL     1      -4.304   6.571 -29.683  1.00  0.00     0.032 A 
HETATM    4  C   UNL     1      -5.027   6.820 -28.519  1.00  0.00     0.034 A 
HETATM    5  C   UNL     1      -6.031   5.927 -28.161  1.00  0.00     0.032 A 
HETATM    6  C   UNL     1      -6.310   4.813 -28.968  1.00  0.00     0.031 A 
ENDROOT
BRANCH   4   7
HETATM    7  N   UNL     1      -4.770   8.026 -27.823  1.00  0.00    -0.333 N 
HETATM    8  H   UNL     1      -4.233   7.897 -26.969  1.00  0.00     0.168 HD
BRANCH   7   9
HETATM    9  C   UNL     1      -4.695   9.277 -28.352  1.00  0.00     0.179 C 
HETATM   10  S   UNL     1      -5.923   9.845 -29.329  1.00  0.00    -0.040 SA
BRANCH   9  11
HETATM   11  N   UNL     1      -3.586  10.057 -28.139  1.00  0.00    -0.299 N 
HETATM   12  C   UNL     1      -2.233   9.833 -28.370  1.00  0.00     0.257 C 
HETATM   13  O   UNL     1      -1.381  10.315 -27.629  1.00  0.00    -0.267 OA
HETATM   14  H   UNL     1      -3.764  10.899 -27.607  1.00  0.00     0.171 HD
BRANCH  12  15
HETATM   15  C   UNL     1      -1.831   9.031 -29.556  1.00  0.00     0.032 A 
HETATM   16  C   UNL     1      -0.981   7.927 -29.430  1.00  0.00     0.020 A 
HETATM   17  C   UNL     1      -0.643   7.175 -30.558  1.00  0.00     0.038 A 
HETATM   18  C   UNL     1      -1.163   7.500 -31.813  1.00  0.00     0.068 A 
HETATM   19  C   UNL     1      -2.032   8.587 -31.934  1.00  0.00     0.038 A 
HETATM   20  C   UNL     1      -2.372   9.346 -30.806  1.00  0.00     0.020 A 
BRANCH  18  21
HETATM   21  O   UNL     1      -0.748   6.682 -32.827  1.00  0.00    -0.356 OA
HETATM   22  C   UNL     1      -1.593   6.590 -33.967  1.00  0.00     0.210 C 
ENDBRANCH  18  21
ENDBRANCH  12  15
ENDBRANCH   9  11
ENDBRANCH   7   9
ENDBRANCH   4   7
BRANCH   1  23
HETATM   23  N   UNL     1      -5.944   3.440 -30.956  1.00  0.00    -0.378 N 
HETATM   24  C   UNL     1      -7.216   2.745 -30.636  1.00  0.00     0.143 C 
HETATM   25  C   UNL     1      -7.699   1.911 -31.833  1.00  0.00     0.146 C 
HETATM   26  N   UNL     1      -6.678   0.979 -32.312  1.00  0.00    -0.345 N 
HETATM   27  C   UNL     1      -7.137  -0.080 -33.100  1.00  0.00     0.253 C 
HETATM   28  C   UNL     1      -5.385   1.620 -32.585  1.00  0.00     0.146 C 
HETATM   29  O   UNL     1      -8.310  -0.199 -33.449  1.00  0.00    -0.267 OA
HETATM   30  C   UNL     1      -4.890   2.510 -31.424  1.00  0.00     0.143 C 
BRANCH  27  31
HETATM   31  C   UNL     1      -6.189  -1.159 -33.475  1.00  0.00     0.032 A 
HETATM   32  C   UNL     1      -4.971  -1.305 -32.803  1.00  0.00     0.017 A 
HETATM   33  C   UNL     1      -4.138  -2.388 -33.099  1.00  0.00     0.007 A 
HETATM   34  C   UNL     1      -4.516  -3.332 -34.062  1.00  0.00    -0.062 A 
HETATM   35  C   UNL     1      -3.656  -4.535 -34.324  1.00  0.00     0.048 C 
HETATM   36  C   UNL     1      -5.748  -3.190 -34.714  1.00  0.00     0.007 A 
HETATM   37  C   UNL     1      -6.584  -2.110 -34.421  1.00  0.00     0.017 A 
ENDBRANCH  27  31
ENDBRANCH   1  23
TORSDOF 7
ENDMDL
