MODEL 1
REMARK VINA RESULT:      -9.2      0.000      0.000
REMARK  3 active torsions:
REMARK  status: ('A' for Active; 'I' for Inactive)
REMARK    1  A    between atoms: C_6  and  N_7 
REMARK    2  A    between atoms: N_7  and  N_8 
REMARK    3  A    between atoms: C_9  and  C_10 
ROOT
HETATM    1  N   UNL     1      -4.350   2.670 -32.148  1.00  0.00    -0.108 N 
HETATM    2  H   UNL     1      -5.273   2.989 -31.858  1.00  0.00     0.208 HD
ENDROOT
BRANCH   1   3
HETATM    3  C   UNL     1      -3.421   3.675 -32.221  1.00  0.00     0.724 A 
HETATM    4  N   UNL     1      -2.439   3.760 -31.375  1.00  0.00    -0.062 NA
HETATM    5  C   UNL     1      -1.543   4.836 -31.511  1.00  0.00     0.091 A 
HETATM    6  C   UNL     1      -1.662   5.799 -32.518  1.00  0.00     0.062 A 
HETATM    7  C   UNL     1      -0.492   4.957 -30.598  1.00  0.00     0.033 A 
HETATM    8  C   UNL     1      -0.760   6.862 -32.624  1.00  0.00     0.019 A 
HETATM    9  C   UNL     1      -2.782   5.656 -33.461  1.00  0.00     0.272 A 
HETATM   10  C   UNL     1       0.283   6.969 -31.705  1.00  0.00     0.001 A 
HETATM   11  C   UNL     1       0.416   6.017 -30.693  1.00  0.00     0.002 A 
HETATM   12  N   UNL     1      -3.597   4.582 -33.229  1.00  0.00    -0.152 N 
HETATM   13  O   UNL     1      -2.966   6.446 -34.379  1.00  0.00    -0.267 OA
HETATM   14  H   UNL     1      -4.390   4.431 -33.834  1.00  0.00     0.187 HD
ENDBRANCH   1   3
BRANCH   1  15
HETATM   15  N   UNL     1      -4.145   1.405 -32.614  1.00  0.00    -0.172 NA
HETATM   16  C   UNL     1      -5.216   0.686 -32.754  1.00  0.00     0.152 C 
BRANCH  16  17
HETATM   17  C   UNL     1      -5.149  -0.696 -33.286  1.00  0.00     0.003 A 
HETATM   18  C   UNL     1      -5.991  -1.143 -34.330  1.00  0.00     0.025 A 
HETATM   19 BR   UNL     1      -7.311  -0.044 -35.143  1.00  0.00    -0.050 Br
HETATM   20  C   UNL     1      -5.881  -2.453 -34.819  1.00  0.00     0.059 A 
HETATM   21  C   UNL     1      -4.934  -3.278 -34.253  1.00  0.00     0.106 A 
HETATM   22  C   UNL     1      -4.115  -2.848 -33.238  1.00  0.00     0.106 A 
HETATM   23  O   UNL     1      -4.687  -4.567 -34.607  1.00  0.00    -0.323 OA
HETATM   24  O   UNL     1      -3.252  -3.812 -32.824  1.00  0.00    -0.323 OA
HETATM   25  C   UNL     1      -4.197  -1.570 -32.731  1.00  0.00     0.054 A 
HETATM   26  C   UNL     1      -3.613  -4.900 -33.700  1.00  0.00     0.352 A 
ENDBRANCH  16  17
ENDBRANCH   1  15
TORSDOF 3
ENDMDL
MODEL 2
REMARK VINA RESULT:      -8.9      5.229      8.630
REMARK  3 active torsions:
REMARK  status: ('A' for Active; 'I' for Inactive)
REMARK    1  A    between atoms: C_6  and  N_7 
REMARK    2  A    between atoms: N_7  and  N_8 
REMARK    3  A    between atoms: C_9  and  C_10 
ROOT
HETATM    1  N   UNL     1      -6.640   1.061 -34.269  1.00  0.00    -0.108 N 
HETATM    2  H   UNL     1      -6.008   1.859 -34.286  1.00  0.00     0.208 HD
ENDROOT
BRANCH   1   3
HETATM    3  C   UNL     1      -5.999  -0.144 -34.146  1.00  0.00     0.724 A 
HETATM    4  N   UNL     1      -6.482  -1.231 -34.667  1.00  0.00    -0.062 NA
HETATM    5  C   UNL     1      -5.769  -2.428 -34.475  1.00  0.00     0.091 A 
HETATM    6  C   UNL     1      -4.568  -2.488 -33.763  1.00  0.00     0.062 A 
HETATM    7  C   UNL     1      -6.284  -3.613 -35.010  1.00  0.00     0.033 A 
HETATM    8  C   UNL     1      -3.884  -3.695 -33.581  1.00  0.00     0.019 A 
HETATM    9  C   UNL     1      -4.051  -1.231 -33.201  1.00  0.00     0.272 A 
HETATM   10  C   UNL     1      -4.411  -4.867 -34.120  1.00  0.00     0.001 A 
HETATM   11  C   UNL     1      -5.610  -4.826 -34.833  1.00  0.00     0.002 A 
HETATM   12  N   UNL     1      -4.829  -0.131 -33.438  1.00  0.00    -0.152 N 
HETATM   13  O   UNL     1      -3.004  -1.181 -32.567  1.00  0.00    -0.267 OA
HETATM   14  H   UNL     1      -4.538   0.763 -33.072  1.00  0.00     0.187 HD
ENDBRANCH   1   3
BRANCH   1  15
HETATM   15  N   UNL     1      -7.967   1.195 -34.557  1.00  0.00    -0.172 NA
HETATM   16  C   UNL     1      -8.735   1.419 -33.536  1.00  0.00     0.152 C 
BRANCH  16  17
HETATM   17  C   UNL     1     -10.194   1.622 -33.702  1.00  0.00     0.003 A 
HETATM   18  C   UNL     1     -10.744   2.874 -34.059  1.00  0.00     0.025 A 
HETATM   19 BR   UNL     1      -9.691   4.432 -34.334  1.00  0.00    -0.050 Br
HETATM   20  C   UNL     1     -12.129   3.019 -34.227  1.00  0.00     0.059 A 
HETATM   21  C   UNL     1     -12.924   1.910 -34.036  1.00  0.00     0.106 A 
HETATM   22  C   UNL     1     -12.394   0.692 -33.687  1.00  0.00     0.106 A 
HETATM   23  O   UNL     1     -14.276   1.869 -34.163  1.00  0.00    -0.323 OA
HETATM   24  O   UNL     1     -13.345  -0.268 -33.551  1.00  0.00    -0.323 OA
HETATM   25  C   UNL     1     -11.039   0.514 -33.511  1.00  0.00     0.054 A 
HETATM   26  C   UNL     1     -14.538   0.481 -33.861  1.00  0.00     0.352 A 
ENDBRANCH  16  17
ENDBRANCH   1  15
TORSDOF 3
ENDMDL
MODEL 3
REMARK VINA RESULT:      -8.6      2.573      8.790
REMARK  3 active torsions:
REMARK  status: ('A' for Active; 'I' for Inactive)
REMARK    1  A    between atoms: C_6  and  N_7 
REMARK    2  A    between atoms: N_7  and  N_8 
REMARK    3  A    between atoms: C_9  and  C_10 
ROOT
HETATM    1  N   UNL     1      -3.454   0.169 -32.126  1.00  0.00    -0.108 N 
HETATM    2  H   UNL     1      -2.822  -0.246 -31.444  1.00  0.00     0.208 HD
ENDROOT
BRANCH   1   3
HETATM    3  C   UNL     1      -4.191  -0.754 -32.821  1.00  0.00     0.724 A 
HETATM    4  N   UNL     1      -3.785  -1.978 -32.974  1.00  0.00    -0.062 NA
HETATM    5  C   UNL     1      -4.596  -2.853 -33.720  1.00  0.00     0.091 A 
HETATM    6  C   UNL     1      -5.813  -2.462 -34.285  1.00  0.00     0.062 A 
HETATM    7  C   UNL     1      -4.166  -4.169 -33.915  1.00  0.00     0.033 A 
HETATM    8  C   UNL     1      -6.594  -3.353 -35.028  1.00  0.00     0.019 A 
HETATM    9  C   UNL     1      -6.240  -1.070 -34.075  1.00  0.00     0.272 A 
HETATM   10  C   UNL     1      -6.151  -4.661 -35.214  1.00  0.00     0.001 A 
HETATM   11  C   UNL     1      -4.938  -5.069 -34.658  1.00  0.00     0.002 A 
HETATM   12  N   UNL     1      -5.372  -0.305 -33.347  1.00  0.00    -0.152 N 
HETATM   13  O   UNL     1      -7.293  -0.636 -34.526  1.00  0.00    -0.267 OA
HETATM   14  H   UNL     1      -5.599   0.663 -33.174  1.00  0.00     0.187 HD
ENDBRANCH   1   3
BRANCH   1  15
HETATM   15  N   UNL     1      -3.394   1.494 -32.442  1.00  0.00    -0.172 NA
HETATM   16  C   UNL     1      -3.425   2.306 -31.431  1.00  0.00     0.152 C 
BRANCH  16  17
HETATM   17  C   UNL     1      -3.331   3.773 -31.621  1.00  0.00     0.003 A 
HETATM   18  C   UNL     1      -4.244   4.670 -31.019  1.00  0.00     0.025 A 
HETATM   19 BR   UNL     1      -5.697   4.103 -29.934  1.00  0.00    -0.050 Br
HETATM   20  C   UNL     1      -4.107   6.054 -31.206  1.00  0.00     0.059 A 
HETATM   21  C   UNL     1      -3.064   6.501 -31.987  1.00  0.00     0.106 A 
HETATM   22  C   UNL     1      -2.177   5.633 -32.575  1.00  0.00     0.106 A 
HETATM   23  O   UNL     1      -2.780   7.801 -32.267  1.00  0.00    -0.323 OA
HETATM   24  O   UNL     1      -1.224   6.276 -33.298  1.00  0.00    -0.323 OA
HETATM   25  C   UNL     1      -2.281   4.269 -32.414  1.00  0.00     0.054 A 
HETATM   26  C   UNL     1      -1.606   7.652 -33.095  1.00  0.00     0.352 A 
ENDBRANCH  16  17
ENDBRANCH   1  15
TORSDOF 3
ENDMDL
MODEL 4
REMARK VINA RESULT:      -8.6      5.717      8.468
REMARK  3 active torsions:
REMARK  status: ('A' for Active; 'I' for Inactive)
REMARK    1  A    between atoms: C_6  and  N_7 
REMARK    2  A    between atoms: N_7  and  N_8 
REMARK    3  A    between atoms: C_9  and  C_10 
ROOT
HETATM    1  N   UNL     1      -9.075   1.863 -34.604  1.00  0.00    -0.108 N 
HETATM    2  H   UNL     1      -8.616   2.751 -34.794  1.00  0.00     0.208 HD
ENDROOT
BRANCH   1   3
HETATM    3  C   UNL     1     -10.352   1.997 -34.127  1.00  0.00     0.724 A 
HETATM    4  N   UNL     1     -11.314   1.219 -34.522  1.00  0.00    -0.062 NA
HETATM    5  C   UNL     1     -12.600   1.440 -33.996  1.00  0.00     0.091 A 
HETATM    6  C   UNL     1     -12.875   2.447 -33.066  1.00  0.00     0.062 A 
HETATM    7  C   UNL     1     -13.653   0.628 -34.425  1.00  0.00     0.033 A 
HETATM    8  C   UNL     1     -14.166   2.648 -32.565  1.00  0.00     0.019 A 
HETATM    9  C   UNL     1     -11.753   3.296 -32.636  1.00  0.00     0.272 A 
HETATM   10  C   UNL     1     -15.205   1.829 -33.005  1.00  0.00     0.001 A 
HETATM   11  C   UNL     1     -14.949   0.820 -33.934  1.00  0.00     0.002 A 
HETATM   12  N   UNL     1     -10.551   3.000 -33.219  1.00  0.00    -0.152 N 
HETATM   13  O   UNL     1     -11.894   4.200 -31.821  1.00  0.00    -0.267 OA
HETATM   14  H   UNL     1      -9.742   3.551 -32.976  1.00  0.00     0.187 HD
ENDBRANCH   1   3
BRANCH   1  15
HETATM   15  N   UNL     1      -8.388   0.684 -34.628  1.00  0.00    -0.172 NA
HETATM   16  C   UNL     1      -7.176   0.741 -34.170  1.00  0.00     0.152 C 
BRANCH  16  17
HETATM   17  C   UNL     1      -6.324  -0.470 -34.101  1.00  0.00     0.003 A 
HETATM   18  C   UNL     1      -5.076  -0.476 -33.435  1.00  0.00     0.025 A 
HETATM   19 BR   UNL     1      -4.343   1.057 -32.587  1.00  0.00    -0.050 Br
HETATM   20  C   UNL     1      -4.310  -1.650 -33.375  1.00  0.00     0.059 A 
HETATM   21  C   UNL     1      -4.811  -2.782 -33.979  1.00  0.00     0.106 A 
HETATM   22  C   UNL     1      -6.021  -2.780 -34.629  1.00  0.00     0.106 A 
HETATM   23  O   UNL     1      -4.208  -4.000 -34.011  1.00  0.00    -0.323 OA
HETATM   24  O   UNL     1      -6.331  -3.994 -35.151  1.00  0.00    -0.323 OA
HETATM   25  C   UNL     1      -6.799  -1.646 -34.710  1.00  0.00     0.054 A 
HETATM   26  C   UNL     1      -5.182  -4.768 -34.751  1.00  0.00     0.352 A 
ENDBRANCH  16  17
ENDBRANCH   1  15
TORSDOF 3
ENDMDL
MODEL 5
REMARK VINA RESULT:      -8.4      5.820      8.100
REMARK  3 active torsions:
REMARK  status: ('A' for Active; 'I' for Inactive)
REMARK    1  A    between atoms: C_6  and  N_7 
REMARK    2  A    between atoms: N_7  and  N_8 
REMARK    3  A    between atoms: C_9  and  C_10 
ROOT
HETATM    1  N   UNL     1      -9.260   1.713 -34.787  1.00  0.00    -0.108 N 
HETATM    2  H   UNL     1      -8.947   2.340 -35.527  1.00  0.00     0.208 HD
ENDROOT
BRANCH   1   3
HETATM    3  C   UNL     1     -10.468   2.065 -34.246  1.00  0.00     0.724 A 
HETATM    4  N   UNL     1     -10.551   2.812 -33.187  1.00  0.00    -0.062 NA
HETATM    5  C   UNL     1     -11.832   3.108 -32.686  1.00  0.00     0.091 A 
HETATM    6  C   UNL     1     -13.006   2.643 -33.286  1.00  0.00     0.062 A 
HETATM    7  C   UNL     1     -11.941   3.892 -31.534  1.00  0.00     0.033 A 
HETATM    8  C   UNL     1     -14.266   2.947 -32.762  1.00  0.00     0.019 A 
HETATM    9  C   UNL     1     -12.865   1.812 -34.492  1.00  0.00     0.272 A 
HETATM   10  C   UNL     1     -14.357   3.730 -31.612  1.00  0.00     0.001 A 
HETATM   11  C   UNL     1     -13.196   4.202 -30.999  1.00  0.00     0.002 A 
HETATM   12  N   UNL     1     -11.576   1.578 -34.883  1.00  0.00    -0.152 N 
HETATM   13  O   UNL     1     -13.835   1.362 -35.091  1.00  0.00    -0.267 OA
HETATM   14  H   UNL     1     -11.408   1.006 -35.697  1.00  0.00     0.187 HD
ENDBRANCH   1   3
BRANCH   1  15
HETATM   15  N   UNL     1      -8.439   0.757 -34.267  1.00  0.00    -0.172 NA
HETATM   16  C   UNL     1      -7.368   0.511 -34.957  1.00  0.00     0.152 C 
BRANCH  16  17
HETATM   17  C   UNL     1      -6.366  -0.478 -34.493  1.00  0.00     0.003 A 
HETATM   18  C   UNL     1      -5.376  -0.156 -33.536  1.00  0.00     0.025 A 
HETATM   19 BR   UNL     1      -5.198   1.572 -32.765  1.00  0.00    -0.050 Br
HETATM   20  C   UNL     1      -4.459  -1.128 -33.108  1.00  0.00     0.059 A 
HETATM   21  C   UNL     1      -4.558  -2.392 -33.646  1.00  0.00     0.106 A 
HETATM   22  C   UNL     1      -5.517  -2.709 -34.577  1.00  0.00     0.106 A 
HETATM   23  O   UNL     1      -3.762  -3.451 -33.342  1.00  0.00    -0.323 OA
HETATM   24  O   UNL     1      -5.445  -4.005 -34.976  1.00  0.00    -0.323 OA
HETATM   25  C   UNL     1      -6.432  -1.780 -35.022  1.00  0.00     0.054 A 
HETATM   26  C   UNL     1      -4.334  -4.475 -34.185  1.00  0.00     0.352 A 
ENDBRANCH  16  17
ENDBRANCH   1  15
TORSDOF 3
ENDMDL
MODEL 6
REMARK VINA RESULT:      -8.1      1.708      2.085
REMARK  3 active torsions:
REMARK  status: ('A' for Active; 'I' for Inactive)
REMARK    1  A    between atoms: C_6  and  N_7 
REMARK    2  A    between atoms: N_7  and  N_8 
REMARK    3  A    between atoms: C_9  and  C_10 
ROOT
HETATM    1  N   UNL     1      -4.767   2.889 -31.160  1.00  0.00    -0.108 N 
HETATM    2  H   UNL     1      -5.695   3.043 -30.770  1.00  0.00     0.208 HD
ENDROOT
BRANCH   1   3
HETATM    3  C   UNL     1      -4.000   4.023 -31.216  1.00  0.00     0.724 A 
HETATM    4  N   UNL     1      -4.527   5.208 -31.138  1.00  0.00    -0.062 NA
HETATM    5  C   UNL     1      -3.668   6.319 -31.225  1.00  0.00     0.091 A 
HETATM    6  C   UNL     1      -2.283   6.196 -31.377  1.00  0.00     0.062 A 
HETATM    7  C   UNL     1      -4.217   7.602 -31.165  1.00  0.00     0.033 A 
HETATM    8  C   UNL     1      -1.454   7.319 -31.468  1.00  0.00     0.019 A 
HETATM    9  C   UNL     1      -1.729   4.835 -31.447  1.00  0.00     0.272 A 
HETATM   10  C   UNL     1      -2.019   8.592 -31.408  1.00  0.00     0.001 A 
HETATM   11  C   UNL     1      -3.399   8.733 -31.257  1.00  0.00     0.002 A 
HETATM   12  N   UNL     1      -2.654   3.831 -31.365  1.00  0.00    -0.152 N 
HETATM   13  O   UNL     1      -0.528   4.625 -31.575  1.00  0.00    -0.267 OA
HETATM   14  H   UNL     1      -2.342   2.873 -31.416  1.00  0.00     0.187 HD
ENDBRANCH   1   3
BRANCH   1  15
HETATM   15  N   UNL     1      -4.429   1.708 -31.753  1.00  0.00    -0.172 NA
HETATM   16  C   UNL     1      -5.428   0.956 -32.097  1.00  0.00     0.152 C 
BRANCH  16  17
HETATM   17  C   UNL     1      -5.212  -0.340 -32.784  1.00  0.00     0.003 A 
HETATM   18  C   UNL     1      -5.868  -0.669 -33.993  1.00  0.00     0.025 A 
HETATM   19 BR   UNL     1      -7.110   0.486 -34.850  1.00  0.00    -0.050 Br
HETATM   20  C   UNL     1      -5.620  -1.898 -34.623  1.00  0.00     0.059 A 
HETATM   21  C   UNL     1      -4.725  -2.761 -34.030  1.00  0.00     0.106 A 
HETATM   22  C   UNL     1      -4.087  -2.445 -32.855  1.00  0.00     0.106 A 
HETATM   23  O   UNL     1      -4.363  -3.982 -34.504  1.00  0.00    -0.323 OA
HETATM   24  O   UNL     1      -3.245  -3.428 -32.442  1.00  0.00    -0.323 OA
HETATM   25  C   UNL     1      -4.308  -1.250 -32.207  1.00  0.00     0.054 A 
HETATM   26  C   UNL     1      -3.417  -4.399 -33.495  1.00  0.00     0.352 A 
ENDBRANCH  16  17
ENDBRANCH   1  15
TORSDOF 3
ENDMDL
MODEL 7
REMARK VINA RESULT:      -8.1      1.768      2.319
REMARK  3 active torsions:
REMARK  status: ('A' for Active; 'I' for Inactive)
REMARK    1  A    between atoms: C_6  and  N_7 
REMARK    2  A    between atoms: N_7  and  N_8 
REMARK    3  A    between atoms: C_9  and  C_10 
ROOT
HETATM    1  N   UNL     1      -5.610   2.778 -31.817  1.00  0.00    -0.108 N 
HETATM    2  H   UNL     1      -6.265   3.231 -31.183  1.00  0.00     0.208 HD
ENDROOT
BRANCH   1   3
HETATM    3  C   UNL     1      -4.673   3.630 -32.338  1.00  0.00     0.724 A 
HETATM    4  N   UNL     1      -3.629   3.995 -31.657  1.00  0.00    -0.062 NA
HETATM    5  C   UNL     1      -2.726   4.890 -32.261  1.00  0.00     0.091 A 
HETATM    6  C   UNL     1      -2.904   5.386 -33.556  1.00  0.00     0.062 A 
HETATM    7  C   UNL     1      -1.608   5.311 -31.536  1.00  0.00     0.033 A 
HETATM    8  C   UNL     1      -1.995   6.281 -34.128  1.00  0.00     0.019 A 
HETATM    9  C   UNL     1      -4.094   4.936 -34.295  1.00  0.00     0.272 A 
HETATM   10  C   UNL     1      -0.884   6.692 -33.392  1.00  0.00     0.001 A 
HETATM   11  C   UNL     1      -0.692   6.208 -32.097  1.00  0.00     0.002 A 
HETATM   12  N   UNL     1      -4.908   4.077 -33.609  1.00  0.00    -0.152 N 
HETATM   13  O   UNL     1      -4.333   5.311 -35.437  1.00  0.00    -0.267 OA
HETATM   14  H   UNL     1      -5.747   3.737 -34.054  1.00  0.00     0.187 HD
ENDBRANCH   1   3
BRANCH   1  15
HETATM   15  N   UNL     1      -5.804   1.499 -32.250  1.00  0.00    -0.172 NA
HETATM   16  C   UNL     1      -4.736   0.883 -32.653  1.00  0.00     0.152 C 
BRANCH  16  17
HETATM   17  C   UNL     1      -4.789  -0.524 -33.116  1.00  0.00     0.003 A 
HETATM   18  C   UNL     1      -3.795  -1.469 -32.770  1.00  0.00     0.025 A 
HETATM   19 BR   UNL     1      -2.278  -1.041 -31.708  1.00  0.00    -0.050 Br
HETATM   20  C   UNL     1      -3.894  -2.797 -33.212  1.00  0.00     0.059 A 
HETATM   21  C   UNL     1      -4.981  -3.143 -33.985  1.00  0.00     0.106 A 
HETATM   22  C   UNL     1      -5.947  -2.228 -34.324  1.00  0.00     0.106 A 
HETATM   23  O   UNL     1      -5.237  -4.378 -34.489  1.00  0.00    -0.323 OA
HETATM   24  O   UNL     1      -6.932  -2.772 -35.085  1.00  0.00    -0.323 OA
HETATM   25  C   UNL     1      -5.881  -0.916 -33.911  1.00  0.00     0.054 A 
HETATM   26  C   UNL     1      -6.482  -4.139 -35.182  1.00  0.00     0.352 A 
ENDBRANCH  16  17
ENDBRANCH   1  15
TORSDOF 3
ENDMDL
MODEL 8
REMARK VINA RESULT:      -8.0      5.518      7.424
REMARK  3 active torsions:
REMARK  status: ('A' for Active; 'I' for Inactive)
REMARK    1  A    between atoms: C_6  and  N_7 
REMARK    2  A    between atoms: N_7  and  N_8 
REMARK    3  A    between atoms: C_9  and  C_10 
ROOT
HETATM    1  N   UNL     1      -8.732   1.735 -31.708  1.00  0.00    -0.108 N 
HETATM    2  H   UNL     1      -8.697   2.199 -30.802  1.00  0.00     0.208 HD
ENDROOT
BRANCH   1   3
HETATM    3  C   UNL     1      -9.696   2.236 -32.543  1.00  0.00     0.724 A 
HETATM    4  N   UNL     1      -9.587   3.412 -33.084  1.00  0.00    -0.062 NA
HETATM    5  C   UNL     1     -10.632   3.857 -33.914  1.00  0.00     0.091 A 
HETATM    6  C   UNL     1     -11.766   3.084 -34.182  1.00  0.00     0.062 A 
HETATM    7  C   UNL     1     -10.543   5.127 -34.488  1.00  0.00     0.033 A 
HETATM    8  C   UNL     1     -12.794   3.555 -35.005  1.00  0.00     0.019 A 
HETATM    9  C   UNL     1     -11.842   1.754 -33.559  1.00  0.00     0.272 A 
HETATM   10  C   UNL     1     -12.690   4.826 -35.570  1.00  0.00     0.001 A 
HETATM   11  C   UNL     1     -11.566   5.611 -35.311  1.00  0.00     0.002 A 
HETATM   12  N   UNL     1     -10.778   1.429 -32.764  1.00  0.00    -0.152 N 
HETATM   13  O   UNL     1     -12.793   1.002 -33.739  1.00  0.00    -0.267 OA
HETATM   14  H   UNL     1     -10.770   0.534 -32.298  1.00  0.00     0.187 HD
ENDBRANCH   1   3
BRANCH   1  15
HETATM   15  N   UNL     1      -8.025   0.595 -31.954  1.00  0.00    -0.172 NA
HETATM   16  C   UNL     1      -7.378   0.577 -33.078  1.00  0.00     0.152 C 
BRANCH  16  17
HETATM   17  C   UNL     1      -6.537  -0.582 -33.462  1.00  0.00     0.003 A 
HETATM   18  C   UNL     1      -5.146  -0.618 -33.212  1.00  0.00     0.025 A 
HETATM   19 BR   UNL     1      -4.198   0.810 -32.393  1.00  0.00    -0.050 Br
HETATM   20  C   UNL     1      -4.390  -1.744 -33.572  1.00  0.00     0.059 A 
HETATM   21  C   UNL     1      -5.044  -2.800 -34.169  1.00  0.00     0.106 A 
HETATM   22  C   UNL     1      -6.395  -2.767 -34.414  1.00  0.00     0.106 A 
HETATM   23  O   UNL     1      -4.472  -3.964 -34.573  1.00  0.00    -0.323 OA
HETATM   24  O   UNL     1      -6.842  -3.906 -35.004  1.00  0.00    -0.323 OA
HETATM   25  C   UNL     1      -7.168  -1.678 -34.077  1.00  0.00     0.054 A 
HETATM   26  C   UNL     1      -5.620  -4.667 -35.097  1.00  0.00     0.352 A 
ENDBRANCH  16  17
ENDBRANCH   1  15
TORSDOF 3
ENDMDL
MODEL 9
REMARK VINA RESULT:      -8.0      3.110      8.344
REMARK  3 active torsions:
REMARK  status: ('A' for Active; 'I' for Inactive)
REMARK    1  A    between atoms: C_6  and  N_7 
REMARK    2  A    between atoms: N_7  and  N_8 
REMARK    3  A    between atoms: C_9  and  C_10 
ROOT
HETATM    1  N   UNL     1      -6.279   1.786 -30.502  1.00  0.00    -0.108 N 
HETATM    2  H   UNL     1      -7.019   1.692 -29.810  1.00  0.00     0.208 HD
ENDROOT
BRANCH   1   3
HETATM    3  C   UNL     1      -6.344   0.855 -31.505  1.00  0.00     0.724 A 
HETATM    4  N   UNL     1      -5.359   0.045 -31.751  1.00  0.00    -0.062 NA
HETATM    5  C   UNL     1      -5.503  -0.867 -32.813  1.00  0.00     0.091 A 
HETATM    6  C   UNL     1      -6.659  -0.941 -33.596  1.00  0.00     0.062 A 
HETATM    7  C   UNL     1      -4.446  -1.732 -33.107  1.00  0.00     0.033 A 
HETATM    8  C   UNL     1      -6.771  -1.852 -34.650  1.00  0.00     0.019 A 
HETATM    9  C   UNL     1      -7.755  -0.013 -33.274  1.00  0.00     0.272 A 
HETATM   10  C   UNL     1      -5.707  -2.708 -34.931  1.00  0.00     0.001 A 
HETATM   11  C   UNL     1      -4.546  -2.648 -34.160  1.00  0.00     0.002 A 
HETATM   12  N   UNL     1      -7.503   0.836 -32.232  1.00  0.00    -0.152 N 
HETATM   13  O   UNL     1      -8.808  -0.006 -33.900  1.00  0.00    -0.267 OA
HETATM   14  H   UNL     1      -8.209   1.505 -31.965  1.00  0.00     0.187 HD
ENDBRANCH   1   3
BRANCH   1  15
HETATM   15  N   UNL     1      -5.222   2.627 -30.309  1.00  0.00    -0.172 NA
HETATM   16  C   UNL     1      -5.044   3.514 -31.238  1.00  0.00     0.152 C 
BRANCH  16  17
HETATM   17  C   UNL     1      -3.957   4.518 -31.143  1.00  0.00     0.003 A 
HETATM   18  C   UNL     1      -4.198   5.854 -30.748  1.00  0.00     0.025 A 
HETATM   19 BR   UNL     1      -5.928   6.518 -30.326  1.00  0.00    -0.050 Br
HETATM   20  C   UNL     1      -3.138   6.768 -30.649  1.00  0.00     0.059 A 
HETATM   21  C   UNL     1      -1.869   6.321 -30.947  1.00  0.00     0.106 A 
HETATM   22  C   UNL     1      -1.631   5.025 -31.334  1.00  0.00     0.106 A 
HETATM   23  O   UNL     1      -0.732   7.065 -30.898  1.00  0.00    -0.323 OA
HETATM   24  O   UNL     1      -0.316   4.790 -31.577  1.00  0.00    -0.323 OA
HETATM   25  C   UNL     1      -2.648   4.102 -31.443  1.00  0.00     0.054 A 
HETATM   26  C   UNL     1       0.253   6.085 -31.293  1.00  0.00     0.352 A 
ENDBRANCH  16  17
ENDBRANCH   1  15
TORSDOF 3
ENDMDL
MODEL 10
REMARK VINA RESULT:      -7.9      2.531      8.796
REMARK  3 active torsions:
REMARK  status: ('A' for Active; 'I' for Inactive)
REMARK    1  A    between atoms: C_6  and  N_7 
REMARK    2  A    between atoms: N_7  and  N_8 
REMARK    3  A    between atoms: C_9  and  C_10 
ROOT
HETATM    1  N   UNL     1      -5.313   2.541 -32.460  1.00  0.00    -0.108 N 
HETATM    2  H   UNL     1      -6.288   2.824 -32.528  1.00  0.00     0.208 HD
ENDROOT
BRANCH   1   3
HETATM    3  C   UNL     1      -5.095   1.236 -32.818  1.00  0.00     0.724 A 
HETATM    4  N   UNL     1      -5.930   0.586 -33.570  1.00  0.00    -0.062 NA
HETATM    5  C   UNL     1      -5.638  -0.757 -33.872  1.00  0.00     0.091 A 
HETATM    6  C   UNL     1      -4.490  -1.406 -33.407  1.00  0.00     0.062 A 
HETATM    7  C   UNL     1      -6.536  -1.481 -34.661  1.00  0.00     0.033 A 
HETATM    8  C   UNL     1      -4.230  -2.744 -33.717  1.00  0.00     0.019 A 
HETATM    9  C   UNL     1      -3.565  -0.626 -32.569  1.00  0.00     0.272 A 
HETATM   10  C   UNL     1      -5.135  -3.452 -34.506  1.00  0.00     0.001 A 
HETATM   11  C   UNL     1      -6.287  -2.821 -34.977  1.00  0.00     0.002 A 
HETATM   12  N   UNL     1      -3.953   0.663 -32.330  1.00  0.00    -0.152 N 
HETATM   13  O   UNL     1      -2.531  -1.105 -32.120  1.00  0.00    -0.267 OA
HETATM   14  H   UNL     1      -3.369   1.251 -31.754  1.00  0.00     0.187 HD
ENDBRANCH   1   3
BRANCH   1  15
HETATM   15  N   UNL     1      -4.378   3.337 -31.867  1.00  0.00    -0.172 NA
HETATM   16  C   UNL     1      -3.796   4.188 -32.654  1.00  0.00     0.152 C 
BRANCH  16  17
HETATM   17  C   UNL     1      -2.785   5.142 -32.139  1.00  0.00     0.003 A 
HETATM   18  C   UNL     1      -1.764   5.674 -32.962  1.00  0.00     0.025 A 
HETATM   19 BR   UNL     1      -1.555   5.208 -34.792  1.00  0.00    -0.050 Br
HETATM   20  C   UNL     1      -0.839   6.591 -32.441  1.00  0.00     0.059 A 
HETATM   21  C   UNL     1      -0.960   6.952 -31.117  1.00  0.00     0.106 A 
HETATM   22  C   UNL     1      -1.948   6.437 -30.315  1.00  0.00     0.106 A 
HETATM   23  O   UNL     1      -0.159   7.829 -30.455  1.00  0.00    -0.323 OA
HETATM   24  O   UNL     1      -1.894   6.923 -29.048  1.00  0.00    -0.323 OA
HETATM   25  C   UNL     1      -2.872   5.533 -30.791  1.00  0.00     0.054 A 
HETATM   26  C   UNL     1      -0.761   7.812 -29.142  1.00  0.00     0.352 A 
ENDBRANCH  16  17
ENDBRANCH   1  15
TORSDOF 3
ENDMDL
