MODEL 1
REMARK VINA RESULT:     -10.7      0.000      0.000
REMARK  8 active torsions:
REMARK  status: ('A' for Active; 'I' for Inactive)
REMARK    1  A    between atoms: N_5  and  C_6 
REMARK    2  A    between atoms: C_6  and  C_7 
REMARK       I    between atoms: C_7  and  N_8 
REMARK    3  A    between atoms: N_8  and  C_9 
REMARK    4  A    between atoms: N_19  and  C_20 
REMARK    5  A    between atoms: C_20  and  C_21 
REMARK    6  A    between atoms: C_24  and  C_25 
REMARK       I    between atoms: C_25  and  N_26 
REMARK    7  A    between atoms: N_26  and  C_27 
REMARK    8  A    between atoms: C_27  and  C_28 
ROOT
HETATM    1  C   UNL     1      -2.786  11.214 -29.395  1.00  0.00     0.001 A 
HETATM    2  C   UNL     1      -2.619  10.343 -30.466  1.00  0.00     0.019 A 
HETATM    3  C   UNL     1      -1.885   9.158 -30.300  1.00  0.00     0.059 A 
HETATM    4  C   UNL     1      -1.318   8.825 -29.071  1.00  0.00     0.055 A 
HETATM    5  N   UNL     1      -0.580   7.615 -28.949  1.00  0.00    -0.290 N 
HETATM    6  C   UNL     1      -0.324   6.796 -30.040  1.00  0.00     0.332 C 
HETATM    7  O   UNL     1       0.478   5.863 -29.946  1.00  0.00    -0.246 OA
HETATM    8  N   UNL     1      -0.961   7.106 -31.230  1.00  0.00    -0.261 N 
HETATM    9  C   UNL     1      -1.721   8.247 -31.443  1.00  0.00     0.264 C 
HETATM   10  O   UNL     1      -2.242   8.534 -32.518  1.00  0.00    -0.267 OA
HETATM   11  C   UNL     1      -1.492   9.717 -28.000  1.00  0.00     0.031 A 
HETATM   12  C   UNL     1      -2.221  10.901 -28.164  1.00  0.00     0.002 A 
ENDROOT
BRANCH   8  13
HETATM   13  C   UNL     1      -0.794   6.188 -32.351  1.00  0.00     0.175 C 
BRANCH  13  14
HETATM   14  C   UNL     1      -1.990   5.272 -32.519  1.00  0.00    -0.040 A 
HETATM   15  C   UNL     1      -2.253   4.256 -31.589  1.00  0.00     0.010 A 
HETATM   16  C   UNL     1      -3.357   3.405 -31.741  1.00  0.00     0.017 A 
HETATM   17  C   UNL     1      -4.223   3.560 -32.829  1.00  0.00     0.032 A 
HETATM   18  C   UNL     1      -3.959   4.577 -33.760  1.00  0.00     0.017 A 
HETATM   19  C   UNL     1      -2.853   5.419 -33.611  1.00  0.00     0.010 A 
BRANCH  17  20
HETATM   20  C   UNL     1      -5.423   2.699 -33.067  1.00  0.00     0.251 C 
HETATM   21  N   UNL     1      -5.258   1.331 -33.030  1.00  0.00    -0.353 N 
HETATM   22  H   UNL     1      -4.389   0.910 -32.744  1.00  0.00     0.163 HD
HETATM   23  O   UNL     1      -6.507   3.222 -33.303  1.00  0.00    -0.268 OA
BRANCH  21  24
HETATM   24  C   UNL     1      -6.379   0.440 -33.248  1.00  0.00     0.161 C 
BRANCH  24  25
HETATM   25  C   UNL     1      -5.946  -0.942 -33.684  1.00  0.00    -0.038 A 
HETATM   26  C   UNL     1      -4.778  -1.504 -33.140  1.00  0.00     0.048 A 
HETATM   27  C   UNL     1      -4.447  -2.796 -33.494  1.00  0.00     0.105 A 
HETATM   28  C   UNL     1      -5.222  -3.535 -34.354  1.00  0.00     0.105 A 
HETATM   29  O   UNL     1      -3.366  -3.490 -33.046  1.00  0.00    -0.323 OA
HETATM   30  O   UNL     1      -4.726  -4.783 -34.561  1.00  0.00    -0.323 OA
HETATM   31  C   UNL     1      -6.376  -3.025 -34.906  1.00  0.00     0.040 A 
HETATM   32  C   UNL     1      -3.569  -4.760 -33.700  1.00  0.00     0.352 A 
HETATM   33  C   UNL     1      -6.746  -1.722 -34.553  1.00  0.00     0.012 A 
ENDBRANCH  24  25
ENDBRANCH  21  24
ENDBRANCH  17  20
ENDBRANCH  13  14
ENDBRANCH   8  13
BRANCH   5  34
HETATM   34  C   UNL     1      -0.088   7.177 -27.635  1.00  0.00     0.237 C 
BRANCH  34  35
HETATM   35  C   UNL     1       1.036   8.033 -27.039  1.00  0.00     0.240 C 
HETATM   36  N   UNL     1       0.918   8.251 -25.678  1.00  0.00    -0.326 N 
HETATM   37  H   UNL     1       0.133   7.800 -25.222  1.00  0.00     0.169 HD
HETATM   38  O   UNL     1       1.873   8.540 -27.781  1.00  0.00    -0.271 OA
BRANCH  36  39
HETATM   39  C   UNL     1       1.730   9.065 -24.861  1.00  0.00     0.036 A 
HETATM   40  C   UNL     1       3.110   8.908 -24.722  1.00  0.00     0.053 A 
HETATM   41  C   UNL     1       3.836   9.782 -23.908  1.00  0.00     0.036 A 
HETATM   42 CL   UNL     1       5.542   9.596 -23.762  1.00  0.00    -0.084 Cl
HETATM   43  C   UNL     1       3.198  10.808 -23.216  1.00  0.00     0.024 A 
HETATM   44  C   UNL     1       1.821  10.967 -23.342  1.00  0.00     0.004 A 
HETATM   45  C   UNL     1       1.092  10.103 -24.165  1.00  0.00     0.029 A 
ENDBRANCH  36  39
ENDBRANCH  34  35
ENDBRANCH   5  34
TORSDOF 8
ENDMDL
MODEL 2
REMARK VINA RESULT:     -10.7      4.244     12.184
REMARK  8 active torsions:
REMARK  status: ('A' for Active; 'I' for Inactive)
REMARK    1  A    between atoms: N_5  and  C_6 
REMARK    2  A    between atoms: C_6  and  C_7 
REMARK       I    between atoms: C_7  and  N_8 
REMARK    3  A    between atoms: N_8  and  C_9 
REMARK    4  A    between atoms: N_19  and  C_20 
REMARK    5  A    between atoms: C_20  and  C_21 
REMARK    6  A    between atoms: C_24  and  C_25 
REMARK       I    between atoms: C_25  and  N_26 
REMARK    7  A    between atoms: N_26  and  C_27 
REMARK    8  A    between atoms: C_27  and  C_28 
ROOT
HETATM    1  C   UNL     1      -9.872   5.720 -30.387  1.00  0.00     0.001 A 
HETATM    2  C   UNL     1      -8.711   6.134 -31.031  1.00  0.00     0.019 A 
HETATM    3  C   UNL     1      -8.075   5.282 -31.948  1.00  0.00     0.059 A 
HETATM    4  C   UNL     1      -8.588   4.019 -32.238  1.00  0.00     0.055 A 
HETATM    5  N   UNL     1      -7.909   3.188 -33.171  1.00  0.00    -0.290 N 
HETATM    6  C   UNL     1      -6.696   3.556 -33.738  1.00  0.00     0.332 C 
HETATM    7  O   UNL     1      -6.038   2.740 -34.387  1.00  0.00    -0.246 OA
HETATM    8  N   UNL     1      -6.247   4.844 -33.496  1.00  0.00    -0.261 N 
HETATM    9  C   UNL     1      -6.851   5.738 -32.624  1.00  0.00     0.264 C 
HETATM   10  O   UNL     1      -6.415   6.861 -32.382  1.00  0.00    -0.267 OA
HETATM   11  C   UNL     1      -9.758   3.614 -31.575  1.00  0.00     0.031 A 
HETATM   12  C   UNL     1     -10.394   4.461 -30.658  1.00  0.00     0.002 A 
ENDROOT
BRANCH   8  13
HETATM   13  C   UNL     1      -5.036   5.282 -34.179  1.00  0.00     0.175 C 
BRANCH  13  14
HETATM   14  C   UNL     1      -3.828   5.268 -33.262  1.00  0.00    -0.040 A 
HETATM   15  C   UNL     1      -3.588   4.183 -32.408  1.00  0.00     0.010 A 
HETATM   16  C   UNL     1      -2.473   4.166 -31.558  1.00  0.00     0.017 A 
HETATM   17  C   UNL     1      -1.575   5.239 -31.551  1.00  0.00     0.032 A 
HETATM   18  C   UNL     1      -1.817   6.325 -32.406  1.00  0.00     0.017 A 
HETATM   19  C   UNL     1      -2.933   6.344 -33.247  1.00  0.00     0.010 A 
BRANCH  17  20
HETATM   20  C   UNL     1      -0.361   5.304 -30.678  1.00  0.00     0.251 C 
HETATM   21  N   UNL     1      -0.505   5.805 -29.401  1.00  0.00    -0.353 N 
HETATM   22  H   UNL     1      -1.411   6.021 -29.018  1.00  0.00     0.163 HD
HETATM   23  O   UNL     1       0.722   4.930 -31.116  1.00  0.00    -0.268 OA
BRANCH  21  24
HETATM   24  C   UNL     1       0.627   5.891 -28.503  1.00  0.00     0.161 C 
BRANCH  24  25
HETATM   25  C   UNL     1       0.709   7.226 -27.798  1.00  0.00    -0.038 A 
HETATM   26  C   UNL     1      -0.163   8.262 -28.176  1.00  0.00     0.048 A 
HETATM   27  C   UNL     1      -0.122   9.445 -27.466  1.00  0.00     0.105 A 
HETATM   28  C   UNL     1       0.741   9.630 -26.413  1.00  0.00     0.105 A 
HETATM   29  O   UNL     1      -0.907  10.533 -27.690  1.00  0.00    -0.323 OA
HETATM   30  O   UNL     1       0.613  10.858 -25.845  1.00  0.00    -0.323 OA
HETATM   31  C   UNL     1       1.608   8.641 -26.007  1.00  0.00     0.040 A 
HETATM   32  C   UNL     1      -0.459  11.412 -26.637  1.00  0.00     0.352 A 
HETATM   33  C   UNL     1       1.579   7.425 -26.699  1.00  0.00     0.012 A 
ENDBRANCH  24  25
ENDBRANCH  21  24
ENDBRANCH  17  20
ENDBRANCH  13  14
ENDBRANCH   8  13
BRANCH   5  34
HETATM   34  C   UNL     1      -8.501   1.911 -33.592  1.00  0.00     0.237 C 
BRANCH  34  35
HETATM   35  C   UNL     1      -7.711   0.660 -33.190  1.00  0.00     0.240 C 
HETATM   36  N   UNL     1      -6.999   0.084 -34.226  1.00  0.00    -0.326 N 
HETATM   37  H   UNL     1      -7.047   0.563 -35.118  1.00  0.00     0.169 HD
HETATM   38  O   UNL     1      -7.835   0.201 -32.056  1.00  0.00    -0.271 OA
BRANCH  36  39
HETATM   39  C   UNL     1      -6.258  -1.116 -34.201  1.00  0.00     0.036 A 
HETATM   40  C   UNL     1      -6.671  -2.307 -34.802  1.00  0.00     0.053 A 
HETATM   41  C   UNL     1      -5.855  -3.440 -34.745  1.00  0.00     0.036 A 
HETATM   42 CL   UNL     1      -6.361  -4.897 -35.511  1.00  0.00    -0.084 Cl
HETATM   43  C   UNL     1      -4.631  -3.405 -34.083  1.00  0.00     0.024 A 
HETATM   44  C   UNL     1      -4.214  -2.224 -33.474  1.00  0.00     0.004 A 
HETATM   45  C   UNL     1      -5.022  -1.085 -33.538  1.00  0.00     0.029 A 
ENDBRANCH  36  39
ENDBRANCH  34  35
ENDBRANCH   5  34
TORSDOF 8
ENDMDL
MODEL 3
REMARK VINA RESULT:     -10.6      4.325     12.023
REMARK  8 active torsions:
REMARK  status: ('A' for Active; 'I' for Inactive)
REMARK    1  A    between atoms: N_5  and  C_6 
REMARK    2  A    between atoms: C_6  and  C_7 
REMARK       I    between atoms: C_7  and  N_8 
REMARK    3  A    between atoms: N_8  and  C_9 
REMARK    4  A    between atoms: N_19  and  C_20 
REMARK    5  A    between atoms: C_20  and  C_21 
REMARK    6  A    between atoms: C_24  and  C_25 
REMARK       I    between atoms: C_25  and  N_26 
REMARK    7  A    between atoms: N_26  and  C_27 
REMARK    8  A    between atoms: C_27  and  C_28 
ROOT
HETATM    1  C   UNL     1     -12.443   4.843 -35.501  1.00  0.00     0.001 A 
HETATM    2  C   UNL     1     -11.769   5.218 -34.343  1.00  0.00     0.019 A 
HETATM    3  C   UNL     1     -11.056   4.259 -33.605  1.00  0.00     0.059 A 
HETATM    4  C   UNL     1     -11.001   2.927 -34.011  1.00  0.00     0.055 A 
HETATM    5  N   UNL     1     -10.269   1.991 -33.230  1.00  0.00    -0.290 N 
HETATM    6  C   UNL     1      -9.681   2.339 -32.022  1.00  0.00     0.332 C 
HETATM    7  O   UNL     1      -9.225   1.470 -31.276  1.00  0.00    -0.246 OA
HETATM    8  N   UNL     1      -9.684   3.681 -31.679  1.00  0.00    -0.261 N 
HETATM    9  C   UNL     1     -10.346   4.674 -32.386  1.00  0.00     0.264 C 
HETATM   10  O   UNL     1     -10.379   5.854 -32.044  1.00  0.00    -0.267 OA
HETATM   11  C   UNL     1     -11.691   2.564 -35.180  1.00  0.00     0.031 A 
HETATM   12  C   UNL     1     -12.405   3.517 -35.917  1.00  0.00     0.002 A 
ENDROOT
BRANCH   8  13
HETATM   13  C   UNL     1      -8.968   4.076 -30.471  1.00  0.00     0.175 C 
BRANCH  13  14
HETATM   14  C   UNL     1      -7.469   4.133 -30.690  1.00  0.00    -0.040 A 
HETATM   15  C   UNL     1      -6.637   3.100 -30.237  1.00  0.00     0.010 A 
HETATM   16  C   UNL     1      -5.250   3.149 -30.437  1.00  0.00     0.017 A 
HETATM   17  C   UNL     1      -4.671   4.237 -31.098  1.00  0.00     0.032 A 
HETATM   18  C   UNL     1      -5.505   5.272 -31.550  1.00  0.00     0.017 A 
HETATM   19  C   UNL     1      -6.887   5.225 -31.343  1.00  0.00     0.010 A 
BRANCH  17  20
HETATM   20  C   UNL     1      -3.202   4.371 -31.355  1.00  0.00     0.251 C 
HETATM   21  N   UNL     1      -2.700   5.630 -31.611  1.00  0.00    -0.353 N 
HETATM   22  H   UNL     1      -3.271   6.455 -31.524  1.00  0.00     0.163 HD
HETATM   23  O   UNL     1      -2.492   3.371 -31.346  1.00  0.00    -0.268 OA
BRANCH  21  24
HETATM   24  C   UNL     1      -1.288   5.831 -31.863  1.00  0.00     0.161 C 
BRANCH  24  25
HETATM   25  C   UNL     1      -0.513   6.142 -30.602  1.00  0.00    -0.038 A 
HETATM   26  C   UNL     1      -0.635   7.412 -30.011  1.00  0.00     0.048 A 
HETATM   27  C   UNL     1       0.020   7.645 -28.819  1.00  0.00     0.105 A 
HETATM   28  C   UNL     1       0.779   6.678 -28.207  1.00  0.00     0.105 A 
HETATM   29  O   UNL     1      -0.009   8.807 -28.112  1.00  0.00    -0.323 OA
HETATM   30  O   UNL     1       1.328   7.109 -27.040  1.00  0.00    -0.323 OA
HETATM   31  C   UNL     1       0.922   5.420 -28.748  1.00  0.00     0.040 A 
HETATM   32  C   UNL     1       0.794   8.447 -26.969  1.00  0.00     0.352 A 
HETATM   33  C   UNL     1       0.256   5.149 -29.949  1.00  0.00     0.012 A 
ENDBRANCH  24  25
ENDBRANCH  21  24
ENDBRANCH  17  20
ENDBRANCH  13  14
ENDBRANCH   8  13
BRANCH   5  34
HETATM   34  C   UNL     1     -10.084   0.613 -33.709  1.00  0.00     0.237 C 
BRANCH  34  35
HETATM   35  C   UNL     1      -8.656   0.257 -34.140  1.00  0.00     0.240 C 
HETATM   36  N   UNL     1      -8.086  -0.769 -33.409  1.00  0.00    -0.326 N 
HETATM   37  H   UNL     1      -8.675  -1.192 -32.701  1.00  0.00     0.169 HD
HETATM   38  O   UNL     1      -8.091   0.938 -34.993  1.00  0.00    -0.271 OA
BRANCH  36  39
HETATM   39  C   UNL     1      -6.767  -1.261 -33.497  1.00  0.00     0.036 A 
HETATM   40  C   UNL     1      -5.719  -0.853 -32.669  1.00  0.00     0.053 A 
HETATM   41  C   UNL     1      -4.449  -1.417 -32.816  1.00  0.00     0.036 A 
HETATM   42 CL   UNL     1      -3.170  -0.927 -31.772  1.00  0.00    -0.084 Cl
HETATM   43  C   UNL     1      -4.205  -2.379 -33.793  1.00  0.00     0.024 A 
HETATM   44  C   UNL     1      -5.240  -2.786 -34.629  1.00  0.00     0.004 A 
HETATM   45  C   UNL     1      -6.516  -2.233 -34.478  1.00  0.00     0.029 A 
ENDBRANCH  36  39
ENDBRANCH  34  35
ENDBRANCH   5  34
TORSDOF 8
ENDMDL
MODEL 4
REMARK VINA RESULT:     -10.5      5.011     13.611
REMARK  8 active torsions:
REMARK  status: ('A' for Active; 'I' for Inactive)
REMARK    1  A    between atoms: N_5  and  C_6 
REMARK    2  A    between atoms: C_6  and  C_7 
REMARK       I    between atoms: C_7  and  N_8 
REMARK    3  A    between atoms: N_8  and  C_9 
REMARK    4  A    between atoms: N_19  and  C_20 
REMARK    5  A    between atoms: C_20  and  C_21 
REMARK    6  A    between atoms: C_24  and  C_25 
REMARK       I    between atoms: C_25  and  N_26 
REMARK    7  A    between atoms: N_26  and  C_27 
REMARK    8  A    between atoms: C_27  and  C_28 
ROOT
HETATM    1  C   UNL     1      -4.910  -2.464 -34.027  1.00  0.00     0.001 A 
HETATM    2  C   UNL     1      -4.817  -1.682 -32.881  1.00  0.00     0.019 A 
HETATM    3  C   UNL     1      -5.699  -0.605 -32.693  1.00  0.00     0.059 A 
HETATM    4  C   UNL     1      -6.681  -0.301 -33.635  1.00  0.00     0.055 A 
HETATM    5  N   UNL     1      -7.550   0.800 -33.404  1.00  0.00    -0.290 N 
HETATM    6  C   UNL     1      -7.394   1.645 -32.313  1.00  0.00     0.332 C 
HETATM    7  O   UNL     1      -8.033   2.698 -32.243  1.00  0.00    -0.246 OA
HETATM    8  N   UNL     1      -6.465   1.279 -31.354  1.00  0.00    -0.261 N 
HETATM    9  C   UNL     1      -5.589   0.209 -31.474  1.00  0.00     0.264 C 
HETATM   10  O   UNL     1      -4.736  -0.076 -30.636  1.00  0.00    -0.267 OA
HETATM   11  C   UNL     1      -6.758  -1.098 -34.789  1.00  0.00     0.031 A 
HETATM   12  C   UNL     1      -5.878  -2.171 -34.980  1.00  0.00     0.002 A 
ENDROOT
BRANCH   8  13
HETATM   13  C   UNL     1      -6.374   2.093 -30.148  1.00  0.00     0.175 C 
BRANCH  13  14
HETATM   14  C   UNL     1      -5.491   3.309 -30.346  1.00  0.00    -0.040 A 
HETATM   15  C   UNL     1      -4.409   3.273 -31.237  1.00  0.00     0.010 A 
HETATM   16  C   UNL     1      -3.589   4.395 -31.424  1.00  0.00     0.017 A 
HETATM   17  C   UNL     1      -3.841   5.578 -30.720  1.00  0.00     0.032 A 
HETATM   18  C   UNL     1      -4.923   5.612 -29.827  1.00  0.00     0.017 A 
HETATM   19  C   UNL     1      -5.736   4.490 -29.637  1.00  0.00     0.010 A 
BRANCH  17  20
HETATM   20  C   UNL     1      -3.019   6.821 -30.857  1.00  0.00     0.251 C 
HETATM   21  N   UNL     1      -2.403   7.320 -29.729  1.00  0.00    -0.353 N 
HETATM   22  H   UNL     1      -2.406   6.815 -28.858  1.00  0.00     0.163 HD
HETATM   23  O   UNL     1      -2.925   7.368 -31.951  1.00  0.00    -0.268 OA
BRANCH  21  24
HETATM   24  C   UNL     1      -1.589   8.515 -29.792  1.00  0.00     0.161 C 
BRANCH  24  25
HETATM   25  C   UNL     1      -0.671   8.657 -28.599  1.00  0.00    -0.038 A 
HETATM   26  C   UNL     1      -1.097   9.399 -27.484  1.00  0.00     0.048 A 
HETATM   27  C   UNL     1      -0.274   9.448 -26.376  1.00  0.00     0.105 A 
HETATM   28  C   UNL     1       0.935   8.797 -26.342  1.00  0.00     0.105 A 
HETATM   29  O   UNL     1      -0.544  10.102 -25.215  1.00  0.00    -0.323 OA
HETATM   30  O   UNL     1       1.582   8.964 -25.157  1.00  0.00    -0.323 OA
HETATM   31  C   UNL     1       1.389   8.057 -27.410  1.00  0.00     0.040 A 
HETATM   32  C   UNL     1       0.621   9.762 -24.436  1.00  0.00     0.352 A 
HETATM   33  C   UNL     1       0.569   7.976 -28.541  1.00  0.00     0.012 A 
ENDBRANCH  24  25
ENDBRANCH  21  24
ENDBRANCH  17  20
ENDBRANCH  13  14
ENDBRANCH   8  13
BRANCH   5  34
HETATM   34  C   UNL     1      -8.676   1.057 -34.313  1.00  0.00     0.237 C 
BRANCH  34  35
HETATM   35  C   UNL     1     -10.065   0.767 -33.732  1.00  0.00     0.240 C 
HETATM   36  N   UNL     1     -11.069   1.567 -34.245  1.00  0.00    -0.326 N 
HETATM   37  H   UNL     1     -10.791   2.225 -34.964  1.00  0.00     0.169 HD
HETATM   38  O   UNL     1     -10.184  -0.041 -32.814  1.00  0.00    -0.271 OA
BRANCH  36  39
HETATM   39  C   UNL     1     -12.423   1.611 -33.852  1.00  0.00     0.036 A 
HETATM   40  C   UNL     1     -12.969   2.596 -33.026  1.00  0.00     0.053 A 
HETATM   41  C   UNL     1     -14.330   2.570 -32.710  1.00  0.00     0.036 A 
HETATM   42 CL   UNL     1     -15.000   3.803 -31.712  1.00  0.00    -0.084 Cl
HETATM   43  C   UNL     1     -15.157   1.561 -33.199  1.00  0.00     0.024 A 
HETATM   44  C   UNL     1     -14.620   0.571 -34.016  1.00  0.00     0.004 A 
HETATM   45  C   UNL     1     -13.261   0.599 -34.344  1.00  0.00     0.029 A 
ENDBRANCH  36  39
ENDBRANCH  34  35
ENDBRANCH   5  34
TORSDOF 8
ENDMDL
MODEL 5
REMARK VINA RESULT:     -10.3      4.738     12.184
REMARK  8 active torsions:
REMARK  status: ('A' for Active; 'I' for Inactive)
REMARK    1  A    between atoms: N_5  and  C_6 
REMARK    2  A    between atoms: C_6  and  C_7 
REMARK       I    between atoms: C_7  and  N_8 
REMARK    3  A    between atoms: N_8  and  C_9 
REMARK    4  A    between atoms: N_19  and  C_20 
REMARK    5  A    between atoms: C_20  and  C_21 
REMARK    6  A    between atoms: C_24  and  C_25 
REMARK       I    between atoms: C_25  and  N_26 
REMARK    7  A    between atoms: N_26  and  C_27 
REMARK    8  A    between atoms: C_27  and  C_28 
ROOT
HETATM    1  C   UNL     1     -12.342   2.590 -36.039  1.00  0.00     0.001 A 
HETATM    2  C   UNL     1     -11.620   3.718 -35.665  1.00  0.00     0.019 A 
HETATM    3  C   UNL     1     -10.799   3.680 -34.526  1.00  0.00     0.059 A 
HETATM    4  C   UNL     1     -10.684   2.525 -33.755  1.00  0.00     0.055 A 
HETATM    5  N   UNL     1      -9.843   2.534 -32.609  1.00  0.00    -0.290 N 
HETATM    6  C   UNL     1      -9.203   3.686 -32.174  1.00  0.00     0.332 C 
HETATM    7  O   UNL     1      -8.643   3.712 -31.075  1.00  0.00    -0.246 OA
HETATM    8  N   UNL     1      -9.270   4.798 -32.996  1.00  0.00    -0.261 N 
HETATM    9  C   UNL     1     -10.040   4.882 -34.147  1.00  0.00     0.264 C 
HETATM   10  O   UNL     1     -10.128   5.891 -34.843  1.00  0.00    -0.267 OA
HETATM   11  C   UNL     1     -11.424   1.396 -34.144  1.00  0.00     0.031 A 
HETATM   12  C   UNL     1     -12.245   1.431 -35.278  1.00  0.00     0.002 A 
ENDROOT
BRANCH   8  13
HETATM   13  C   UNL     1      -8.505   5.978 -32.610  1.00  0.00     0.175 C 
BRANCH  13  14
HETATM   14  C   UNL     1      -7.015   5.701 -32.564  1.00  0.00    -0.040 A 
HETATM   15  C   UNL     1      -6.351   5.156 -33.673  1.00  0.00     0.010 A 
HETATM   16  C   UNL     1      -4.973   4.897 -33.634  1.00  0.00     0.017 A 
HETATM   17  C   UNL     1      -4.234   5.183 -32.481  1.00  0.00     0.032 A 
HETATM   18  C   UNL     1      -4.900   5.727 -31.372  1.00  0.00     0.017 A 
HETATM   19  C   UNL     1      -6.275   5.978 -31.410  1.00  0.00     0.010 A 
BRANCH  17  20
HETATM   20  C   UNL     1      -2.763   4.940 -32.354  1.00  0.00     0.251 C 
HETATM   21  N   UNL     1      -1.921   6.032 -32.362  1.00  0.00    -0.353 N 
HETATM   22  H   UNL     1      -2.276   6.974 -32.342  1.00  0.00     0.163 HD
HETATM   23  O   UNL     1      -2.344   3.791 -32.262  1.00  0.00    -0.268 OA
BRANCH  21  24
HETATM   24  C   UNL     1      -0.487   5.868 -32.237  1.00  0.00     0.161 C 
BRANCH  24  25
HETATM   25  C   UNL     1       0.002   6.093 -30.824  1.00  0.00    -0.038 A 
HETATM   26  C   UNL     1      -0.075   7.379 -30.263  1.00  0.00     0.048 A 
HETATM   27  C   UNL     1       0.305   7.543 -28.946  1.00  0.00     0.105 A 
HETATM   28  C   UNL     1       0.750   6.491 -28.183  1.00  0.00     0.105 A 
HETATM   29  O   UNL     1       0.275   8.711 -28.250  1.00  0.00    -0.323 OA
HETATM   30  O   UNL     1       1.061   6.864 -26.913  1.00  0.00    -0.323 OA
HETATM   31  C   UNL     1       0.836   5.214 -28.691  1.00  0.00     0.040 A 
HETATM   32  C   UNL     1       0.723   8.266 -26.953  1.00  0.00     0.352 A 
HETATM   33  C   UNL     1       0.444   5.015 -30.020  1.00  0.00     0.012 A 
ENDBRANCH  24  25
ENDBRANCH  21  24
ENDBRANCH  17  20
ENDBRANCH  13  14
ENDBRANCH   8  13
BRANCH   5  34
HETATM   34  C   UNL     1      -9.601   1.293 -31.859  1.00  0.00     0.237 C 
BRANCH  34  35
HETATM   35  C   UNL     1      -8.235   0.639 -32.101  1.00  0.00     0.240 C 
HETATM   36  N   UNL     1      -8.196  -0.194 -33.204  1.00  0.00    -0.326 N 
HETATM   37  H   UNL     1      -9.050  -0.256 -33.745  1.00  0.00     0.169 HD
HETATM   38  O   UNL     1      -7.331   0.800 -31.284  1.00  0.00    -0.271 OA
BRANCH  36  39
HETATM   39  C   UNL     1      -7.125  -1.006 -33.634  1.00  0.00     0.036 A 
HETATM   40  C   UNL     1      -7.281  -2.241 -34.266  1.00  0.00     0.053 A 
HETATM   41  C   UNL     1      -6.159  -2.964 -34.679  1.00  0.00     0.036 A 
HETATM   42 CL   UNL     1      -6.362  -4.475 -35.481  1.00  0.00    -0.084 Cl
HETATM   43  C   UNL     1      -4.874  -2.474 -34.458  1.00  0.00     0.024 A 
HETATM   44  C   UNL     1      -4.708  -1.247 -33.821  1.00  0.00     0.004 A 
HETATM   45  C   UNL     1      -5.829  -0.516 -33.416  1.00  0.00     0.029 A 
ENDBRANCH  36  39
ENDBRANCH  34  35
ENDBRANCH   5  34
TORSDOF 8
ENDMDL
MODEL 6
REMARK VINA RESULT:     -10.2      3.877      6.812
REMARK  8 active torsions:
REMARK  status: ('A' for Active; 'I' for Inactive)
REMARK    1  A    between atoms: N_5  and  C_6 
REMARK    2  A    between atoms: C_6  and  C_7 
REMARK       I    between atoms: C_7  and  N_8 
REMARK    3  A    between atoms: N_8  and  C_9 
REMARK    4  A    between atoms: N_19  and  C_20 
REMARK    5  A    between atoms: C_20  and  C_21 
REMARK    6  A    between atoms: C_24  and  C_25 
REMARK       I    between atoms: C_25  and  N_26 
REMARK    7  A    between atoms: N_26  and  C_27 
REMARK    8  A    between atoms: C_27  and  C_28 
ROOT
HETATM    1  C   UNL     1       0.588   7.279 -26.677  1.00  0.00     0.001 A 
HETATM    2  C   UNL     1      -0.764   7.244 -26.353  1.00  0.00     0.019 A 
HETATM    3  C   UNL     1      -1.729   7.497 -27.340  1.00  0.00     0.059 A 
HETATM    4  C   UNL     1      -1.363   7.779 -28.655  1.00  0.00     0.055 A 
HETATM    5  N   UNL     1      -2.376   8.032 -29.621  1.00  0.00    -0.290 N 
HETATM    6  C   UNL     1      -3.719   8.099 -29.279  1.00  0.00     0.332 C 
HETATM    7  O   UNL     1      -4.550   8.510 -30.092  1.00  0.00    -0.246 OA
HETATM    8  N   UNL     1      -4.064   7.739 -27.987  1.00  0.00    -0.261 N 
HETATM    9  C   UNL     1      -3.155   7.451 -26.980  1.00  0.00     0.264 C 
HETATM   10  O   UNL     1      -3.473   7.180 -25.825  1.00  0.00    -0.267 OA
HETATM   11  C   UNL     1       0.006   7.816 -28.965  1.00  0.00     0.031 A 
HETATM   12  C   UNL     1       0.972   7.567 -27.982  1.00  0.00     0.002 A 
ENDROOT
BRANCH   8  13
HETATM   13  C   UNL     1      -5.482   7.692 -27.649  1.00  0.00     0.175 C 
BRANCH  13  14
HETATM   14  C   UNL     1      -6.205   6.577 -28.379  1.00  0.00    -0.040 A 
HETATM   15  C   UNL     1      -5.603   5.322 -28.549  1.00  0.00     0.010 A 
HETATM   16  C   UNL     1      -6.268   4.288 -29.224  1.00  0.00     0.017 A 
HETATM   17  C   UNL     1      -7.552   4.494 -29.740  1.00  0.00     0.032 A 
HETATM   18  C   UNL     1      -8.152   5.751 -29.571  1.00  0.00     0.017 A 
HETATM   19  C   UNL     1      -7.486   6.783 -28.903  1.00  0.00     0.010 A 
BRANCH  17  20
HETATM   20  C   UNL     1      -8.333   3.448 -30.473  1.00  0.00     0.251 C 
HETATM   21  N   UNL     1      -7.799   2.179 -30.557  1.00  0.00    -0.353 N 
HETATM   22  H   UNL     1      -6.965   1.922 -30.054  1.00  0.00     0.163 HD
HETATM   23  O   UNL     1      -9.406   3.742 -30.987  1.00  0.00    -0.268 OA
BRANCH  21  24
HETATM   24  C   UNL     1      -8.504   1.119 -31.247  1.00  0.00     0.161 C 
BRANCH  24  25
HETATM   25  C   UNL     1      -7.597   0.306 -32.143  1.00  0.00    -0.038 A 
HETATM   26  C   UNL     1      -6.378  -0.178 -31.637  1.00  0.00     0.048 A 
HETATM   27  C   UNL     1      -5.605  -0.983 -32.448  1.00  0.00     0.105 A 
HETATM   28  C   UNL     1      -5.995  -1.317 -33.722  1.00  0.00     0.105 A 
HETATM   29  O   UNL     1      -4.414  -1.545 -32.107  1.00  0.00    -0.323 OA
HETATM   30  O   UNL     1      -5.098  -2.127 -34.346  1.00  0.00    -0.323 OA
HETATM   31  C   UNL     1      -7.183  -0.870 -34.256  1.00  0.00     0.040 A 
HETATM   32  C   UNL     1      -4.116  -2.295 -33.302  1.00  0.00     0.352 A 
HETATM   33  C   UNL     1      -7.995  -0.064 -33.450  1.00  0.00     0.012 A 
ENDBRANCH  24  25
ENDBRANCH  21  24
ENDBRANCH  17  20
ENDBRANCH  13  14
ENDBRANCH   8  13
BRANCH   5  34
HETATM   34  C   UNL     1      -2.021   8.198 -31.038  1.00  0.00     0.237 C 
BRANCH  34  35
HETATM   35  C   UNL     1      -2.462   7.056 -31.961  1.00  0.00     0.240 C 
HETATM   36  N   UNL     1      -3.291   6.129 -31.355  1.00  0.00    -0.326 N 
HETATM   37  H   UNL     1      -3.543   6.320 -30.392  1.00  0.00     0.169 HD
HETATM   38  O   UNL     1      -1.993   6.974 -33.094  1.00  0.00    -0.271 OA
BRANCH  36  39
HETATM   39  C   UNL     1      -3.786   4.927 -31.903  1.00  0.00     0.036 A 
HETATM   40  C   UNL     1      -5.025   4.804 -32.535  1.00  0.00     0.053 A 
HETATM   41  C   UNL     1      -5.420   3.575 -33.070  1.00  0.00     0.036 A 
HETATM   42 CL   UNL     1      -6.938   3.439 -33.871  1.00  0.00    -0.084 Cl
HETATM   43  C   UNL     1      -4.596   2.457 -32.971  1.00  0.00     0.024 A 
HETATM   44  C   UNL     1      -3.363   2.568 -32.335  1.00  0.00     0.004 A 
HETATM   45  C   UNL     1      -2.959   3.798 -31.809  1.00  0.00     0.029 A 
ENDBRANCH  36  39
ENDBRANCH  34  35
ENDBRANCH   5  34
TORSDOF 8
ENDMDL
MODEL 7
REMARK VINA RESULT:     -10.1      3.351      5.464
REMARK  8 active torsions:
REMARK  status: ('A' for Active; 'I' for Inactive)
REMARK    1  A    between atoms: N_5  and  C_6 
REMARK    2  A    between atoms: C_6  and  C_7 
REMARK       I    between atoms: C_7  and  N_8 
REMARK    3  A    between atoms: N_8  and  C_9 
REMARK    4  A    between atoms: N_19  and  C_20 
REMARK    5  A    between atoms: C_20  and  C_21 
REMARK    6  A    between atoms: C_24  and  C_25 
REMARK       I    between atoms: C_25  and  N_26 
REMARK    7  A    between atoms: N_26  and  C_27 
REMARK    8  A    between atoms: C_27  and  C_28 
ROOT
HETATM    1  C   UNL     1       0.890   7.440 -27.087  1.00  0.00     0.001 A 
HETATM    2  C   UNL     1       0.810   6.676 -28.246  1.00  0.00     0.019 A 
HETATM    3  C   UNL     1      -0.086   7.039 -29.265  1.00  0.00     0.059 A 
HETATM    4  C   UNL     1      -0.901   8.163 -29.145  1.00  0.00     0.055 A 
HETATM    5  N   UNL     1      -1.795   8.490 -30.201  1.00  0.00    -0.290 N 
HETATM    6  C   UNL     1      -1.952   7.674 -31.313  1.00  0.00     0.332 C 
HETATM    7  O   UNL     1      -2.868   7.879 -32.113  1.00  0.00    -0.246 OA
HETATM    8  N   UNL     1      -1.079   6.608 -31.446  1.00  0.00    -0.261 N 
HETATM    9  C   UNL     1      -0.155   6.222 -30.486  1.00  0.00     0.264 C 
HETATM   10  O   UNL     1       0.582   5.244 -30.596  1.00  0.00    -0.267 OA
HETATM   11  C   UNL     1      -0.811   8.921 -27.966  1.00  0.00     0.031 A 
HETATM   12  C   UNL     1       0.079   8.560 -26.947  1.00  0.00     0.002 A 
ENDROOT
BRANCH   8  13
HETATM   13  C   UNL     1      -1.155   5.813 -32.666  1.00  0.00     0.175 C 
BRANCH  13  14
HETATM   14  C   UNL     1      -2.310   4.830 -32.633  1.00  0.00    -0.040 A 
HETATM   15  C   UNL     1      -2.386   3.844 -31.640  1.00  0.00     0.010 A 
HETATM   16  C   UNL     1      -3.451   2.933 -31.606  1.00  0.00     0.017 A 
HETATM   17  C   UNL     1      -4.463   2.996 -32.569  1.00  0.00     0.032 A 
HETATM   18  C   UNL     1      -4.386   3.982 -33.565  1.00  0.00     0.017 A 
HETATM   19  C   UNL     1      -3.319   4.885 -33.601  1.00  0.00     0.010 A 
BRANCH  17  20
HETATM   20  C   UNL     1      -5.635   2.065 -32.609  1.00  0.00     0.251 C 
HETATM   21  N   UNL     1      -5.643   1.071 -33.564  1.00  0.00    -0.353 N 
HETATM   22  H   UNL     1      -4.843   0.895 -34.151  1.00  0.00     0.163 HD
HETATM   23  O   UNL     1      -6.556   2.216 -31.812  1.00  0.00    -0.268 OA
BRANCH  21  24
HETATM   24  C   UNL     1      -6.743   0.134 -33.654  1.00  0.00     0.161 C 
BRANCH  24  25
HETATM   25  C   UNL     1      -6.286  -1.268 -33.991  1.00  0.00    -0.038 A 
HETATM   26  C   UNL     1      -5.025  -1.708 -33.552  1.00  0.00     0.048 A 
HETATM   27  C   UNL     1      -4.663  -3.016 -33.804  1.00  0.00     0.105 A 
HETATM   28  C   UNL     1      -5.496  -3.884 -34.467  1.00  0.00     0.105 A 
HETATM   29  O   UNL     1      -3.494  -3.602 -33.433  1.00  0.00    -0.323 OA
HETATM   30  O   UNL     1      -4.955  -5.124 -34.601  1.00  0.00    -0.323 OA
HETATM   31  C   UNL     1      -6.740  -3.496 -34.911  1.00  0.00     0.040 A 
HETATM   32  C   UNL     1      -3.700  -4.947 -33.911  1.00  0.00     0.352 A 
HETATM   33  C   UNL     1      -7.141  -2.179 -34.656  1.00  0.00     0.012 A 
ENDBRANCH  24  25
ENDBRANCH  21  24
ENDBRANCH  17  20
ENDBRANCH  13  14
ENDBRANCH   8  13
BRANCH   5  34
HETATM   34  C   UNL     1      -2.565   9.742 -30.158  1.00  0.00     0.237 C 
BRANCH  34  35
HETATM   35  C   UNL     1      -4.083   9.571 -30.024  1.00  0.00     0.240 C 
HETATM   36  N   UNL     1      -4.463   8.526 -29.202  1.00  0.00    -0.326 N 
HETATM   37  H   UNL     1      -3.711   8.015 -28.756  1.00  0.00     0.169 HD
HETATM   38  O   UNL     1      -4.835  10.266 -30.704  1.00  0.00    -0.271 OA
BRANCH  36  39
HETATM   39  C   UNL     1      -5.770   8.057 -28.953  1.00  0.00     0.036 A 
HETATM   40  C   UNL     1      -6.296   6.879 -29.488  1.00  0.00     0.053 A 
HETATM   41  C   UNL     1      -7.596   6.482 -29.163  1.00  0.00     0.036 A 
HETATM   42 CL   UNL     1      -8.228   5.015 -29.807  1.00  0.00    -0.084 Cl
HETATM   43  C   UNL     1      -8.388   7.254 -28.316  1.00  0.00     0.024 A 
HETATM   44  C   UNL     1      -7.874   8.434 -27.785  1.00  0.00     0.004 A 
HETATM   45  C   UNL     1      -6.570   8.830 -28.098  1.00  0.00     0.029 A 
ENDBRANCH  36  39
ENDBRANCH  34  35
ENDBRANCH   5  34
TORSDOF 8
ENDMDL
MODEL 8
REMARK VINA RESULT:     -10.1      4.030     10.749
REMARK  8 active torsions:
REMARK  status: ('A' for Active; 'I' for Inactive)
REMARK    1  A    between atoms: N_5  and  C_6 
REMARK    2  A    between atoms: C_6  and  C_7 
REMARK       I    between atoms: C_7  and  N_8 
REMARK    3  A    between atoms: N_8  and  C_9 
REMARK    4  A    between atoms: N_19  and  C_20 
REMARK    5  A    between atoms: C_20  and  C_21 
REMARK    6  A    between atoms: C_24  and  C_25 
REMARK       I    between atoms: C_25  and  N_26 
REMARK    7  A    between atoms: N_26  and  C_27 
REMARK    8  A    between atoms: C_27  and  C_28 
ROOT
HETATM    1  C   UNL     1      -5.791  -2.601 -35.090  1.00  0.00     0.001 A 
HETATM    2  C   UNL     1      -6.851  -1.773 -34.738  1.00  0.00     0.019 A 
HETATM    3  C   UNL     1      -6.774  -0.991 -33.574  1.00  0.00     0.059 A 
HETATM    4  C   UNL     1      -5.646  -1.019 -32.757  1.00  0.00     0.055 A 
HETATM    5  N   UNL     1      -5.614  -0.212 -31.586  1.00  0.00    -0.290 N 
HETATM    6  C   UNL     1      -6.709   0.536 -31.178  1.00  0.00     0.332 C 
HETATM    7  O   UNL     1      -6.721   1.067 -30.064  1.00  0.00    -0.246 OA
HETATM    8  N   UNL     1      -7.787   0.609 -32.044  1.00  0.00    -0.261 N 
HETATM    9  C   UNL     1      -7.903  -0.117 -33.220  1.00  0.00     0.264 C 
HETATM   10  O   UNL     1      -8.887  -0.079 -33.955  1.00  0.00    -0.267 OA
HETATM   11  C   UNL     1      -4.586  -1.865 -33.124  1.00  0.00     0.031 A 
HETATM   12  C   UNL     1      -4.661  -2.648 -34.283  1.00  0.00     0.002 A 
ENDROOT
BRANCH   8  13
HETATM   13  C   UNL     1      -8.894   1.486 -31.680  1.00  0.00     0.175 C 
BRANCH  13  14
HETATM   14  C   UNL     1      -8.472   2.940 -31.616  1.00  0.00    -0.040 A 
HETATM   15  C   UNL     1      -7.795   3.540 -32.687  1.00  0.00     0.010 A 
HETATM   16  C   UNL     1      -7.402   4.885 -32.632  1.00  0.00     0.017 A 
HETATM   17  C   UNL     1      -7.683   5.655 -31.499  1.00  0.00     0.032 A 
HETATM   18  C   UNL     1      -8.359   5.054 -30.426  1.00  0.00     0.017 A 
HETATM   19  C   UNL     1      -8.744   3.711 -30.480  1.00  0.00     0.010 A 
BRANCH  17  20
HETATM   20  C   UNL     1      -7.301   7.096 -31.355  1.00  0.00     0.251 C 
HETATM   21  N   UNL     1      -6.550   7.461 -30.257  1.00  0.00    -0.353 N 
HETATM   22  H   UNL     1      -6.170   6.776 -29.625  1.00  0.00     0.163 HD
HETATM   23  O   UNL     1      -7.673   7.908 -32.194  1.00  0.00    -0.268 OA
BRANCH  21  24
HETATM   24  C   UNL     1      -6.142   8.837 -30.060  1.00  0.00     0.161 C 
BRANCH  24  25
HETATM   25  C   UNL     1      -4.685   8.960 -29.675  1.00  0.00    -0.038 A 
HETATM   26  C   UNL     1      -4.166   8.139 -28.659  1.00  0.00     0.048 A 
HETATM   27  C   UNL     1      -2.817   8.215 -28.380  1.00  0.00     0.105 A 
HETATM   28  C   UNL     1      -1.981   9.065 -29.064  1.00  0.00     0.105 A 
HETATM   29  O   UNL     1      -2.156   7.480 -27.445  1.00  0.00    -0.323 OA
HETATM   30  O   UNL     1      -0.691   8.977 -28.643  1.00  0.00    -0.323 OA
HETATM   31  C   UNL     1      -2.446   9.883 -30.069  1.00  0.00     0.040 A 
HETATM   32  C   UNL     1      -0.804   7.944 -27.642  1.00  0.00     0.352 A 
HETATM   33  C   UNL     1      -3.808   9.817 -30.384  1.00  0.00     0.012 A 
ENDBRANCH  24  25
ENDBRANCH  21  24
ENDBRANCH  17  20
ENDBRANCH  13  14
ENDBRANCH   8  13
BRANCH   5  34
HETATM   34  C   UNL     1      -4.386  -0.123 -30.783  1.00  0.00     0.237 C 
BRANCH  34  35
HETATM   35  C   UNL     1      -3.536   1.130 -31.026  1.00  0.00     0.240 C 
HETATM   36  N   UNL     1      -4.248   2.210 -31.515  1.00  0.00    -0.326 N 
HETATM   37  H   UNL     1      -5.246   2.070 -31.626  1.00  0.00     0.169 HD
HETATM   38  O   UNL     1      -2.316   1.074 -30.883  1.00  0.00    -0.271 OA
BRANCH  36  39
HETATM   39  C   UNL     1      -3.744   3.462 -31.924  1.00  0.00     0.036 A 
HETATM   40  C   UNL     1      -2.987   3.663 -33.080  1.00  0.00     0.053 A 
HETATM   41  C   UNL     1      -2.551   4.947 -33.418  1.00  0.00     0.036 A 
HETATM   42 CL   UNL     1      -1.640   5.190 -34.859  1.00  0.00    -0.084 Cl
HETATM   43  C   UNL     1      -2.851   6.038 -32.606  1.00  0.00     0.024 A 
HETATM   44  C   UNL     1      -3.599   5.846 -31.447  1.00  0.00     0.004 A 
HETATM   45  C   UNL     1      -4.046   4.565 -31.112  1.00  0.00     0.029 A 
ENDBRANCH  36  39
ENDBRANCH  34  35
ENDBRANCH   5  34
TORSDOF 8
ENDMDL
MODEL 9
REMARK VINA RESULT:     -10.0      3.311     10.496
REMARK  8 active torsions:
REMARK  status: ('A' for Active; 'I' for Inactive)
REMARK    1  A    between atoms: N_5  and  C_6 
REMARK    2  A    between atoms: C_6  and  C_7 
REMARK       I    between atoms: C_7  and  N_8 
REMARK    3  A    between atoms: N_8  and  C_9 
REMARK    4  A    between atoms: N_19  and  C_20 
REMARK    5  A    between atoms: C_20  and  C_21 
REMARK    6  A    between atoms: C_24  and  C_25 
REMARK       I    between atoms: C_25  and  N_26 
REMARK    7  A    between atoms: N_26  and  C_27 
REMARK    8  A    between atoms: C_27  and  C_28 
ROOT
HETATM    1  C   UNL     1      -6.923  -1.317 -35.065  1.00  0.00     0.001 A 
HETATM    2  C   UNL     1      -7.691  -0.190 -34.794  1.00  0.00     0.019 A 
HETATM    3  C   UNL     1      -7.430   0.579 -33.648  1.00  0.00     0.059 A 
HETATM    4  C   UNL     1      -6.402   0.241 -32.769  1.00  0.00     0.055 A 
HETATM    5  N   UNL     1      -6.176   1.047 -31.620  1.00  0.00    -0.290 N 
HETATM    6  C   UNL     1      -7.005   2.111 -31.291  1.00  0.00     0.332 C 
HETATM    7  O   UNL     1      -6.903   2.666 -30.194  1.00  0.00    -0.246 OA
HETATM    8  N   UNL     1      -7.968   2.474 -32.217  1.00  0.00    -0.261 N 
HETATM    9  C   UNL     1      -8.250   1.769 -33.378  1.00  0.00     0.264 C 
HETATM   10  O   UNL     1      -9.140   2.076 -34.168  1.00  0.00    -0.267 OA
HETATM   11  C   UNL     1      -5.639  -0.903 -33.055  1.00  0.00     0.031 A 
HETATM   12  C   UNL     1      -5.899  -1.673 -34.196  1.00  0.00     0.002 A 
ENDROOT
BRANCH   8  13
HETATM   13  C   UNL     1      -8.768   3.661 -31.938  1.00  0.00     0.175 C 
BRANCH  13  14
HETATM   14  C   UNL     1      -7.904   4.874 -31.650  1.00  0.00    -0.040 A 
HETATM   15  C   UNL     1      -8.201   5.729 -30.579  1.00  0.00     0.010 A 
HETATM   16  C   UNL     1      -7.406   6.852 -30.310  1.00  0.00     0.017 A 
HETATM   17  C   UNL     1      -6.294   7.138 -31.111  1.00  0.00     0.032 A 
HETATM   18  C   UNL     1      -5.999   6.282 -32.184  1.00  0.00     0.017 A 
HETATM   19  C   UNL     1      -6.797   5.167 -32.455  1.00  0.00     0.010 A 
BRANCH  17  20
HETATM   20  C   UNL     1      -5.393   8.313 -30.896  1.00  0.00     0.251 C 
HETATM   21  N   UNL     1      -4.051   8.162 -31.179  1.00  0.00    -0.353 N 
HETATM   22  H   UNL     1      -3.694   7.331 -31.620  1.00  0.00     0.163 HD
HETATM   23  O   UNL     1      -5.857   9.363 -30.464  1.00  0.00    -0.268 OA
BRANCH  21  24
HETATM   24  C   UNL     1      -3.125   9.260 -30.998  1.00  0.00     0.161 C 
BRANCH  24  25
HETATM   25  C   UNL     1      -2.349   9.158 -29.704  1.00  0.00    -0.038 A 
HETATM   26  C   UNL     1      -1.909   7.899 -29.260  1.00  0.00     0.048 A 
HETATM   27  C   UNL     1      -1.135   7.840 -28.118  1.00  0.00     0.105 A 
HETATM   28  C   UNL     1      -0.791   8.970 -27.416  1.00  0.00     0.105 A 
HETATM   29  O   UNL     1      -0.617   6.710 -27.567  1.00  0.00    -0.323 OA
HETATM   30  O   UNL     1      -0.018   8.694 -26.332  1.00  0.00    -0.323 OA
HETATM   31  C   UNL     1      -1.197  10.223 -27.818  1.00  0.00     0.040 A 
HETATM   32  C   UNL     1       0.118   7.263 -26.456  1.00  0.00     0.352 A 
HETATM   33  C   UNL     1      -1.970  10.315 -28.981  1.00  0.00     0.012 A 
ENDBRANCH  24  25
ENDBRANCH  21  24
ENDBRANCH  17  20
ENDBRANCH  13  14
ENDBRANCH   8  13
BRANCH   5  34
HETATM   34  C   UNL     1      -5.017   0.790 -30.753  1.00  0.00     0.237 C 
BRANCH  34  35
HETATM   35  C   UNL     1      -3.731   1.529 -31.143  1.00  0.00     0.240 C 
HETATM   36  N   UNL     1      -3.929   2.845 -31.517  1.00  0.00    -0.326 N 
HETATM   37  H   UNL     1      -4.882   3.186 -31.461  1.00  0.00     0.169 HD
HETATM   38  O   UNL     1      -2.670   0.912 -31.203  1.00  0.00    -0.271 OA
BRANCH  36  39
HETATM   39  C   UNL     1      -2.971   3.753 -32.015  1.00  0.00     0.036 A 
HETATM   40  C   UNL     1      -1.920   4.277 -31.259  1.00  0.00     0.053 A 
HETATM   41  C   UNL     1      -1.003   5.153 -31.847  1.00  0.00     0.036 A 
HETATM   42 CL   UNL     1       0.305   5.775 -30.915  1.00  0.00    -0.084 Cl
HETATM   43  C   UNL     1      -1.129   5.527 -33.183  1.00  0.00     0.024 A 
HETATM   44  C   UNL     1      -2.178   5.016 -33.941  1.00  0.00     0.004 A 
HETATM   45  C   UNL     1      -3.091   4.130 -33.360  1.00  0.00     0.029 A 
ENDBRANCH  36  39
ENDBRANCH  34  35
ENDBRANCH   5  34
TORSDOF 8
ENDMDL
MODEL 10
REMARK VINA RESULT:      -9.9      6.318     11.173
REMARK  8 active torsions:
REMARK  status: ('A' for Active; 'I' for Inactive)
REMARK    1  A    between atoms: N_5  and  C_6 
REMARK    2  A    between atoms: C_6  and  C_7 
REMARK       I    between atoms: C_7  and  N_8 
REMARK    3  A    between atoms: N_8  and  C_9 
REMARK    4  A    between atoms: N_19  and  C_20 
REMARK    5  A    between atoms: C_20  and  C_21 
REMARK    6  A    between atoms: C_24  and  C_25 
REMARK       I    between atoms: C_25  and  N_26 
REMARK    7  A    between atoms: N_26  and  C_27 
REMARK    8  A    between atoms: C_27  and  C_28 
ROOT
HETATM    1  C   UNL     1      -5.246  -1.660 -34.219  1.00  0.00     0.001 A 
HETATM    2  C   UNL     1      -6.536  -1.149 -34.116  1.00  0.00     0.019 A 
HETATM    3  C   UNL     1      -6.817  -0.135 -33.186  1.00  0.00     0.059 A 
HETATM    4  C   UNL     1      -5.823   0.383 -32.357  1.00  0.00     0.055 A 
HETATM    5  N   UNL     1      -6.154   1.407 -31.428  1.00  0.00    -0.290 N 
HETATM    6  C   UNL     1      -7.459   1.847 -31.252  1.00  0.00     0.332 C 
HETATM    7  O   UNL     1      -7.745   2.590 -30.309  1.00  0.00    -0.246 OA
HETATM    8  N   UNL     1      -8.413   1.375 -32.137  1.00  0.00    -0.261 N 
HETATM    9  C   UNL     1      -8.185   0.397 -33.094  1.00  0.00     0.264 C 
HETATM   10  O   UNL     1      -9.053  -0.048 -33.842  1.00  0.00    -0.267 OA
HETATM   11  C   UNL     1      -4.527  -0.148 -32.470  1.00  0.00     0.031 A 
HETATM   12  C   UNL     1      -4.244  -1.161 -33.395  1.00  0.00     0.002 A 
ENDROOT
BRANCH   8  13
HETATM   13  C   UNL     1      -9.763   1.918 -32.036  1.00  0.00     0.175 C 
BRANCH  13  14
HETATM   14  C   UNL     1      -9.885   3.268 -32.714  1.00  0.00    -0.040 A 
HETATM   15  C   UNL     1      -9.720   3.394 -34.101  1.00  0.00     0.010 A 
HETATM   16  C   UNL     1      -9.831   4.641 -34.731  1.00  0.00     0.017 A 
HETATM   17  C   UNL     1     -10.114   5.788 -33.982  1.00  0.00     0.032 A 
HETATM   18  C   UNL     1     -10.277   5.662 -32.594  1.00  0.00     0.017 A 
HETATM   19  C   UNL     1     -10.159   4.418 -31.965  1.00  0.00     0.010 A 
BRANCH  17  20
HETATM   20  C   UNL     1     -10.250   7.157 -34.572  1.00  0.00     0.251 C 
HETATM   21  N   UNL     1     -10.275   7.272 -35.946  1.00  0.00    -0.353 N 
HETATM   22  H   UNL     1     -10.313   6.462 -36.544  1.00  0.00     0.163 HD
HETATM   23  O   UNL     1     -10.319   8.132 -33.832  1.00  0.00    -0.268 OA
BRANCH  21  24
HETATM   24  C   UNL     1     -10.410   8.566 -36.582  1.00  0.00     0.161 C 
BRANCH  24  25
HETATM   25  C   UNL     1     -11.617   8.644 -37.489  1.00  0.00    -0.038 A 
HETATM   26  C   UNL     1     -12.867   8.209 -37.015  1.00  0.00     0.048 A 
HETATM   27  C   UNL     1     -13.968   8.364 -37.833  1.00  0.00     0.105 A 
HETATM   28  C   UNL     1     -13.870   8.924 -39.083  1.00  0.00     0.105 A 
HETATM   29  O   UNL     1     -15.245   8.014 -37.520  1.00  0.00    -0.323 OA
HETATM   30  O   UNL     1     -15.071   8.993 -39.718  1.00  0.00    -0.323 OA
HETATM   31  C   UNL     1     -12.667   9.366 -39.585  1.00  0.00     0.040 A 
HETATM   32  C   UNL     1     -15.943   8.448 -38.706  1.00  0.00     0.352 A 
HETATM   33  C   UNL     1     -11.536   9.237 -38.772  1.00  0.00     0.012 A 
ENDBRANCH  24  25
ENDBRANCH  21  24
ENDBRANCH  17  20
ENDBRANCH  13  14
ENDBRANCH   8  13
BRANCH   5  34
HETATM   34  C   UNL     1      -5.099   2.061 -30.641  1.00  0.00     0.237 C 
BRANCH  34  35
HETATM   35  C   UNL     1      -4.557   3.368 -31.232  1.00  0.00     0.240 C 
HETATM   36  N   UNL     1      -3.330   3.239 -31.856  1.00  0.00    -0.326 N 
HETATM   37  H   UNL     1      -2.942   2.303 -31.885  1.00  0.00     0.169 HD
HETATM   38  O   UNL     1      -5.160   4.421 -31.035  1.00  0.00    -0.271 OA
BRANCH  36  39
HETATM   39  C   UNL     1      -2.532   4.262 -32.409  1.00  0.00     0.036 A 
HETATM   40  C   UNL     1      -1.582   4.992 -31.691  1.00  0.00     0.053 A 
HETATM   41  C   UNL     1      -0.820   5.972 -32.333  1.00  0.00     0.036 A 
HETATM   42 CL   UNL     1       0.366   6.850 -31.445  1.00  0.00    -0.084 Cl
HETATM   43  C   UNL     1      -1.002   6.244 -33.687  1.00  0.00     0.024 A 
HETATM   44  C   UNL     1      -1.951   5.526 -34.409  1.00  0.00     0.004 A 
HETATM   45  C   UNL     1      -2.708   4.537 -33.773  1.00  0.00     0.029 A 
ENDBRANCH  36  39
ENDBRANCH  34  35
ENDBRANCH   5  34
TORSDOF 8
ENDMDL
