MODEL 1
REMARK VINA RESULT:      -8.7      0.000      0.000
REMARK  5 active torsions:
REMARK  status: ('A' for Active; 'I' for Inactive)
REMARK    1  A    between atoms: C_2  and  O_3 
REMARK    2  A    between atoms: O_3  and  C_4 
REMARK    3  A    between atoms: C_5  and  C_6 
REMARK    4  A    between atoms: C_7  and  C_8 
REMARK       I    between atoms: C_8  and  N_9 
REMARK    5  A    between atoms: N_9  and  C_10 
ROOT
HETATM    1  C   UNL     1      -3.788   2.361 -32.634  1.00  0.00     0.041 C 
HETATM    2  C   UNL     1      -4.702   1.826 -31.798  1.00  0.00     0.099 C 
HETATM    3  C   UNL     1      -5.318   2.631 -30.664  1.00  0.00     0.025 C 
HETATM    4  N   UNL     1      -5.828   3.298 -29.724  1.00  0.00    -0.096 N 
ENDROOT
BRANCH   2   5
HETATM    5  C   UNL     1      -5.145   0.407 -32.035  1.00  0.00     0.265 C 
HETATM    6  N   UNL     1      -4.671  -0.173 -33.200  1.00  0.00    -0.321 N 
HETATM    7  H   UNL     1      -3.917   0.305 -33.674  1.00  0.00     0.169 HD
HETATM    8  O   UNL     1      -5.811  -0.171 -31.178  1.00  0.00    -0.267 OA
BRANCH   6   9
HETATM    9  C   UNL     1      -4.851  -1.524 -33.608  1.00  0.00     0.047 A 
HETATM   10  C   UNL     1      -4.068  -2.605 -33.145  1.00  0.00    -0.035 A 
HETATM   11  C   UNL     1      -3.036  -2.517 -32.052  1.00  0.00     0.050 C 
HETATM   12  C   UNL     1      -4.281  -3.889 -33.686  1.00  0.00     0.009 A 
HETATM   13  C   UNL     1      -5.291  -4.126 -34.610  1.00  0.00     0.001 A 
HETATM   14  C   UNL     1      -6.116  -3.082 -35.006  1.00  0.00     0.009 A 
HETATM   15  C   UNL     1      -5.914  -1.781 -34.513  1.00  0.00    -0.035 A 
HETATM   16  C   UNL     1      -6.834  -0.697 -35.015  1.00  0.00     0.050 C 
ENDBRANCH   6   9
ENDBRANCH   2   5
BRANCH   1  17
HETATM   17  C   UNL     1      -3.296   3.761 -32.708  1.00  0.00     0.002 A 
HETATM   18  C   UNL     1      -4.016   4.702 -33.503  1.00  0.00     0.079 A 
HETATM   19  C   UNL     1      -3.599   6.038 -33.596  1.00  0.00     0.047 A 
HETATM   20  C   UNL     1      -2.511   6.436 -32.846  1.00  0.00    -0.020 A 
HETATM   21  C   UNL     1      -1.809   5.527 -32.076  1.00  0.00     0.076 A 
HETATM   22  C   UNL     1      -1.866   7.765 -32.738  1.00  0.00     0.073 C 
HETATM   23  C   UNL     1      -2.148   4.190 -32.023  1.00  0.00     0.051 A 
HETATM   24  O   UNL     1      -0.774   6.090 -31.372  1.00  0.00    -0.345 OA
HETATM   25  C   UNL     1      -1.014   7.519 -31.484  1.00  0.00     0.129 C 
HETATM   26  C   UNL     1      -1.696   8.011 -30.204  1.00  0.00     0.040 C 
BRANCH  18  27
HETATM   27  O   UNL     1      -5.113   4.216 -34.175  1.00  0.00    -0.351 OA
BRANCH  27  28
HETATM   28  C   UNL     1      -6.379   4.782 -33.839  1.00  0.00     0.171 C 
HETATM   29  C   UNL     1      -7.368   3.641 -33.688  1.00  0.00     0.034 C 
ENDBRANCH  27  28
ENDBRANCH  18  27
ENDBRANCH   1  17
TORSDOF 5
ENDMDL
MODEL 2
REMARK VINA RESULT:      -8.7      1.690      2.055
REMARK  5 active torsions:
REMARK  status: ('A' for Active; 'I' for Inactive)
REMARK    1  A    between atoms: C_2  and  O_3 
REMARK    2  A    between atoms: O_3  and  C_4 
REMARK    3  A    between atoms: C_5  and  C_6 
REMARK    4  A    between atoms: C_7  and  C_8 
REMARK       I    between atoms: C_8  and  N_9 
REMARK    5  A    between atoms: N_9  and  C_10 
ROOT
HETATM    1  C   UNL     1      -4.160   1.883 -31.740  1.00  0.00     0.041 C 
HETATM    2  C   UNL     1      -5.169   1.345 -32.457  1.00  0.00     0.099 C 
HETATM    3  C   UNL     1      -6.096   2.202 -33.303  1.00  0.00     0.025 C 
HETATM    4  N   UNL     1      -6.865   2.914 -34.005  1.00  0.00    -0.096 N 
ENDROOT
BRANCH   2   5
HETATM    5  C   UNL     1      -5.340  -0.151 -32.440  1.00  0.00     0.265 C 
HETATM    6  N   UNL     1      -4.718  -0.828 -33.476  1.00  0.00    -0.321 N 
HETATM    7  H   UNL     1      -4.041  -0.310 -34.019  1.00  0.00     0.169 HD
HETATM    8  O   UNL     1      -5.929  -0.682 -31.500  1.00  0.00    -0.267 OA
BRANCH   6   9
HETATM    9  C   UNL     1      -4.635  -2.240 -33.636  1.00  0.00     0.047 A 
HETATM   10  C   UNL     1      -3.711  -3.064 -32.955  1.00  0.00    -0.035 A 
HETATM   11  C   UNL     1      -2.786  -2.602 -31.860  1.00  0.00     0.050 C 
HETATM   12  C   UNL     1      -3.663  -4.439 -33.260  1.00  0.00     0.009 A 
HETATM   13  C   UNL     1      -4.552  -5.012 -34.160  1.00  0.00     0.001 A 
HETATM   14  C   UNL     1      -5.516  -4.220 -34.770  1.00  0.00     0.009 A 
HETATM   15  C   UNL     1      -5.574  -2.839 -34.516  1.00  0.00    -0.035 A 
HETATM   16  C   UNL     1      -6.630  -2.042 -35.241  1.00  0.00     0.050 C 
ENDBRANCH   6   9
ENDBRANCH   2   5
BRANCH   1  17
HETATM   17  C   UNL     1      -3.691   3.291 -31.699  1.00  0.00     0.002 A 
HETATM   18  C   UNL     1      -4.312   4.197 -30.787  1.00  0.00     0.079 A 
HETATM   19  C   UNL     1      -3.896   5.535 -30.702  1.00  0.00     0.047 A 
HETATM   20  C   UNL     1      -2.827   5.937 -31.476  1.00  0.00    -0.020 A 
HETATM   21  C   UNL     1      -2.225   5.063 -32.363  1.00  0.00     0.076 A 
HETATM   22  C   UNL     1      -2.176   7.263 -31.581  1.00  0.00     0.073 C 
HETATM   23  C   UNL     1      -2.659   3.763 -32.525  1.00  0.00     0.051 A 
HETATM   24  O   UNL     1      -1.161   5.613 -33.034  1.00  0.00    -0.345 OA
HETATM   25  C   UNL     1      -0.891   6.843 -32.311  1.00  0.00     0.129 C 
HETATM   26  C   UNL     1       0.280   6.609 -31.352  1.00  0.00     0.040 C 
BRANCH  18  27
HETATM   27  O   UNL     1      -5.337   3.686 -30.027  1.00  0.00    -0.351 OA
BRANCH  27  28
HETATM   28  C   UNL     1      -6.634   4.244 -30.234  1.00  0.00     0.171 C 
HETATM   29  C   UNL     1      -7.652   3.144 -29.995  1.00  0.00     0.034 C 
ENDBRANCH  27  28
ENDBRANCH  18  27
ENDBRANCH   1  17
TORSDOF 5
ENDMDL
MODEL 3
REMARK VINA RESULT:      -8.5      4.572      8.634
REMARK  5 active torsions:
REMARK  status: ('A' for Active; 'I' for Inactive)
REMARK    1  A    between atoms: C_2  and  O_3 
REMARK    2  A    between atoms: O_3  and  C_4 
REMARK    3  A    between atoms: C_5  and  C_6 
REMARK    4  A    between atoms: C_7  and  C_8 
REMARK       I    between atoms: C_8  and  N_9 
REMARK    5  A    between atoms: N_9  and  C_10 
ROOT
HETATM    1  C   UNL     1      -9.109   0.512 -33.567  1.00  0.00     0.041 C 
HETATM    2  C   UNL     1      -9.369   1.822 -33.760  1.00  0.00     0.099 C 
HETATM    3  C   UNL     1      -8.256   2.853 -33.864  1.00  0.00     0.025 C 
HETATM    4  N   UNL     1      -7.333   3.708 -33.949  1.00  0.00    -0.096 N 
ENDROOT
BRANCH   2   5
HETATM    5  C   UNL     1     -10.803   2.251 -33.919  1.00  0.00     0.265 C 
HETATM    6  N   UNL     1     -11.652   1.866 -32.894  1.00  0.00    -0.321 N 
HETATM    7  H   UNL     1     -11.218   1.530 -32.045  1.00  0.00     0.169 HD
HETATM    8  O   UNL     1     -11.120   2.963 -34.870  1.00  0.00    -0.267 OA
BRANCH   6   9
HETATM    9  C   UNL     1     -13.020   2.227 -32.746  1.00  0.00     0.047 A 
HETATM   10  C   UNL     1     -13.465   3.437 -32.168  1.00  0.00    -0.035 A 
HETATM   11  C   UNL     1     -12.572   4.579 -31.762  1.00  0.00     0.050 C 
HETATM   12  C   UNL     1     -14.848   3.648 -31.995  1.00  0.00     0.009 A 
HETATM   13  C   UNL     1     -15.782   2.724 -32.446  1.00  0.00     0.001 A 
HETATM   14  C   UNL     1     -15.352   1.572 -33.089  1.00  0.00     0.009 A 
HETATM   15  C   UNL     1     -13.980   1.311 -33.251  1.00  0.00    -0.035 A 
HETATM   16  C   UNL     1     -13.592   0.022 -33.933  1.00  0.00     0.050 C 
ENDBRANCH   6   9
ENDBRANCH   2   5
BRANCH   1  17
HETATM   17  C   UNL     1      -7.796  -0.183 -33.525  1.00  0.00     0.002 A 
HETATM   18  C   UNL     1      -7.021  -0.115 -32.329  1.00  0.00     0.079 A 
HETATM   19  C   UNL     1      -5.780  -0.765 -32.234  1.00  0.00     0.047 A 
HETATM   20  C   UNL     1      -5.359  -1.527 -33.306  1.00  0.00    -0.020 A 
HETATM   21  C   UNL     1      -6.107  -1.592 -34.467  1.00  0.00     0.076 A 
HETATM   22  C   UNL     1      -4.120  -2.319 -33.479  1.00  0.00     0.073 C 
HETATM   23  C   UNL     1      -7.293  -0.904 -34.619  1.00  0.00     0.051 A 
HETATM   24  O   UNL     1      -5.561  -2.414 -35.422  1.00  0.00    -0.345 OA
HETATM   25  C   UNL     1      -4.533  -3.148 -34.705  1.00  0.00     0.129 C 
HETATM   26  C   UNL     1      -5.079  -4.527 -34.327  1.00  0.00     0.040 C 
BRANCH  18  27
HETATM   27  O   UNL     1      -7.550   0.631 -31.303  1.00  0.00    -0.351 OA
BRANCH  27  28
HETATM   28  C   UNL     1      -6.665   1.529 -30.635  1.00  0.00     0.171 C 
HETATM   29  C   UNL     1      -7.466   2.757 -30.241  1.00  0.00     0.034 C 
ENDBRANCH  27  28
ENDBRANCH  18  27
ENDBRANCH   1  17
TORSDOF 5
ENDMDL
MODEL 4
REMARK VINA RESULT:      -8.1      2.451      8.433
REMARK  5 active torsions:
REMARK  status: ('A' for Active; 'I' for Inactive)
REMARK    1  A    between atoms: C_2  and  O_3 
REMARK    2  A    between atoms: O_3  and  C_4 
REMARK    3  A    between atoms: C_5  and  C_6 
REMARK    4  A    between atoms: C_7  and  C_8 
REMARK       I    between atoms: C_8  and  N_9 
REMARK    5  A    between atoms: N_9  and  C_10 
ROOT
HETATM    1  C   UNL     1      -2.936   3.347 -31.466  1.00  0.00     0.041 C 
HETATM    2  C   UNL     1      -2.762   4.495 -32.154  1.00  0.00     0.099 C 
HETATM    3  C   UNL     1      -3.559   4.805 -33.411  1.00  0.00     0.025 C 
HETATM    4  N   UNL     1      -4.219   5.061 -34.454  1.00  0.00    -0.096 N 
ENDROOT
BRANCH   2   5
HETATM    5  C   UNL     1      -1.779   5.505 -31.623  1.00  0.00     0.265 C 
HETATM    6  N   UNL     1      -1.930   5.831 -30.286  1.00  0.00    -0.321 N 
HETATM    7  H   UNL     1      -2.525   5.228 -29.734  1.00  0.00     0.169 HD
HETATM    8  O   UNL     1      -0.875   5.910 -32.352  1.00  0.00    -0.267 OA
BRANCH   6   9
HETATM    9  C   UNL     1      -1.077   6.670 -29.516  1.00  0.00     0.047 A 
HETATM   10  C   UNL     1       0.182   6.275 -29.012  1.00  0.00    -0.035 A 
HETATM   11  C   UNL     1       0.871   4.975 -29.332  1.00  0.00     0.050 C 
HETATM   12  C   UNL     1       0.901   7.164 -28.188  1.00  0.00     0.009 A 
HETATM   13  C   UNL     1       0.431   8.444 -27.921  1.00  0.00     0.001 A 
HETATM   14  C   UNL     1      -0.766   8.865 -28.482  1.00  0.00     0.009 A 
HETATM   15  C   UNL     1      -1.528   7.996 -29.283  1.00  0.00    -0.035 A 
HETATM   16  C   UNL     1      -2.832   8.519 -29.831  1.00  0.00     0.050 C 
ENDBRANCH   6   9
ENDBRANCH   2   5
BRANCH   1  17
HETATM   17  C   UNL     1      -3.931   2.267 -31.689  1.00  0.00     0.002 A 
HETATM   18  C   UNL     1      -5.137   2.274 -30.926  1.00  0.00     0.079 A 
HETATM   19  C   UNL     1      -6.113   1.283 -31.108  1.00  0.00     0.047 A 
HETATM   20  C   UNL     1      -5.908   0.337 -32.091  1.00  0.00    -0.020 A 
HETATM   21  C   UNL     1      -4.739   0.325 -32.831  1.00  0.00     0.076 A 
HETATM   22  C   UNL     1      -6.759  -0.801 -32.508  1.00  0.00     0.073 C 
HETATM   23  C   UNL     1      -3.727   1.240 -32.624  1.00  0.00     0.051 A 
HETATM   24  O   UNL     1      -4.706  -0.662 -33.785  1.00  0.00    -0.345 OA
HETATM   25  C   UNL     1      -6.078  -1.136 -33.844  1.00  0.00     0.129 C 
HETATM   26  C   UNL     1      -6.778  -0.484 -35.039  1.00  0.00     0.040 C 
BRANCH  18  27
HETATM   27  O   UNL     1      -5.266   3.286 -30.005  1.00  0.00    -0.351 OA
BRANCH  27  28
HETATM   28  C   UNL     1      -6.312   4.232 -30.227  1.00  0.00     0.171 C 
HETATM   29  C   UNL     1      -5.694   5.618 -30.192  1.00  0.00     0.034 C 
ENDBRANCH  27  28
ENDBRANCH  18  27
ENDBRANCH   1  17
TORSDOF 5
ENDMDL
MODEL 5
REMARK VINA RESULT:      -7.9      2.061      2.564
REMARK  5 active torsions:
REMARK  status: ('A' for Active; 'I' for Inactive)
REMARK    1  A    between atoms: C_2  and  O_3 
REMARK    2  A    between atoms: O_3  and  C_4 
REMARK    3  A    between atoms: C_5  and  C_6 
REMARK    4  A    between atoms: C_7  and  C_8 
REMARK       I    between atoms: C_8  and  N_9 
REMARK    5  A    between atoms: N_9  and  C_10 
ROOT
HETATM    1  C   UNL     1      -4.402   3.647 -31.478  1.00  0.00     0.041 C 
HETATM    2  C   UNL     1      -5.466   3.207 -32.182  1.00  0.00     0.099 C 
HETATM    3  C   UNL     1      -6.376   4.162 -32.937  1.00  0.00     0.025 C 
HETATM    4  N   UNL     1      -7.132   4.954 -33.562  1.00  0.00    -0.096 N 
ENDROOT
BRANCH   2   5
HETATM    5  C   UNL     1      -5.717   1.724 -32.247  1.00  0.00     0.265 C 
HETATM    6  N   UNL     1      -5.432   1.129 -33.465  1.00  0.00    -0.321 N 
HETATM    7  H   UNL     1      -4.892   1.673 -34.123  1.00  0.00     0.169 HD
HETATM    8  O   UNL     1      -6.069   1.125 -31.232  1.00  0.00    -0.267 OA
BRANCH   6   9
HETATM    9  C   UNL     1      -5.480  -0.262 -33.760  1.00  0.00     0.047 A 
HETATM   10  C   UNL     1      -4.464  -1.183 -33.418  1.00  0.00    -0.035 A 
HETATM   11  C   UNL     1      -3.262  -0.865 -32.570  1.00  0.00     0.050 C 
HETATM   12  C   UNL     1      -4.582  -2.523 -33.840  1.00  0.00     0.009 A 
HETATM   13  C   UNL     1      -5.707  -2.971 -34.520  1.00  0.00     0.001 A 
HETATM   14  C   UNL     1      -6.744  -2.088 -34.786  1.00  0.00     0.009 A 
HETATM   15  C   UNL     1      -6.650  -0.736 -34.410  1.00  0.00    -0.035 A 
HETATM   16  C   UNL     1      -7.806   0.166 -34.761  1.00  0.00     0.050 C 
ENDBRANCH   6   9
ENDBRANCH   2   5
BRANCH   1  17
HETATM   17  C   UNL     1      -3.855   5.024 -31.374  1.00  0.00     0.002 A 
HETATM   18  C   UNL     1      -2.883   5.452 -32.327  1.00  0.00     0.079 A 
HETATM   19  C   UNL     1      -2.345   6.747 -32.280  1.00  0.00     0.047 A 
HETATM   20  C   UNL     1      -2.829   7.620 -31.326  1.00  0.00    -0.020 A 
HETATM   21  C   UNL     1      -3.769   7.208 -30.399  1.00  0.00     0.076 A 
HETATM   22  C   UNL     1      -2.461   9.029 -31.054  1.00  0.00     0.073 C 
HETATM   23  C   UNL     1      -4.261   5.919 -30.372  1.00  0.00     0.051 A 
HETATM   24  O   UNL     1      -4.163   8.205 -29.541  1.00  0.00    -0.345 OA
HETATM   25  C   UNL     1      -3.642   9.416 -30.151  1.00  0.00     0.129 C 
HETATM   26  C   UNL     1      -4.769  10.109 -30.922  1.00  0.00     0.040 C 
BRANCH  18  27
HETATM   27  O   UNL     1      -2.501   4.522 -33.265  1.00  0.00    -0.351 OA
BRANCH  27  28
HETATM   28  C   UNL     1      -2.308   4.991 -34.599  1.00  0.00     0.171 C 
HETATM   29  C   UNL     1      -3.675   5.291 -35.185  1.00  0.00     0.034 C 
ENDBRANCH  27  28
ENDBRANCH  18  27
ENDBRANCH   1  17
TORSDOF 5
ENDMDL
MODEL 6
REMARK VINA RESULT:      -7.8      2.087      7.855
REMARK  5 active torsions:
REMARK  status: ('A' for Active; 'I' for Inactive)
REMARK    1  A    between atoms: C_2  and  O_3 
REMARK    2  A    between atoms: O_3  and  C_4 
REMARK    3  A    between atoms: C_5  and  C_6 
REMARK    4  A    between atoms: C_7  and  C_8 
REMARK       I    between atoms: C_8  and  N_9 
REMARK    5  A    between atoms: N_9  and  C_10 
ROOT
HETATM    1  C   UNL     1      -5.195   1.699 -33.001  1.00  0.00     0.041 C 
HETATM    2  C   UNL     1      -4.987   2.248 -31.786  1.00  0.00     0.099 C 
HETATM    3  C   UNL     1      -5.391   1.535 -30.505  1.00  0.00     0.025 C 
HETATM    4  N   UNL     1      -5.727   0.944 -29.443  1.00  0.00    -0.096 N 
ENDROOT
BRANCH   2   5
HETATM    5  C   UNL     1      -4.296   3.583 -31.713  1.00  0.00     0.265 C 
HETATM    6  N   UNL     1      -3.226   3.743 -32.579  1.00  0.00    -0.321 N 
HETATM    7  H   UNL     1      -3.132   3.060 -33.318  1.00  0.00     0.169 HD
HETATM    8  O   UNL     1      -4.748   4.459 -30.978  1.00  0.00    -0.267 OA
BRANCH   6   9
HETATM    9  C   UNL     1      -2.474   4.933 -32.786  1.00  0.00     0.047 A 
HETATM   10  C   UNL     1      -1.454   5.389 -31.920  1.00  0.00    -0.035 A 
HETATM   11  C   UNL     1      -0.913   4.621 -30.744  1.00  0.00     0.050 C 
HETATM   12  C   UNL     1      -0.836   6.628 -32.181  1.00  0.00     0.009 A 
HETATM   13  C   UNL     1      -1.158   7.374 -33.308  1.00  0.00     0.001 A 
HETATM   14  C   UNL     1      -2.100   6.890 -34.205  1.00  0.00     0.009 A 
HETATM   15  C   UNL     1      -2.762   5.673 -33.962  1.00  0.00    -0.035 A 
HETATM   16  C   UNL     1      -3.794   5.230 -34.969  1.00  0.00     0.050 C 
ENDBRANCH   6   9
ENDBRANCH   2   5
BRANCH   1  17
HETATM   17  C   UNL     1      -5.717   0.350 -33.339  1.00  0.00     0.002 A 
HETATM   18  C   UNL     1      -7.116   0.192 -33.573  1.00  0.00     0.079 A 
HETATM   19  C   UNL     1      -7.656  -1.059 -33.908  1.00  0.00     0.047 A 
HETATM   20  C   UNL     1      -6.791  -2.122 -34.070  1.00  0.00    -0.020 A 
HETATM   21  C   UNL     1      -5.435  -1.973 -33.841  1.00  0.00     0.076 A 
HETATM   22  C   UNL     1      -7.073  -3.531 -34.427  1.00  0.00     0.073 C 
HETATM   23  C   UNL     1      -4.883  -0.774 -33.438  1.00  0.00     0.051 A 
HETATM   24  O   UNL     1      -4.713  -3.118 -34.074  1.00  0.00    -0.345 OA
HETATM   25  C   UNL     1      -5.646  -3.982 -34.777  1.00  0.00     0.129 C 
HETATM   26  C   UNL     1      -5.358  -3.908 -36.279  1.00  0.00     0.040 C 
BRANCH  18  27
HETATM   27  O   UNL     1      -7.887   1.322 -33.431  1.00  0.00    -0.351 OA
BRANCH  27  28
HETATM   28  C   UNL     1      -8.894   1.294 -32.420  1.00  0.00     0.171 C 
HETATM   29  C   UNL     1     -10.236   1.486 -33.101  1.00  0.00     0.034 C 
ENDBRANCH  27  28
ENDBRANCH  18  27
ENDBRANCH   1  17
TORSDOF 5
ENDMDL
MODEL 7
REMARK VINA RESULT:      -7.7      2.035      2.384
REMARK  5 active torsions:
REMARK  status: ('A' for Active; 'I' for Inactive)
REMARK    1  A    between atoms: C_2  and  O_3 
REMARK    2  A    between atoms: O_3  and  C_4 
REMARK    3  A    between atoms: C_5  and  C_6 
REMARK    4  A    between atoms: C_7  and  C_8 
REMARK       I    between atoms: C_8  and  N_9 
REMARK    5  A    between atoms: N_9  and  C_10 
ROOT
HETATM    1  C   UNL     1      -4.873   2.997 -31.160  1.00  0.00     0.041 C 
HETATM    2  C   UNL     1      -5.682   2.587 -32.159  1.00  0.00     0.099 C 
HETATM    3  C   UNL     1      -6.312   3.569 -33.134  1.00  0.00     0.025 C 
HETATM    4  N   UNL     1      -6.835   4.383 -33.942  1.00  0.00    -0.096 N 
ENDROOT
BRANCH   2   5
HETATM    5  C   UNL     1      -5.921   1.109 -32.326  1.00  0.00     0.265 C 
HETATM    6  N   UNL     1      -5.345   0.540 -33.449  1.00  0.00    -0.321 N 
HETATM    7  H   UNL     1      -4.652   1.093 -33.937  1.00  0.00     0.169 HD
HETATM    8  O   UNL     1      -6.520   0.491 -31.448  1.00  0.00    -0.267 OA
BRANCH   6   9
HETATM    9  C   UNL     1      -5.328  -0.842 -33.785  1.00  0.00     0.047 A 
HETATM   10  C   UNL     1      -4.357  -1.760 -33.327  1.00  0.00    -0.035 A 
HETATM   11  C   UNL     1      -3.292  -1.453 -32.308  1.00  0.00     0.050 C 
HETATM   12  C   UNL     1      -4.392  -3.089 -33.796  1.00  0.00     0.009 A 
HETATM   13  C   UNL     1      -5.402  -3.531 -34.642  1.00  0.00     0.001 A 
HETATM   14  C   UNL     1      -6.405  -2.653 -35.029  1.00  0.00     0.009 A 
HETATM   15  C   UNL     1      -6.386  -1.312 -34.608  1.00  0.00    -0.035 A 
HETATM   16  C   UNL     1      -7.495  -0.413 -35.096  1.00  0.00     0.050 C 
ENDBRANCH   6   9
ENDBRANCH   2   5
BRANCH   1  17
HETATM   17  C   UNL     1      -4.366   4.362 -30.870  1.00  0.00     0.002 A 
HETATM   18  C   UNL     1      -5.081   5.178 -29.942  1.00  0.00     0.079 A 
HETATM   19  C   UNL     1      -4.636   6.471 -29.624  1.00  0.00     0.047 A 
HETATM   20  C   UNL     1      -3.453   6.910 -30.183  1.00  0.00    -0.020 A 
HETATM   21  C   UNL     1      -2.759   6.123 -31.084  1.00  0.00     0.076 A 
HETATM   22  C   UNL     1      -2.747   8.202 -30.021  1.00  0.00     0.073 C 
HETATM   23  C   UNL     1      -3.210   4.878 -31.475  1.00  0.00     0.051 A 
HETATM   24  O   UNL     1      -1.591   6.695 -31.523  1.00  0.00    -0.345 OA
HETATM   25  C   UNL     1      -1.385   7.809 -30.614  1.00  0.00     0.129 C 
HETATM   26  C   UNL     1      -0.375   7.395 -29.540  1.00  0.00     0.040 C 
BRANCH  18  27
HETATM   27  O   UNL     1      -6.222   4.631 -29.405  1.00  0.00    -0.351 OA
BRANCH  27  28
HETATM   28  C   UNL     1      -7.462   5.237 -29.771  1.00  0.00     0.171 C 
HETATM   29  C   UNL     1      -8.431   4.125 -30.127  1.00  0.00     0.034 C 
ENDBRANCH  27  28
ENDBRANCH  18  27
ENDBRANCH   1  17
TORSDOF 5
ENDMDL
MODEL 8
REMARK VINA RESULT:      -7.7      2.650      8.485
REMARK  5 active torsions:
REMARK  status: ('A' for Active; 'I' for Inactive)
REMARK    1  A    between atoms: C_2  and  O_3 
REMARK    2  A    between atoms: O_3  and  C_4 
REMARK    3  A    between atoms: C_5  and  C_6 
REMARK    4  A    between atoms: C_7  and  C_8 
REMARK       I    between atoms: C_8  and  N_9 
REMARK    5  A    between atoms: N_9  and  C_10 
ROOT
HETATM    1  C   UNL     1      -3.843   5.139 -31.123  1.00  0.00     0.041 C 
HETATM    2  C   UNL     1      -4.321   6.228 -30.483  1.00  0.00     0.099 C 
HETATM    3  C   UNL     1      -5.801   6.574 -30.488  1.00  0.00     0.025 C 
HETATM    4  N   UNL     1      -7.029   6.863 -30.493  1.00  0.00    -0.096 N 
ENDROOT
BRANCH   2   5
HETATM    5  C   UNL     1      -3.353   7.086 -29.712  1.00  0.00     0.265 C 
HETATM    6  N   UNL     1      -2.277   6.412 -29.159  1.00  0.00    -0.321 N 
HETATM    7  H   UNL     1      -2.112   5.470 -29.485  1.00  0.00     0.169 HD
HETATM    8  O   UNL     1      -3.515   8.305 -29.684  1.00  0.00    -0.267 OA
BRANCH   6   9
HETATM    9  C   UNL     1      -1.172   6.995 -28.478  1.00  0.00     0.047 A 
HETATM   10  C   UNL     1      -1.154   7.287 -27.096  1.00  0.00    -0.035 A 
HETATM   11  C   UNL     1      -2.228   6.895 -26.117  1.00  0.00     0.050 C 
HETATM   12  C   UNL     1      -0.035   7.946 -26.547  1.00  0.00     0.009 A 
HETATM   13  C   UNL     1       1.078   8.248 -27.322  1.00  0.00     0.001 A 
HETATM   14  C   UNL     1       1.098   7.888 -28.663  1.00  0.00     0.009 A 
HETATM   15  C   UNL     1      -0.013   7.260 -29.253  1.00  0.00    -0.035 A 
HETATM   16  C   UNL     1       0.075   6.928 -30.722  1.00  0.00     0.050 C 
ENDBRANCH   6   9
ENDBRANCH   2   5
BRANCH   1  17
HETATM   17  C   UNL     1      -4.592   4.065 -31.823  1.00  0.00     0.002 A 
HETATM   18  C   UNL     1      -4.883   4.221 -33.211  1.00  0.00     0.079 A 
HETATM   19  C   UNL     1      -5.576   3.229 -33.921  1.00  0.00     0.047 A 
HETATM   20  C   UNL     1      -5.914   2.067 -33.257  1.00  0.00    -0.020 A 
HETATM   21  C   UNL     1      -5.637   1.913 -31.911  1.00  0.00     0.076 A 
HETATM   22  C   UNL     1      -6.626   0.865 -33.749  1.00  0.00     0.073 C 
HETATM   23  C   UNL     1      -5.024   2.901 -31.168  1.00  0.00     0.051 A 
HETATM   24  O   UNL     1      -6.012   0.690 -31.413  1.00  0.00    -0.345 OA
HETATM   25  C   UNL     1      -6.293  -0.099 -32.599  1.00  0.00     0.129 C 
HETATM   26  C   UNL     1      -5.081  -0.983 -32.907  1.00  0.00     0.040 C 
BRANCH  18  27
HETATM   27  O   UNL     1      -4.463   5.395 -33.791  1.00  0.00    -0.351 OA
BRANCH  27  28
HETATM   28  C   UNL     1      -3.779   5.290 -35.040  1.00  0.00     0.171 C 
HETATM   29  C   UNL     1      -2.291   5.233 -34.747  1.00  0.00     0.034 C 
ENDBRANCH  27  28
ENDBRANCH  18  27
ENDBRANCH   1  17
TORSDOF 5
ENDMDL
MODEL 9
REMARK VINA RESULT:      -7.6      2.179      3.172
REMARK  5 active torsions:
REMARK  status: ('A' for Active; 'I' for Inactive)
REMARK    1  A    between atoms: C_2  and  O_3 
REMARK    2  A    between atoms: O_3  and  C_4 
REMARK    3  A    between atoms: C_5  and  C_6 
REMARK    4  A    between atoms: C_7  and  C_8 
REMARK       I    between atoms: C_8  and  N_9 
REMARK    5  A    between atoms: N_9  and  C_10 
ROOT
HETATM    1  C   UNL     1      -4.983   3.559 -31.678  1.00  0.00     0.041 C 
HETATM    2  C   UNL     1      -6.239   3.141 -31.938  1.00  0.00     0.099 C 
HETATM    3  C   UNL     1      -7.417   4.102 -31.948  1.00  0.00     0.025 C 
HETATM    4  N   UNL     1      -8.394   4.899 -31.956  1.00  0.00    -0.096 N 
ENDROOT
BRANCH   2   5
HETATM    5  C   UNL     1      -6.455   1.688 -32.268  1.00  0.00     0.265 C 
HETATM    6  N   UNL     1      -5.708   1.206 -33.330  1.00  0.00    -0.321 N 
HETATM    7  H   UNL     1      -4.944   1.784 -33.650  1.00  0.00     0.169 HD
HETATM    8  O   UNL     1      -7.192   1.008 -31.556  1.00  0.00    -0.267 OA
BRANCH   6   9
HETATM    9  C   UNL     1      -5.645  -0.144 -33.778  1.00  0.00     0.047 A 
HETATM   10  C   UNL     1      -6.639  -0.768 -34.564  1.00  0.00    -0.035 A 
HETATM   11  C   UNL     1      -7.829  -0.069 -35.165  1.00  0.00     0.050 C 
HETATM   12  C   UNL     1      -6.509  -2.137 -34.875  1.00  0.00     0.009 A 
HETATM   13  C   UNL     1      -5.391  -2.864 -34.486  1.00  0.00     0.001 A 
HETATM   14  C   UNL     1      -4.373  -2.233 -33.785  1.00  0.00     0.009 A 
HETATM   15  C   UNL     1      -4.481  -0.878 -33.428  1.00  0.00    -0.035 A 
HETATM   16  C   UNL     1      -3.346  -0.273 -32.639  1.00  0.00     0.050 C 
ENDBRANCH   6   9
ENDBRANCH   2   5
BRANCH   1  17
HETATM   17  C   UNL     1      -4.483   4.942 -31.469  1.00  0.00     0.002 A 
HETATM   18  C   UNL     1      -3.804   5.597 -32.539  1.00  0.00     0.079 A 
HETATM   19  C   UNL     1      -3.324   6.908 -32.397  1.00  0.00     0.047 A 
HETATM   20  C   UNL     1      -3.583   7.573 -31.215  1.00  0.00    -0.020 A 
HETATM   21  C   UNL     1      -4.239   6.941 -30.175  1.00  0.00     0.076 A 
HETATM   22  C   UNL     1      -3.215   8.945 -30.797  1.00  0.00     0.073 C 
HETATM   23  C   UNL     1      -4.657   5.628 -30.256  1.00  0.00     0.051 A 
HETATM   24  O   UNL     1      -4.442   7.750 -29.085  1.00  0.00    -0.345 OA
HETATM   25  C   UNL     1      -4.142   9.083 -29.579  1.00  0.00     0.129 C 
HETATM   26  C   UNL     1      -5.455   9.794 -29.918  1.00  0.00     0.040 C 
BRANCH  18  27
HETATM   27  O   UNL     1      -3.636   4.864 -33.691  1.00  0.00    -0.351 OA
BRANCH  27  28
HETATM   28  C   UNL     1      -3.065   5.542 -34.810  1.00  0.00     0.171 C 
HETATM   29  C   UNL     1      -1.627   5.078 -34.944  1.00  0.00     0.034 C 
ENDBRANCH  27  28
ENDBRANCH  18  27
ENDBRANCH   1  17
TORSDOF 5
ENDMDL
MODEL 10
REMARK VINA RESULT:      -7.6      4.467      7.072
REMARK  5 active torsions:
REMARK  status: ('A' for Active; 'I' for Inactive)
REMARK    1  A    between atoms: C_2  and  O_3 
REMARK    2  A    between atoms: O_3  and  C_4 
REMARK    3  A    between atoms: C_5  and  C_6 
REMARK    4  A    between atoms: C_7  and  C_8 
REMARK       I    between atoms: C_8  and  N_9 
REMARK    5  A    between atoms: N_9  and  C_10 
ROOT
HETATM    1  C   UNL     1      -9.476   2.305 -33.956  1.00  0.00     0.041 C 
HETATM    2  C   UNL     1      -9.142   2.100 -32.665  1.00  0.00     0.099 C 
HETATM    3  C   UNL     1      -9.707   2.959 -31.545  1.00  0.00     0.025 C 
HETATM    4  N   UNL     1     -10.176   3.671 -30.616  1.00  0.00    -0.096 N 
ENDROOT
BRANCH   2   5
HETATM    5  C   UNL     1      -8.215   0.958 -32.339  1.00  0.00     0.265 C 
HETATM    6  N   UNL     1      -6.994   0.984 -32.991  1.00  0.00    -0.321 N 
HETATM    7  H   UNL     1      -6.740   1.847 -33.450  1.00  0.00     0.169 HD
HETATM    8  O   UNL     1      -8.543   0.139 -31.482  1.00  0.00    -0.267 OA
BRANCH   6   9
HETATM    9  C   UNL     1      -5.905   0.091 -32.785  1.00  0.00     0.047 A 
HETATM   10  C   UNL     1      -4.994   0.183 -31.710  1.00  0.00    -0.035 A 
HETATM   11  C   UNL     1      -5.120   1.135 -30.551  1.00  0.00     0.050 C 
HETATM   12  C   UNL     1      -3.901  -0.706 -31.658  1.00  0.00     0.009 A 
HETATM   13  C   UNL     1      -3.744  -1.715 -32.600  1.00  0.00     0.001 A 
HETATM   14  C   UNL     1      -4.683  -1.861 -33.612  1.00  0.00     0.009 A 
HETATM   15  C   UNL     1      -5.768  -0.973 -33.716  1.00  0.00    -0.035 A 
HETATM   16  C   UNL     1      -6.729  -1.179 -34.861  1.00  0.00     0.050 C 
ENDBRANCH   6   9
ENDBRANCH   2   5
BRANCH   1  17
HETATM   17  C   UNL     1     -10.468   3.254 -34.524  1.00  0.00     0.002 A 
HETATM   18  C   UNL     1     -11.779   2.780 -34.826  1.00  0.00     0.079 A 
HETATM   19  C   UNL     1     -12.755   3.640 -35.353  1.00  0.00     0.047 A 
HETATM   20  C   UNL     1     -12.435   4.973 -35.511  1.00  0.00    -0.020 A 
HETATM   21  C   UNL     1     -11.164   5.435 -35.222  1.00  0.00     0.076 A 
HETATM   22  C   UNL     1     -13.256   6.093 -36.024  1.00  0.00     0.073 C 
HETATM   23  C   UNL     1     -10.160   4.601 -34.774  1.00  0.00     0.051 A 
HETATM   24  O   UNL     1     -11.020   6.788 -35.406  1.00  0.00    -0.345 OA
HETATM   25  C   UNL     1     -12.383   7.267 -35.553  1.00  0.00     0.129 C 
HETATM   26  C   UNL     1     -12.853   7.849 -34.217  1.00  0.00     0.040 C 
BRANCH  18  27
HETATM   27  O   UNL     1     -12.012   1.445 -34.590  1.00  0.00    -0.351 OA
BRANCH  27  28
HETATM   28  C   UNL     1     -13.376   1.032 -34.511  1.00  0.00     0.171 C 
HETATM   29  C   UNL     1     -13.427  -0.233 -33.675  1.00  0.00     0.034 C 
ENDBRANCH  27  28
ENDBRANCH  18  27
ENDBRANCH   1  17
TORSDOF 5
ENDMDL
