MODEL 1
REMARK VINA RESULT:      -8.3      0.000      0.000
REMARK  11 active torsions:
REMARK  status: ('A' for Active; 'I' for Inactive)
REMARK    1  A    between atoms: O_2  and  C_3 
REMARK    2  A    between atoms: C_6  and  C_7 
REMARK    3  A    between atoms: C_7  and  N_8 
REMARK    4  A    between atoms: C_7  and  C_29 
REMARK       I    between atoms: N_8  and  C_9 
REMARK    5  A    between atoms: N_8  and  C_20 
REMARK    6  A    between atoms: C_9  and  C_10 
REMARK    7  A    between atoms: C_13  and  C_14 
REMARK       I    between atoms: C_14  and  N_15 
REMARK    8  A    between atoms: C_17  and  N_18 
REMARK    9  A    between atoms: C_20  and  C_21 
REMARK   10  A    between atoms: C_21  and  N_22 
REMARK       I    between atoms: C_29  and  N_30 
REMARK   11  A    between atoms: N_30  and  C_31 
ROOT
HETATM    1  N   UNL     1      -7.990   1.791 -32.476  1.00  0.00    -0.328 N 
HETATM    2  C   UNL     1      -8.602   2.359 -31.327  1.00  0.00     0.265 C 
HETATM    3  O   UNL     1      -9.643   1.864 -30.886  1.00  0.00    -0.267 OA
ENDROOT
BRANCH   1   4
HETATM    4  C   UNL     1      -8.726   0.675 -33.127  1.00  0.00     0.213 C 
BRANCH   4   5
HETATM    5  C   UNL     1     -10.161   0.971 -33.555  1.00  0.00    -0.026 A 
HETATM    6  C   UNL     1     -10.445   2.079 -34.372  1.00  0.00     0.012 A 
HETATM    7  C   UNL     1     -11.742   2.323 -34.842  1.00  0.00     0.037 A 
HETATM    8  C   UNL     1     -12.780   1.455 -34.518  1.00  0.00     0.068 A 
HETATM    9  C   UNL     1     -12.509   0.340 -33.726  1.00  0.00     0.037 A 
HETATM   10  C   UNL     1     -11.217   0.094 -33.254  1.00  0.00     0.012 A 
BRANCH   8  11
HETATM   11  O   UNL     1     -14.083   1.570 -34.913  1.00  0.00    -0.356 OA
HETATM   12  C   UNL     1     -15.036   0.759 -34.235  1.00  0.00     0.210 C 
ENDBRANCH   8  11
ENDBRANCH   4   5
BRANCH   4  13
HETATM   13  C   UNL     1      -7.847  -0.108 -34.129  1.00  0.00     0.245 C 
HETATM   14  N   UNL     1      -7.047  -1.091 -33.604  1.00  0.00    -0.354 N 
HETATM   15  H   UNL     1      -6.979  -1.148 -32.585  1.00  0.00     0.162 HD
HETATM   16  O   UNL     1      -7.922   0.140 -35.334  1.00  0.00    -0.271 OA
BRANCH  14  17
HETATM   17  C   UNL     1      -6.100  -1.838 -34.402  1.00  0.00     0.084 C 
HETATM   18  C   UNL     1      -4.805  -2.114 -33.642  1.00  0.00     0.025 C 
HETATM   19  C   UNL     1      -4.231  -3.313 -34.376  1.00  0.00     0.002 C 
HETATM   20  C   UNL     1      -5.450  -4.186 -34.640  1.00  0.00     0.002 C 
HETATM   21  C   UNL     1      -6.624  -3.221 -34.803  1.00  0.00     0.025 C 
ENDBRANCH  14  17
ENDBRANCH   4  13
ENDBRANCH   1   4
BRANCH   1  22
HETATM   22  C   UNL     1      -7.052   2.544 -33.340  1.00  0.00     0.155 C 
BRANCH  22  23
HETATM   23  C   UNL     1      -5.556   2.212 -33.114  1.00  0.00     0.255 C 
BRANCH  23  24
HETATM   24  N   UNL     1      -4.647   3.423 -33.196  1.00  0.00    -0.066 N 
HETATM   25  H   UNL     1      -4.174   3.407 -34.108  1.00  0.00     0.280 HD
HETATM   26  C   UNL     1      -5.390   4.756 -33.051  1.00  0.00     0.261 C 
HETATM   27  C   UNL     1      -4.390   5.912 -33.178  1.00  0.00     0.195 C 
HETATM   28  O   UNL     1      -3.363   5.803 -32.188  1.00  0.00    -0.388 OA
HETATM   29  C   UNL     1      -2.613   4.592 -32.325  1.00  0.00     0.195 C 
HETATM   30  C   UNL     1      -3.521   3.366 -32.159  1.00  0.00     0.261 C 
ENDBRANCH  23  24
ENDBRANCH  22  23
ENDBRANCH   1  22
BRANCH   2  31
HETATM   31  C   UNL     1      -8.034   3.528 -30.700  1.00  0.00     0.120 A 
HETATM   32  S   UNL     1      -8.566   5.104 -31.056  1.00  0.00     0.020 SA
HETATM   33  N   UNL     1      -7.523   5.893 -30.048  1.00  0.00    -0.203 NA
HETATM   34  C   UNL     1      -6.652   5.005 -29.536  1.00  0.00     0.160 A 
HETATM   35  C   UNL     1      -6.912   3.629 -29.900  1.00  0.00     0.085 A 
BRANCH  34  36
HETATM   36  C   UNL     1      -5.531   5.463 -28.696  1.00  0.00     0.271 C 
HETATM   37  N   UNL     1      -4.364   5.720 -29.363  1.00  0.00    -0.365 N 
HETATM   38  H   UNL     1      -4.292   5.533 -30.356  1.00  0.00     0.159 HD
HETATM   39  H   UNL     1      -3.544   5.974 -28.832  1.00  0.00     0.159 HD
HETATM   40  O   UNL     1      -5.606   5.598 -27.478  1.00  0.00    -0.266 OA
ENDBRANCH  34  36
BRANCH  35  41
HETATM   41  N   UNL     1      -6.165   2.566 -29.507  1.00  0.00    -0.396 N 
HETATM   42  H   UNL     1      -5.604   2.073 -30.213  1.00  0.00     0.156 HD
HETATM   43  H   UNL     1      -6.513   1.920 -28.797  1.00  0.00     0.156 HD
ENDBRANCH  35  41
ENDBRANCH   2  31
TORSDOF 11
ENDMDL
MODEL 2
REMARK VINA RESULT:      -8.2      2.078      6.013
REMARK  11 active torsions:
REMARK  status: ('A' for Active; 'I' for Inactive)
REMARK    1  A    between atoms: O_2  and  C_3 
REMARK    2  A    between atoms: C_6  and  C_7 
REMARK    3  A    between atoms: C_7  and  N_8 
REMARK    4  A    between atoms: C_7  and  C_29 
REMARK       I    between atoms: N_8  and  C_9 
REMARK    5  A    between atoms: N_8  and  C_20 
REMARK    6  A    between atoms: C_9  and  C_10 
REMARK    7  A    between atoms: C_13  and  C_14 
REMARK       I    between atoms: C_14  and  N_15 
REMARK    8  A    between atoms: C_17  and  N_18 
REMARK    9  A    between atoms: C_20  and  C_21 
REMARK   10  A    between atoms: C_21  and  N_22 
REMARK       I    between atoms: C_29  and  N_30 
REMARK   11  A    between atoms: N_30  and  C_31 
ROOT
HETATM    1  N   UNL     1      -6.539   2.111 -32.573  1.00  0.00    -0.328 N 
HETATM    2  C   UNL     1      -5.871   3.118 -33.321  1.00  0.00     0.265 C 
HETATM    3  O   UNL     1      -6.028   3.171 -34.543  1.00  0.00    -0.267 OA
ENDROOT
BRANCH   1   4
HETATM    4  C   UNL     1      -7.319   1.120 -33.360  1.00  0.00     0.213 C 
BRANCH   4   5
HETATM    5  C   UNL     1      -6.626  -0.211 -33.646  1.00  0.00    -0.026 A 
HETATM    6  C   UNL     1      -7.335  -1.266 -34.246  1.00  0.00     0.012 A 
HETATM    7  C   UNL     1      -6.701  -2.465 -34.590  1.00  0.00     0.037 A 
HETATM    8  C   UNL     1      -5.338  -2.631 -34.357  1.00  0.00     0.068 A 
HETATM    9  C   UNL     1      -4.618  -1.584 -33.782  1.00  0.00     0.037 A 
HETATM   10  C   UNL     1      -5.248  -0.386 -33.436  1.00  0.00     0.012 A 
BRANCH   8  11
HETATM   11  O   UNL     1      -4.597  -3.740 -34.650  1.00  0.00    -0.356 OA
HETATM   12  C   UNL     1      -3.742  -4.232 -33.624  1.00  0.00     0.210 C 
ENDBRANCH   8  11
ENDBRANCH   4   5
BRANCH   4  13
HETATM   13  C   UNL     1      -8.801   1.054 -32.925  1.00  0.00     0.245 C 
HETATM   14  N   UNL     1      -9.680   1.838 -33.628  1.00  0.00    -0.354 N 
HETATM   15  H   UNL     1      -9.286   2.510 -34.291  1.00  0.00     0.162 HD
HETATM   16  O   UNL     1      -9.141   0.293 -32.018  1.00  0.00    -0.271 OA
BRANCH  14  17
HETATM   17  C   UNL     1     -11.077   1.957 -33.274  1.00  0.00     0.084 C 
HETATM   18  C   UNL     1     -11.712   3.212 -33.868  1.00  0.00     0.025 C 
HETATM   19  C   UNL     1     -13.192   2.872 -33.874  1.00  0.00     0.002 C 
HETATM   20  C   UNL     1     -13.222   1.419 -34.326  1.00  0.00     0.002 C 
HETATM   21  C   UNL     1     -11.924   0.797 -33.809  1.00  0.00     0.025 C 
ENDBRANCH  14  17
ENDBRANCH   4  13
ENDBRANCH   1   4
BRANCH   1  22
HETATM   22  C   UNL     1      -6.080   1.668 -31.237  1.00  0.00     0.155 C 
BRANCH  22  23
HETATM   23  C   UNL     1      -6.970   2.137 -30.059  1.00  0.00     0.255 C 
BRANCH  23  24
HETATM   24  N   UNL     1      -7.640   3.476 -30.302  1.00  0.00    -0.066 N 
HETATM   25  H   UNL     1      -7.328   3.829 -31.215  1.00  0.00     0.280 HD
HETATM   26  C   UNL     1      -9.171   3.403 -30.299  1.00  0.00     0.261 C 
HETATM   27  C   UNL     1      -9.747   4.796 -30.582  1.00  0.00     0.195 C 
HETATM   28  O   UNL     1      -9.291   5.740 -29.608  1.00  0.00    -0.388 OA
HETATM   29  C   UNL     1      -7.866   5.873 -29.617  1.00  0.00     0.195 C 
HETATM   30  C   UNL     1      -7.191   4.535 -29.289  1.00  0.00     0.261 C 
ENDBRANCH  23  24
ENDBRANCH  22  23
ENDBRANCH   1  22
BRANCH   2  31
HETATM   31  C   UNL     1      -4.985   4.049 -32.664  1.00  0.00     0.120 A 
HETATM   32  S   UNL     1      -5.377   5.690 -32.456  1.00  0.00     0.020 SA
HETATM   33  N   UNL     1      -3.981   6.128 -31.691  1.00  0.00    -0.203 NA
HETATM   34  C   UNL     1      -3.128   5.089 -31.709  1.00  0.00     0.160 A 
HETATM   35  C   UNL     1      -3.672   3.873 -32.273  1.00  0.00     0.085 A 
BRANCH  34  36
HETATM   36  C   UNL     1      -1.754   5.247 -31.199  1.00  0.00     0.271 C 
HETATM   37  N   UNL     1      -1.638   5.956 -30.034  1.00  0.00    -0.365 N 
HETATM   38  H   UNL     1      -2.453   6.386 -29.615  1.00  0.00     0.159 HD
HETATM   39  H   UNL     1      -0.716   6.152 -29.672  1.00  0.00     0.159 HD
HETATM   40  O   UNL     1      -0.762   4.797 -31.767  1.00  0.00    -0.266 OA
ENDBRANCH  34  36
BRANCH  35  41
HETATM   41  N   UNL     1      -2.995   2.704 -32.399  1.00  0.00    -0.396 N 
HETATM   42  H   UNL     1      -3.533   1.832 -32.480  1.00  0.00     0.156 HD
HETATM   43  H   UNL     1      -2.121   2.551 -31.894  1.00  0.00     0.156 HD
ENDBRANCH  35  41
ENDBRANCH   2  31
TORSDOF 11
ENDMDL
MODEL 3
REMARK VINA RESULT:      -8.1      1.589      2.047
REMARK  11 active torsions:
REMARK  status: ('A' for Active; 'I' for Inactive)
REMARK    1  A    between atoms: O_2  and  C_3 
REMARK    2  A    between atoms: C_6  and  C_7 
REMARK    3  A    between atoms: C_7  and  N_8 
REMARK    4  A    between atoms: C_7  and  C_29 
REMARK       I    between atoms: N_8  and  C_9 
REMARK    5  A    between atoms: N_8  and  C_20 
REMARK    6  A    between atoms: C_9  and  C_10 
REMARK    7  A    between atoms: C_13  and  C_14 
REMARK       I    between atoms: C_14  and  N_15 
REMARK    8  A    between atoms: C_17  and  N_18 
REMARK    9  A    between atoms: C_20  and  C_21 
REMARK   10  A    between atoms: C_21  and  N_22 
REMARK       I    between atoms: C_29  and  N_30 
REMARK   11  A    between atoms: N_30  and  C_31 
ROOT
HETATM    1  N   UNL     1      -7.062   2.454 -31.618  1.00  0.00    -0.328 N 
HETATM    2  C   UNL     1      -7.612   3.426 -30.739  1.00  0.00     0.265 C 
HETATM    3  O   UNL     1      -8.667   3.183 -30.148  1.00  0.00    -0.267 OA
ENDROOT
BRANCH   1   4
HETATM    4  C   UNL     1      -7.877   1.229 -31.832  1.00  0.00     0.213 C 
BRANCH   4   5
HETATM    5  C   UNL     1      -9.042   1.354 -32.810  1.00  0.00    -0.026 A 
HETATM    6  C   UNL     1     -10.111   0.442 -32.762  1.00  0.00     0.012 A 
HETATM    7  C   UNL     1     -11.227   0.585 -33.596  1.00  0.00     0.037 A 
HETATM    8  C   UNL     1     -11.307   1.654 -34.484  1.00  0.00     0.068 A 
HETATM    9  C   UNL     1     -10.264   2.578 -34.527  1.00  0.00     0.037 A 
HETATM   10  C   UNL     1      -9.148   2.438 -33.698  1.00  0.00     0.012 A 
BRANCH   8  11
HETATM   11  O   UNL     1     -12.335   1.915 -35.344  1.00  0.00    -0.356 OA
HETATM   12  C   UNL     1     -12.370   3.210 -35.933  1.00  0.00     0.210 C 
ENDBRANCH   8  11
ENDBRANCH   4   5
BRANCH   4  13
HETATM   13  C   UNL     1      -7.009  -0.046 -31.941  1.00  0.00     0.245 C 
HETATM   14  N   UNL     1      -6.934  -0.631 -33.179  1.00  0.00    -0.354 N 
HETATM   15  H   UNL     1      -7.558  -0.275 -33.907  1.00  0.00     0.162 HD
HETATM   16  O   UNL     1      -6.398  -0.458 -30.954  1.00  0.00    -0.271 OA
BRANCH  14  17
HETATM   17  C   UNL     1      -6.244  -1.880 -33.413  1.00  0.00     0.084 C 
HETATM   18  C   UNL     1      -6.872  -2.675 -34.555  1.00  0.00     0.025 C 
HETATM   19  C   UNL     1      -5.742  -3.589 -34.993  1.00  0.00     0.002 C 
HETATM   20  C   UNL     1      -4.517  -2.687 -34.949  1.00  0.00     0.002 C 
HETATM   21  C   UNL     1      -4.783  -1.680 -33.830  1.00  0.00     0.025 C 
ENDBRANCH  14  17
ENDBRANCH   4  13
ENDBRANCH   1   4
BRANCH   1  22
HETATM   22  C   UNL     1      -6.106   2.797 -32.695  1.00  0.00     0.155 C 
BRANCH  22  23
HETATM   23  C   UNL     1      -4.625   2.479 -32.370  1.00  0.00     0.255 C 
BRANCH  23  24
HETATM   24  N   UNL     1      -3.664   3.577 -32.784  1.00  0.00    -0.066 N 
HETATM   25  H   UNL     1      -3.076   3.217 -33.546  1.00  0.00     0.280 HD
HETATM   26  C   UNL     1      -4.365   4.853 -33.263  1.00  0.00     0.261 C 
HETATM   27  C   UNL     1      -3.310   5.884 -33.684  1.00  0.00     0.195 C 
HETATM   28  O   UNL     1      -2.427   6.178 -32.598  1.00  0.00    -0.388 OA
HETATM   29  C   UNL     1      -1.716   5.016 -32.158  1.00  0.00     0.195 C 
HETATM   30  C   UNL     1      -2.686   3.937 -31.661  1.00  0.00     0.261 C 
ENDBRANCH  23  24
ENDBRANCH  22  23
ENDBRANCH   1  22
BRANCH   2  31
HETATM   31  C   UNL     1      -6.962   4.703 -30.565  1.00  0.00     0.120 A 
HETATM   32  S   UNL     1      -7.379   6.071 -31.486  1.00  0.00     0.020 SA
HETATM   33  N   UNL     1      -6.283   7.103 -30.806  1.00  0.00    -0.203 NA
HETATM   34  C   UNL     1      -5.479   6.408 -29.982  1.00  0.00     0.160 A 
HETATM   35  C   UNL     1      -5.837   5.014 -29.827  1.00  0.00     0.085 A 
BRANCH  34  36
HETATM   36  C   UNL     1      -4.330   7.066 -29.335  1.00  0.00     0.271 C 
HETATM   37  N   UNL     1      -3.438   7.659 -30.187  1.00  0.00    -0.365 N 
HETATM   38  H   UNL     1      -3.555   7.575 -31.189  1.00  0.00     0.159 HD
HETATM   39  H   UNL     1      -2.598   8.069 -29.806  1.00  0.00     0.159 HD
HETATM   40  O   UNL     1      -4.151   7.082 -28.120  1.00  0.00    -0.266 OA
ENDBRANCH  34  36
BRANCH  35  41
HETATM   41  N   UNL     1      -5.169   4.122 -29.053  1.00  0.00    -0.396 N 
HETATM   42  H   UNL     1      -5.320   3.119 -29.219  1.00  0.00     0.156 HD
HETATM   43  H   UNL     1      -5.008   4.310 -28.062  1.00  0.00     0.156 HD
ENDBRANCH  35  41
ENDBRANCH   2  31
TORSDOF 11
ENDMDL
MODEL 4
REMARK VINA RESULT:      -8.1      2.063      6.555
REMARK  11 active torsions:
REMARK  status: ('A' for Active; 'I' for Inactive)
REMARK    1  A    between atoms: O_2  and  C_3 
REMARK    2  A    between atoms: C_6  and  C_7 
REMARK    3  A    between atoms: C_7  and  N_8 
REMARK    4  A    between atoms: C_7  and  C_29 
REMARK       I    between atoms: N_8  and  C_9 
REMARK    5  A    between atoms: N_8  and  C_20 
REMARK    6  A    between atoms: C_9  and  C_10 
REMARK    7  A    between atoms: C_13  and  C_14 
REMARK       I    between atoms: C_14  and  N_15 
REMARK    8  A    between atoms: C_17  and  N_18 
REMARK    9  A    between atoms: C_20  and  C_21 
REMARK   10  A    between atoms: C_21  and  N_22 
REMARK       I    between atoms: C_29  and  N_30 
REMARK   11  A    between atoms: N_30  and  C_31 
ROOT
HETATM    1  N   UNL     1      -7.714   1.754 -33.082  1.00  0.00    -0.328 N 
HETATM    2  C   UNL     1      -8.609   1.451 -34.144  1.00  0.00     0.265 C 
HETATM    3  O   UNL     1      -8.215   0.769 -35.093  1.00  0.00    -0.267 OA
ENDROOT
BRANCH   1   4
HETATM    4  C   UNL     1      -6.313   1.290 -33.253  1.00  0.00     0.213 C 
BRANCH   4   5
HETATM    5  C   UNL     1      -5.221   2.253 -32.796  1.00  0.00    -0.026 A 
HETATM    6  C   UNL     1      -4.319   1.878 -31.785  1.00  0.00     0.012 A 
HETATM    7  C   UNL     1      -3.262   2.714 -31.406  1.00  0.00     0.037 A 
HETATM    8  C   UNL     1      -3.072   3.938 -32.041  1.00  0.00     0.068 A 
HETATM    9  C   UNL     1      -3.947   4.314 -33.061  1.00  0.00     0.037 A 
HETATM   10  C   UNL     1      -5.004   3.483 -33.441  1.00  0.00     0.012 A 
BRANCH   8  11
HETATM   11  O   UNL     1      -2.083   4.841 -31.777  1.00  0.00    -0.356 OA
HETATM   12  C   UNL     1      -1.323   5.307 -32.886  1.00  0.00     0.210 C 
ENDBRANCH   8  11
ENDBRANCH   4   5
BRANCH   4  13
HETATM   13  C   UNL     1      -6.133  -0.198 -32.873  1.00  0.00     0.245 C 
HETATM   14  N   UNL     1      -5.756  -1.047 -33.883  1.00  0.00    -0.354 N 
HETATM   15  H   UNL     1      -5.755  -0.674 -34.835  1.00  0.00     0.162 HD
HETATM   16  O   UNL     1      -6.288  -0.556 -31.704  1.00  0.00    -0.271 OA
BRANCH  14  17
HETATM   17  C   UNL     1      -5.645  -2.477 -33.702  1.00  0.00     0.084 C 
HETATM   18  C   UNL     1      -6.241  -3.249 -34.877  1.00  0.00     0.025 C 
HETATM   19  C   UNL     1      -5.552  -4.599 -34.779  1.00  0.00     0.002 C 
HETATM   20  C   UNL     1      -4.113  -4.241 -34.434  1.00  0.00     0.002 C 
HETATM   21  C   UNL     1      -4.191  -2.952 -33.615  1.00  0.00     0.025 C 
ENDBRANCH  14  17
ENDBRANCH   4  13
ENDBRANCH   1   4
BRANCH   1  22
HETATM   22  C   UNL     1      -7.914   2.904 -32.170  1.00  0.00     0.155 C 
BRANCH  22  23
HETATM   23  C   UNL     1      -8.089   2.523 -30.679  1.00  0.00     0.255 C 
BRANCH  23  24
HETATM   24  N   UNL     1      -7.806   3.667 -29.724  1.00  0.00    -0.066 N 
HETATM   25  H   UNL     1      -8.042   3.357 -28.774  1.00  0.00     0.280 HD
HETATM   26  C   UNL     1      -6.345   4.131 -29.742  1.00  0.00     0.261 C 
HETATM   27  C   UNL     1      -6.159   5.265 -28.726  1.00  0.00     0.195 C 
HETATM   28  O   UNL     1      -7.034   6.358 -29.022  1.00  0.00    -0.388 OA
HETATM   29  C   UNL     1      -8.411   5.973 -28.964  1.00  0.00     0.195 C 
HETATM   30  C   UNL     1      -8.714   4.873 -29.989  1.00  0.00     0.261 C 
ENDBRANCH  23  24
ENDBRANCH  22  23
ENDBRANCH   1  22
BRANCH   2  31
HETATM   31  C   UNL     1      -9.956   1.969 -34.134  1.00  0.00     0.120 A 
HETATM   32  S   UNL     1     -10.327   3.556 -34.620  1.00  0.00     0.020 SA
HETATM   33  N   UNL     1     -11.953   3.467 -34.346  1.00  0.00    -0.203 NA
HETATM   34  C   UNL     1     -12.233   2.298 -33.743  1.00  0.00     0.160 A 
HETATM   35  C   UNL     1     -11.099   1.411 -33.595  1.00  0.00     0.085 A 
BRANCH  34  36
HETATM   36  C   UNL     1     -13.600   2.012 -33.273  1.00  0.00     0.271 C 
HETATM   37  N   UNL     1     -13.882   2.425 -32.000  1.00  0.00    -0.365 N 
HETATM   38  H   UNL     1     -13.157   2.835 -31.424  1.00  0.00     0.159 HD
HETATM   39  H   UNL     1     -14.781   2.199 -31.601  1.00  0.00     0.159 HD
HETATM   40  O   UNL     1     -14.444   1.431 -33.951  1.00  0.00    -0.266 OA
ENDBRANCH  34  36
BRANCH  35  41
HETATM   41  N   UNL     1     -11.141   0.186 -33.014  1.00  0.00    -0.396 N 
HETATM   42  H   UNL     1     -11.287  -0.636 -33.614  1.00  0.00     0.156 HD
HETATM   43  H   UNL     1     -11.581   0.057 -32.102  1.00  0.00     0.156 HD
ENDBRANCH  35  41
ENDBRANCH   2  31
TORSDOF 11
ENDMDL
MODEL 5
REMARK VINA RESULT:      -8.0      1.854      3.619
REMARK  11 active torsions:
REMARK  status: ('A' for Active; 'I' for Inactive)
REMARK    1  A    between atoms: O_2  and  C_3 
REMARK    2  A    between atoms: C_6  and  C_7 
REMARK    3  A    between atoms: C_7  and  N_8 
REMARK    4  A    between atoms: C_7  and  C_29 
REMARK       I    between atoms: N_8  and  C_9 
REMARK    5  A    between atoms: N_8  and  C_20 
REMARK    6  A    between atoms: C_9  and  C_10 
REMARK    7  A    between atoms: C_13  and  C_14 
REMARK       I    between atoms: C_14  and  N_15 
REMARK    8  A    between atoms: C_17  and  N_18 
REMARK    9  A    between atoms: C_20  and  C_21 
REMARK   10  A    between atoms: C_21  and  N_22 
REMARK       I    between atoms: C_29  and  N_30 
REMARK   11  A    between atoms: N_30  and  C_31 
ROOT
HETATM    1  N   UNL     1      -6.889   2.402 -31.482  1.00  0.00    -0.328 N 
HETATM    2  C   UNL     1      -5.834   2.634 -32.405  1.00  0.00     0.265 C 
HETATM    3  O   UNL     1      -5.713   1.898 -33.387  1.00  0.00    -0.267 OA
ENDROOT
BRANCH   1   4
HETATM    4  C   UNL     1      -7.727   1.200 -31.734  1.00  0.00     0.213 C 
BRANCH   4   5
HETATM    5  C   UNL     1      -8.892   1.379 -32.704  1.00  0.00    -0.026 A 
HETATM    6  C   UNL     1      -9.930   0.433 -32.750  1.00  0.00     0.012 A 
HETATM    7  C   UNL     1     -11.046   0.618 -33.575  1.00  0.00     0.037 A 
HETATM    8  C   UNL     1     -11.157   1.762 -34.361  1.00  0.00     0.068 A 
HETATM    9  C   UNL     1     -10.144   2.719 -34.310  1.00  0.00     0.037 A 
HETATM   10  C   UNL     1      -9.028   2.537 -33.489  1.00  0.00     0.012 A 
BRANCH   8  11
HETATM   11  O   UNL     1     -12.190   2.069 -35.200  1.00  0.00    -0.356 OA
HETATM   12  C   UNL     1     -13.500   2.043 -34.645  1.00  0.00     0.210 C 
ENDBRANCH   8  11
ENDBRANCH   4   5
BRANCH   4  13
HETATM   13  C   UNL     1      -6.883  -0.087 -31.887  1.00  0.00     0.245 C 
HETATM   14  N   UNL     1      -6.857  -0.657 -33.134  1.00  0.00    -0.354 N 
HETATM   15  H   UNL     1      -7.499  -0.282 -33.837  1.00  0.00     0.162 HD
HETATM   16  O   UNL     1      -6.247  -0.520 -30.925  1.00  0.00    -0.271 OA
BRANCH  14  17
HETATM   17  C   UNL     1      -6.195  -1.913 -33.406  1.00  0.00     0.084 C 
HETATM   18  C   UNL     1      -6.868  -2.681 -34.541  1.00  0.00     0.025 C 
HETATM   19  C   UNL     1      -5.766  -3.606 -35.024  1.00  0.00     0.002 C 
HETATM   20  C   UNL     1      -4.525  -2.725 -35.001  1.00  0.00     0.002 C 
HETATM   21  C   UNL     1      -4.743  -1.730 -33.860  1.00  0.00     0.025 C 
ENDBRANCH  14  17
ENDBRANCH   4  13
ENDBRANCH   1   4
BRANCH   1  22
HETATM   22  C   UNL     1      -6.855   2.892 -30.085  1.00  0.00     0.155 C 
BRANCH  22  23
HETATM   23  C   UNL     1      -7.854   4.034 -29.776  1.00  0.00     0.255 C 
BRANCH  23  24
HETATM   24  N   UNL     1      -7.183   5.349 -29.430  1.00  0.00    -0.066 N 
HETATM   25  H   UNL     1      -7.109   5.907 -30.290  1.00  0.00     0.280 HD
HETATM   26  C   UNL     1      -7.942   6.166 -28.378  1.00  0.00     0.261 C 
HETATM   27  C   UNL     1      -7.199   7.483 -28.123  1.00  0.00     0.195 C 
HETATM   28  O   UNL     1      -5.859   7.233 -27.689  1.00  0.00    -0.388 OA
HETATM   29  C   UNL     1      -5.103   6.516 -28.670  1.00  0.00     0.195 C 
HETATM   30  C   UNL     1      -5.739   5.150 -28.958  1.00  0.00     0.261 C 
ENDBRANCH  23  24
ENDBRANCH  22  23
ENDBRANCH   1  22
BRANCH   2  31
HETATM   31  C   UNL     1      -4.886   3.698 -32.176  1.00  0.00     0.120 A 
HETATM   32  S   UNL     1      -5.098   5.262 -32.811  1.00  0.00     0.020 SA
HETATM   33  N   UNL     1      -3.706   5.909 -32.202  1.00  0.00    -0.203 NA
HETATM   34  C   UNL     1      -2.978   4.929 -31.638  1.00  0.00     0.160 A 
HETATM   35  C   UNL     1      -3.625   3.635 -31.614  1.00  0.00     0.085 A 
BRANCH  34  36
HETATM   36  C   UNL     1      -1.626   5.211 -31.123  1.00  0.00     0.271 C 
HETATM   37  N   UNL     1      -1.570   6.080 -30.067  1.00  0.00    -0.365 N 
HETATM   38  H   UNL     1      -2.411   6.531 -29.732  1.00  0.00     0.159 HD
HETATM   39  H   UNL     1      -0.666   6.361 -29.714  1.00  0.00     0.159 HD
HETATM   40  O   UNL     1      -0.603   4.726 -31.598  1.00  0.00    -0.266 OA
ENDBRANCH  34  36
BRANCH  35  41
HETATM   41  N   UNL     1      -3.080   2.503 -31.102  1.00  0.00    -0.396 N 
HETATM   42  H   UNL     1      -3.550   2.050 -30.307  1.00  0.00     0.156 HD
HETATM   43  H   UNL     1      -2.067   2.394 -31.041  1.00  0.00     0.156 HD
ENDBRANCH  35  41
ENDBRANCH   2  31
TORSDOF 11
ENDMDL
MODEL 6
REMARK VINA RESULT:      -8.0      2.807      7.034
REMARK  11 active torsions:
REMARK  status: ('A' for Active; 'I' for Inactive)
REMARK    1  A    between atoms: O_2  and  C_3 
REMARK    2  A    between atoms: C_6  and  C_7 
REMARK    3  A    between atoms: C_7  and  N_8 
REMARK    4  A    between atoms: C_7  and  C_29 
REMARK       I    between atoms: N_8  and  C_9 
REMARK    5  A    between atoms: N_8  and  C_20 
REMARK    6  A    between atoms: C_9  and  C_10 
REMARK    7  A    between atoms: C_13  and  C_14 
REMARK       I    between atoms: C_14  and  N_15 
REMARK    8  A    between atoms: C_17  and  N_18 
REMARK    9  A    between atoms: C_20  and  C_21 
REMARK   10  A    between atoms: C_21  and  N_22 
REMARK       I    between atoms: C_29  and  N_30 
REMARK   11  A    between atoms: N_30  and  C_31 
ROOT
HETATM    1  N   UNL     1      -7.711   3.178 -32.529  1.00  0.00    -0.328 N 
HETATM    2  C   UNL     1      -8.789   2.463 -31.941  1.00  0.00     0.265 C 
HETATM    3  O   UNL     1      -8.552   1.580 -31.113  1.00  0.00    -0.267 OA
ENDROOT
BRANCH   1   4
HETATM    4  C   UNL     1      -6.345   2.726 -32.156  1.00  0.00     0.213 C 
BRANCH   4   5
HETATM    5  C   UNL     1      -5.880   1.405 -32.763  1.00  0.00    -0.026 A 
HETATM    6  C   UNL     1      -4.879   0.646 -32.133  1.00  0.00     0.012 A 
HETATM    7  C   UNL     1      -4.495  -0.606 -32.629  1.00  0.00     0.037 A 
HETATM    8  C   UNL     1      -5.114  -1.134 -33.758  1.00  0.00     0.068 A 
HETATM    9  C   UNL     1      -6.123  -0.401 -34.382  1.00  0.00     0.037 A 
HETATM   10  C   UNL     1      -6.509   0.849 -33.891  1.00  0.00     0.012 A 
BRANCH   8  11
HETATM   11  O   UNL     1      -4.842  -2.339 -34.340  1.00  0.00    -0.356 OA
HETATM   12  C   UNL     1      -5.932  -3.021 -34.949  1.00  0.00     0.210 C 
ENDBRANCH   8  11
ENDBRANCH   4   5
BRANCH   4  13
HETATM   13  C   UNL     1      -5.322   3.886 -32.144  1.00  0.00     0.245 C 
HETATM   14  N   UNL     1      -4.495   3.985 -33.234  1.00  0.00    -0.354 N 
HETATM   15  H   UNL     1      -4.511   3.216 -33.908  1.00  0.00     0.162 HD
HETATM   16  O   UNL     1      -5.312   4.684 -31.205  1.00  0.00    -0.271 OA
BRANCH  14  17
HETATM   17  C   UNL     1      -3.425   4.954 -33.318  1.00  0.00     0.084 C 
HETATM   18  C   UNL     1      -2.142   4.447 -32.664  1.00  0.00     0.025 C 
HETATM   19  C   UNL     1      -1.068   5.293 -33.325  1.00  0.00     0.002 C 
HETATM   20  C   UNL     1      -1.503   5.345 -34.783  1.00  0.00     0.002 C 
HETATM   21  C   UNL     1      -3.030   5.274 -34.764  1.00  0.00     0.025 C 
ENDBRANCH  14  17
ENDBRANCH   4  13
ENDBRANCH   1   4
BRANCH   1  22
HETATM   22  C   UNL     1      -7.832   3.892 -33.821  1.00  0.00     0.155 C 
BRANCH  22  23
HETATM   23  C   UNL     1      -7.764   5.436 -33.715  1.00  0.00     0.255 C 
BRANCH  23  24
HETATM   24  N   UNL     1      -9.030   6.131 -34.178  1.00  0.00    -0.066 N 
HETATM   25  H   UNL     1      -8.762   6.905 -34.798  1.00  0.00     0.280 HD
HETATM   26  C   UNL     1      -9.994   5.208 -34.931  1.00  0.00     0.261 C 
HETATM   27  C   UNL     1     -11.221   6.011 -35.379  1.00  0.00     0.195 C 
HETATM   28  O   UNL     1     -11.876   6.604 -34.254  1.00  0.00    -0.388 OA
HETATM   29  C   UNL     1     -11.020   7.514 -33.555  1.00  0.00     0.195 C 
HETATM   30  C   UNL     1      -9.780   6.791 -33.016  1.00  0.00     0.261 C 
ENDBRANCH  23  24
ENDBRANCH  22  23
ENDBRANCH   1  22
BRANCH   2  31
HETATM   31  C   UNL     1     -10.149   2.738 -32.338  1.00  0.00     0.120 A 
HETATM   32  S   UNL     1     -11.135   3.848 -31.507  1.00  0.00     0.020 SA
HETATM   33  N   UNL     1     -12.480   3.651 -32.444  1.00  0.00    -0.203 NA
HETATM   34  C   UNL     1     -12.271   2.640 -33.305  1.00  0.00     0.160 A 
HETATM   35  C   UNL     1     -10.936   2.082 -33.265  1.00  0.00     0.085 A 
BRANCH  34  36
HETATM   36  C   UNL     1     -13.360   2.171 -34.180  1.00  0.00     0.271 C 
HETATM   37  N   UNL     1     -14.610   2.190 -33.623  1.00  0.00    -0.365 N 
HETATM   38  H   UNL     1     -14.732   2.451 -32.652  1.00  0.00     0.159 HD
HETATM   39  H   UNL     1     -15.385   1.819 -34.151  1.00  0.00     0.159 HD
HETATM   40  O   UNL     1     -13.185   1.770 -35.328  1.00  0.00    -0.266 OA
ENDBRANCH  34  36
BRANCH  35  41
HETATM   41  N   UNL     1     -10.499   1.055 -34.037  1.00  0.00    -0.396 N 
HETATM   42  H   UNL     1     -10.176   0.196 -33.573  1.00  0.00     0.156 HD
HETATM   43  H   UNL     1      -9.967   1.235 -34.889  1.00  0.00     0.156 HD
ENDBRANCH  35  41
ENDBRANCH   2  31
TORSDOF 11
ENDMDL
MODEL 7
REMARK VINA RESULT:      -7.9      2.175      4.043
REMARK  11 active torsions:
REMARK  status: ('A' for Active; 'I' for Inactive)
REMARK    1  A    between atoms: O_2  and  C_3 
REMARK    2  A    between atoms: C_6  and  C_7 
REMARK    3  A    between atoms: C_7  and  N_8 
REMARK    4  A    between atoms: C_7  and  C_29 
REMARK       I    between atoms: N_8  and  C_9 
REMARK    5  A    between atoms: N_8  and  C_20 
REMARK    6  A    between atoms: C_9  and  C_10 
REMARK    7  A    between atoms: C_13  and  C_14 
REMARK       I    between atoms: C_14  and  N_15 
REMARK    8  A    between atoms: C_17  and  N_18 
REMARK    9  A    between atoms: C_20  and  C_21 
REMARK   10  A    between atoms: C_21  and  N_22 
REMARK       I    between atoms: C_29  and  N_30 
REMARK   11  A    between atoms: N_30  and  C_31 
ROOT
HETATM    1  N   UNL     1      -7.022   2.467 -31.561  1.00  0.00    -0.328 N 
HETATM    2  C   UNL     1      -5.911   2.672 -32.423  1.00  0.00     0.265 C 
HETATM    3  O   UNL     1      -5.714   1.890 -33.356  1.00  0.00    -0.267 OA
ENDROOT
BRANCH   1   4
HETATM    4  C   UNL     1      -7.823   1.240 -31.806  1.00  0.00     0.213 C 
BRANCH   4   5
HETATM    5  C   UNL     1      -8.979   1.373 -32.795  1.00  0.00    -0.026 A 
HETATM    6  C   UNL     1     -10.096   0.525 -32.700  1.00  0.00     0.012 A 
HETATM    7  C   UNL     1     -11.201   0.682 -33.546  1.00  0.00     0.037 A 
HETATM    8  C   UNL     1     -11.220   1.700 -34.495  1.00  0.00     0.068 A 
HETATM    9  C   UNL     1     -10.127   2.561 -34.586  1.00  0.00     0.037 A 
HETATM   10  C   UNL     1      -9.023   2.407 -33.745  1.00  0.00     0.012 A 
BRANCH   8  11
HETATM   11  O   UNL     1     -12.232   1.968 -35.373  1.00  0.00    -0.356 OA
HETATM   12  C   UNL     1     -12.329   3.303 -35.855  1.00  0.00     0.210 C 
ENDBRANCH   8  11
ENDBRANCH   4   5
BRANCH   4  13
HETATM   13  C   UNL     1      -6.944  -0.026 -31.928  1.00  0.00     0.245 C 
HETATM   14  N   UNL     1      -6.917  -0.638 -33.156  1.00  0.00    -0.354 N 
HETATM   15  H   UNL     1      -7.580  -0.306 -33.861  1.00  0.00     0.162 HD
HETATM   16  O   UNL     1      -6.282  -0.408 -30.962  1.00  0.00    -0.271 OA
BRANCH  14  17
HETATM   17  C   UNL     1      -6.221  -1.882 -33.395  1.00  0.00     0.084 C 
HETATM   18  C   UNL     1      -6.847  -2.677 -34.538  1.00  0.00     0.025 C 
HETATM   19  C   UNL     1      -5.712  -3.584 -34.981  1.00  0.00     0.002 C 
HETATM   20  C   UNL     1      -4.492  -2.675 -34.936  1.00  0.00     0.002 C 
HETATM   21  C   UNL     1      -4.762  -1.673 -33.813  1.00  0.00     0.025 C 
ENDBRANCH  14  17
ENDBRANCH   4  13
ENDBRANCH   1   4
BRANCH   1  22
HETATM   22  C   UNL     1      -7.088   3.027 -30.191  1.00  0.00     0.155 C 
BRANCH  22  23
HETATM   23  C   UNL     1      -7.899   4.341 -30.068  1.00  0.00     0.255 C 
BRANCH  23  24
HETATM   24  N   UNL     1      -9.065   4.426 -31.035  1.00  0.00    -0.066 N 
HETATM   25  H   UNL     1      -8.852   3.833 -31.846  1.00  0.00     0.280 HD
HETATM   26  C   UNL     1     -10.397   3.971 -30.427  1.00  0.00     0.261 C 
HETATM   27  C   UNL     1     -11.499   4.068 -31.490  1.00  0.00     0.195 C 
HETATM   28  O   UNL     1     -11.608   5.405 -31.986  1.00  0.00    -0.388 OA
HETATM   29  C   UNL     1     -10.397   5.846 -32.608  1.00  0.00     0.195 C 
HETATM   30  C   UNL     1      -9.235   5.838 -31.606  1.00  0.00     0.261 C 
ENDBRANCH  23  24
ENDBRANCH  22  23
ENDBRANCH   1  22
BRANCH   2  31
HETATM   31  C   UNL     1      -4.996   3.763 -32.186  1.00  0.00     0.120 A 
HETATM   32  S   UNL     1      -5.276   5.333 -32.777  1.00  0.00     0.020 SA
HETATM   33  N   UNL     1      -3.895   6.014 -32.180  1.00  0.00    -0.203 NA
HETATM   34  C   UNL     1      -3.121   5.047 -31.656  1.00  0.00     0.160 A 
HETATM   35  C   UNL     1      -3.722   3.731 -31.652  1.00  0.00     0.085 A 
BRANCH  34  36
HETATM   36  C   UNL     1      -1.770   5.364 -31.161  1.00  0.00     0.271 C 
HETATM   37  N   UNL     1      -1.492   6.697 -31.022  1.00  0.00    -0.365 N 
HETATM   38  H   UNL     1      -2.169   7.392 -31.313  1.00  0.00     0.159 HD
HETATM   39  H   UNL     1      -0.561   6.976 -30.750  1.00  0.00     0.159 HD
HETATM   40  O   UNL     1      -0.925   4.512 -30.898  1.00  0.00    -0.266 OA
ENDBRANCH  34  36
BRANCH  35  41
HETATM   41  N   UNL     1      -3.128   2.607 -31.179  1.00  0.00    -0.396 N 
HETATM   42  H   UNL     1      -3.725   1.846 -30.830  1.00  0.00     0.156 HD
HETATM   43  H   UNL     1      -2.256   2.662 -30.650  1.00  0.00     0.156 HD
ENDBRANCH  35  41
ENDBRANCH   2  31
TORSDOF 11
ENDMDL
MODEL 8
REMARK VINA RESULT:      -7.9      2.737      6.172
REMARK  11 active torsions:
REMARK  status: ('A' for Active; 'I' for Inactive)
REMARK    1  A    between atoms: O_2  and  C_3 
REMARK    2  A    between atoms: C_6  and  C_7 
REMARK    3  A    between atoms: C_7  and  N_8 
REMARK    4  A    between atoms: C_7  and  C_29 
REMARK       I    between atoms: N_8  and  C_9 
REMARK    5  A    between atoms: N_8  and  C_20 
REMARK    6  A    between atoms: C_9  and  C_10 
REMARK    7  A    between atoms: C_13  and  C_14 
REMARK       I    between atoms: C_14  and  N_15 
REMARK    8  A    between atoms: C_17  and  N_18 
REMARK    9  A    between atoms: C_20  and  C_21 
REMARK   10  A    between atoms: C_21  and  N_22 
REMARK       I    between atoms: C_29  and  N_30 
REMARK   11  A    between atoms: N_30  and  C_31 
ROOT
HETATM    1  N   UNL     1      -8.114   1.843 -32.813  1.00  0.00    -0.328 N 
HETATM    2  C   UNL     1      -7.759   0.642 -32.142  1.00  0.00     0.265 C 
HETATM    3  O   UNL     1      -8.495   0.200 -31.257  1.00  0.00    -0.267 OA
ENDROOT
BRANCH   1   4
HETATM    4  C   UNL     1      -9.329   2.538 -32.314  1.00  0.00     0.213 C 
BRANCH   4   5
HETATM    5  C   UNL     1      -9.104   3.882 -31.626  1.00  0.00    -0.026 A 
HETATM    6  C   UNL     1      -9.420   5.081 -32.287  1.00  0.00     0.012 A 
HETATM    7  C   UNL     1      -9.298   6.319 -31.646  1.00  0.00     0.037 A 
HETATM    8  C   UNL     1      -8.872   6.386 -30.323  1.00  0.00     0.068 A 
HETATM    9  C   UNL     1      -8.575   5.202 -29.647  1.00  0.00     0.037 A 
HETATM   10  C   UNL     1      -8.695   3.965 -30.284  1.00  0.00     0.012 A 
BRANCH   8  11
HETATM   11  O   UNL     1      -8.716   7.521 -29.580  1.00  0.00    -0.356 OA
HETATM   12  C   UNL     1      -9.764   7.846 -28.674  1.00  0.00     0.210 C 
ENDBRANCH   8  11
ENDBRANCH   4   5
BRANCH   4  13
HETATM   13  C   UNL     1     -10.509   2.453 -33.310  1.00  0.00     0.245 C 
HETATM   14  N   UNL     1     -11.760   2.315 -32.766  1.00  0.00    -0.354 N 
HETATM   15  H   UNL     1     -11.820   2.138 -31.760  1.00  0.00     0.162 HD
HETATM   16  O   UNL     1     -10.298   2.552 -34.520  1.00  0.00    -0.271 OA
BRANCH  14  17
HETATM   17  C   UNL     1     -12.946   2.124 -33.571  1.00  0.00     0.084 C 
HETATM   18  C   UNL     1     -13.184   0.651 -33.896  1.00  0.00     0.025 C 
HETATM   19  C   UNL     1     -14.668   0.611 -34.216  1.00  0.00     0.002 C 
HETATM   20  C   UNL     1     -15.284   1.522 -33.163  1.00  0.00     0.002 C 
HETATM   21  C   UNL     1     -14.224   2.582 -32.860  1.00  0.00     0.025 C 
ENDBRANCH  14  17
ENDBRANCH   4  13
ENDBRANCH   1   4
BRANCH   1  22
HETATM   22  C   UNL     1      -7.124   2.686 -33.522  1.00  0.00     0.155 C 
BRANCH  22  23
HETATM   23  C   UNL     1      -5.982   3.233 -32.630  1.00  0.00     0.255 C 
BRANCH  23  24
HETATM   24  N   UNL     1      -4.764   3.683 -33.413  1.00  0.00    -0.066 N 
HETATM   25  H   UNL     1      -4.430   2.887 -33.971  1.00  0.00     0.280 HD
HETATM   26  C   UNL     1      -5.042   4.861 -34.354  1.00  0.00     0.261 C 
HETATM   27  C   UNL     1      -3.760   5.217 -35.116  1.00  0.00     0.195 C 
HETATM   28  O   UNL     1      -2.704   5.543 -34.207  1.00  0.00    -0.388 OA
HETATM   29  C   UNL     1      -2.382   4.446 -33.346  1.00  0.00     0.195 C 
HETATM   30  C   UNL     1      -3.593   4.046 -32.494  1.00  0.00     0.261 C 
ENDBRANCH  23  24
ENDBRANCH  22  23
ENDBRANCH   1  22
BRANCH   2  31
HETATM   31  C   UNL     1      -6.527  -0.038 -32.465  1.00  0.00     0.120 A 
HETATM   32  S   UNL     1      -6.366  -1.035 -33.833  1.00  0.00     0.020 SA
HETATM   33  N   UNL     1      -4.794  -1.468 -33.574  1.00  0.00    -0.203 NA
HETATM   34  C   UNL     1      -4.401  -0.997 -32.377  1.00  0.00     0.160 A 
HETATM   35  C   UNL     1      -5.382  -0.175 -31.703  1.00  0.00     0.085 A 
BRANCH  34  36
HETATM   36  C   UNL     1      -3.074  -1.345 -31.841  1.00  0.00     0.271 C 
HETATM   37  N   UNL     1      -2.834  -2.684 -31.691  1.00  0.00    -0.365 N 
HETATM   38  H   UNL     1      -3.564  -3.358 -31.882  1.00  0.00     0.159 HD
HETATM   39  H   UNL     1      -1.967  -2.980 -31.267  1.00  0.00     0.159 HD
HETATM   40  O   UNL     1      -2.227  -0.512 -31.527  1.00  0.00    -0.266 OA
ENDBRANCH  34  36
BRANCH  35  41
HETATM   41  N   UNL     1      -5.210   0.402 -30.487  1.00  0.00    -0.396 N 
HETATM   42  H   UNL     1      -5.090  -0.208 -29.668  1.00  0.00     0.156 HD
HETATM   43  H   UNL     1      -5.712   1.255 -30.239  1.00  0.00     0.156 HD
ENDBRANCH  35  41
ENDBRANCH   2  31
TORSDOF 11
ENDMDL
MODEL 9
REMARK VINA RESULT:      -7.8      2.490      7.124
REMARK  11 active torsions:
REMARK  status: ('A' for Active; 'I' for Inactive)
REMARK    1  A    between atoms: O_2  and  C_3 
REMARK    2  A    between atoms: C_6  and  C_7 
REMARK    3  A    between atoms: C_7  and  N_8 
REMARK    4  A    between atoms: C_7  and  C_29 
REMARK       I    between atoms: N_8  and  C_9 
REMARK    5  A    between atoms: N_8  and  C_20 
REMARK    6  A    between atoms: C_9  and  C_10 
REMARK    7  A    between atoms: C_13  and  C_14 
REMARK       I    between atoms: C_14  and  N_15 
REMARK    8  A    between atoms: C_17  and  N_18 
REMARK    9  A    between atoms: C_20  and  C_21 
REMARK   10  A    between atoms: C_21  and  N_22 
REMARK       I    between atoms: C_29  and  N_30 
REMARK   11  A    between atoms: N_30  and  C_31 
ROOT
HETATM    1  N   UNL     1      -7.399   2.759 -32.153  1.00  0.00    -0.328 N 
HETATM    2  C   UNL     1      -7.633   3.296 -33.448  1.00  0.00     0.265 C 
HETATM    3  O   UNL     1      -6.676   3.551 -34.182  1.00  0.00    -0.267 OA
ENDROOT
BRANCH   1   4
HETATM    4  C   UNL     1      -5.976   2.635 -31.744  1.00  0.00     0.213 C 
BRANCH   4   5
HETATM    5  C   UNL     1      -5.294   1.307 -32.063  1.00  0.00    -0.026 A 
HETATM    6  C   UNL     1      -4.249   0.831 -31.253  1.00  0.00     0.012 A 
HETATM    7  C   UNL     1      -3.663  -0.420 -31.481  1.00  0.00     0.037 A 
HETATM    8  C   UNL     1      -4.121  -1.231 -32.515  1.00  0.00     0.068 A 
HETATM    9  C   UNL     1      -5.172  -0.781 -33.314  1.00  0.00     0.037 A 
HETATM   10  C   UNL     1      -5.758   0.467 -33.091  1.00  0.00     0.012 A 
BRANCH   8  11
HETATM   11  O   UNL     1      -3.648  -2.470 -32.841  1.00  0.00    -0.356 OA
HETATM   12  C   UNL     1      -4.247  -3.116 -33.958  1.00  0.00     0.210 C 
ENDBRANCH   8  11
ENDBRANCH   4   5
BRANCH   4  13
HETATM   13  C   UNL     1      -5.165   3.920 -32.026  1.00  0.00     0.245 C 
HETATM   14  N   UNL     1      -4.170   3.823 -32.965  1.00  0.00    -0.354 N 
HETATM   15  H   UNL     1      -3.938   2.889 -33.311  1.00  0.00     0.162 HD
HETATM   16  O   UNL     1      -5.457   4.968 -31.447  1.00  0.00    -0.271 OA
BRANCH  14  17
HETATM   17  C   UNL     1      -3.266   4.912 -33.262  1.00  0.00     0.084 C 
HETATM   18  C   UNL     1      -1.902   4.718 -32.603  1.00  0.00     0.025 C 
HETATM   19  C   UNL     1      -0.991   5.590 -33.449  1.00  0.00     0.002 C 
HETATM   20  C   UNL     1      -1.468   5.331 -34.870  1.00  0.00     0.002 C 
HETATM   21  C   UNL     1      -2.965   5.040 -34.759  1.00  0.00     0.025 C 
ENDBRANCH  14  17
ENDBRANCH   4  13
ENDBRANCH   1   4
BRANCH   1  22
HETATM   22  C   UNL     1      -8.388   2.855 -31.055  1.00  0.00     0.155 C 
BRANCH  22  23
HETATM   23  C   UNL     1      -7.819   3.387 -29.717  1.00  0.00     0.255 C 
BRANCH  23  24
HETATM   24  N   UNL     1      -7.807   4.901 -29.622  1.00  0.00    -0.066 N 
HETATM   25  H   UNL     1      -7.168   5.262 -30.341  1.00  0.00     0.280 HD
HETATM   26  C   UNL     1      -9.187   5.536 -29.825  1.00  0.00     0.261 C 
HETATM   27  C   UNL     1      -9.061   7.062 -29.740  1.00  0.00     0.195 C 
HETATM   28  O   UNL     1      -8.512   7.456 -28.479  1.00  0.00    -0.388 OA
HETATM   29  C   UNL     1      -7.200   6.922 -28.276  1.00  0.00     0.195 C 
HETATM   30  C   UNL     1      -7.227   5.388 -28.290  1.00  0.00     0.261 C 
ENDBRANCH  23  24
ENDBRANCH  22  23
ENDBRANCH   1  22
BRANCH   2  31
HETATM   31  C   UNL     1      -8.978   3.577 -33.889  1.00  0.00     0.120 A 
HETATM   32  S   UNL     1      -9.705   5.101 -33.686  1.00  0.00     0.020 SA
HETATM   33  N   UNL     1     -11.160   4.714 -34.364  1.00  0.00    -0.203 NA
HETATM   34  C   UNL     1     -11.187   3.395 -34.621  1.00  0.00     0.160 A 
HETATM   35  C   UNL     1      -9.945   2.703 -34.349  1.00  0.00     0.085 A 
BRANCH  34  36
HETATM   36  C   UNL     1     -12.420   2.759 -35.118  1.00  0.00     0.271 C 
HETATM   37  N   UNL     1     -13.567   3.109 -34.460  1.00  0.00    -0.365 N 
HETATM   38  H   UNL     1     -13.527   3.714 -33.650  1.00  0.00     0.159 HD
HETATM   39  H   UNL     1     -14.433   2.656 -34.714  1.00  0.00     0.159 HD
HETATM   40  O   UNL     1     -12.443   1.955 -36.046  1.00  0.00    -0.266 OA
ENDBRANCH  34  36
BRANCH  35  41
HETATM   41  N   UNL     1      -9.740   1.374 -34.526  1.00  0.00    -0.396 N 
HETATM   42  H   UNL     1      -9.166   1.069 -35.323  1.00  0.00     0.156 HD
HETATM   43  H   UNL     1     -10.483   0.702 -34.330  1.00  0.00     0.156 HD
ENDBRANCH  35  41
ENDBRANCH   2  31
TORSDOF 11
ENDMDL
MODEL 10
REMARK VINA RESULT:      -7.7      2.251      5.768
REMARK  11 active torsions:
REMARK  status: ('A' for Active; 'I' for Inactive)
REMARK    1  A    between atoms: O_2  and  C_3 
REMARK    2  A    between atoms: C_6  and  C_7 
REMARK    3  A    between atoms: C_7  and  N_8 
REMARK    4  A    between atoms: C_7  and  C_29 
REMARK       I    between atoms: N_8  and  C_9 
REMARK    5  A    between atoms: N_8  and  C_20 
REMARK    6  A    between atoms: C_9  and  C_10 
REMARK    7  A    between atoms: C_13  and  C_14 
REMARK       I    between atoms: C_14  and  N_15 
REMARK    8  A    between atoms: C_17  and  N_18 
REMARK    9  A    between atoms: C_20  and  C_21 
REMARK   10  A    between atoms: C_21  and  N_22 
REMARK       I    between atoms: C_29  and  N_30 
REMARK   11  A    between atoms: N_30  and  C_31 
ROOT
HETATM    1  N   UNL     1      -6.582   3.675 -32.936  1.00  0.00    -0.328 N 
HETATM    2  C   UNL     1      -5.501   4.409 -33.494  1.00  0.00     0.265 C 
HETATM    3  O   UNL     1      -5.375   4.467 -34.720  1.00  0.00    -0.267 OA
ENDROOT
BRANCH   1   4
HETATM    4  C   UNL     1      -7.440   2.938 -33.900  1.00  0.00     0.213 C 
BRANCH   4   5
HETATM    5  C   UNL     1      -7.234   1.427 -33.971  1.00  0.00    -0.026 A 
HETATM    6  C   UNL     1      -7.340   0.640 -32.812  1.00  0.00     0.012 A 
HETATM    7  C   UNL     1      -7.233  -0.755 -32.868  1.00  0.00     0.037 A 
HETATM    8  C   UNL     1      -7.035  -1.396 -34.088  1.00  0.00     0.068 A 
HETATM    9  C   UNL     1      -6.949  -0.628 -35.249  1.00  0.00     0.037 A 
HETATM   10  C   UNL     1      -7.054   0.764 -35.197  1.00  0.00     0.012 A 
BRANCH   8  11
HETATM   11  O   UNL     1      -6.922  -2.742 -34.285  1.00  0.00    -0.356 OA
HETATM   12  C   UNL     1      -5.663  -3.223 -34.743  1.00  0.00     0.210 C 
ENDBRANCH   8  11
ENDBRANCH   4   5
BRANCH   4  13
HETATM   13  C   UNL     1      -8.902   3.442 -33.894  1.00  0.00     0.245 C 
HETATM   14  N   UNL     1      -9.874   2.506 -34.138  1.00  0.00    -0.354 N 
HETATM   15  H   UNL     1      -9.568   1.578 -34.442  1.00  0.00     0.162 HD
HETATM   16  O   UNL     1      -9.142   4.623 -33.637  1.00  0.00    -0.271 OA
BRANCH  14  17
HETATM   17  C   UNL     1     -11.274   2.846 -34.263  1.00  0.00     0.084 C 
HETATM   18  C   UNL     1     -12.037   1.826 -35.105  1.00  0.00     0.025 C 
HETATM   19  C   UNL     1     -13.474   2.026 -34.658  1.00  0.00     0.002 C 
HETATM   20  C   UNL     1     -13.358   2.202 -33.150  1.00  0.00     0.002 C 
HETATM   21  C   UNL     1     -12.000   2.865 -32.914  1.00  0.00     0.025 C 
ENDBRANCH  14  17
ENDBRANCH   4  13
ENDBRANCH   1   4
BRANCH   1  22
HETATM   22  C   UNL     1      -6.567   3.158 -31.548  1.00  0.00     0.155 C 
BRANCH  22  23
HETATM   23  C   UNL     1      -7.620   3.797 -30.609  1.00  0.00     0.255 C 
BRANCH  23  24
HETATM   24  N   UNL     1      -7.117   5.030 -29.885  1.00  0.00    -0.066 N 
HETATM   25  H   UNL     1      -6.812   5.714 -30.589  1.00  0.00     0.280 HD
HETATM   26  C   UNL     1      -8.172   5.686 -28.987  1.00  0.00     0.261 C 
HETATM   27  C   UNL     1      -7.574   6.935 -28.327  1.00  0.00     0.195 C 
HETATM   28  O   UNL     1      -6.411   6.597 -27.565  1.00  0.00    -0.388 OA
HETATM   29  C   UNL     1      -5.383   6.029 -28.381  1.00  0.00     0.195 C 
HETATM   30  C   UNL     1      -5.867   4.735 -29.048  1.00  0.00     0.261 C 
ENDBRANCH  23  24
ENDBRANCH  22  23
ENDBRANCH   1  22
BRANCH   2  31
HETATM   31  C   UNL     1      -4.535   5.052 -32.636  1.00  0.00     0.120 A 
HETATM   32  S   UNL     1      -4.679   6.677 -32.155  1.00  0.00     0.020 SA
HETATM   33  N   UNL     1      -3.296   6.736 -31.255  1.00  0.00    -0.203 NA
HETATM   34  C   UNL     1      -2.618   5.587 -31.418  1.00  0.00     0.160 A 
HETATM   35  C   UNL     1      -3.300   4.594 -32.219  1.00  0.00     0.085 A 
BRANCH  34  36
HETATM   36  C   UNL     1      -1.281   5.422 -30.820  1.00  0.00     0.271 C 
HETATM   37  N   UNL     1      -1.106   6.015 -29.599  1.00  0.00    -0.365 N 
HETATM   38  H   UNL     1      -1.844   6.578 -29.195  1.00  0.00     0.159 HD
HETATM   39  H   UNL     1      -0.192   5.991 -29.171  1.00  0.00     0.159 HD
HETATM   40  O   UNL     1      -0.364   4.812 -31.364  1.00  0.00    -0.266 OA
ENDBRANCH  34  36
BRANCH  35  41
HETATM   41  N   UNL     1      -2.807   3.366 -32.520  1.00  0.00    -0.396 N 
HETATM   42  H   UNL     1      -1.799   3.201 -32.409  1.00  0.00     0.156 HD
HETATM   43  H   UNL     1      -3.182   2.834 -33.307  1.00  0.00     0.156 HD
ENDBRANCH  35  41
ENDBRANCH   2  31
TORSDOF 11
ENDMDL
