MODEL 1
REMARK VINA RESULT:      -9.2      0.000      0.000
REMARK  10 active torsions:
REMARK  status: ('A' for Active; 'I' for Inactive)
REMARK    1  A    between atoms: C_2  and  C_3 
REMARK    2  A    between atoms: C_3  and  C_4 
REMARK    3  A    between atoms: C_4  and  O_5 
REMARK    4  A    between atoms: O_5  and  C_6 
REMARK    5  A    between atoms: C_9  and  C_10 
REMARK       I    between atoms: C_10  and  N_11 
REMARK    6  A    between atoms: N_11  and  C_12 
REMARK    7  A    between atoms: C_12  and  N_13 
REMARK    8  A    between atoms: N_13  and  C_14 
REMARK    9  A    between atoms: C_16  and  C_17 
REMARK   10  A    between atoms: C_26  and  O_27 
ROOT
HETATM    1  N   UNL     1      -2.226   3.823 -31.235  1.00  0.00    -0.333 N 
HETATM    2  H   UNL     1      -1.570   3.231 -30.723  1.00  0.00     0.168 HD
ENDROOT
BRANCH   1   3
HETATM    3  C   UNL     1      -1.662   5.002 -31.665  1.00  0.00     0.179 C 
HETATM    4  S   UNL     1      -1.614   5.675 -33.195  1.00  0.00    -0.040 SA
BRANCH   3   5
HETATM    5  N   UNL     1      -1.029   5.742 -30.682  1.00  0.00    -0.299 N 
HETATM    6  C   UNL     1       0.019   5.395 -29.840  1.00  0.00     0.257 C 
HETATM    7  O   UNL     1       0.742   4.419 -29.997  1.00  0.00    -0.267 OA
HETATM    8  H   UNL     1      -1.427   6.667 -30.573  1.00  0.00     0.171 HD
BRANCH   6   9
HETATM    9  C   UNL     1       0.261   6.375 -28.753  1.00  0.00     0.032 A 
HETATM   10  C   UNL     1       0.865   7.605 -29.043  1.00  0.00     0.020 A 
HETATM   11  C   UNL     1       1.155   8.496 -28.008  1.00  0.00     0.038 A 
HETATM   12  C   UNL     1       0.827   8.166 -26.694  1.00  0.00     0.068 A 
HETATM   13  C   UNL     1       0.228   6.937 -26.406  1.00  0.00     0.038 A 
HETATM   14  C   UNL     1      -0.075   6.045 -27.438  1.00  0.00     0.020 A 
BRANCH  12  15
HETATM   15  O   UNL     1       1.164   8.962 -25.634  1.00  0.00    -0.351 OA
BRANCH  15  16
HETATM   16  C   UNL     1       2.534   8.820 -25.240  1.00  0.00     0.175 C 
BRANCH  16  17
HETATM   17  C   UNL     1       2.671   9.205 -23.768  1.00  0.00     0.026 C 
BRANCH  17  18
HETATM   18  C   UNL     1       3.870   8.522 -23.104  1.00  0.00    -0.002 C 
HETATM   19  C   UNL     1       3.577   8.167 -21.654  1.00  0.00     0.005 C 
ENDBRANCH  17  18
ENDBRANCH  16  17
ENDBRANCH  15  16
ENDBRANCH  12  15
ENDBRANCH   6   9
ENDBRANCH   3   5
ENDBRANCH   1   3
BRANCH   1  20
HETATM   20  C   UNL     1      -3.510   3.262 -31.442  1.00  0.00     0.035 A 
HETATM   21  C   UNL     1      -3.564   1.968 -31.996  1.00  0.00     0.046 A 
HETATM   22  C   UNL     1      -4.788   1.309 -32.239  1.00  0.00     0.035 A 
HETATM   23  C   UNL     1      -5.967   1.994 -31.891  1.00  0.00     0.078 A 
HETATM   24  C   UNL     1      -5.928   3.259 -31.316  1.00  0.00     0.040 A 
HETATM   25  C   UNL     1      -4.705   3.885 -31.087  1.00  0.00     0.032 A 
BRANCH  22  26
HETATM   26  C   UNL     1      -4.878  -0.044 -32.836  1.00  0.00     0.112 A 
HETATM   27  S   UNL     1      -3.622  -1.212 -32.717  1.00  0.00    -0.067 SA
HETATM   28  C   UNL     1      -4.561  -2.344 -33.610  1.00  0.00     0.035 A 
HETATM   29  C   UNL     1      -5.779  -1.754 -33.943  1.00  0.00     0.075 A 
HETATM   30  C   UNL     1      -4.247  -3.659 -33.990  1.00  0.00     0.021 A 
HETATM   31  N   UNL     1      -5.948  -0.455 -33.498  1.00  0.00    -0.239 NA
HETATM   32  C   UNL     1      -6.718  -2.500 -34.684  1.00  0.00     0.033 A 
HETATM   33  C   UNL     1      -6.417  -3.810 -35.068  1.00  0.00     0.002 A 
HETATM   34  C   UNL     1      -5.195  -4.381 -34.724  1.00  0.00     0.002 A 
ENDBRANCH  22  26
BRANCH  23  35
HETATM   35  O   UNL     1      -7.224   1.475 -32.076  1.00  0.00    -0.360 OA
HETATM   36  H   UNL     1      -7.490   1.662 -33.003  1.00  0.00     0.217 HD
ENDBRANCH  23  35
ENDBRANCH   1  20
TORSDOF 10
ENDMDL
MODEL 2
REMARK VINA RESULT:      -9.1      3.138      5.014
REMARK  10 active torsions:
REMARK  status: ('A' for Active; 'I' for Inactive)
REMARK    1  A    between atoms: C_2  and  C_3 
REMARK    2  A    between atoms: C_3  and  C_4 
REMARK    3  A    between atoms: C_4  and  O_5 
REMARK    4  A    between atoms: O_5  and  C_6 
REMARK    5  A    between atoms: C_9  and  C_10 
REMARK       I    between atoms: C_10  and  N_11 
REMARK    6  A    between atoms: N_11  and  C_12 
REMARK    7  A    between atoms: C_12  and  N_13 
REMARK    8  A    between atoms: N_13  and  C_14 
REMARK    9  A    between atoms: C_16  and  C_17 
REMARK   10  A    between atoms: C_26  and  O_27 
ROOT
HETATM    1  N   UNL     1      -7.837   5.378 -33.142  1.00  0.00    -0.333 N 
HETATM    2  H   UNL     1      -8.206   5.601 -34.068  1.00  0.00     0.168 HD
ENDROOT
BRANCH   1   3
HETATM    3  C   UNL     1      -7.106   6.407 -32.593  1.00  0.00     0.179 C 
HETATM    4  S   UNL     1      -7.615   7.869 -31.963  1.00  0.00    -0.040 SA
BRANCH   3   5
HETATM    5  N   UNL     1      -5.738   6.203 -32.563  1.00  0.00    -0.299 N 
HETATM    6  C   UNL     1      -4.910   5.577 -33.484  1.00  0.00     0.257 C 
HETATM    7  O   UNL     1      -5.232   5.300 -34.633  1.00  0.00    -0.267 OA
HETATM    8  H   UNL     1      -5.309   6.562 -31.720  1.00  0.00     0.171 HD
BRANCH   6   9
HETATM    9  C   UNL     1      -3.533   5.343 -32.987  1.00  0.00     0.032 A 
HETATM   10  C   UNL     1      -3.332   4.670 -31.774  1.00  0.00     0.020 A 
HETATM   11  C   UNL     1      -2.039   4.512 -31.273  1.00  0.00     0.038 A 
HETATM   12  C   UNL     1      -0.951   5.007 -31.991  1.00  0.00     0.068 A 
HETATM   13  C   UNL     1      -1.152   5.681 -33.197  1.00  0.00     0.038 A 
HETATM   14  C   UNL     1      -2.443   5.834 -33.710  1.00  0.00     0.020 A 
BRANCH  12  15
HETATM   15  O   UNL     1       0.328   4.955 -31.507  1.00  0.00    -0.351 OA
BRANCH  15  16
HETATM   16  C   UNL     1       0.445   5.474 -30.176  1.00  0.00     0.175 C 
BRANCH  16  17
HETATM   17  C   UNL     1       0.348   6.998 -30.227  1.00  0.00     0.026 C 
BRANCH  17  18
HETATM   18  C   UNL     1       0.713   7.642 -28.887  1.00  0.00    -0.002 C 
HETATM   19  C   UNL     1       0.687   6.626 -27.755  1.00  0.00     0.005 C 
ENDBRANCH  17  18
ENDBRANCH  16  17
ENDBRANCH  15  16
ENDBRANCH  12  15
ENDBRANCH   6   9
ENDBRANCH   3   5
ENDBRANCH   1   3
BRANCH   1  20
HETATM   20  C   UNL     1      -8.227   4.118 -32.625  1.00  0.00     0.035 A 
HETATM   21  C   UNL     1      -7.496   2.993 -33.056  1.00  0.00     0.046 A 
HETATM   22  C   UNL     1      -7.793   1.691 -32.601  1.00  0.00     0.035 A 
HETATM   23  C   UNL     1      -8.848   1.556 -31.679  1.00  0.00     0.078 A 
HETATM   24  C   UNL     1      -9.559   2.661 -31.223  1.00  0.00     0.040 A 
HETATM   25  C   UNL     1      -9.243   3.935 -31.690  1.00  0.00     0.032 A 
BRANCH  22  26
HETATM   26  C   UNL     1      -7.055   0.486 -33.047  1.00  0.00     0.112 A 
HETATM   27  S   UNL     1      -5.354   0.302 -32.868  1.00  0.00    -0.067 SA
HETATM   28  C   UNL     1      -5.425  -1.257 -33.591  1.00  0.00     0.035 A 
HETATM   29  C   UNL     1      -6.749  -1.539 -33.924  1.00  0.00     0.075 A 
HETATM   30  C   UNL     1      -4.388  -2.169 -33.845  1.00  0.00     0.021 A 
HETATM   31  N   UNL     1      -7.661  -0.547 -33.610  1.00  0.00    -0.239 NA
HETATM   32  C   UNL     1      -7.051  -2.772 -34.536  1.00  0.00     0.033 A 
HETATM   33  C   UNL     1      -6.027  -3.688 -34.795  1.00  0.00     0.002 A 
HETATM   34  C   UNL     1      -4.712  -3.388 -34.452  1.00  0.00     0.002 A 
ENDBRANCH  22  26
BRANCH  23  35
HETATM   35  O   UNL     1      -9.247   0.350 -31.159  1.00  0.00    -0.360 OA
HETATM   36  H   UNL     1      -8.727  -0.354 -31.605  1.00  0.00     0.217 HD
ENDBRANCH  23  35
ENDBRANCH   1  20
TORSDOF 10
ENDMDL
MODEL 3
REMARK VINA RESULT:      -9.0      1.753      2.083
REMARK  10 active torsions:
REMARK  status: ('A' for Active; 'I' for Inactive)
REMARK    1  A    between atoms: C_2  and  C_3 
REMARK    2  A    between atoms: C_3  and  C_4 
REMARK    3  A    between atoms: C_4  and  O_5 
REMARK    4  A    between atoms: O_5  and  C_6 
REMARK    5  A    between atoms: C_9  and  C_10 
REMARK       I    between atoms: C_10  and  N_11 
REMARK    6  A    between atoms: N_11  and  C_12 
REMARK    7  A    between atoms: C_12  and  N_13 
REMARK    8  A    between atoms: N_13  and  C_14 
REMARK    9  A    between atoms: C_16  and  C_17 
REMARK   10  A    between atoms: C_26  and  O_27 
ROOT
HETATM    1  N   UNL     1      -2.601   3.432 -31.207  1.00  0.00    -0.333 N 
HETATM    2  H   UNL     1      -1.832   2.965 -30.725  1.00  0.00     0.168 HD
ENDROOT
BRANCH   1   3
HETATM    3  C   UNL     1      -2.225   4.619 -31.795  1.00  0.00     0.179 C 
HETATM    4  S   UNL     1      -2.403   5.139 -33.373  1.00  0.00    -0.040 SA
BRANCH   3   5
HETATM    5  N   UNL     1      -1.596   5.517 -30.951  1.00  0.00    -0.299 N 
HETATM    6  C   UNL     1      -0.490   5.345 -30.131  1.00  0.00     0.257 C 
HETATM    7  O   UNL     1       0.286   4.400 -30.200  1.00  0.00    -0.267 OA
HETATM    8  H   UNL     1      -2.047   6.423 -30.941  1.00  0.00     0.171 HD
BRANCH   6   9
HETATM    9  C   UNL     1      -0.260   6.471 -29.194  1.00  0.00     0.032 A 
HETATM   10  C   UNL     1      -1.022   7.642 -29.307  1.00  0.00     0.020 A 
HETATM   11  C   UNL     1      -0.757   8.726 -28.469  1.00  0.00     0.038 A 
HETATM   12  C   UNL     1       0.252   8.634 -27.511  1.00  0.00     0.068 A 
HETATM   13  C   UNL     1       1.014   7.469 -27.402  1.00  0.00     0.038 A 
HETATM   14  C   UNL     1       0.747   6.375 -28.231  1.00  0.00     0.020 A 
BRANCH  12  15
HETATM   15  O   UNL     1       0.610   9.693 -26.723  1.00  0.00    -0.351 OA
BRANCH  15  16
HETATM   16  C   UNL     1      -0.503  10.292 -26.050  1.00  0.00     0.175 C 
BRANCH  16  17
HETATM   17  C   UNL     1      -0.858   9.447 -24.827  1.00  0.00     0.026 C 
BRANCH  17  18
HETATM   18  C   UNL     1      -2.323   9.004 -24.840  1.00  0.00    -0.002 C 
HETATM   19  C   UNL     1      -2.465   7.558 -25.293  1.00  0.00     0.005 C 
ENDBRANCH  17  18
ENDBRANCH  16  17
ENDBRANCH  15  16
ENDBRANCH  12  15
ENDBRANCH   6   9
ENDBRANCH   3   5
ENDBRANCH   1   3
BRANCH   1  20
HETATM   20  C   UNL     1      -3.825   2.720 -31.222  1.00  0.00     0.035 A 
HETATM   21  C   UNL     1      -3.838   1.478 -31.887  1.00  0.00     0.046 A 
HETATM   22  C   UNL     1      -5.000   0.680 -31.959  1.00  0.00     0.035 A 
HETATM   23  C   UNL     1      -6.156   1.169 -31.321  1.00  0.00     0.078 A 
HETATM   24  C   UNL     1      -6.150   2.378 -30.635  1.00  0.00     0.040 A 
HETATM   25  C   UNL     1      -4.987   3.144 -30.581  1.00  0.00     0.032 A 
BRANCH  22  26
HETATM   26  C   UNL     1      -5.050  -0.621 -32.665  1.00  0.00     0.112 A 
HETATM   27  S   UNL     1      -3.753  -1.750 -32.653  1.00  0.00    -0.067 SA
HETATM   28  C   UNL     1      -4.662  -2.836 -33.631  1.00  0.00     0.035 A 
HETATM   29  C   UNL     1      -5.903  -2.264 -33.904  1.00  0.00     0.075 A 
HETATM   30  C   UNL     1      -4.307  -4.103 -34.121  1.00  0.00     0.021 A 
HETATM   31  N   UNL     1      -6.112  -1.012 -33.351  1.00  0.00    -0.239 NA
HETATM   32  C   UNL     1      -6.824  -2.978 -34.697  1.00  0.00     0.033 A 
HETATM   33  C   UNL     1      -6.482  -4.241 -35.192  1.00  0.00     0.002 A 
HETATM   34  C   UNL     1      -5.238  -4.794 -34.905  1.00  0.00     0.002 A 
ENDBRANCH  22  26
BRANCH  23  35
HETATM   35  O   UNL     1      -7.354   0.500 -31.315  1.00  0.00    -0.360 OA
HETATM   36  H   UNL     1      -8.068   1.166 -31.426  1.00  0.00     0.217 HD
ENDBRANCH  23  35
ENDBRANCH   1  20
TORSDOF 10
ENDMDL
MODEL 4
REMARK VINA RESULT:      -8.7      3.260     11.191
REMARK  10 active torsions:
REMARK  status: ('A' for Active; 'I' for Inactive)
REMARK    1  A    between atoms: C_2  and  C_3 
REMARK    2  A    between atoms: C_3  and  C_4 
REMARK    3  A    between atoms: C_4  and  O_5 
REMARK    4  A    between atoms: O_5  and  C_6 
REMARK    5  A    between atoms: C_9  and  C_10 
REMARK       I    between atoms: C_10  and  N_11 
REMARK    6  A    between atoms: N_11  and  C_12 
REMARK    7  A    between atoms: C_12  and  N_13 
REMARK    8  A    between atoms: N_13  and  C_14 
REMARK    9  A    between atoms: C_16  and  C_17 
REMARK   10  A    between atoms: C_26  and  O_27 
ROOT
HETATM    1  N   UNL     1      -6.565   5.103 -33.366  1.00  0.00    -0.333 N 
HETATM    2  H   UNL     1      -7.186   5.718 -33.894  1.00  0.00     0.168 HD
ENDROOT
BRANCH   1   3
HETATM    3  C   UNL     1      -7.243   4.154 -32.635  1.00  0.00     0.179 C 
HETATM    4  S   UNL     1      -8.551   4.322 -31.607  1.00  0.00    -0.040 SA
BRANCH   3   5
HETATM    5  N   UNL     1      -6.765   2.863 -32.765  1.00  0.00    -0.299 N 
HETATM    6  C   UNL     1      -5.812   2.185 -32.017  1.00  0.00     0.257 C 
HETATM    7  O   UNL     1      -5.392   2.556 -30.927  1.00  0.00    -0.267 OA
HETATM    8  H   UNL     1      -7.181   2.369 -33.545  1.00  0.00     0.171 HD
BRANCH   6   9
HETATM    9  C   UNL     1      -5.393   0.894 -32.612  1.00  0.00     0.032 A 
HETATM   10  C   UNL     1      -4.079   0.437 -32.438  1.00  0.00     0.020 A 
HETATM   11  C   UNL     1      -3.667  -0.744 -33.058  1.00  0.00     0.038 A 
HETATM   12  C   UNL     1      -4.569  -1.474 -33.831  1.00  0.00     0.068 A 
HETATM   13  C   UNL     1      -5.877  -1.016 -34.007  1.00  0.00     0.038 A 
HETATM   14  C   UNL     1      -6.299   0.160 -33.381  1.00  0.00     0.020 A 
BRANCH  12  15
HETATM   15  O   UNL     1      -4.197  -2.591 -34.529  1.00  0.00    -0.351 OA
BRANCH  15  16
HETATM   16  C   UNL     1      -3.883  -3.702 -33.680  1.00  0.00     0.175 C 
BRANCH  16  17
HETATM   17  C   UNL     1      -4.624  -4.939 -34.187  1.00  0.00     0.026 C 
BRANCH  17  18
HETATM   18  C   UNL     1      -5.614  -4.598 -35.305  1.00  0.00    -0.002 C 
HETATM   19  C   UNL     1      -7.023  -4.410 -34.764  1.00  0.00     0.005 C 
ENDBRANCH  17  18
ENDBRANCH  16  17
ENDBRANCH  15  16
ENDBRANCH  12  15
ENDBRANCH   6   9
ENDBRANCH   3   5
ENDBRANCH   1   3
BRANCH   1  20
HETATM   20  C   UNL     1      -5.181   5.321 -33.574  1.00  0.00     0.035 A 
HETATM   21  C   UNL     1      -4.428   5.762 -32.469  1.00  0.00     0.046 A 
HETATM   22  C   UNL     1      -3.040   6.004 -32.559  1.00  0.00     0.035 A 
HETATM   23  C   UNL     1      -2.427   5.773 -33.805  1.00  0.00     0.078 A 
HETATM   24  C   UNL     1      -3.153   5.310 -34.896  1.00  0.00     0.040 A 
HETATM   25  C   UNL     1      -4.522   5.079 -34.777  1.00  0.00     0.032 A 
BRANCH  22  26
HETATM   26  C   UNL     1      -2.223   6.484 -31.421  1.00  0.00     0.112 A 
HETATM   27  S   UNL     1      -2.378   8.058 -30.746  1.00  0.00    -0.067 SA
HETATM   28  C   UNL     1      -1.153   7.707 -29.591  1.00  0.00     0.035 A 
HETATM   29  C   UNL     1      -0.702   6.404 -29.795  1.00  0.00     0.075 A 
HETATM   30  C   UNL     1      -0.627   8.522 -28.575  1.00  0.00     0.021 A 
HETATM   31  N   UNL     1      -1.316   5.722 -30.831  1.00  0.00    -0.239 NA
HETATM   32  C   UNL     1       0.312   5.895 -28.959  1.00  0.00     0.033 A 
HETATM   33  C   UNL     1       0.844   6.696 -27.945  1.00  0.00     0.002 A 
HETATM   34  C   UNL     1       0.379   7.994 -27.757  1.00  0.00     0.002 A 
ENDBRANCH  22  26
BRANCH  23  35
HETATM   35  O   UNL     1      -1.089   5.972 -34.036  1.00  0.00    -0.360 OA
HETATM   36  H   UNL     1      -0.701   6.366 -33.223  1.00  0.00     0.217 HD
ENDBRANCH  23  35
ENDBRANCH   1  20
TORSDOF 10
ENDMDL
MODEL 5
REMARK VINA RESULT:      -8.7      2.120      2.694
REMARK  10 active torsions:
REMARK  status: ('A' for Active; 'I' for Inactive)
REMARK    1  A    between atoms: C_2  and  C_3 
REMARK    2  A    between atoms: C_3  and  C_4 
REMARK    3  A    between atoms: C_4  and  O_5 
REMARK    4  A    between atoms: O_5  and  C_6 
REMARK    5  A    between atoms: C_9  and  C_10 
REMARK       I    between atoms: C_10  and  N_11 
REMARK    6  A    between atoms: N_11  and  C_12 
REMARK    7  A    between atoms: C_12  and  N_13 
REMARK    8  A    between atoms: N_13  and  C_14 
REMARK    9  A    between atoms: C_16  and  C_17 
REMARK   10  A    between atoms: C_26  and  O_27 
ROOT
HETATM    1  N   UNL     1      -5.249   5.001 -32.744  1.00  0.00    -0.333 N 
HETATM    2  H   UNL     1      -5.898   5.788 -32.710  1.00  0.00     0.168 HD
ENDROOT
BRANCH   1   3
HETATM    3  C   UNL     1      -4.069   5.305 -33.383  1.00  0.00     0.179 C 
HETATM    4  S   UNL     1      -3.691   5.277 -35.012  1.00  0.00    -0.040 SA
BRANCH   3   5
HETATM    5  N   UNL     1      -3.032   5.685 -32.550  1.00  0.00    -0.299 N 
HETATM    6  C   UNL     1      -2.258   4.924 -31.685  1.00  0.00     0.257 C 
HETATM    7  O   UNL     1      -2.207   3.700 -31.694  1.00  0.00    -0.267 OA
HETATM    8  H   UNL     1      -2.847   6.680 -32.588  1.00  0.00     0.171 HD
BRANCH   6   9
HETATM    9  C   UNL     1      -1.404   5.731 -30.781  1.00  0.00     0.032 A 
HETATM   10  C   UNL     1      -1.714   7.076 -30.541  1.00  0.00     0.020 A 
HETATM   11  C   UNL     1      -0.870   7.852 -29.745  1.00  0.00     0.038 A 
HETATM   12  C   UNL     1       0.269   7.281 -29.178  1.00  0.00     0.068 A 
HETATM   13  C   UNL     1       0.580   5.942 -29.421  1.00  0.00     0.038 A 
HETATM   14  C   UNL     1      -0.267   5.156 -30.208  1.00  0.00     0.020 A 
BRANCH  12  15
HETATM   15  O   UNL     1       1.175   8.015 -28.461  1.00  0.00    -0.351 OA
BRANCH  15  16
HETATM   16  C   UNL     1       0.559   8.883 -27.503  1.00  0.00     0.175 C 
BRANCH  16  17
HETATM   17  C   UNL     1       0.250   8.085 -26.236  1.00  0.00     0.026 C 
BRANCH  17  18
HETATM   18  C   UNL     1      -1.249   8.063 -25.923  1.00  0.00    -0.002 C 
HETATM   19  C   UNL     1      -1.648   9.225 -25.026  1.00  0.00     0.005 C 
ENDBRANCH  17  18
ENDBRANCH  16  17
ENDBRANCH  15  16
ENDBRANCH  12  15
ENDBRANCH   6   9
ENDBRANCH   3   5
ENDBRANCH   1   3
BRANCH   1  20
HETATM   20  C   UNL     1      -5.681   3.834 -32.067  1.00  0.00     0.035 A 
HETATM   21  C   UNL     1      -5.496   2.603 -32.727  1.00  0.00     0.046 A 
HETATM   22  C   UNL     1      -5.883   1.377 -32.145  1.00  0.00     0.035 A 
HETATM   23  C   UNL     1      -6.452   1.427 -30.859  1.00  0.00     0.078 A 
HETATM   24  C   UNL     1      -6.613   2.632 -30.183  1.00  0.00     0.040 A 
HETATM   25  C   UNL     1      -6.222   3.827 -30.783  1.00  0.00     0.032 A 
BRANCH  22  26
HETATM   26  C   UNL     1      -5.718   0.069 -32.820  1.00  0.00     0.112 A 
HETATM   27  S   UNL     1      -4.186  -0.665 -33.092  1.00  0.00    -0.067 SA
HETATM   28  C   UNL     1      -4.943  -2.016 -33.842  1.00  0.00     0.035 A 
HETATM   29  C   UNL     1      -6.323  -1.819 -33.836  1.00  0.00     0.075 A 
HETATM   30  C   UNL     1      -4.362  -3.168 -34.396  1.00  0.00     0.021 A 
HETATM   31  N   UNL     1      -6.748  -0.638 -33.253  1.00  0.00    -0.239 NA
HETATM   32  C   UNL     1      -7.155  -2.804 -34.405  1.00  0.00     0.033 A 
HETATM   33  C   UNL     1      -6.588  -3.956 -34.960  1.00  0.00     0.002 A 
HETATM   34  C   UNL     1      -5.208  -4.133 -34.954  1.00  0.00     0.002 A 
ENDBRANCH  22  26
BRANCH  23  35
HETATM   35  O   UNL     1      -6.876   0.314 -30.177  1.00  0.00    -0.360 OA
HETATM   36  H   UNL     1      -7.437  -0.214 -30.787  1.00  0.00     0.217 HD
ENDBRANCH  23  35
ENDBRANCH   1  20
TORSDOF 10
ENDMDL
MODEL 6
REMARK VINA RESULT:      -8.6      1.497      2.042
REMARK  10 active torsions:
REMARK  status: ('A' for Active; 'I' for Inactive)
REMARK    1  A    between atoms: C_2  and  C_3 
REMARK    2  A    between atoms: C_3  and  C_4 
REMARK    3  A    between atoms: C_4  and  O_5 
REMARK    4  A    between atoms: O_5  and  C_6 
REMARK    5  A    between atoms: C_9  and  C_10 
REMARK       I    between atoms: C_10  and  N_11 
REMARK    6  A    between atoms: N_11  and  C_12 
REMARK    7  A    between atoms: C_12  and  N_13 
REMARK    8  A    between atoms: N_13  and  C_14 
REMARK    9  A    between atoms: C_16  and  C_17 
REMARK   10  A    between atoms: C_26  and  O_27 
ROOT
HETATM    1  N   UNL     1      -4.149   5.217 -32.174  1.00  0.00    -0.333 N 
HETATM    2  H   UNL     1      -4.792   6.002 -32.295  1.00  0.00     0.168 HD
ENDROOT
BRANCH   1   3
HETATM    3  C   UNL     1      -2.879   5.487 -32.631  1.00  0.00     0.179 C 
HETATM    4  S   UNL     1      -2.208   5.247 -34.143  1.00  0.00    -0.040 SA
BRANCH   3   5
HETATM    5  N   UNL     1      -2.023   6.035 -31.692  1.00  0.00    -0.299 N 
HETATM    6  C   UNL     1      -1.131   5.415 -30.829  1.00  0.00     0.257 C 
HETATM    7  O   UNL     1      -0.768   4.249 -30.925  1.00  0.00    -0.267 OA
HETATM    8  H   UNL     1      -2.096   7.044 -31.641  1.00  0.00     0.171 HD
BRANCH   6   9
HETATM    9  C   UNL     1      -0.564   6.322 -29.802  1.00  0.00     0.032 A 
HETATM   10  C   UNL     1       0.370   5.836 -28.878  1.00  0.00     0.020 A 
HETATM   11  C   UNL     1       0.850   6.674 -27.870  1.00  0.00     0.038 A 
HETATM   12  C   UNL     1       0.412   7.996 -27.798  1.00  0.00     0.068 A 
HETATM   13  C   UNL     1      -0.522   8.478 -28.717  1.00  0.00     0.038 A 
HETATM   14  C   UNL     1      -0.998   7.648 -29.736  1.00  0.00     0.020 A 
BRANCH  12  15
HETATM   15  O   UNL     1       0.783   8.834 -26.782  1.00  0.00    -0.351 OA
BRANCH  15  16
HETATM   16  C   UNL     1       1.367   8.144 -25.671  1.00  0.00     0.175 C 
BRANCH  16  17
HETATM   17  C   UNL     1       2.613   8.901 -25.214  1.00  0.00     0.026 C 
BRANCH  17  18
HETATM   18  C   UNL     1       2.810   8.822 -23.698  1.00  0.00    -0.002 C 
HETATM   19  C   UNL     1       1.839   9.732 -22.961  1.00  0.00     0.005 C 
ENDBRANCH  17  18
ENDBRANCH  16  17
ENDBRANCH  15  16
ENDBRANCH  12  15
ENDBRANCH   6   9
ENDBRANCH   3   5
ENDBRANCH   1   3
BRANCH   1  20
HETATM   20  C   UNL     1      -4.691   4.093 -31.504  1.00  0.00     0.035 A 
HETATM   21  C   UNL     1      -4.451   2.828 -32.076  1.00  0.00     0.046 A 
HETATM   22  C   UNL     1      -4.936   1.639 -31.491  1.00  0.00     0.035 A 
HETATM   23  C   UNL     1      -5.666   1.762 -30.294  1.00  0.00     0.078 A 
HETATM   24  C   UNL     1      -5.885   3.002 -29.702  1.00  0.00     0.040 A 
HETATM   25  C   UNL     1      -5.393   4.159 -30.302  1.00  0.00     0.032 A 
BRANCH  22  26
HETATM   26  C   UNL     1      -4.716   0.296 -32.076  1.00  0.00     0.112 A 
HETATM   27  S   UNL     1      -5.422  -0.213 -33.560  1.00  0.00    -0.067 SA
HETATM   28  C   UNL     1      -4.651  -1.745 -33.425  1.00  0.00     0.035 A 
HETATM   29  C   UNL     1      -3.900  -1.770 -32.251  1.00  0.00     0.075 A 
HETATM   30  C   UNL     1      -4.702  -2.848 -34.293  1.00  0.00     0.021 A 
HETATM   31  N   UNL     1      -3.943  -0.609 -31.498  1.00  0.00    -0.239 NA
HETATM   32  C   UNL     1      -3.177  -2.935 -31.928  1.00  0.00     0.033 A 
HETATM   33  C   UNL     1      -3.221  -4.040 -32.784  1.00  0.00     0.002 A 
HETATM   34  C   UNL     1      -3.975  -3.994 -33.953  1.00  0.00     0.002 A 
ENDBRANCH  22  26
BRANCH  23  35
HETATM   35  O   UNL     1      -6.199   0.692 -29.621  1.00  0.00    -0.360 OA
HETATM   36  H   UNL     1      -6.446   0.014 -30.287  1.00  0.00     0.217 HD
ENDBRANCH  23  35
ENDBRANCH   1  20
TORSDOF 10
ENDMDL
MODEL 7
REMARK VINA RESULT:      -8.5      1.656      2.166
REMARK  10 active torsions:
REMARK  status: ('A' for Active; 'I' for Inactive)
REMARK    1  A    between atoms: C_2  and  C_3 
REMARK    2  A    between atoms: C_3  and  C_4 
REMARK    3  A    between atoms: C_4  and  O_5 
REMARK    4  A    between atoms: O_5  and  C_6 
REMARK    5  A    between atoms: C_9  and  C_10 
REMARK       I    between atoms: C_10  and  N_11 
REMARK    6  A    between atoms: N_11  and  C_12 
REMARK    7  A    between atoms: C_12  and  N_13 
REMARK    8  A    between atoms: N_13  and  C_14 
REMARK    9  A    between atoms: C_16  and  C_17 
REMARK   10  A    between atoms: C_26  and  O_27 
ROOT
HETATM    1  N   UNL     1      -4.263   4.920 -33.168  1.00  0.00    -0.333 N 
HETATM    2  H   UNL     1      -4.885   5.580 -33.638  1.00  0.00     0.168 HD
ENDROOT
BRANCH   1   3
HETATM    3  C   UNL     1      -2.935   5.264 -33.278  1.00  0.00     0.179 C 
HETATM    4  S   UNL     1      -1.916   5.204 -34.603  1.00  0.00    -0.040 SA
BRANCH   3   5
HETATM    5  N   UNL     1      -2.350   5.722 -32.112  1.00  0.00    -0.299 N 
HETATM    6  C   UNL     1      -1.810   6.966 -31.814  1.00  0.00     0.257 C 
HETATM    7  O   UNL     1      -1.982   7.976 -32.483  1.00  0.00    -0.267 OA
HETATM    8  H   UNL     1      -2.310   5.013 -31.391  1.00  0.00     0.171 HD
BRANCH   6   9
HETATM    9  C   UNL     1      -1.058   7.000 -30.536  1.00  0.00     0.032 A 
HETATM   10  C   UNL     1      -1.207   8.087 -29.665  1.00  0.00     0.020 A 
HETATM   11  C   UNL     1      -0.446   8.151 -28.497  1.00  0.00     0.038 A 
HETATM   12  C   UNL     1       0.446   7.123 -28.192  1.00  0.00     0.068 A 
HETATM   13  C   UNL     1       0.597   6.042 -29.062  1.00  0.00     0.038 A 
HETATM   14  C   UNL     1      -0.170   5.967 -30.229  1.00  0.00     0.020 A 
BRANCH  12  15
HETATM   15  O   UNL     1       1.276   7.174 -27.106  1.00  0.00    -0.351 OA
BRANCH  15  16
HETATM   16  C   UNL     1       1.874   8.463 -26.918  1.00  0.00     0.175 C 
BRANCH  16  17
HETATM   17  C   UNL     1       2.263   8.621 -25.449  1.00  0.00     0.026 C 
BRANCH  17  18
HETATM   18  C   UNL     1       1.390   9.655 -24.732  1.00  0.00    -0.002 C 
HETATM   19  C   UNL     1       0.795  10.657 -25.710  1.00  0.00     0.005 C 
ENDBRANCH  17  18
ENDBRANCH  16  17
ENDBRANCH  15  16
ENDBRANCH  12  15
ENDBRANCH   6   9
ENDBRANCH   3   5
ENDBRANCH   1   3
BRANCH   1  20
HETATM   20  C   UNL     1      -4.911   3.877 -32.464  1.00  0.00     0.035 A 
HETATM   21  C   UNL     1      -4.840   2.585 -33.022  1.00  0.00     0.046 A 
HETATM   22  C   UNL     1      -5.444   1.469 -32.402  1.00  0.00     0.035 A 
HETATM   23  C   UNL     1      -6.115   1.694 -31.185  1.00  0.00     0.078 A 
HETATM   24  C   UNL     1      -6.167   2.958 -30.608  1.00  0.00     0.040 A 
HETATM   25  C   UNL     1      -5.561   4.041 -31.243  1.00  0.00     0.032 A 
BRANCH  22  26
HETATM   26  C   UNL     1      -5.402   0.103 -32.971  1.00  0.00     0.112 A 
HETATM   27  S   UNL     1      -3.950  -0.803 -33.144  1.00  0.00    -0.067 SA
HETATM   28  C   UNL     1      -4.827  -2.124 -33.811  1.00  0.00     0.035 A 
HETATM   29  C   UNL     1      -6.179  -1.787 -33.860  1.00  0.00     0.075 A 
HETATM   30  C   UNL     1      -4.358  -3.369 -34.259  1.00  0.00     0.021 A 
HETATM   31  N   UNL     1      -6.492  -0.527 -33.380  1.00  0.00    -0.239 NA
HETATM   32  C   UNL     1      -7.097  -2.724 -34.375  1.00  0.00     0.033 A 
HETATM   33  C   UNL     1      -6.642  -3.967 -34.825  1.00  0.00     0.002 A 
HETATM   34  C   UNL     1      -5.288  -4.284 -34.767  1.00  0.00     0.002 A 
ENDBRANCH  22  26
BRANCH  23  35
HETATM   35  O   UNL     1      -6.748   0.703 -30.479  1.00  0.00    -0.360 OA
HETATM   36  H   UNL     1      -6.442  -0.160 -30.836  1.00  0.00     0.217 HD
ENDBRANCH  23  35
ENDBRANCH   1  20
TORSDOF 10
ENDMDL
MODEL 8
REMARK VINA RESULT:      -8.2      3.644      5.615
REMARK  10 active torsions:
REMARK  status: ('A' for Active; 'I' for Inactive)
REMARK    1  A    between atoms: C_2  and  C_3 
REMARK    2  A    between atoms: C_3  and  C_4 
REMARK    3  A    between atoms: C_4  and  O_5 
REMARK    4  A    between atoms: O_5  and  C_6 
REMARK    5  A    between atoms: C_9  and  C_10 
REMARK       I    between atoms: C_10  and  N_11 
REMARK    6  A    between atoms: N_11  and  C_12 
REMARK    7  A    between atoms: C_12  and  N_13 
REMARK    8  A    between atoms: N_13  and  C_14 
REMARK    9  A    between atoms: C_16  and  C_17 
REMARK   10  A    between atoms: C_26  and  O_27 
ROOT
HETATM    1  N   UNL     1      -8.475   3.038 -30.757  1.00  0.00    -0.333 N 
HETATM    2  H   UNL     1      -8.749   2.472 -29.952  1.00  0.00     0.168 HD
ENDROOT
BRANCH   1   3
HETATM    3  C   UNL     1      -8.058   4.302 -30.408  1.00  0.00     0.179 C 
HETATM    4  S   UNL     1      -8.871   5.514 -29.592  1.00  0.00    -0.040 SA
BRANCH   3   5
HETATM    5  N   UNL     1      -6.770   4.624 -30.799  1.00  0.00    -0.299 N 
HETATM    6  C   UNL     1      -6.314   5.204 -31.974  1.00  0.00     0.257 C 
HETATM    7  O   UNL     1      -7.028   5.766 -32.794  1.00  0.00    -0.267 OA
HETATM    8  H   UNL     1      -6.078   4.368 -30.106  1.00  0.00     0.171 HD
BRANCH   6   9
HETATM    9  C   UNL     1      -4.839   5.168 -32.123  1.00  0.00     0.032 A 
HETATM   10  C   UNL     1      -4.104   4.113 -31.566  1.00  0.00     0.020 A 
HETATM   11  C   UNL     1      -2.711   4.118 -31.648  1.00  0.00     0.038 A 
HETATM   12  C   UNL     1      -2.057   5.163 -32.299  1.00  0.00     0.068 A 
HETATM   13  C   UNL     1      -2.789   6.216 -32.850  1.00  0.00     0.038 A 
HETATM   14  C   UNL     1      -4.186   6.212 -32.782  1.00  0.00     0.020 A 
BRANCH  12  15
HETATM   15  O   UNL     1      -0.692   5.262 -32.335  1.00  0.00    -0.351 OA
BRANCH  15  16
HETATM   16  C   UNL     1      -0.225   6.609 -32.196  1.00  0.00     0.175 C 
BRANCH  16  17
HETATM   17  C   UNL     1       0.618   6.714 -30.925  1.00  0.00     0.026 C 
BRANCH  17  18
HETATM   18  C   UNL     1       0.530   5.445 -30.072  1.00  0.00    -0.002 C 
HETATM   19  C   UNL     1       0.588   5.768 -28.586  1.00  0.00     0.005 C 
ENDBRANCH  17  18
ENDBRANCH  16  17
ENDBRANCH  15  16
ENDBRANCH  12  15
ENDBRANCH   6   9
ENDBRANCH   3   5
ENDBRANCH   1   3
BRANCH   1  20
HETATM   20  C   UNL     1      -8.513   2.370 -32.005  1.00  0.00     0.035 A 
HETATM   21  C   UNL     1      -7.689   1.237 -32.153  1.00  0.00     0.046 A 
HETATM   22  C   UNL     1      -7.653   0.491 -33.351  1.00  0.00     0.035 A 
HETATM   23  C   UNL     1      -8.490   0.915 -34.399  1.00  0.00     0.078 A 
HETATM   24  C   UNL     1      -9.330   2.013 -34.257  1.00  0.00     0.040 A 
HETATM   25  C   UNL     1      -9.346   2.731 -33.063  1.00  0.00     0.032 A 
BRANCH  22  26
HETATM   26  C   UNL     1      -6.785  -0.694 -33.543  1.00  0.00     0.112 A 
HETATM   27  S   UNL     1      -5.161  -0.775 -32.982  1.00  0.00    -0.067 SA
HETATM   28  C   UNL     1      -5.004  -2.373 -33.599  1.00  0.00     0.035 A 
HETATM   29  C   UNL     1      -6.208  -2.745 -34.196  1.00  0.00     0.075 A 
HETATM   30  C   UNL     1      -3.900  -3.240 -33.558  1.00  0.00     0.021 A 
HETATM   31  N   UNL     1      -7.207  -1.788 -34.156  1.00  0.00    -0.239 NA
HETATM   32  C   UNL     1      -6.315  -4.024 -34.777  1.00  0.00     0.033 A 
HETATM   33  C   UNL     1      -5.221  -4.896 -34.743  1.00  0.00     0.002 A 
HETATM   34  C   UNL     1      -4.029  -4.506 -34.140  1.00  0.00     0.002 A 
ENDBRANCH  22  26
BRANCH  23  35
HETATM   35  O   UNL     1      -8.552   0.287 -35.617  1.00  0.00    -0.360 OA
HETATM   36  H   UNL     1      -8.522   0.980 -36.313  1.00  0.00     0.217 HD
ENDBRANCH  23  35
ENDBRANCH   1  20
TORSDOF 10
ENDMDL
MODEL 9
REMARK VINA RESULT:      -8.2      4.059     10.486
REMARK  10 active torsions:
REMARK  status: ('A' for Active; 'I' for Inactive)
REMARK    1  A    between atoms: C_2  and  C_3 
REMARK    2  A    between atoms: C_3  and  C_4 
REMARK    3  A    between atoms: C_4  and  O_5 
REMARK    4  A    between atoms: O_5  and  C_6 
REMARK    5  A    between atoms: C_9  and  C_10 
REMARK       I    between atoms: C_10  and  N_11 
REMARK    6  A    between atoms: N_11  and  C_12 
REMARK    7  A    between atoms: C_12  and  N_13 
REMARK    8  A    between atoms: N_13  and  C_14 
REMARK    9  A    between atoms: C_16  and  C_17 
REMARK   10  A    between atoms: C_26  and  O_27 
ROOT
HETATM    1  N   UNL     1      -8.460   5.352 -33.168  1.00  0.00    -0.333 N 
HETATM    2  H   UNL     1      -8.429   6.324 -33.478  1.00  0.00     0.168 HD
ENDROOT
BRANCH   1   3
HETATM    3  C   UNL     1      -9.167   4.537 -34.022  1.00  0.00     0.179 C 
HETATM    4  S   UNL     1     -10.505   4.874 -34.967  1.00  0.00    -0.040 SA
BRANCH   3   5
HETATM    5  N   UNL     1      -8.704   3.236 -34.108  1.00  0.00    -0.299 N 
HETATM    6  C   UNL     1      -9.155   2.086 -33.475  1.00  0.00     0.257 C 
HETATM    7  O   UNL     1     -10.229   1.988 -32.895  1.00  0.00    -0.267 OA
HETATM    8  H   UNL     1      -7.903   3.147 -34.721  1.00  0.00     0.171 HD
BRANCH   6   9
HETATM    9  C   UNL     1      -8.250   0.923 -33.635  1.00  0.00     0.032 A 
HETATM   10  C   UNL     1      -7.851   0.187 -32.511  1.00  0.00     0.020 A 
HETATM   11  C   UNL     1      -6.944  -0.864 -32.656  1.00  0.00     0.038 A 
HETATM   12  C   UNL     1      -6.453  -1.190 -33.920  1.00  0.00     0.068 A 
HETATM   13  C   UNL     1      -6.848  -0.453 -35.039  1.00  0.00     0.038 A 
HETATM   14  C   UNL     1      -7.764   0.594 -34.903  1.00  0.00     0.020 A 
BRANCH  12  15
HETATM   15  O   UNL     1      -5.500  -2.153 -34.108  1.00  0.00    -0.351 OA
BRANCH  15  16
HETATM   16  C   UNL     1      -4.180  -1.708 -33.771  1.00  0.00     0.175 C 
BRANCH  16  17
HETATM   17  C   UNL     1      -3.723  -2.428 -32.503  1.00  0.00     0.026 C 
BRANCH  17  18
HETATM   18  C   UNL     1      -2.623  -1.655 -31.769  1.00  0.00    -0.002 C 
HETATM   19  C   UNL     1      -3.014  -0.202 -31.549  1.00  0.00     0.005 C 
ENDBRANCH  17  18
ENDBRANCH  16  17
ENDBRANCH  15  16
ENDBRANCH  12  15
ENDBRANCH   6   9
ENDBRANCH   3   5
ENDBRANCH   1   3
BRANCH   1  20
HETATM   20  C   UNL     1      -7.715   5.069 -31.997  1.00  0.00     0.035 A 
HETATM   21  C   UNL     1      -6.333   5.338 -32.035  1.00  0.00     0.046 A 
HETATM   22  C   UNL     1      -5.495   5.101 -30.924  1.00  0.00     0.035 A 
HETATM   23  C   UNL     1      -6.099   4.594 -29.759  1.00  0.00     0.078 A 
HETATM   24  C   UNL     1      -7.467   4.353 -29.697  1.00  0.00     0.040 A 
HETATM   25  C   UNL     1      -8.270   4.596 -30.810  1.00  0.00     0.032 A 
BRANCH  22  26
HETATM   26  C   UNL     1      -4.036   5.356 -30.938  1.00  0.00     0.112 A 
HETATM   27  S   UNL     1      -2.916   4.379 -31.804  1.00  0.00    -0.067 SA
HETATM   28  C   UNL     1      -1.611   5.370 -31.277  1.00  0.00     0.035 A 
HETATM   29  C   UNL     1      -2.117   6.388 -30.470  1.00  0.00     0.075 A 
HETATM   30  C   UNL     1      -0.240   5.260 -31.556  1.00  0.00     0.021 A 
HETATM   31  N   UNL     1      -3.489   6.371 -30.288  1.00  0.00    -0.239 NA
HETATM   32  C   UNL     1      -1.224   7.329 -29.918  1.00  0.00     0.033 A 
HETATM   33  C   UNL     1       0.144   7.229 -30.188  1.00  0.00     0.002 A 
HETATM   34  C   UNL     1       0.628   6.205 -30.998  1.00  0.00     0.002 A 
ENDBRANCH  22  26
BRANCH  23  35
HETATM   35  O   UNL     1      -5.404   4.314 -28.609  1.00  0.00    -0.360 OA
HETATM   36  H   UNL     1      -4.616   4.900 -28.586  1.00  0.00     0.217 HD
ENDBRANCH  23  35
ENDBRANCH   1  20
TORSDOF 10
ENDMDL
MODEL 10
REMARK VINA RESULT:      -8.1      2.930      3.830
REMARK  10 active torsions:
REMARK  status: ('A' for Active; 'I' for Inactive)
REMARK    1  A    between atoms: C_2  and  C_3 
REMARK    2  A    between atoms: C_3  and  C_4 
REMARK    3  A    between atoms: C_4  and  O_5 
REMARK    4  A    between atoms: O_5  and  C_6 
REMARK    5  A    between atoms: C_9  and  C_10 
REMARK       I    between atoms: C_10  and  N_11 
REMARK    6  A    between atoms: N_11  and  C_12 
REMARK    7  A    between atoms: C_12  and  N_13 
REMARK    8  A    between atoms: N_13  and  C_14 
REMARK    9  A    between atoms: C_16  and  C_17 
REMARK   10  A    between atoms: C_26  and  O_27 
ROOT
HETATM    1  N   UNL     1      -5.135   4.407 -33.183  1.00  0.00    -0.333 N 
HETATM    2  H   UNL     1      -4.945   4.507 -34.182  1.00  0.00     0.168 HD
ENDROOT
BRANCH   1   3
HETATM    3  C   UNL     1      -5.906   5.428 -32.678  1.00  0.00     0.179 C 
HETATM    4  S   UNL     1      -7.536   5.744 -32.878  1.00  0.00    -0.040 SA
BRANCH   3   5
HETATM    5  N   UNL     1      -5.227   6.340 -31.889  1.00  0.00    -0.299 N 
HETATM    6  C   UNL     1      -3.925   6.810 -31.989  1.00  0.00     0.257 C 
HETATM    7  O   UNL     1      -3.209   6.668 -32.972  1.00  0.00    -0.267 OA
HETATM    8  H   UNL     1      -5.789   6.685 -31.121  1.00  0.00     0.171 HD
BRANCH   6   9
HETATM    9  C   UNL     1      -3.483   7.600 -30.814  1.00  0.00     0.032 A 
HETATM   10  C   UNL     1      -2.758   8.784 -30.999  1.00  0.00     0.020 A 
HETATM   11  C   UNL     1      -2.283   9.488 -29.892  1.00  0.00     0.038 A 
HETATM   12  C   UNL     1      -2.548   9.020 -28.605  1.00  0.00     0.068 A 
HETATM   13  C   UNL     1      -3.267   7.837 -28.422  1.00  0.00     0.038 A 
HETATM   14  C   UNL     1      -3.755   7.133 -29.526  1.00  0.00     0.020 A 
BRANCH  12  15
HETATM   15  O   UNL     1      -2.036   9.622 -27.488  1.00  0.00    -0.351 OA
BRANCH  15  16
HETATM   16  C   UNL     1      -0.615   9.790 -27.544  1.00  0.00     0.175 C 
BRANCH  16  17
HETATM   17  C   UNL     1       0.054   8.434 -27.321  1.00  0.00     0.026 C 
BRANCH  17  18
HETATM   18  C   UNL     1       0.787   7.942 -28.573  1.00  0.00    -0.002 C 
HETATM   19  C   UNL     1       0.470   6.483 -28.867  1.00  0.00     0.005 C 
ENDBRANCH  17  18
ENDBRANCH  16  17
ENDBRANCH  15  16
ENDBRANCH  12  15
ENDBRANCH   6   9
ENDBRANCH   3   5
ENDBRANCH   1   3
BRANCH   1  20
HETATM   20  C   UNL     1      -4.635   3.222 -32.590  1.00  0.00     0.035 A 
HETATM   21  C   UNL     1      -5.032   1.999 -33.165  1.00  0.00     0.046 A 
HETATM   22  C   UNL     1      -4.589   0.757 -32.660  1.00  0.00     0.035 A 
HETATM   23  C   UNL     1      -3.715   0.785 -31.558  1.00  0.00     0.078 A 
HETATM   24  C   UNL     1      -3.291   1.986 -30.999  1.00  0.00     0.040 A 
HETATM   25  C   UNL     1      -3.745   3.197 -31.518  1.00  0.00     0.032 A 
BRANCH  22  26
HETATM   26  C   UNL     1      -5.002  -0.546 -33.232  1.00  0.00     0.112 A 
HETATM   27  S   UNL     1      -6.617  -0.897 -33.708  1.00  0.00    -0.067 SA
HETATM   28  C   UNL     1      -6.149  -2.476 -34.207  1.00  0.00     0.035 A 
HETATM   29  C   UNL     1      -4.783  -2.634 -33.977  1.00  0.00     0.075 A 
HETATM   30  C   UNL     1      -6.929  -3.502 -34.764  1.00  0.00     0.021 A 
HETATM   31  N   UNL     1      -4.145  -1.535 -33.428  1.00  0.00    -0.239 NA
HETATM   32  C   UNL     1      -4.172  -3.860 -34.311  1.00  0.00     0.033 A 
HETATM   33  C   UNL     1      -4.939  -4.890 -34.865  1.00  0.00     0.002 A 
HETATM   34  C   UNL     1      -6.301  -4.710 -35.088  1.00  0.00     0.002 A 
ENDBRANCH  22  26
BRANCH  23  35
HETATM   35  O   UNL     1      -3.212  -0.345 -30.964  1.00  0.00    -0.360 OA
HETATM   36  H   UNL     1      -2.998  -0.122 -30.032  1.00  0.00     0.217 HD
ENDBRANCH  23  35
ENDBRANCH   1  20
TORSDOF 10
ENDMDL
