MODEL 1
REMARK VINA RESULT:     -10.0      0.000      0.000
REMARK  6 active torsions:
REMARK  status: ('A' for Active; 'I' for Inactive)
REMARK    1  A    between atoms: C_2  and  N_3 
REMARK    2  A    between atoms: C_11  and  C_12 
REMARK    3  A    between atoms: C_14  and  C_15 
REMARK    4  A    between atoms: C_15  and  O_16 
REMARK    5  A    between atoms: O_16  and  C_17 
REMARK    6  A    between atoms: C_19  and  C_20 
ROOT
HETATM    1  N   UNL     1       0.605   7.675 -27.433  1.00  0.00    -0.067 N 
HETATM    2  H   UNL     1       1.354   8.114 -27.984  1.00  0.00     0.280 HD
HETATM    3  C   UNL     1       0.468   6.251 -27.971  1.00  0.00     0.281 C 
HETATM    4  C   UNL     1      -0.061   6.275 -29.364  1.00  0.00     0.018 A 
HETATM    5  C   UNL     1      -0.701   7.348 -29.955  1.00  0.00    -0.023 A 
HETATM    6  C   UNL     1      -1.042   7.062 -31.316  1.00  0.00     0.073 A 
HETATM    7  C   UNL     1      -0.642   5.801 -31.688  1.00  0.00     0.088 A 
HETATM    8  N   UNL     1      -0.782   5.316 -32.937  1.00  0.00    -0.357 N 
HETATM    9  C   UNL     1      -1.679   5.975 -33.868  1.00  0.00     0.243 C 
HETATM   10  N   UNL     1      -1.831   7.373 -33.544  1.00  0.00    -0.330 N 
HETATM   11  C   UNL     1      -1.678   7.916 -32.301  1.00  0.00     0.256 C 
HETATM   12  O   UNL     1      -2.034   9.062 -32.051  1.00  0.00    -0.267 OA
HETATM   13  S   UNL     1       0.083   4.942 -30.412  1.00  0.00    -0.074 SA
HETATM   14  C   UNL     1      -0.909   8.639 -29.220  1.00  0.00     0.068 C 
HETATM   15  C   UNL     1      -0.668   8.483 -27.708  1.00  0.00     0.240 C 
HETATM   16  H   UNL     1      -0.707   4.313 -33.093  1.00  0.00     0.162 HD
HETATM   17  H   UNL     1      -2.301   7.961 -34.215  1.00  0.00     0.165 HD
ENDROOT
BRANCH   9  18
HETATM   18  C   UNL     1      -3.017   5.322 -34.007  1.00  0.00     0.095 A 
HETATM   19  O   UNL     1      -3.429   4.594 -32.922  1.00  0.00    -0.313 OA
HETATM   20  C   UNL     1      -4.653   4.073 -33.218  1.00  0.00     0.077 A 
HETATM   21  C   UNL     1      -5.032   4.458 -34.487  1.00  0.00     0.037 A 
HETATM   22  C   UNL     1      -3.983   5.265 -34.993  1.00  0.00     0.039 A 
BRANCH  20  23
HETATM   23  C   UNL     1      -5.295   3.237 -32.168  1.00  0.00     0.240 C 
BRANCH  23  24
HETATM   24  O   UNL     1      -4.304   2.305 -31.737  1.00  0.00    -0.345 OA
BRANCH  24  25
HETATM   25  C   UNL     1      -4.367   1.041 -32.254  1.00  0.00     0.070 A 
HETATM   26  C   UNL     1      -5.342   0.553 -33.125  1.00  0.00     0.052 A 
HETATM   27  C   UNL     1      -5.290  -0.777 -33.587  1.00  0.00     0.050 A 
HETATM   28  C   UNL     1      -4.244  -1.610 -33.157  1.00  0.00     0.016 A 
HETATM   29  C   UNL     1      -3.272  -1.124 -32.286  1.00  0.00     0.004 A 
HETATM   30  C   UNL     1      -3.336   0.195 -31.839  1.00  0.00     0.037 A 
BRANCH  27  31
HETATM   31  C   UNL     1      -6.336  -1.317 -34.531  1.00  0.00     0.417 C 
HETATM   32  F   UNL     1      -7.433  -1.817 -33.895  1.00  0.00    -0.166 F 
HETATM   33  F   UNL     1      -6.803  -0.368 -35.388  1.00  0.00    -0.166 F 
HETATM   34  F   UNL     1      -5.863  -2.329 -35.309  1.00  0.00    -0.166 F 
ENDBRANCH  27  31
ENDBRANCH  24  25
ENDBRANCH  23  24
ENDBRANCH  20  23
ENDBRANCH   9  18
BRANCH   1  35
HETATM   35  C   UNL     1       1.001   7.733 -25.980  1.00  0.00     0.231 C 
HETATM   36  C   UNL     1       2.252   8.570 -25.786  1.00  0.00     0.034 C 
ENDBRANCH   1  35
TORSDOF 6
ENDMDL
MODEL 2
REMARK VINA RESULT:     -10.0      5.076      9.730
REMARK  6 active torsions:
REMARK  status: ('A' for Active; 'I' for Inactive)
REMARK    1  A    between atoms: C_2  and  N_3 
REMARK    2  A    between atoms: C_11  and  C_12 
REMARK    3  A    between atoms: C_14  and  C_15 
REMARK    4  A    between atoms: C_15  and  O_16 
REMARK    5  A    between atoms: O_16  and  C_17 
REMARK    6  A    between atoms: C_19  and  C_20 
ROOT
HETATM    1  N   UNL     1      -5.584  -2.818 -34.052  1.00  0.00    -0.067 N 
HETATM    2  H   UNL     1      -6.152  -2.858 -33.196  1.00  0.00     0.280 HD
HETATM    3  C   UNL     1      -4.247  -2.201 -33.640  1.00  0.00     0.281 C 
HETATM    4  C   UNL     1      -4.436  -0.775 -33.252  1.00  0.00     0.018 A 
HETATM    5  C   UNL     1      -5.535  -0.001 -33.574  1.00  0.00    -0.023 A 
HETATM    6  C   UNL     1      -5.426   1.312 -33.009  1.00  0.00     0.073 A 
HETATM    7  C   UNL     1      -4.266   1.462 -32.289  1.00  0.00     0.088 A 
HETATM    8  N   UNL     1      -3.959   2.579 -31.601  1.00  0.00    -0.357 N 
HETATM    9  C   UNL     1      -4.679   3.809 -31.868  1.00  0.00     0.243 C 
HETATM   10  N   UNL     1      -6.000   3.538 -32.382  1.00  0.00    -0.330 N 
HETATM   11  C   UNL     1      -6.365   2.414 -33.065  1.00  0.00     0.256 C 
HETATM   12  O   UNL     1      -7.434   2.343 -33.662  1.00  0.00    -0.267 OA
HETATM   13  S   UNL     1      -3.284   0.074 -32.331  1.00  0.00    -0.074 SA
HETATM   14  C   UNL     1      -6.685  -0.558 -34.357  1.00  0.00     0.068 C 
HETATM   15  C   UNL     1      -6.329  -1.898 -35.025  1.00  0.00     0.240 C 
HETATM   16  H   UNL     1      -2.998   2.733 -31.304  1.00  0.00     0.162 HD
HETATM   17  H   UNL     1      -6.645   4.312 -32.451  1.00  0.00     0.165 HD
ENDROOT
BRANCH   9  18
HETATM   18  C   UNL     1      -3.958   4.768 -32.760  1.00  0.00     0.095 A 
HETATM   19  O   UNL     1      -3.217   5.722 -32.116  1.00  0.00    -0.313 OA
HETATM   20  C   UNL     1      -2.634   6.503 -33.070  1.00  0.00     0.077 A 
HETATM   21  C   UNL     1      -2.998   6.060 -34.324  1.00  0.00     0.037 A 
HETATM   22  C   UNL     1      -3.844   4.942 -34.126  1.00  0.00     0.039 A 
BRANCH  20  23
HETATM   23  C   UNL     1      -1.774   7.618 -32.588  1.00  0.00     0.240 C 
BRANCH  23  24
HETATM   24  O   UNL     1      -0.452   7.091 -32.494  1.00  0.00    -0.345 OA
BRANCH  24  25
HETATM   25  C   UNL     1      -0.027   6.682 -31.261  1.00  0.00     0.070 A 
HETATM   26  C   UNL     1       0.267   7.506 -30.173  1.00  0.00     0.052 A 
HETATM   27  C   UNL     1       0.696   6.954 -28.950  1.00  0.00     0.050 A 
HETATM   28  C   UNL     1       0.828   5.561 -28.838  1.00  0.00     0.016 A 
HETATM   29  C   UNL     1       0.537   4.737 -29.922  1.00  0.00     0.004 A 
HETATM   30  C   UNL     1       0.112   5.299 -31.126  1.00  0.00     0.037 A 
BRANCH  27  31
HETATM   31  C   UNL     1       1.014   7.833 -27.766  1.00  0.00     0.417 C 
HETATM   32  F   UNL     1       1.535   7.149 -26.709  1.00  0.00    -0.166 F 
HETATM   33  F   UNL     1       1.924   8.802 -28.066  1.00  0.00    -0.166 F 
HETATM   34  F   UNL     1      -0.083   8.482 -27.288  1.00  0.00    -0.166 F 
ENDBRANCH  27  31
ENDBRANCH  24  25
ENDBRANCH  23  24
ENDBRANCH  20  23
ENDBRANCH   9  18
BRANCH   1  35
HETATM   35  C   UNL     1      -5.457  -4.220 -34.594  1.00  0.00     0.231 C 
HETATM   36  C   UNL     1      -6.657  -4.587 -35.447  1.00  0.00     0.034 C 
ENDBRANCH   1  35
TORSDOF 6
ENDMDL
MODEL 3
REMARK VINA RESULT:      -9.7      4.764      9.751
REMARK  6 active torsions:
REMARK  status: ('A' for Active; 'I' for Inactive)
REMARK    1  A    between atoms: C_2  and  N_3 
REMARK    2  A    between atoms: C_11  and  C_12 
REMARK    3  A    between atoms: C_14  and  C_15 
REMARK    4  A    between atoms: C_15  and  O_16 
REMARK    5  A    between atoms: O_16  and  C_17 
REMARK    6  A    between atoms: C_19  and  C_20 
ROOT
HETATM    1  N   UNL     1      -6.431  -2.518 -34.250  1.00  0.00    -0.067 N 
HETATM    2  H   UNL     1      -6.974  -2.528 -33.377  1.00  0.00     0.280 HD
HETATM    3  C   UNL     1      -4.967  -2.378 -33.833  1.00  0.00     0.281 C 
HETATM    4  C   UNL     1      -4.728  -1.036 -33.232  1.00  0.00     0.018 A 
HETATM    5  C   UNL     1      -5.560   0.059 -33.372  1.00  0.00    -0.023 A 
HETATM    6  C   UNL     1      -5.067   1.181 -32.630  1.00  0.00     0.073 A 
HETATM    7  C   UNL     1      -3.902   0.881 -31.966  1.00  0.00     0.088 A 
HETATM    8  N   UNL     1      -3.275   1.743 -31.142  1.00  0.00    -0.357 N 
HETATM    9  C   UNL     1      -3.611   3.153 -31.185  1.00  0.00     0.243 C 
HETATM   10  N   UNL     1      -4.961   3.353 -31.653  1.00  0.00    -0.330 N 
HETATM   11  C   UNL     1      -5.647   2.500 -32.469  1.00  0.00     0.256 C 
HETATM   12  O   UNL     1      -6.700   2.830 -33.005  1.00  0.00    -0.267 OA
HETATM   13  S   UNL     1      -3.366  -0.704 -32.267  1.00  0.00    -0.074 SA
HETATM   14  C   UNL     1      -6.834  -0.018 -34.157  1.00  0.00     0.068 C 
HETATM   15  C   UNL     1      -6.892  -1.283 -35.033  1.00  0.00     0.240 C 
HETATM   16  H   UNL     1      -2.306   1.569 -30.883  1.00  0.00     0.162 HD
HETATM   17  H   UNL     1      -5.355   4.278 -31.570  1.00  0.00     0.165 HD
ENDROOT
BRANCH   9  18
HETATM   18  C   UNL     1      -2.656   3.995 -31.969  1.00  0.00     0.095 A 
HETATM   19  O   UNL     1      -1.771   4.726 -31.223  1.00  0.00    -0.313 OA
HETATM   20  C   UNL     1      -0.985   5.428 -32.088  1.00  0.00     0.077 A 
HETATM   21  C   UNL     1      -1.360   5.155 -33.388  1.00  0.00     0.037 A 
HETATM   22  C   UNL     1      -2.430   4.230 -33.312  1.00  0.00     0.039 A 
BRANCH  20  23
HETATM   23  C   UNL     1       0.058   6.301 -31.486  1.00  0.00     0.240 C 
BRANCH  23  24
HETATM   24  O   UNL     1      -0.637   7.289 -30.727  1.00  0.00    -0.345 OA
BRANCH  24  25
HETATM   25  C   UNL     1      -0.465   7.270 -29.371  1.00  0.00     0.070 A 
HETATM   26  C   UNL     1      -1.421   6.904 -28.422  1.00  0.00     0.052 A 
HETATM   27  C   UNL     1      -1.113   6.927 -27.048  1.00  0.00     0.050 A 
HETATM   28  C   UNL     1       0.169   7.327 -26.641  1.00  0.00     0.016 A 
HETATM   29  C   UNL     1       1.124   7.696 -27.586  1.00  0.00     0.004 A 
HETATM   30  C   UNL     1       0.805   7.666 -28.942  1.00  0.00     0.037 A 
BRANCH  27  31
HETATM   31  C   UNL     1      -2.137   6.530 -26.012  1.00  0.00     0.417 C 
HETATM   32  F   UNL     1      -3.391   6.374 -26.522  1.00  0.00    -0.166 F 
HETATM   33  F   UNL     1      -1.833   5.350 -25.405  1.00  0.00    -0.166 F 
HETATM   34  F   UNL     1      -2.251   7.449 -25.014  1.00  0.00    -0.166 F 
ENDBRANCH  27  31
ENDBRANCH  24  25
ENDBRANCH  23  24
ENDBRANCH  20  23
ENDBRANCH   9  18
BRANCH   1  35
HETATM   35  C   UNL     1      -6.725  -3.795 -34.996  1.00  0.00     0.231 C 
HETATM   36  C   UNL     1      -5.543  -4.745 -34.941  1.00  0.00     0.034 C 
ENDBRANCH   1  35
TORSDOF 6
ENDMDL
MODEL 4
REMARK VINA RESULT:      -9.7      1.794      2.414
REMARK  6 active torsions:
REMARK  status: ('A' for Active; 'I' for Inactive)
REMARK    1  A    between atoms: C_2  and  N_3 
REMARK    2  A    between atoms: C_11  and  C_12 
REMARK    3  A    between atoms: C_14  and  C_15 
REMARK    4  A    between atoms: C_15  and  O_16 
REMARK    5  A    between atoms: O_16  and  C_17 
REMARK    6  A    between atoms: C_19  and  C_20 
ROOT
HETATM    1  N   UNL     1       0.495   8.847 -27.544  1.00  0.00    -0.067 N 
HETATM    2  H   UNL     1       1.027   9.338 -28.274  1.00  0.00     0.280 HD
HETATM    3  C   UNL     1       0.693   7.355 -27.811  1.00  0.00     0.281 C 
HETATM    4  C   UNL     1       0.023   6.966 -29.084  1.00  0.00     0.018 A 
HETATM    5  C   UNL     1      -0.950   7.706 -29.731  1.00  0.00    -0.023 A 
HETATM    6  C   UNL     1      -1.352   7.076 -30.953  1.00  0.00     0.073 A 
HETATM    7  C   UNL     1      -0.666   5.906 -31.173  1.00  0.00     0.088 A 
HETATM    8  N   UNL     1      -0.809   5.160 -32.286  1.00  0.00    -0.357 N 
HETATM    9  C   UNL     1      -1.951   5.374 -33.154  1.00  0.00     0.243 C 
HETATM   10  N   UNL     1      -2.443   6.726 -33.043  1.00  0.00    -0.330 N 
HETATM   11  C   UNL     1      -2.304   7.529 -31.947  1.00  0.00     0.256 C 
HETATM   12  O   UNL     1      -2.931   8.577 -31.834  1.00  0.00    -0.267 OA
HETATM   13  S   UNL     1       0.407   5.528 -29.909  1.00  0.00    -0.074 SA
HETATM   14  C   UNL     1      -1.419   9.025 -29.194  1.00  0.00     0.068 C 
HETATM   15  C   UNL     1      -0.974   9.242 -27.736  1.00  0.00     0.240 C 
HETATM   16  H   UNL     1      -0.480   4.197 -32.286  1.00  0.00     0.162 HD
HETATM   17  H   UNL     1      -3.130   7.032 -33.716  1.00  0.00     0.165 HD
ENDROOT
BRANCH   9  18
HETATM   18  C   UNL     1      -3.065   4.396 -32.964  1.00  0.00     0.095 A 
HETATM   19  O   UNL     1      -2.676   3.114 -32.679  1.00  0.00    -0.313 OA
HETATM   20  C   UNL     1      -3.805   2.363 -32.541  1.00  0.00     0.077 A 
HETATM   21  C   UNL     1      -4.920   3.152 -32.737  1.00  0.00     0.037 A 
HETATM   22  C   UNL     1      -4.445   4.460 -33.004  1.00  0.00     0.039 A 
BRANCH  20  23
HETATM   23  C   UNL     1      -3.615   0.921 -32.227  1.00  0.00     0.240 C 
BRANCH  23  24
HETATM   24  O   UNL     1      -4.907   0.320 -32.310  1.00  0.00    -0.345 OA
BRANCH  24  25
HETATM   25  C   UNL     1      -5.018  -0.824 -33.049  1.00  0.00     0.070 A 
HETATM   26  C   UNL     1      -4.258  -1.985 -32.896  1.00  0.00     0.052 A 
HETATM   27  C   UNL     1      -4.476  -3.100 -33.727  1.00  0.00     0.050 A 
HETATM   28  C   UNL     1      -5.467  -3.031 -34.719  1.00  0.00     0.016 A 
HETATM   29  C   UNL     1      -6.225  -1.873 -34.875  1.00  0.00     0.004 A 
HETATM   30  C   UNL     1      -5.999  -0.778 -34.043  1.00  0.00     0.037 A 
BRANCH  27  31
HETATM   31  C   UNL     1      -3.663  -4.362 -33.570  1.00  0.00     0.417 C 
HETATM   32  F   UNL     1      -4.426  -5.482 -33.426  1.00  0.00    -0.166 F 
HETATM   33  F   UNL     1      -2.854  -4.598 -34.640  1.00  0.00    -0.166 F 
HETATM   34  F   UNL     1      -2.847  -4.324 -32.481  1.00  0.00    -0.166 F 
ENDBRANCH  27  31
ENDBRANCH  24  25
ENDBRANCH  23  24
ENDBRANCH  20  23
ENDBRANCH   9  18
BRANCH   1  35
HETATM   35  C   UNL     1       1.022   9.292 -26.203  1.00  0.00     0.231 C 
HETATM   36  C   UNL     1       1.919   8.234 -25.589  1.00  0.00     0.034 C 
ENDBRANCH   1  35
TORSDOF 6
ENDMDL
MODEL 5
REMARK VINA RESULT:      -9.6      3.368      5.547
REMARK  6 active torsions:
REMARK  status: ('A' for Active; 'I' for Inactive)
REMARK    1  A    between atoms: C_2  and  N_3 
REMARK    2  A    between atoms: C_11  and  C_12 
REMARK    3  A    between atoms: C_14  and  C_15 
REMARK    4  A    between atoms: C_15  and  O_16 
REMARK    5  A    between atoms: O_16  and  C_17 
REMARK    6  A    between atoms: C_19  and  C_20 
ROOT
HETATM    1  N   UNL     1      -2.198   6.056 -31.470  1.00  0.00    -0.067 N 
HETATM    2  H   UNL     1      -2.268   6.054 -30.444  1.00  0.00     0.280 HD
HETATM    3  C   UNL     1      -3.529   6.605 -31.981  1.00  0.00     0.281 C 
HETATM    4  C   UNL     1      -4.630   5.646 -31.685  1.00  0.00     0.018 A 
HETATM    5  C   UNL     1      -4.460   4.311 -31.366  1.00  0.00    -0.023 A 
HETATM    6  C   UNL     1      -5.716   3.680 -31.092  1.00  0.00     0.073 A 
HETATM    7  C   UNL     1      -6.765   4.560 -31.211  1.00  0.00     0.088 A 
HETATM    8  N   UNL     1      -8.043   4.232 -30.938  1.00  0.00    -0.357 N 
HETATM    9  C   UNL     1      -8.422   2.835 -30.838  1.00  0.00     0.243 C 
HETATM   10  N   UNL     1      -7.298   2.018 -30.449  1.00  0.00    -0.330 N 
HETATM   11  C   UNL     1      -5.987   2.316 -30.682  1.00  0.00     0.256 C 
HETATM   12  O   UNL     1      -5.100   1.484 -30.526  1.00  0.00    -0.267 OA
HETATM   13  S   UNL     1      -6.268   6.111 -31.699  1.00  0.00    -0.074 SA
HETATM   14  C   UNL     1      -3.096   3.696 -31.267  1.00  0.00     0.068 C 
HETATM   15  C   UNL     1      -2.015   4.594 -31.895  1.00  0.00     0.240 C 
HETATM   16  H   UNL     1      -8.794   4.828 -31.280  1.00  0.00     0.162 HD
HETATM   17  H   UNL     1      -7.483   1.059 -30.193  1.00  0.00     0.165 HD
ENDROOT
BRANCH   9  18
HETATM   18  C   UNL     1      -9.072   2.281 -32.065  1.00  0.00     0.095 A 
HETATM   19  O   UNL     1      -8.250   1.560 -32.889  1.00  0.00    -0.313 OA
HETATM   20  C   UNL     1      -8.997   1.135 -33.947  1.00  0.00     0.077 A 
HETATM   21  C   UNL     1     -10.296   1.579 -33.811  1.00  0.00     0.037 A 
HETATM   22  C   UNL     1     -10.347   2.311 -32.599  1.00  0.00     0.039 A 
BRANCH  20  23
HETATM   23  C   UNL     1      -8.296   0.326 -34.979  1.00  0.00     0.240 C 
BRANCH  23  24
HETATM   24  O   UNL     1      -6.899   0.514 -34.754  1.00  0.00    -0.345 OA
BRANCH  24  25
HETATM   25  C   UNL     1      -6.156  -0.598 -34.473  1.00  0.00     0.070 A 
HETATM   26  C   UNL     1      -6.453  -1.908 -34.850  1.00  0.00     0.052 A 
HETATM   27  C   UNL     1      -5.597  -2.969 -34.495  1.00  0.00     0.050 A 
HETATM   28  C   UNL     1      -4.438  -2.693 -33.752  1.00  0.00     0.016 A 
HETATM   29  C   UNL     1      -4.141  -1.386 -33.372  1.00  0.00     0.004 A 
HETATM   30  C   UNL     1      -4.997  -0.347 -33.733  1.00  0.00     0.037 A 
BRANCH  27  31
HETATM   31  C   UNL     1      -5.905  -4.390 -34.899  1.00  0.00     0.417 C 
HETATM   32  F   UNL     1      -7.000  -4.905 -34.272  1.00  0.00    -0.166 F 
HETATM   33  F   UNL     1      -6.150  -4.510 -36.233  1.00  0.00    -0.166 F 
HETATM   34  F   UNL     1      -4.881  -5.244 -34.625  1.00  0.00    -0.166 F 
ENDBRANCH  27  31
ENDBRANCH  24  25
ENDBRANCH  23  24
ENDBRANCH  20  23
ENDBRANCH   9  18
BRANCH   1  35
HETATM   35  C   UNL     1      -1.011   6.902 -31.854  1.00  0.00     0.231 C 
HETATM   36  C   UNL     1       0.262   6.386 -31.208  1.00  0.00     0.034 C 
ENDBRANCH   1  35
TORSDOF 6
ENDMDL
MODEL 6
REMARK VINA RESULT:      -9.5      4.862      9.230
REMARK  6 active torsions:
REMARK  status: ('A' for Active; 'I' for Inactive)
REMARK    1  A    between atoms: C_2  and  N_3 
REMARK    2  A    between atoms: C_11  and  C_12 
REMARK    3  A    between atoms: C_14  and  C_15 
REMARK    4  A    between atoms: C_15  and  O_16 
REMARK    5  A    between atoms: O_16  and  C_17 
REMARK    6  A    between atoms: C_19  and  C_20 
ROOT
HETATM    1  N   UNL     1      -5.960  -2.281 -33.923  1.00  0.00    -0.067 N 
HETATM    2  H   UNL     1      -6.526  -2.809 -33.246  1.00  0.00     0.280 HD
HETATM    3  C   UNL     1      -4.972  -1.459 -33.095  1.00  0.00     0.281 C 
HETATM    4  C   UNL     1      -5.696  -0.412 -32.320  1.00  0.00     0.018 A 
HETATM    5  C   UNL     1      -6.980   0.027 -32.582  1.00  0.00    -0.023 A 
HETATM    6  C   UNL     1      -7.398   1.006 -31.623  1.00  0.00     0.073 A 
HETATM    7  C   UNL     1      -6.421   1.252 -30.687  1.00  0.00     0.088 A 
HETATM    8  N   UNL     1      -6.591   2.080 -29.638  1.00  0.00    -0.357 N 
HETATM    9  C   UNL     1      -7.695   3.021 -29.634  1.00  0.00     0.243 C 
HETATM   10  N   UNL     1      -8.788   2.543 -30.446  1.00  0.00    -0.330 N 
HETATM   11  C   UNL     1      -8.671   1.689 -31.504  1.00  0.00     0.256 C 
HETATM   12  O   UNL     1      -9.599   1.497 -32.283  1.00  0.00    -0.267 OA
HETATM   13  S   UNL     1      -4.998   0.369 -30.978  1.00  0.00    -0.074 SA
HETATM   14  C   UNL     1      -7.794  -0.548 -33.702  1.00  0.00     0.068 C 
HETATM   15  C   UNL     1      -6.928  -1.365 -34.679  1.00  0.00     0.240 C 
HETATM   16  H   UNL     1      -5.774   2.417 -29.132  1.00  0.00     0.162 HD
HETATM   17  H   UNL     1      -9.666   3.037 -30.387  1.00  0.00     0.165 HD
ENDROOT
BRANCH   9  18
HETATM   18  C   UNL     1      -7.322   4.414 -30.027  1.00  0.00     0.095 A 
HETATM   19  O   UNL     1      -6.852   4.557 -31.305  1.00  0.00    -0.313 OA
HETATM   20  C   UNL     1      -6.563   5.876 -31.492  1.00  0.00     0.077 A 
HETATM   21  C   UNL     1      -6.840   6.584 -30.341  1.00  0.00     0.037 A 
HETATM   22  C   UNL     1      -7.333   5.646 -29.400  1.00  0.00     0.039 A 
BRANCH  20  23
HETATM   23  C   UNL     1      -6.030   6.261 -32.826  1.00  0.00     0.240 C 
BRANCH  23  24
HETATM   24  O   UNL     1      -5.277   5.144 -33.295  1.00  0.00    -0.345 OA
BRANCH  24  25
HETATM   25  C   UNL     1      -3.926   5.307 -33.416  1.00  0.00     0.070 A 
HETATM   26  C   UNL     1      -3.025   5.545 -32.376  1.00  0.00     0.052 A 
HETATM   27  C   UNL     1      -1.650   5.693 -32.638  1.00  0.00     0.050 A 
HETATM   28  C   UNL     1      -1.192   5.601 -33.962  1.00  0.00     0.016 A 
HETATM   29  C   UNL     1      -2.088   5.366 -35.001  1.00  0.00     0.004 A 
HETATM   30  C   UNL     1      -3.447   5.220 -34.726  1.00  0.00     0.037 A 
BRANCH  27  31
HETATM   31  C   UNL     1      -0.666   5.949 -31.523  1.00  0.00     0.417 C 
HETATM   32  F   UNL     1      -1.250   6.410 -30.381  1.00  0.00    -0.166 F 
HETATM   33  F   UNL     1       0.017   4.827 -31.164  1.00  0.00    -0.166 F 
HETATM   34  F   UNL     1       0.276   6.872 -31.860  1.00  0.00    -0.166 F 
ENDBRANCH  27  31
ENDBRANCH  24  25
ENDBRANCH  23  24
ENDBRANCH  20  23
ENDBRANCH   9  18
BRANCH   1  35
HETATM   35  C   UNL     1      -5.293  -3.271 -34.844  1.00  0.00     0.231 C 
HETATM   36  C   UNL     1      -6.284  -4.305 -35.345  1.00  0.00     0.034 C 
ENDBRANCH   1  35
TORSDOF 6
ENDMDL
MODEL 7
REMARK VINA RESULT:      -9.5      5.560     10.130
REMARK  6 active torsions:
REMARK  status: ('A' for Active; 'I' for Inactive)
REMARK    1  A    between atoms: C_2  and  N_3 
REMARK    2  A    between atoms: C_11  and  C_12 
REMARK    3  A    between atoms: C_14  and  C_15 
REMARK    4  A    between atoms: C_15  and  O_16 
REMARK    5  A    between atoms: O_16  and  C_17 
REMARK    6  A    between atoms: C_19  and  C_20 
ROOT
HETATM    1  N   UNL     1      -6.042  -2.311 -34.056  1.00  0.00    -0.067 N 
HETATM    2  H   UNL     1      -6.646  -2.822 -33.398  1.00  0.00     0.280 HD
HETATM    3  C   UNL     1      -5.007  -1.584 -33.198  1.00  0.00     0.281 C 
HETATM    4  C   UNL     1      -5.663  -0.517 -32.392  1.00  0.00     0.018 A 
HETATM    5  C   UNL     1      -6.914   0.016 -32.643  1.00  0.00    -0.023 A 
HETATM    6  C   UNL     1      -7.270   0.989 -31.653  1.00  0.00     0.073 A 
HETATM    7  C   UNL     1      -6.284   1.138 -30.708  1.00  0.00     0.088 A 
HETATM    8  N   UNL     1      -6.403   1.941 -29.632  1.00  0.00    -0.357 N 
HETATM    9  C   UNL     1      -7.443   2.953 -29.601  1.00  0.00     0.243 C 
HETATM   10  N   UNL     1      -8.561   2.575 -30.431  1.00  0.00    -0.330 N 
HETATM   11  C   UNL     1      -8.496   1.750 -31.516  1.00  0.00     0.256 C 
HETATM   12  O   UNL     1      -9.431   1.646 -32.303  1.00  0.00    -0.267 OA
HETATM   13  S   UNL     1      -4.921   0.173 -31.024  1.00  0.00    -0.074 SA
HETATM   14  C   UNL     1      -7.758  -0.468 -33.783  1.00  0.00     0.068 C 
HETATM   15  C   UNL     1      -6.944  -1.308 -34.784  1.00  0.00     0.240 C 
HETATM   16  H   UNL     1      -5.569   2.207 -29.114  1.00  0.00     0.162 HD
HETATM   17  H   UNL     1      -9.405   3.125 -30.359  1.00  0.00     0.165 HD
ENDROOT
BRANCH   9  18
HETATM   18  C   UNL     1      -6.976   4.330 -29.947  1.00  0.00     0.095 A 
HETATM   19  O   UNL     1      -5.696   4.412 -30.427  1.00  0.00    -0.313 OA
HETATM   20  C   UNL     1      -5.438   5.725 -30.687  1.00  0.00     0.077 A 
HETATM   21  C   UNL     1      -6.542   6.491 -30.374  1.00  0.00     0.037 A 
HETATM   22  C   UNL     1      -7.533   5.594 -29.904  1.00  0.00     0.039 A 
BRANCH  20  23
HETATM   23  C   UNL     1      -4.088   6.048 -31.222  1.00  0.00     0.240 C 
BRANCH  23  24
HETATM   24  O   UNL     1      -3.512   6.987 -30.315  1.00  0.00    -0.345 OA
BRANCH  24  25
HETATM   25  C   UNL     1      -2.148   7.042 -30.254  1.00  0.00     0.070 A 
HETATM   26  C   UNL     1      -1.384   7.414 -29.145  1.00  0.00     0.052 A 
HETATM   27  C   UNL     1       0.022   7.427 -29.215  1.00  0.00     0.050 A 
HETATM   28  C   UNL     1       0.651   7.063 -30.416  1.00  0.00     0.016 A 
HETATM   29  C   UNL     1      -0.108   6.693 -31.523  1.00  0.00     0.004 A 
HETATM   30  C   UNL     1      -1.500   6.684 -31.439  1.00  0.00     0.037 A 
BRANCH  27  31
HETATM   31  C   UNL     1       0.859   7.824 -28.023  1.00  0.00     0.417 C 
HETATM   32  F   UNL     1       1.909   8.631 -28.345  1.00  0.00    -0.166 F 
HETATM   33  F   UNL     1       0.141   8.503 -27.086  1.00  0.00    -0.166 F 
HETATM   34  F   UNL     1       1.396   6.750 -27.382  1.00  0.00    -0.166 F 
ENDBRANCH  27  31
ENDBRANCH  24  25
ENDBRANCH  23  24
ENDBRANCH  20  23
ENDBRANCH   9  18
BRANCH   1  35
HETATM   35  C   UNL     1      -5.438  -3.313 -35.007  1.00  0.00     0.231 C 
HETATM   36  C   UNL     1      -6.414  -4.434 -35.313  1.00  0.00     0.034 C 
ENDBRANCH   1  35
TORSDOF 6
ENDMDL
MODEL 8
REMARK VINA RESULT:      -9.2      1.647      2.086
REMARK  6 active torsions:
REMARK  status: ('A' for Active; 'I' for Inactive)
REMARK    1  A    between atoms: C_2  and  N_3 
REMARK    2  A    between atoms: C_11  and  C_12 
REMARK    3  A    between atoms: C_14  and  C_15 
REMARK    4  A    between atoms: C_15  and  O_16 
REMARK    5  A    between atoms: O_16  and  C_17 
REMARK    6  A    between atoms: C_19  and  C_20 
ROOT
HETATM    1  N   UNL     1      -1.237   9.257 -25.867  1.00  0.00    -0.067 N 
HETATM    2  H   UNL     1      -0.554   9.926 -26.244  1.00  0.00     0.280 HD
HETATM    3  C   UNL     1      -0.691   7.868 -26.196  1.00  0.00     0.281 C 
HETATM    4  C   UNL     1      -0.719   7.639 -27.668  1.00  0.00     0.018 A 
HETATM    5  C   UNL     1      -1.468   8.368 -28.573  1.00  0.00    -0.023 A 
HETATM    6  C   UNL     1      -1.233   7.924 -29.915  1.00  0.00     0.073 A 
HETATM    7  C   UNL     1      -0.323   6.896 -29.960  1.00  0.00     0.088 A 
HETATM    8  N   UNL     1       0.122   6.348 -31.108  1.00  0.00    -0.357 N 
HETATM    9  C   UNL     1      -0.599   6.583 -32.344  1.00  0.00     0.243 C 
HETATM   10  N   UNL     1      -1.323   7.831 -32.295  1.00  0.00    -0.330 N 
HETATM   11  C   UNL     1      -1.775   8.436 -31.158  1.00  0.00     0.256 C 
HETATM   12  O   UNL     1      -2.567   9.371 -31.199  1.00  0.00    -0.267 OA
HETATM   13  S   UNL     1       0.207   6.421 -28.415  1.00  0.00    -0.074 SA
HETATM   14  C   UNL     1      -2.335   9.510 -28.135  1.00  0.00     0.068 C 
HETATM   15  C   UNL     1      -2.552   9.513 -26.611  1.00  0.00     0.240 C 
HETATM   16  H   UNL     1       0.587   5.443 -31.080  1.00  0.00     0.162 HD
HETATM   17  H   UNL     1      -1.727   8.172 -33.154  1.00  0.00     0.165 HD
ENDROOT
BRANCH   9  18
HETATM   18  C   UNL     1      -1.506   5.468 -32.754  1.00  0.00     0.095 A 
HETATM   19  O   UNL     1      -1.940   4.662 -31.736  1.00  0.00    -0.313 OA
HETATM   20  C   UNL     1      -2.747   3.708 -32.283  1.00  0.00     0.077 A 
HETATM   21  C   UNL     1      -2.833   3.894 -33.647  1.00  0.00     0.037 A 
HETATM   22  C   UNL     1      -2.041   5.028 -33.950  1.00  0.00     0.039 A 
BRANCH  20  23
HETATM   23  C   UNL     1      -3.334   2.713 -31.346  1.00  0.00     0.240 C 
BRANCH  23  24
HETATM   24  O   UNL     1      -4.511   2.214 -31.979  1.00  0.00    -0.345 OA
BRANCH  24  25
HETATM   25  C   UNL     1      -4.502   0.906 -32.377  1.00  0.00     0.070 A 
HETATM   26  C   UNL     1      -5.387   0.310 -33.277  1.00  0.00     0.052 A 
HETATM   27  C   UNL     1      -5.265  -1.055 -33.605  1.00  0.00     0.050 A 
HETATM   28  C   UNL     1      -4.242  -1.812 -33.013  1.00  0.00     0.016 A 
HETATM   29  C   UNL     1      -3.359  -1.219 -32.114  1.00  0.00     0.004 A 
HETATM   30  C   UNL     1      -3.491   0.133 -31.800  1.00  0.00     0.037 A 
BRANCH  27  31
HETATM   31  C   UNL     1      -6.214  -1.711 -34.578  1.00  0.00     0.417 C 
HETATM   32  F   UNL     1      -5.614  -2.639 -35.375  1.00  0.00    -0.166 F 
HETATM   33  F   UNL     1      -7.233  -2.362 -33.952  1.00  0.00    -0.166 F 
HETATM   34  F   UNL     1      -6.798  -0.817 -35.420  1.00  0.00    -0.166 F 
ENDBRANCH  27  31
ENDBRANCH  24  25
ENDBRANCH  23  24
ENDBRANCH  20  23
ENDBRANCH   9  18
BRANCH   1  35
HETATM   35  C   UNL     1      -1.374   9.513 -24.387  1.00  0.00     0.231 C 
HETATM   36  C   UNL     1      -2.584   8.797 -23.817  1.00  0.00     0.034 C 
ENDBRANCH   1  35
TORSDOF 6
ENDMDL
MODEL 9
REMARK VINA RESULT:      -9.0     18.418     20.012
REMARK  6 active torsions:
REMARK  status: ('A' for Active; 'I' for Inactive)
REMARK    1  A    between atoms: C_2  and  N_3 
REMARK    2  A    between atoms: C_11  and  C_12 
REMARK    3  A    between atoms: C_14  and  C_15 
REMARK    4  A    between atoms: C_15  and  O_16 
REMARK    5  A    between atoms: O_16  and  C_17 
REMARK    6  A    between atoms: C_19  and  C_20 
ROOT
HETATM    1  N   UNL     1      -4.837 -14.559 -33.440  1.00  0.00    -0.067 N 
HETATM    2  H   UNL     1      -3.930 -14.206 -33.108  1.00  0.00     0.280 HD
HETATM    3  C   UNL     1      -4.523 -15.787 -34.295  1.00  0.00     0.281 C 
HETATM    4  C   UNL     1      -3.805 -15.381 -35.536  1.00  0.00     0.018 A 
HETATM    5  C   UNL     1      -3.766 -14.098 -36.050  1.00  0.00    -0.023 A 
HETATM    6  C   UNL     1      -2.952 -14.037 -37.227  1.00  0.00     0.073 A 
HETATM    7  C   UNL     1      -2.414 -15.263 -37.539  1.00  0.00     0.088 A 
HETATM    8  N   UNL     1      -1.557 -15.459 -38.559  1.00  0.00    -0.357 N 
HETATM    9  C   UNL     1      -1.426 -14.450 -39.594  1.00  0.00     0.243 C 
HETATM   10  N   UNL     1      -1.766 -13.141 -39.090  1.00  0.00    -0.330 N 
HETATM   11  C   UNL     1      -2.611 -12.892 -38.048  1.00  0.00     0.256 C 
HETATM   12  O   UNL     1      -3.027 -11.762 -37.812  1.00  0.00    -0.267 OA
HETATM   13  S   UNL     1      -2.919 -16.490 -36.475  1.00  0.00    -0.074 SA
HETATM   14  C   UNL     1      -4.455 -12.956 -35.364  1.00  0.00     0.068 C 
HETATM   15  C   UNL     1      -5.450 -13.445 -34.297  1.00  0.00     0.240 C 
HETATM   16  H   UNL     1      -1.393 -16.405 -38.898  1.00  0.00     0.162 HD
HETATM   17  H   UNL     1      -1.557 -12.345 -39.675  1.00  0.00     0.165 HD
ENDROOT
BRANCH   9  18
HETATM   18  C   UNL     1      -2.190 -14.744 -40.845  1.00  0.00     0.095 A 
HETATM   19  O   UNL     1      -3.430 -14.168 -40.922  1.00  0.00    -0.313 OA
HETATM   20  C   UNL     1      -3.981 -14.537 -42.113  1.00  0.00     0.077 A 
HETATM   21  C   UNL     1      -3.105 -15.349 -42.803  1.00  0.00     0.037 A 
HETATM   22  C   UNL     1      -1.952 -15.478 -41.991  1.00  0.00     0.039 A 
BRANCH  20  23
HETATM   23  C   UNL     1      -5.344 -14.019 -42.409  1.00  0.00     0.240 C 
BRANCH  23  24
HETATM   24  O   UNL     1      -5.466 -12.786 -41.701  1.00  0.00    -0.345 OA
BRANCH  24  25
HETATM   25  C   UNL     1      -6.429 -12.712 -40.734  1.00  0.00     0.070 A 
HETATM   26  C   UNL     1      -7.810 -12.733 -40.939  1.00  0.00     0.052 A 
HETATM   27  C   UNL     1      -8.698 -12.651 -39.850  1.00  0.00     0.050 A 
HETATM   28  C   UNL     1      -8.179 -12.544 -38.550  1.00  0.00     0.016 A 
HETATM   29  C   UNL     1      -6.801 -12.521 -38.343  1.00  0.00     0.004 A 
HETATM   30  C   UNL     1      -5.935 -12.605 -39.432  1.00  0.00     0.037 A 
BRANCH  27  31
HETATM   31  C   UNL     1     -10.193 -12.675 -40.058  1.00  0.00     0.417 C 
HETATM   32  F   UNL     1     -10.601 -13.635 -40.934  1.00  0.00    -0.166 F 
HETATM   33  F   UNL     1     -10.875 -12.910 -38.903  1.00  0.00    -0.166 F 
HETATM   34  F   UNL     1     -10.670 -11.497 -40.545  1.00  0.00    -0.166 F 
ENDBRANCH  27  31
ENDBRANCH  24  25
ENDBRANCH  23  24
ENDBRANCH  20  23
ENDBRANCH   9  18
BRANCH   1  35
HETATM   35  C   UNL     1      -5.687 -14.868 -32.234  1.00  0.00     0.231 C 
HETATM   36  C   UNL     1      -7.018 -15.472 -32.642  1.00  0.00     0.034 C 
ENDBRANCH   1  35
TORSDOF 6
ENDMDL
MODEL 10
REMARK VINA RESULT:      -8.7      5.846      9.328
REMARK  6 active torsions:
REMARK  status: ('A' for Active; 'I' for Inactive)
REMARK    1  A    between atoms: C_2  and  N_3 
REMARK    2  A    between atoms: C_11  and  C_12 
REMARK    3  A    between atoms: C_14  and  C_15 
REMARK    4  A    between atoms: C_15  and  O_16 
REMARK    5  A    between atoms: O_16  and  C_17 
REMARK    6  A    between atoms: C_19  and  C_20 
ROOT
HETATM    1  N   UNL     1      -4.701  -2.807 -34.348  1.00  0.00    -0.067 N 
HETATM    2  H   UNL     1      -4.136  -2.333 -35.065  1.00  0.00     0.280 HD
HETATM    3  C   UNL     1      -6.119  -2.256 -34.498  1.00  0.00     0.281 C 
HETATM    4  C   UNL     1      -6.157  -0.818 -34.110  1.00  0.00     0.018 A 
HETATM    5  C   UNL     1      -5.191  -0.169 -33.363  1.00  0.00    -0.023 A 
HETATM    6  C   UNL     1      -5.506   1.220 -33.207  1.00  0.00     0.073 A 
HETATM    7  C   UNL     1      -6.678   1.552 -33.842  1.00  0.00     0.088 A 
HETATM    8  N   UNL     1      -7.158   2.810 -33.905  1.00  0.00    -0.357 N 
HETATM    9  C   UNL     1      -6.638   3.824 -33.008  1.00  0.00     0.243 C 
HETATM   10  N   UNL     1      -5.289   3.514 -32.599  1.00  0.00    -0.330 N 
HETATM   11  C   UNL     1      -4.750   2.262 -32.540  1.00  0.00     0.256 C 
HETATM   12  O   UNL     1      -3.681   2.047 -31.979  1.00  0.00    -0.267 OA
HETATM   13  S   UNL     1      -7.431   0.213 -34.571  1.00  0.00    -0.074 SA
HETATM   14  C   UNL     1      -3.965  -0.880 -32.877  1.00  0.00     0.068 C 
HETATM   15  C   UNL     1      -4.105  -2.409 -32.993  1.00  0.00     0.240 C 
HETATM   16  H   UNL     1      -8.132   2.959 -34.158  1.00  0.00     0.162 HD
HETATM   17  H   UNL     1      -4.773   4.228 -32.106  1.00  0.00     0.165 HD
ENDROOT
BRANCH   9  18
HETATM   18  C   UNL     1      -7.497   4.095 -31.815  1.00  0.00     0.095 A 
HETATM   19  O   UNL     1      -8.799   4.415 -32.091  1.00  0.00    -0.313 OA
HETATM   20  C   UNL     1      -9.431   4.629 -30.902  1.00  0.00     0.077 A 
HETATM   21  C   UNL     1      -8.543   4.452 -29.861  1.00  0.00     0.037 A 
HETATM   22  C   UNL     1      -7.301   4.103 -30.447  1.00  0.00     0.039 A 
BRANCH  20  23
HETATM   23  C   UNL     1     -10.871   4.995 -30.967  1.00  0.00     0.240 C 
BRANCH  23  24
HETATM   24  O   UNL     1     -11.306   4.677 -32.289  1.00  0.00    -0.345 OA
BRANCH  24  25
HETATM   25  C   UNL     1     -12.357   3.812 -32.410  1.00  0.00     0.070 A 
HETATM   26  C   UNL     1     -12.410   2.687 -33.236  1.00  0.00     0.052 A 
HETATM   27  C   UNL     1     -13.560   1.874 -33.266  1.00  0.00     0.050 A 
HETATM   28  C   UNL     1     -14.656   2.208 -32.456  1.00  0.00     0.016 A 
HETATM   29  C   UNL     1     -14.606   3.330 -31.633  1.00  0.00     0.004 A 
HETATM   30  C   UNL     1     -13.460   4.125 -31.613  1.00  0.00     0.037 A 
BRANCH  27  31
HETATM   31  C   UNL     1     -13.629   0.654 -34.153  1.00  0.00     0.417 C 
HETATM   32  F   UNL     1     -12.862   0.756 -35.274  1.00  0.00    -0.166 F 
HETATM   33  F   UNL     1     -13.212  -0.476 -33.517  1.00  0.00    -0.166 F 
HETATM   34  F   UNL     1     -14.893   0.397 -34.587  1.00  0.00    -0.166 F 
ENDBRANCH  27  31
ENDBRANCH  24  25
ENDBRANCH  23  24
ENDBRANCH  20  23
ENDBRANCH   9  18
BRANCH   1  35
HETATM   35  C   UNL     1      -4.605  -4.293 -34.586  1.00  0.00     0.231 C 
HETATM   36  C   UNL     1      -5.950  -4.871 -34.986  1.00  0.00     0.034 C 
ENDBRANCH   1  35
TORSDOF 6
ENDMDL
