MODEL 1
REMARK VINA RESULT:     -10.5      0.000      0.000
REMARK  7 active torsions:
REMARK  status: ('A' for Active; 'I' for Inactive)
REMARK    1  A    between atoms: C_3  and  O_4 
REMARK    2  A    between atoms: C_9  and  N_10 
REMARK    3  A    between atoms: C_13  and  C_14 
REMARK       I    between atoms: C_14  and  N_15 
REMARK    4  A    between atoms: N_15  and  C_16 
REMARK    5  A    between atoms: C_16  and  C_17 
REMARK    6  A    between atoms: C_17  and  N_18 
REMARK       I    between atoms: N_18  and  C_19 
REMARK    7  A    between atoms: C_19  and  C_20 
ROOT
HETATM    1  N   UNL     1      -5.564   1.161 -32.505  1.00  0.00    -0.268 NA
HETATM    2  C   UNL     1      -6.611   1.968 -33.149  1.00  0.00     0.098 C 
HETATM    3  C   UNL     1      -6.802   3.271 -32.374  1.00  0.00     0.029 C 
HETATM    4  C   UNL     1      -5.491   4.053 -32.238  1.00  0.00     0.080 C 
HETATM    5  C   UNL     1      -4.394   3.147 -31.666  1.00  0.00     0.029 C 
HETATM    6  C   UNL     1      -4.256   1.833 -32.441  1.00  0.00     0.098 C 
ENDROOT
BRANCH   4   7
HETATM    7  C   UNL     1      -5.052   4.696 -33.554  1.00  0.00     0.221 C 
HETATM    8  N   UNL     1      -3.693   4.695 -33.758  1.00  0.00    -0.359 N 
HETATM    9  H   UNL     1      -3.063   4.365 -33.041  1.00  0.00     0.162 HD
HETATM   10  O   UNL     1      -5.840   5.142 -34.382  1.00  0.00    -0.273 OA
BRANCH   8  11
HETATM   11  C   UNL     1      -3.102   5.269 -34.956  1.00  0.00     0.142 C 
BRANCH  11  12
HETATM   12  C   UNL     1      -1.588   5.485 -34.829  1.00  0.00     0.142 C 
BRANCH  12  13
HETATM   13  N   UNL     1      -1.157   5.862 -33.490  1.00  0.00    -0.355 N 
HETATM   14  C   UNL     1      -1.274   7.162 -33.046  1.00  0.00     0.251 C 
HETATM   15  O   UNL     1      -1.634   8.084 -33.771  1.00  0.00    -0.268 OA
HETATM   16  H   UNL     1      -1.047   5.109 -32.823  1.00  0.00     0.162 HD
BRANCH  14  17
HETATM   17  C   UNL     1      -0.972   7.424 -31.609  1.00  0.00     0.033 A 
HETATM   18  C   UNL     1      -1.794   8.213 -30.795  1.00  0.00     0.036 A 
HETATM   19  C   UNL     1      -1.445   8.417 -29.458  1.00  0.00     0.012 A 
HETATM   20 BR   UNL     1      -2.547   9.494 -28.359  1.00  0.00    -0.051 Br
HETATM   21  C   UNL     1      -0.296   7.838 -28.921  1.00  0.00     0.019 A 
HETATM   22  C   UNL     1       0.516   7.040 -29.724  1.00  0.00     0.002 A 
HETATM   23  C   UNL     1       0.177   6.832 -31.062  1.00  0.00     0.017 A 
ENDBRANCH  14  17
ENDBRANCH  12  13
ENDBRANCH  11  12
ENDBRANCH   8  11
ENDBRANCH   4   7
BRANCH   1  24
HETATM   24  C   UNL     1      -5.489  -0.141 -33.053  1.00  0.00     0.106 A 
HETATM   25  N   UNL     1      -4.584  -1.021 -32.568  1.00  0.00    -0.233 NA
HETATM   26  C   UNL     1      -4.474  -2.261 -33.098  1.00  0.00     0.102 A 
HETATM   27  C   UNL     1      -3.536  -3.187 -32.617  1.00  0.00     0.095 A 
HETATM   28  C   UNL     1      -5.293  -2.677 -34.166  1.00  0.00    -0.004 A 
HETATM   29  C   UNL     1      -3.409  -4.473 -33.153  1.00  0.00     0.039 A 
HETATM   30  C   UNL     1      -4.234  -4.864 -34.202  1.00  0.00     0.004 A 
HETATM   31  C   UNL     1      -5.173  -3.970 -34.708  1.00  0.00     0.014 A 
HETATM   32  C   UNL     1      -6.217  -1.765 -34.676  1.00  0.00     0.017 A 
HETATM   33  C   UNL     1      -6.305  -0.491 -34.124  1.00  0.00     0.045 A 
BRANCH  27  34
HETATM   34  O   UNL     1      -2.707  -2.820 -31.580  1.00  0.00    -0.358 OA
HETATM   35  H   UNL     1      -2.379  -1.922 -31.739  1.00  0.00     0.218 HD
ENDBRANCH  27  34
ENDBRANCH   1  24
TORSDOF 7
ENDMDL
MODEL 2
REMARK VINA RESULT:     -10.0      1.317      1.824
REMARK  7 active torsions:
REMARK  status: ('A' for Active; 'I' for Inactive)
REMARK    1  A    between atoms: C_3  and  O_4 
REMARK    2  A    between atoms: C_9  and  N_10 
REMARK    3  A    between atoms: C_13  and  C_14 
REMARK       I    between atoms: C_14  and  N_15 
REMARK    4  A    between atoms: N_15  and  C_16 
REMARK    5  A    between atoms: C_16  and  C_17 
REMARK    6  A    between atoms: C_17  and  N_18 
REMARK       I    between atoms: N_18  and  C_19 
REMARK    7  A    between atoms: C_19  and  C_20 
ROOT
HETATM    1  N   UNL     1      -4.866   1.164 -31.956  1.00  0.00    -0.268 NA
HETATM    2  C   UNL     1      -6.024   1.625 -32.737  1.00  0.00     0.098 C 
HETATM    3  C   UNL     1      -6.515   2.962 -32.185  1.00  0.00     0.029 C 
HETATM    4  C   UNL     1      -5.400   4.013 -32.157  1.00  0.00     0.080 C 
HETATM    5  C   UNL     1      -4.169   3.456 -31.430  1.00  0.00     0.029 C 
HETATM    6  C   UNL     1      -3.728   2.097 -31.981  1.00  0.00     0.098 C 
ENDROOT
BRANCH   4   7
HETATM    7  C   UNL     1      -5.038   4.523 -33.552  1.00  0.00     0.221 C 
HETATM    8  N   UNL     1      -3.694   4.740 -33.744  1.00  0.00    -0.359 N 
HETATM    9  H   UNL     1      -3.040   4.641 -32.980  1.00  0.00     0.162 HD
HETATM   10  O   UNL     1      -5.864   4.690 -34.443  1.00  0.00    -0.273 OA
BRANCH   8  11
HETATM   11  C   UNL     1      -3.174   5.228 -35.012  1.00  0.00     0.142 C 
BRANCH  11  12
HETATM   12  C   UNL     1      -1.651   5.414 -34.999  1.00  0.00     0.142 C 
BRANCH  12  13
HETATM   13  N   UNL     1      -1.073   5.455 -33.662  1.00  0.00    -0.355 N 
HETATM   14  C   UNL     1      -0.959   6.645 -32.974  1.00  0.00     0.251 C 
HETATM   15  O   UNL     1      -1.225   7.733 -33.476  1.00  0.00    -0.268 OA
HETATM   16  H   UNL     1      -1.033   4.578 -33.162  1.00  0.00     0.162 HD
BRANCH  14  17
HETATM   17  C   UNL     1      -0.519   6.573 -31.551  1.00  0.00     0.033 A 
HETATM   18  C   UNL     1      -0.788   7.586 -30.623  1.00  0.00     0.036 A 
HETATM   19  C   UNL     1      -0.341   7.450 -29.307  1.00  0.00     0.012 A 
HETATM   20 BR   UNL     1      -0.692   8.824 -28.055  1.00  0.00    -0.051 Br
HETATM   21  C   UNL     1       0.360   6.315 -28.902  1.00  0.00     0.019 A 
HETATM   22  C   UNL     1       0.616   5.297 -29.819  1.00  0.00     0.002 A 
HETATM   23  C   UNL     1       0.175   5.425 -31.137  1.00  0.00     0.017 A 
ENDBRANCH  14  17
ENDBRANCH  12  13
ENDBRANCH  11  12
ENDBRANCH   8  11
ENDBRANCH   4   7
BRANCH   1  24
HETATM   24  C   UNL     1      -4.500  -0.162 -32.287  1.00  0.00     0.106 A 
HETATM   25  N   UNL     1      -5.223  -0.849 -33.198  1.00  0.00    -0.233 NA
HETATM   26  C   UNL     1      -4.909  -2.129 -33.507  1.00  0.00     0.102 A 
HETATM   27  C   UNL     1      -5.651  -2.864 -34.444  1.00  0.00     0.095 A 
HETATM   28  C   UNL     1      -3.823  -2.785 -32.895  1.00  0.00    -0.004 A 
HETATM   29  C   UNL     1      -5.339  -4.187 -34.774  1.00  0.00     0.039 A 
HETATM   30  C   UNL     1      -4.258  -4.812 -34.163  1.00  0.00     0.004 A 
HETATM   31  C   UNL     1      -3.502  -4.114 -33.225  1.00  0.00     0.014 A 
HETATM   32  C   UNL     1      -3.084  -2.081 -31.944  1.00  0.00     0.017 A 
HETATM   33  C   UNL     1      -3.433  -0.770 -31.632  1.00  0.00     0.045 A 
BRANCH  27  34
HETATM   34  O   UNL     1      -6.728  -2.266 -35.061  1.00  0.00    -0.358 OA
HETATM   35  H   UNL     1      -7.342  -2.953 -35.359  1.00  0.00     0.218 HD
ENDBRANCH  27  34
ENDBRANCH   1  24
TORSDOF 7
ENDMDL
MODEL 3
REMARK VINA RESULT:      -9.6      3.712      9.810
REMARK  7 active torsions:
REMARK  status: ('A' for Active; 'I' for Inactive)
REMARK    1  A    between atoms: C_3  and  O_4 
REMARK    2  A    between atoms: C_9  and  N_10 
REMARK    3  A    between atoms: C_13  and  C_14 
REMARK       I    between atoms: C_14  and  N_15 
REMARK    4  A    between atoms: N_15  and  C_16 
REMARK    5  A    between atoms: C_16  and  C_17 
REMARK    6  A    between atoms: C_17  and  N_18 
REMARK       I    between atoms: N_18  and  C_19 
REMARK    7  A    between atoms: C_19  and  C_20 
ROOT
HETATM    1  N   UNL     1      -2.459   5.864 -31.834  1.00  0.00    -0.268 NA
HETATM    2  C   UNL     1      -3.843   6.206 -31.474  1.00  0.00     0.098 C 
HETATM    3  C   UNL     1      -4.778   5.829 -32.622  1.00  0.00     0.029 C 
HETATM    4  C   UNL     1      -4.645   4.352 -33.006  1.00  0.00     0.080 C 
HETATM    5  C   UNL     1      -3.172   4.006 -33.267  1.00  0.00     0.029 C 
HETATM    6  C   UNL     1      -2.258   4.433 -32.115  1.00  0.00     0.098 C 
ENDROOT
BRANCH   4   7
HETATM    7  C   UNL     1      -5.260   3.416 -31.966  1.00  0.00     0.221 C 
HETATM    8  N   UNL     1      -6.554   3.725 -31.621  1.00  0.00    -0.359 N 
HETATM    9  H   UNL     1      -7.000   4.557 -31.982  1.00  0.00     0.162 HD
HETATM   10  O   UNL     1      -4.671   2.445 -31.501  1.00  0.00    -0.273 OA
BRANCH   8  11
HETATM   11  C   UNL     1      -7.291   2.941 -30.644  1.00  0.00     0.142 C 
BRANCH  11  12
HETATM   12  C   UNL     1      -8.167   1.857 -31.287  1.00  0.00     0.142 C 
BRANCH  12  13
HETATM   13  N   UNL     1      -7.419   0.702 -31.765  1.00  0.00    -0.355 N 
HETATM   14  C   UNL     1      -7.352   0.406 -33.111  1.00  0.00     0.251 C 
HETATM   15  O   UNL     1      -7.996   1.016 -33.959  1.00  0.00    -0.268 OA
HETATM   16  H   UNL     1      -6.736   0.313 -31.129  1.00  0.00     0.162 HD
BRANCH  14  17
HETATM   17  C   UNL     1      -6.426  -0.687 -33.526  1.00  0.00     0.033 A 
HETATM   18  C   UNL     1      -6.871  -1.860 -34.148  1.00  0.00     0.036 A 
HETATM   19  C   UNL     1      -5.945  -2.842 -34.505  1.00  0.00     0.012 A 
HETATM   20 BR   UNL     1      -6.545  -4.433 -35.334  1.00  0.00    -0.051 Br
HETATM   21  C   UNL     1      -4.584  -2.666 -34.261  1.00  0.00     0.019 A 
HETATM   22  C   UNL     1      -4.136  -1.494 -33.656  1.00  0.00     0.002 A 
HETATM   23  C   UNL     1      -5.054  -0.507 -33.293  1.00  0.00     0.017 A 
ENDBRANCH  14  17
ENDBRANCH  12  13
ENDBRANCH  11  12
ENDBRANCH   8  11
ENDBRANCH   4   7
BRANCH   1  24
HETATM   24  C   UNL     1      -1.528   6.378 -30.900  1.00  0.00     0.106 A 
HETATM   25  N   UNL     1      -1.867   6.465 -29.595  1.00  0.00    -0.233 NA
HETATM   26  C   UNL     1      -1.004   6.981 -28.689  1.00  0.00     0.102 A 
HETATM   27  C   UNL     1      -1.338   7.089 -27.331  1.00  0.00     0.095 A 
HETATM   28  C   UNL     1       0.271   7.442 -29.072  1.00  0.00    -0.004 A 
HETATM   29  C   UNL     1      -0.458   7.621 -26.382  1.00  0.00     0.039 A 
HETATM   30  C   UNL     1       0.799   8.062 -26.782  1.00  0.00     0.004 A 
HETATM   31  C   UNL     1       1.163   7.974 -28.123  1.00  0.00     0.014 A 
HETATM   32  C   UNL     1       0.618   7.365 -30.421  1.00  0.00     0.017 A 
HETATM   33  C   UNL     1      -0.291   6.842 -31.337  1.00  0.00     0.045 A 
BRANCH  27  34
HETATM   34  O   UNL     1      -2.579   6.661 -26.912  1.00  0.00    -0.358 OA
HETATM   35  H   UNL     1      -3.133   6.488 -27.688  1.00  0.00     0.218 HD
ENDBRANCH  27  34
ENDBRANCH   1  24
TORSDOF 7
ENDMDL
MODEL 4
REMARK VINA RESULT:      -9.2      4.462      6.906
REMARK  7 active torsions:
REMARK  status: ('A' for Active; 'I' for Inactive)
REMARK    1  A    between atoms: C_3  and  O_4 
REMARK    2  A    between atoms: C_9  and  N_10 
REMARK    3  A    between atoms: C_13  and  C_14 
REMARK       I    between atoms: C_14  and  N_15 
REMARK    4  A    between atoms: N_15  and  C_16 
REMARK    5  A    between atoms: C_16  and  C_17 
REMARK    6  A    between atoms: C_17  and  N_18 
REMARK       I    between atoms: N_18  and  C_19 
REMARK    7  A    between atoms: C_19  and  C_20 
ROOT
HETATM    1  N   UNL     1      -4.791   1.208 -31.615  1.00  0.00    -0.268 NA
HETATM    2  C   UNL     1      -5.850   1.287 -30.599  1.00  0.00     0.098 C 
HETATM    3  C   UNL     1      -5.577   2.466 -29.666  1.00  0.00     0.029 C 
HETATM    4  C   UNL     1      -5.435   3.784 -30.435  1.00  0.00     0.080 C 
HETATM    5  C   UNL     1      -4.401   3.629 -31.558  1.00  0.00     0.029 C 
HETATM    6  C   UNL     1      -4.681   2.416 -32.450  1.00  0.00     0.098 C 
ENDROOT
BRANCH   4   7
HETATM    7  C   UNL     1      -6.770   4.295 -30.975  1.00  0.00     0.221 C 
HETATM    8  N   UNL     1      -6.662   5.371 -31.824  1.00  0.00    -0.359 N 
HETATM    9  H   UNL     1      -5.768   5.812 -31.988  1.00  0.00     0.162 HD
HETATM   10  O   UNL     1      -7.848   3.773 -30.711  1.00  0.00    -0.273 OA
BRANCH   8  11
HETATM   11  C   UNL     1      -7.834   5.986 -32.427  1.00  0.00     0.142 C 
BRANCH  11  12
HETATM   12  C   UNL     1      -8.175   5.396 -33.802  1.00  0.00     0.142 C 
BRANCH  12  13
HETATM   13  N   UNL     1      -9.132   4.299 -33.751  1.00  0.00    -0.355 N 
HETATM   14  C   UNL     1      -8.721   2.991 -33.905  1.00  0.00     0.251 C 
HETATM   15  O   UNL     1      -7.570   2.685 -34.201  1.00  0.00    -0.268 OA
HETATM   16  H   UNL     1     -10.025   4.499 -33.322  1.00  0.00     0.162 HD
BRANCH  14  17
HETATM   17  C   UNL     1      -9.734   1.923 -33.666  1.00  0.00     0.033 A 
HETATM   18  C   UNL     1     -11.067   2.037 -34.080  1.00  0.00     0.036 A 
HETATM   19  C   UNL     1     -11.960   0.997 -33.818  1.00  0.00     0.012 A 
HETATM   20 BR   UNL     1     -13.764   1.155 -34.366  1.00  0.00    -0.051 Br
HETATM   21  C   UNL     1     -11.541  -0.158 -33.159  1.00  0.00     0.019 A 
HETATM   22  C   UNL     1     -10.213  -0.282 -32.759  1.00  0.00     0.002 A 
HETATM   23  C   UNL     1      -9.313   0.753 -33.014  1.00  0.00     0.017 A 
ENDBRANCH  14  17
ENDBRANCH  12  13
ENDBRANCH  11  12
ENDBRANCH   8  11
ENDBRANCH   4   7
BRANCH   1  24
HETATM   24  C   UNL     1      -4.877   0.018 -32.377  1.00  0.00     0.106 A 
HETATM   25  N   UNL     1      -4.114  -1.046 -32.045  1.00  0.00    -0.233 NA
HETATM   26  C   UNL     1      -4.157  -2.183 -32.778  1.00  0.00     0.102 A 
HETATM   27  C   UNL     1      -3.367  -3.297 -32.457  1.00  0.00     0.095 A 
HETATM   28  C   UNL     1      -4.996  -2.297 -33.904  1.00  0.00    -0.004 A 
HETATM   29  C   UNL     1      -3.401  -4.480 -33.204  1.00  0.00     0.039 A 
HETATM   30  C   UNL     1      -4.242  -4.572 -34.306  1.00  0.00     0.004 A 
HETATM   31  C   UNL     1      -5.038  -3.485 -34.657  1.00  0.00     0.014 A 
HETATM   32  C   UNL     1      -5.775  -1.194 -34.255  1.00  0.00     0.017 A 
HETATM   33  C   UNL     1      -5.704  -0.030 -33.495  1.00  0.00     0.045 A 
BRANCH  27  34
HETATM   34  O   UNL     1      -2.524  -3.227 -31.370  1.00  0.00    -0.358 OA
HETATM   35  H   UNL     1      -2.825  -2.520 -30.780  1.00  0.00     0.218 HD
ENDBRANCH  27  34
ENDBRANCH   1  24
TORSDOF 7
ENDMDL
MODEL 5
REMARK VINA RESULT:      -9.2      3.610     10.164
REMARK  7 active torsions:
REMARK  status: ('A' for Active; 'I' for Inactive)
REMARK    1  A    between atoms: C_3  and  O_4 
REMARK    2  A    between atoms: C_9  and  N_10 
REMARK    3  A    between atoms: C_13  and  C_14 
REMARK       I    between atoms: C_14  and  N_15 
REMARK    4  A    between atoms: N_15  and  C_16 
REMARK    5  A    between atoms: C_16  and  C_17 
REMARK    6  A    between atoms: C_17  and  N_18 
REMARK       I    between atoms: N_18  and  C_19 
REMARK    7  A    between atoms: C_19  and  C_20 
ROOT
HETATM    1  N   UNL     1      -1.577   6.162 -31.472  1.00  0.00    -0.268 NA
HETATM    2  C   UNL     1      -1.512   6.587 -32.879  1.00  0.00     0.098 C 
HETATM    3  C   UNL     1      -1.364   5.360 -33.777  1.00  0.00     0.029 C 
HETATM    4  C   UNL     1      -2.488   4.344 -33.548  1.00  0.00     0.080 C 
HETATM    5  C   UNL     1      -2.598   4.009 -32.055  1.00  0.00     0.029 C 
HETATM    6  C   UNL     1      -2.704   5.261 -31.179  1.00  0.00     0.098 C 
ENDROOT
BRANCH   4   7
HETATM    7  C   UNL     1      -3.828   4.814 -34.113  1.00  0.00     0.221 C 
HETATM    8  N   UNL     1      -4.927   4.298 -33.466  1.00  0.00    -0.359 N 
HETATM    9  H   UNL     1      -4.820   3.605 -32.739  1.00  0.00     0.162 HD
HETATM   10  O   UNL     1      -3.927   5.613 -35.039  1.00  0.00    -0.273 OA
BRANCH   8  11
HETATM   11  C   UNL     1      -6.280   4.637 -33.875  1.00  0.00     0.142 C 
BRANCH  11  12
HETATM   12  C   UNL     1      -7.205   3.414 -33.948  1.00  0.00     0.142 C 
BRANCH  12  13
HETATM   13  N   UNL     1      -6.513   2.142 -33.789  1.00  0.00    -0.355 N 
HETATM   14  C   UNL     1      -7.125   0.953 -34.128  1.00  0.00     0.251 C 
HETATM   15  O   UNL     1      -8.302   0.884 -34.468  1.00  0.00    -0.268 OA
HETATM   16  H   UNL     1      -5.506   2.184 -33.705  1.00  0.00     0.162 HD
BRANCH  14  17
HETATM   17  C   UNL     1      -6.287  -0.280 -34.098  1.00  0.00     0.033 A 
HETATM   18  C   UNL     1      -6.737  -1.513 -34.586  1.00  0.00     0.036 A 
HETATM   19  C   UNL     1      -5.897  -2.626 -34.522  1.00  0.00     0.012 A 
HETATM   20 BR   UNL     1      -6.509  -4.295 -35.170  1.00  0.00    -0.051 Br
HETATM   21  C   UNL     1      -4.613  -2.525 -33.988  1.00  0.00     0.019 A 
HETATM   22  C   UNL     1      -4.156  -1.297 -33.515  1.00  0.00     0.002 A 
HETATM   23  C   UNL     1      -4.989  -0.178 -33.573  1.00  0.00     0.017 A 
ENDBRANCH  14  17
ENDBRANCH  12  13
ENDBRANCH  11  12
ENDBRANCH   8  11
ENDBRANCH   4   7
BRANCH   1  24
HETATM   24  C   UNL     1      -1.505   7.261 -30.584  1.00  0.00     0.106 A 
HETATM   25  N   UNL     1      -0.625   7.238 -29.559  1.00  0.00    -0.233 NA
HETATM   26  C   UNL     1      -0.560   8.264 -28.680  1.00  0.00     0.102 A 
HETATM   27  C   UNL     1       0.340   8.257 -27.604  1.00  0.00     0.095 A 
HETATM   28  C   UNL     1      -1.402   9.387 -28.802  1.00  0.00    -0.004 A 
HETATM   29  C   UNL     1       0.420   9.310 -26.686  1.00  0.00     0.039 A 
HETATM   30  C   UNL     1      -0.416  10.412 -26.831  1.00  0.00     0.004 A 
HETATM   31  C   UNL     1      -1.325  10.451 -27.885  1.00  0.00     0.014 A 
HETATM   32  C   UNL     1      -2.321   9.406 -29.851  1.00  0.00     0.017 A 
HETATM   33  C   UNL     1      -2.379   8.334 -30.736  1.00  0.00     0.045 A 
BRANCH  27  34
HETATM   34  O   UNL     1       1.177   7.175 -27.440  1.00  0.00    -0.358 OA
HETATM   35  H   UNL     1       0.641   6.375 -27.329  1.00  0.00     0.218 HD
ENDBRANCH  27  34
ENDBRANCH   1  24
TORSDOF 7
ENDMDL
MODEL 6
REMARK VINA RESULT:      -9.2      1.859      2.255
REMARK  7 active torsions:
REMARK  status: ('A' for Active; 'I' for Inactive)
REMARK    1  A    between atoms: C_3  and  O_4 
REMARK    2  A    between atoms: C_9  and  N_10 
REMARK    3  A    between atoms: C_13  and  C_14 
REMARK       I    between atoms: C_14  and  N_15 
REMARK    4  A    between atoms: N_15  and  C_16 
REMARK    5  A    between atoms: C_16  and  C_17 
REMARK    6  A    between atoms: C_17  and  N_18 
REMARK       I    between atoms: N_18  and  C_19 
REMARK    7  A    between atoms: C_19  and  C_20 
ROOT
HETATM    1  N   UNL     1      -5.929   0.963 -32.367  1.00  0.00    -0.268 NA
HETATM    2  C   UNL     1      -5.524   2.064 -33.254  1.00  0.00     0.098 C 
HETATM    3  C   UNL     1      -5.667   3.394 -32.515  1.00  0.00     0.029 C 
HETATM    4  C   UNL     1      -4.876   3.408 -31.203  1.00  0.00     0.080 C 
HETATM    5  C   UNL     1      -5.244   2.184 -30.354  1.00  0.00     0.029 C 
HETATM    6  C   UNL     1      -5.129   0.872 -31.135  1.00  0.00     0.098 C 
ENDROOT
BRANCH   4   7
HETATM    7  C   UNL     1      -3.366   3.494 -31.428  1.00  0.00     0.221 C 
HETATM    8  N   UNL     1      -2.934   4.709 -31.905  1.00  0.00    -0.359 N 
HETATM    9  H   UNL     1      -3.595   5.431 -32.154  1.00  0.00     0.162 HD
HETATM   10  O   UNL     1      -2.593   2.577 -31.172  1.00  0.00    -0.273 OA
BRANCH   8  11
HETATM   11  C   UNL     1      -1.529   4.964 -32.179  1.00  0.00     0.142 C 
BRANCH  11  12
HETATM   12  C   UNL     1      -1.225   6.453 -32.397  1.00  0.00     0.142 C 
BRANCH  12  13
HETATM   13  N   UNL     1      -0.623   7.106 -31.242  1.00  0.00    -0.355 N 
HETATM   14  C   UNL     1      -1.389   7.479 -30.157  1.00  0.00     0.251 C 
HETATM   15  O   UNL     1      -2.613   7.389 -30.144  1.00  0.00    -0.268 OA
HETATM   16  H   UNL     1       0.379   7.014 -31.143  1.00  0.00     0.162 HD
BRANCH  14  17
HETATM   17  C   UNL     1      -0.669   7.982 -28.952  1.00  0.00     0.033 A 
HETATM   18  C   UNL     1      -1.330   8.558 -27.861  1.00  0.00     0.036 A 
HETATM   19  C   UNL     1      -0.588   9.010 -26.767  1.00  0.00     0.012 A 
HETATM   20 BR   UNL     1      -1.479   9.800 -25.297  1.00  0.00    -0.051 Br
HETATM   21  C   UNL     1       0.800   8.884 -26.742  1.00  0.00     0.019 A 
HETATM   22  C   UNL     1       1.460   8.298 -27.820  1.00  0.00     0.002 A 
HETATM   23  C   UNL     1       0.728   7.845 -28.919  1.00  0.00     0.017 A 
ENDBRANCH  14  17
ENDBRANCH  12  13
ENDBRANCH  11  12
ENDBRANCH   8  11
ENDBRANCH   4   7
BRANCH   1  24
HETATM   24  C   UNL     1      -6.016  -0.268 -33.060  1.00  0.00     0.106 A 
HETATM   25  N   UNL     1      -5.076  -1.218 -32.858  1.00  0.00    -0.233 NA
HETATM   26  C   UNL     1      -5.122  -2.390 -33.532  1.00  0.00     0.102 A 
HETATM   27  C   UNL     1      -4.153  -3.386 -33.345  1.00  0.00     0.095 A 
HETATM   28  C   UNL     1      -6.145  -2.661 -34.462  1.00  0.00    -0.004 A 
HETATM   29  C   UNL     1      -4.186  -4.604 -34.034  1.00  0.00     0.039 A 
HETATM   30  C   UNL     1      -5.210  -4.852 -34.940  1.00  0.00     0.004 A 
HETATM   31  C   UNL     1      -6.187  -3.884 -35.156  1.00  0.00     0.014 A 
HETATM   32  C   UNL     1      -7.108  -1.676 -34.681  1.00  0.00     0.017 A 
HETATM   33  C   UNL     1      -7.034  -0.472 -33.986  1.00  0.00     0.045 A 
BRANCH  27  34
HETATM   34  O   UNL     1      -3.127  -3.162 -32.453  1.00  0.00    -0.358 OA
HETATM   35  H   UNL     1      -2.607  -3.973 -32.357  1.00  0.00     0.218 HD
ENDBRANCH  27  34
ENDBRANCH   1  24
TORSDOF 7
ENDMDL
MODEL 7
REMARK VINA RESULT:      -9.1      4.403      6.884
REMARK  7 active torsions:
REMARK  status: ('A' for Active; 'I' for Inactive)
REMARK    1  A    between atoms: C_3  and  O_4 
REMARK    2  A    between atoms: C_9  and  N_10 
REMARK    3  A    between atoms: C_13  and  C_14 
REMARK       I    between atoms: C_14  and  N_15 
REMARK    4  A    between atoms: N_15  and  C_16 
REMARK    5  A    between atoms: C_16  and  C_17 
REMARK    6  A    between atoms: C_17  and  N_18 
REMARK       I    between atoms: N_18  and  C_19 
REMARK    7  A    between atoms: C_19  and  C_20 
ROOT
HETATM    1  N   UNL     1      -4.789   1.011 -33.061  1.00  0.00    -0.268 NA
HETATM    2  C   UNL     1      -4.281   0.828 -31.693  1.00  0.00     0.098 C 
HETATM    3  C   UNL     1      -3.531   2.083 -31.254  1.00  0.00     0.029 C 
HETATM    4  C   UNL     1      -4.401   3.340 -31.368  1.00  0.00     0.080 C 
HETATM    5  C   UNL     1      -5.003   3.437 -32.776  1.00  0.00     0.029 C 
HETATM    6  C   UNL     1      -5.713   2.148 -33.201  1.00  0.00     0.098 C 
ENDROOT
BRANCH   4   7
HETATM    7  C   UNL     1      -5.487   3.401 -30.294  1.00  0.00     0.221 C 
HETATM    8  N   UNL     1      -6.281   4.522 -30.355  1.00  0.00    -0.359 N 
HETATM    9  H   UNL     1      -6.081   5.261 -31.014  1.00  0.00     0.162 HD
HETATM   10  O   UNL     1      -5.669   2.513 -29.468  1.00  0.00    -0.273 OA
BRANCH   8  11
HETATM   11  C   UNL     1      -7.361   4.743 -29.408  1.00  0.00     0.142 C 
BRANCH  11  12
HETATM   12  C   UNL     1      -8.563   5.465 -30.032  1.00  0.00     0.142 C 
BRANCH  12  13
HETATM   13  N   UNL     1      -9.443   4.590 -30.796  1.00  0.00    -0.355 N 
HETATM   14  C   UNL     1      -9.178   4.295 -32.118  1.00  0.00     0.251 C 
HETATM   15  O   UNL     1      -8.271   4.827 -32.750  1.00  0.00    -0.268 OA
HETATM   16  H   UNL     1     -10.064   3.998 -30.262  1.00  0.00     0.162 HD
BRANCH  14  17
HETATM   17  C   UNL     1     -10.029   3.259 -32.771  1.00  0.00     0.033 A 
HETATM   18  C   UNL     1     -11.423   3.235 -32.645  1.00  0.00     0.036 A 
HETATM   19  C   UNL     1     -12.154   2.230 -33.283  1.00  0.00     0.012 A 
HETATM   20 BR   UNL     1     -14.037   2.189 -33.103  1.00  0.00    -0.051 Br
HETATM   21  C   UNL     1     -11.516   1.259 -34.052  1.00  0.00     0.019 A 
HETATM   22  C   UNL     1     -10.130   1.289 -34.192  1.00  0.00     0.002 A 
HETATM   23  C   UNL     1      -9.390   2.287 -33.557  1.00  0.00     0.017 A 
ENDBRANCH  14  17
ENDBRANCH  12  13
ENDBRANCH  11  12
ENDBRANCH   8  11
ENDBRANCH   4   7
BRANCH   1  24
HETATM   24  C   UNL     1      -5.311  -0.191 -33.596  1.00  0.00     0.106 A 
HETATM   25  N   UNL     1      -4.627  -1.346 -33.440  1.00  0.00    -0.233 NA
HETATM   26  C   UNL     1      -5.092  -2.502 -33.970  1.00  0.00     0.102 A 
HETATM   27  C   UNL     1      -4.394  -3.710 -33.828  1.00  0.00     0.095 A 
HETATM   28  C   UNL     1      -6.298  -2.541 -34.697  1.00  0.00    -0.004 A 
HETATM   29  C   UNL     1      -4.861  -4.913 -34.369  1.00  0.00     0.039 A 
HETATM   30  C   UNL     1      -6.058  -4.930 -35.076  1.00  0.00     0.004 A 
HETATM   31  C   UNL     1      -6.775  -3.747 -35.241  1.00  0.00     0.014 A 
HETATM   32  C   UNL     1      -6.998  -1.347 -34.870  1.00  0.00     0.017 A 
HETATM   33  C   UNL     1      -6.495  -0.168 -34.327  1.00  0.00     0.045 A 
BRANCH  27  34
HETATM   34  O   UNL     1      -3.204  -3.717 -33.133  1.00  0.00    -0.358 OA
HETATM   35  H   UNL     1      -3.392  -3.722 -32.183  1.00  0.00     0.218 HD
ENDBRANCH  27  34
ENDBRANCH   1  24
TORSDOF 7
ENDMDL
MODEL 8
REMARK VINA RESULT:      -9.1      2.923      5.627
REMARK  7 active torsions:
REMARK  status: ('A' for Active; 'I' for Inactive)
REMARK    1  A    between atoms: C_3  and  O_4 
REMARK    2  A    between atoms: C_9  and  N_10 
REMARK    3  A    between atoms: C_13  and  C_14 
REMARK       I    between atoms: C_14  and  N_15 
REMARK    4  A    between atoms: N_15  and  C_16 
REMARK    5  A    between atoms: C_16  and  C_17 
REMARK    6  A    between atoms: C_17  and  N_18 
REMARK       I    between atoms: N_18  and  C_19 
REMARK    7  A    between atoms: C_19  and  C_20 
ROOT
HETATM    1  N   UNL     1      -2.184   4.456 -32.739  1.00  0.00    -0.268 NA
HETATM    2  C   UNL     1      -1.824   4.839 -31.365  1.00  0.00     0.098 C 
HETATM    3  C   UNL     1      -0.537   5.661 -31.384  1.00  0.00     0.029 C 
HETATM    4  C   UNL     1      -0.653   6.885 -32.298  1.00  0.00     0.080 C 
HETATM    5  C   UNL     1      -1.137   6.459 -33.690  1.00  0.00     0.029 C 
HETATM    6  C   UNL     1      -2.406   5.603 -33.633  1.00  0.00     0.098 C 
ENDROOT
BRANCH   4   7
HETATM    7  C   UNL     1      -1.547   7.976 -31.709  1.00  0.00     0.221 C 
HETATM    8  N   UNL     1      -1.938   7.747 -30.411  1.00  0.00    -0.359 N 
HETATM    9  H   UNL     1      -1.704   6.881 -29.946  1.00  0.00     0.162 HD
HETATM   10  O   UNL     1      -1.864   8.991 -32.320  1.00  0.00    -0.273 OA
BRANCH   8  11
HETATM   11  C   UNL     1      -2.793   8.681 -29.696  1.00  0.00     0.142 C 
BRANCH  11  12
HETATM   12  C   UNL     1      -4.237   8.686 -30.216  1.00  0.00     0.142 C 
BRANCH  12  13
HETATM   13  N   UNL     1      -4.961   7.449 -29.954  1.00  0.00    -0.355 N 
HETATM   14  C   UNL     1      -5.525   6.724 -30.983  1.00  0.00     0.251 C 
HETATM   15  O   UNL     1      -5.549   7.123 -32.143  1.00  0.00    -0.268 OA
HETATM   16  H   UNL     1      -4.789   7.007 -29.061  1.00  0.00     0.162 HD
BRANCH  14  17
HETATM   17  C   UNL     1      -6.095   5.388 -30.646  1.00  0.00     0.033 A 
HETATM   18  C   UNL     1      -7.367   4.980 -31.064  1.00  0.00     0.036 A 
HETATM   19  C   UNL     1      -7.836   3.714 -30.707  1.00  0.00     0.012 A 
HETATM   20 BR   UNL     1      -9.560   3.167 -31.260  1.00  0.00    -0.051 Br
HETATM   21  C   UNL     1      -7.050   2.847 -29.949  1.00  0.00     0.019 A 
HETATM   22  C   UNL     1      -5.777   3.243 -29.545  1.00  0.00     0.002 A 
HETATM   23  C   UNL     1      -5.301   4.507 -29.895  1.00  0.00     0.017 A 
ENDBRANCH  14  17
ENDBRANCH  12  13
ENDBRANCH  11  12
ENDBRANCH   8  11
ENDBRANCH   4   7
BRANCH   1  24
HETATM   24  C   UNL     1      -3.248   3.523 -32.765  1.00  0.00     0.106 A 
HETATM   25  N   UNL     1      -3.094   2.314 -32.181  1.00  0.00    -0.233 NA
HETATM   26  C   UNL     1      -4.086   1.395 -32.221  1.00  0.00     0.102 A 
HETATM   27  C   UNL     1      -3.945   0.132 -31.628  1.00  0.00     0.095 A 
HETATM   28  C   UNL     1      -5.308   1.664 -32.869  1.00  0.00    -0.004 A 
HETATM   29  C   UNL     1      -4.961  -0.830 -31.661  1.00  0.00     0.039 A 
HETATM   30  C   UNL     1      -6.162  -0.539 -32.299  1.00  0.00     0.004 A 
HETATM   31  C   UNL     1      -6.336   0.704 -32.902  1.00  0.00     0.014 A 
HETATM   32  C   UNL     1      -5.463   2.906 -33.484  1.00  0.00     0.017 A 
HETATM   33  C   UNL     1      -4.424   3.832 -33.442  1.00  0.00     0.045 A 
BRANCH  27  34
HETATM   34  O   UNL     1      -2.763  -0.180 -30.992  1.00  0.00    -0.358 OA
HETATM   35  H   UNL     1      -2.921  -0.904 -30.368  1.00  0.00     0.218 HD
ENDBRANCH  27  34
ENDBRANCH   1  24
TORSDOF 7
ENDMDL
MODEL 9
REMARK VINA RESULT:      -9.0      4.271      6.834
REMARK  7 active torsions:
REMARK  status: ('A' for Active; 'I' for Inactive)
REMARK    1  A    between atoms: C_3  and  O_4 
REMARK    2  A    between atoms: C_9  and  N_10 
REMARK    3  A    between atoms: C_13  and  C_14 
REMARK       I    between atoms: C_14  and  N_15 
REMARK    4  A    between atoms: N_15  and  C_16 
REMARK    5  A    between atoms: C_16  and  C_17 
REMARK    6  A    between atoms: C_17  and  N_18 
REMARK       I    between atoms: N_18  and  C_19 
REMARK    7  A    between atoms: C_19  and  C_20 
ROOT
HETATM    1  N   UNL     1      -8.964   0.869 -34.123  1.00  0.00    -0.268 NA
HETATM    2  C   UNL     1      -8.773  -0.447 -33.496  1.00  0.00     0.098 C 
HETATM    3  C   UNL     1      -7.627  -1.182 -34.189  1.00  0.00     0.029 C 
HETATM    4  C   UNL     1      -6.333  -0.362 -34.181  1.00  0.00     0.080 C 
HETATM    5  C   UNL     1      -6.596   1.043 -34.740  1.00  0.00     0.029 C 
HETATM    6  C   UNL     1      -7.776   1.736 -34.051  1.00  0.00     0.098 C 
ENDROOT
BRANCH   4   7
HETATM    7  C   UNL     1      -5.687  -0.297 -32.797  1.00  0.00     0.221 C 
HETATM    8  N   UNL     1      -4.440   0.281 -32.780  1.00  0.00    -0.359 N 
HETATM    9  H   UNL     1      -3.985   0.552 -33.640  1.00  0.00     0.162 HD
HETATM   10  O   UNL     1      -6.242  -0.690 -31.775  1.00  0.00    -0.273 OA
BRANCH   8  11
HETATM   11  C   UNL     1      -3.681   0.421 -31.548  1.00  0.00     0.142 C 
BRANCH  11  12
HETATM   12  C   UNL     1      -3.943   1.754 -30.835  1.00  0.00     0.142 C 
BRANCH  12  13
HETATM   13  N   UNL     1      -3.060   2.832 -31.258  1.00  0.00    -0.355 N 
HETATM   14  C   UNL     1      -3.349   3.590 -32.375  1.00  0.00     0.251 C 
HETATM   15  O   UNL     1      -4.284   3.336 -33.127  1.00  0.00    -0.268 OA
HETATM   16  H   UNL     1      -2.411   3.182 -30.566  1.00  0.00     0.162 HD
BRANCH  14  17
HETATM   17  C   UNL     1      -2.488   4.779 -32.636  1.00  0.00     0.033 A 
HETATM   18  C   UNL     1      -1.509   5.217 -31.736  1.00  0.00     0.036 A 
HETATM   19  C   UNL     1      -0.742   6.342 -32.047  1.00  0.00     0.012 A 
HETATM   20 BR   UNL     1       0.572   6.943 -30.826  1.00  0.00    -0.051 Br
HETATM   21  C   UNL     1      -0.931   7.028 -33.246  1.00  0.00     0.019 A 
HETATM   22  C   UNL     1      -1.894   6.586 -34.151  1.00  0.00     0.002 A 
HETATM   23  C   UNL     1      -2.667   5.464 -33.848  1.00  0.00     0.017 A 
ENDBRANCH  14  17
ENDBRANCH  12  13
ENDBRANCH  11  12
ENDBRANCH   8  11
ENDBRANCH   4   7
BRANCH   1  24
HETATM   24  C   UNL     1     -10.140   1.508 -33.664  1.00  0.00     0.106 A 
HETATM   25  N   UNL     1     -11.332   0.884 -33.784  1.00  0.00    -0.233 NA
HETATM   26  C   UNL     1     -12.473   1.489 -33.380  1.00  0.00     0.102 A 
HETATM   27  C   UNL     1     -13.722   0.862 -33.504  1.00  0.00     0.095 A 
HETATM   28  C   UNL     1     -12.459   2.782 -32.821  1.00  0.00    -0.004 A 
HETATM   29  C   UNL     1     -14.911   1.474 -33.091  1.00  0.00     0.039 A 
HETATM   30  C   UNL     1     -14.872   2.747 -32.534  1.00  0.00     0.004 A 
HETATM   31  C   UNL     1     -13.649   3.401 -32.400  1.00  0.00     0.014 A 
HETATM   32  C   UNL     1     -11.230   3.433 -32.708  1.00  0.00     0.017 A 
HETATM   33  C   UNL     1     -10.070   2.797 -33.143  1.00  0.00     0.045 A 
BRANCH  27  34
HETATM   34  O   UNL     1     -13.786  -0.399 -34.054  1.00  0.00    -0.358 OA
HETATM   35  H   UNL     1     -13.041  -0.925 -33.727  1.00  0.00     0.218 HD
ENDBRANCH  27  34
ENDBRANCH   1  24
TORSDOF 7
ENDMDL
MODEL 10
REMARK VINA RESULT:      -9.0     17.176     19.998
REMARK  7 active torsions:
REMARK  status: ('A' for Active; 'I' for Inactive)
REMARK    1  A    between atoms: C_3  and  O_4 
REMARK    2  A    between atoms: C_9  and  N_10 
REMARK    3  A    between atoms: C_13  and  C_14 
REMARK       I    between atoms: C_14  and  N_15 
REMARK    4  A    between atoms: N_15  and  C_16 
REMARK    5  A    between atoms: C_16  and  C_17 
REMARK    6  A    between atoms: C_17  and  N_18 
REMARK       I    between atoms: N_18  and  C_19 
REMARK    7  A    between atoms: C_19  and  C_20 
ROOT
HETATM    1  N   UNL     1      -2.786 -13.671 -40.298  1.00  0.00    -0.268 NA
HETATM    2  C   UNL     1      -1.827 -13.772 -39.187  1.00  0.00     0.098 C 
HETATM    3  C   UNL     1      -1.908 -12.512 -38.327  1.00  0.00     0.029 C 
HETATM    4  C   UNL     1      -3.331 -12.255 -37.820  1.00  0.00     0.080 C 
HETATM    5  C   UNL     1      -4.318 -12.268 -38.994  1.00  0.00     0.029 C 
HETATM    6  C   UNL     1      -4.184 -13.524 -39.860  1.00  0.00     0.098 C 
ENDROOT
BRANCH   4   7
HETATM    7  C   UNL     1      -3.752 -13.239 -36.729  1.00  0.00     0.221 C 
HETATM    8  N   UNL     1      -4.597 -12.708 -35.783  1.00  0.00    -0.359 N 
HETATM    9  H   UNL     1      -4.831 -11.725 -35.793  1.00  0.00     0.162 HD
HETATM   10  O   UNL     1      -3.403 -14.415 -36.710  1.00  0.00    -0.273 OA
BRANCH   8  11
HETATM   11  C   UNL     1      -5.094 -13.504 -34.672  1.00  0.00     0.142 C 
BRANCH  11  12
HETATM   12  C   UNL     1      -6.624 -13.624 -34.663  1.00  0.00     0.142 C 
BRANCH  12  13
HETATM   13  N   UNL     1      -7.248 -13.315 -35.942  1.00  0.00    -0.355 N 
HETATM   14  C   UNL     1      -7.425 -14.291 -36.900  1.00  0.00     0.251 C 
HETATM   15  O   UNL     1      -6.977 -15.428 -36.784  1.00  0.00    -0.268 OA
HETATM   16  H   UNL     1      -7.790 -12.462 -35.985  1.00  0.00     0.162 HD
BRANCH  14  17
HETATM   17  C   UNL     1      -8.224 -13.929 -38.106  1.00  0.00     0.033 A 
HETATM   18  C   UNL     1      -8.969 -14.868 -38.830  1.00  0.00     0.036 A 
HETATM   19  C   UNL     1      -9.692 -14.456 -39.952  1.00  0.00     0.012 A 
HETATM   20 BR   UNL     1     -10.689 -15.725 -40.938  1.00  0.00    -0.051 Br
HETATM   21  C   UNL     1      -9.689 -13.121 -40.354  1.00  0.00     0.019 A 
HETATM   22  C   UNL     1      -8.961 -12.181 -39.628  1.00  0.00     0.002 A 
HETATM   23  C   UNL     1      -8.234 -12.584 -38.507  1.00  0.00     0.017 A 
ENDBRANCH  14  17
ENDBRANCH  12  13
ENDBRANCH  11  12
ENDBRANCH   8  11
ENDBRANCH   4   7
BRANCH   1  24
HETATM   24  C   UNL     1      -2.612 -14.711 -41.242  1.00  0.00     0.106 A 
HETATM   25  N   UNL     1      -3.120 -14.577 -42.487  1.00  0.00    -0.233 NA
HETATM   26  C   UNL     1      -2.992 -15.570 -43.397  1.00  0.00     0.102 A 
HETATM   27  C   UNL     1      -3.518 -15.456 -44.692  1.00  0.00     0.095 A 
HETATM   28  C   UNL     1      -2.327 -16.771 -43.081  1.00  0.00    -0.004 A 
HETATM   29  C   UNL     1      -3.395 -16.474 -45.644  1.00  0.00     0.039 A 
HETATM   30  C   UNL     1      -2.727 -17.647 -45.312  1.00  0.00     0.004 A 
HETATM   31  C   UNL     1      -2.195 -17.797 -44.034  1.00  0.00     0.014 A 
HETATM   32  C   UNL     1      -1.813 -16.916 -41.792  1.00  0.00     0.017 A 
HETATM   33  C   UNL     1      -1.968 -15.886 -40.868  1.00  0.00     0.045 A 
BRANCH  27  34
HETATM   34  O   UNL     1      -4.186 -14.303 -45.042  1.00  0.00    -0.358 OA
HETATM   35  H   UNL     1      -3.549 -13.576 -45.107  1.00  0.00     0.218 HD
ENDBRANCH  27  34
ENDBRANCH   1  24
TORSDOF 7
ENDMDL
