MODEL 1
REMARK VINA RESULT:      -8.4      0.000      0.000
REMARK  8 active torsions:
REMARK  status: ('A' for Active; 'I' for Inactive)
REMARK    1  A    between atoms: O_2  and  C_3 
REMARK    2  A    between atoms: C_5  and  C_6 
REMARK    3  A    between atoms: C_6  and  N_7 
REMARK       I    between atoms: N_7  and  C_8 
REMARK    4  A    between atoms: C_8  and  C_9 
REMARK    5  A    between atoms: C_9  and  C_10 
REMARK    6  A    between atoms: C_10  and  N_11 
REMARK    7  A    between atoms: N_11  and  S_12 
REMARK    8  A    between atoms: S_12  and  C_13 
ROOT
HETATM    1  N   UNL     1      -4.450   3.285 -32.889  1.00  0.00    -0.215 NA
HETATM    2  H   UNL     1      -3.849   3.011 -33.668  1.00  0.00     0.139 HD
ENDROOT
BRANCH   1   3
HETATM    3  C   UNL     1      -4.623   4.738 -32.673  1.00  0.00     0.113 C 
BRANCH   3   4
HETATM    4  C   UNL     1      -5.563   5.322 -33.717  1.00  0.00     0.118 C 
BRANCH   4   5
HETATM    5  C   UNL     1      -7.001   4.968 -33.413  1.00  0.00     0.219 C 
HETATM    6  N   UNL     1      -7.185   4.408 -32.172  1.00  0.00    -0.357 N 
HETATM    7  H   UNL     1      -6.426   4.456 -31.507  1.00  0.00     0.162 HD
HETATM    8  O   UNL     1      -7.911   5.186 -34.204  1.00  0.00    -0.274 OA
BRANCH   6   9
HETATM    9  C   UNL     1      -8.508   4.101 -31.679  1.00  0.00     0.161 C 
BRANCH   9  10
HETATM   10  C   UNL     1      -8.932   2.709 -32.072  1.00  0.00    -0.038 A 
HETATM   11  C   UNL     1     -10.102   2.508 -32.827  1.00  0.00     0.045 A 
HETATM   12  C   UNL     1     -10.503   1.226 -33.204  1.00  0.00     0.068 A 
HETATM   13  C   UNL     1      -9.727   0.132 -32.822  1.00  0.00     0.037 A 
HETATM   14  C   UNL     1      -8.564   0.314 -32.071  1.00  0.00     0.003 A 
HETATM   15  C   UNL     1      -8.169   1.598 -31.697  1.00  0.00     0.009 A 
BRANCH  12  16
HETATM   16  O   UNL     1     -11.618   0.917 -33.933  1.00  0.00    -0.356 OA
HETATM   17  C   UNL     1     -12.777   1.713 -33.716  1.00  0.00     0.210 C 
ENDBRANCH  12  16
ENDBRANCH   9  10
ENDBRANCH   6   9
ENDBRANCH   4   5
ENDBRANCH   3   4
ENDBRANCH   1   3
BRANCH   1  18
HETATM   18  S   UNL     1      -4.048   2.350 -31.533  1.00  0.00     0.241 S 
HETATM   19  O   UNL     1      -2.679   2.690 -31.213  1.00  0.00    -0.206 OA
HETATM   20  O   UNL     1      -5.119   2.500 -30.576  1.00  0.00    -0.206 OA
BRANCH  18  21
HETATM   21  C   UNL     1      -4.058   0.702 -32.176  1.00  0.00     0.075 A 
HETATM   22  C   UNL     1      -5.020   0.339 -33.118  1.00  0.00     0.034 A 
HETATM   23  C   UNL     1      -5.120  -0.987 -33.599  1.00  0.00    -0.030 A 
HETATM   24  C   UNL     1      -4.192  -1.935 -33.146  1.00  0.00     0.041 A 
HETATM   25  C   UNL     1      -6.215  -1.239 -34.597  1.00  0.00     0.041 C 
HETATM   26  N   UNL     1      -4.129  -3.292 -33.498  1.00  0.00    -0.327 N 
HETATM   27  C   UNL     1      -3.201  -1.533 -32.224  1.00  0.00     0.031 A 
HETATM   28  C   UNL     1      -4.862  -4.120 -34.278  1.00  0.00     0.222 C 
HETATM   29  H   UNL     1      -3.382  -3.827 -33.066  1.00  0.00     0.169 HD
HETATM   30  O   UNL     1      -4.493  -5.297 -34.352  1.00  0.00    -0.273 OA
HETATM   31  C   UNL     1      -6.034  -3.664 -35.097  1.00  0.00     0.103 C 
HETATM   32  C   UNL     1      -6.885  -2.592 -34.457  1.00  0.00     0.014 C 
HETATM   33  C   UNL     1      -3.131  -0.229 -31.733  1.00  0.00     0.027 A 
ENDBRANCH  18  21
ENDBRANCH   1  18
TORSDOF 8
ENDMDL
MODEL 2
REMARK VINA RESULT:      -8.4      2.479      5.815
REMARK  8 active torsions:
REMARK  status: ('A' for Active; 'I' for Inactive)
REMARK    1  A    between atoms: O_2  and  C_3 
REMARK    2  A    between atoms: C_5  and  C_6 
REMARK    3  A    between atoms: C_6  and  N_7 
REMARK       I    between atoms: N_7  and  C_8 
REMARK    4  A    between atoms: C_8  and  C_9 
REMARK    5  A    between atoms: C_9  and  C_10 
REMARK    6  A    between atoms: C_10  and  N_11 
REMARK    7  A    between atoms: N_11  and  S_12 
REMARK    8  A    between atoms: S_12  and  C_13 
ROOT
HETATM    1  N   UNL     1      -7.535   2.297 -31.990  1.00  0.00    -0.215 NA
HETATM    2  H   UNL     1      -8.192   1.562 -31.723  1.00  0.00     0.139 HD
ENDROOT
BRANCH   1   3
HETATM    3  C   UNL     1      -7.835   3.657 -31.492  1.00  0.00     0.113 C 
BRANCH   3   4
HETATM    4  C   UNL     1      -6.900   4.023 -30.348  1.00  0.00     0.118 C 
BRANCH   4   5
HETATM    5  C   UNL     1      -5.528   3.423 -30.554  1.00  0.00     0.219 C 
HETATM    6  N   UNL     1      -4.757   4.099 -31.469  1.00  0.00    -0.357 N 
HETATM    7  H   UNL     1      -5.063   5.014 -31.771  1.00  0.00     0.162 HD
HETATM    8  O   UNL     1      -5.145   2.434 -29.939  1.00  0.00    -0.274 OA
BRANCH   6   9
HETATM    9  C   UNL     1      -3.385   3.722 -31.713  1.00  0.00     0.161 C 
BRANCH   9  10
HETATM   10  C   UNL     1      -2.673   4.751 -32.554  1.00  0.00    -0.038 A 
HETATM   11  C   UNL     1      -2.485   6.059 -32.071  1.00  0.00     0.045 A 
HETATM   12  C   UNL     1      -1.822   7.020 -32.836  1.00  0.00     0.068 A 
HETATM   13  C   UNL     1      -1.341   6.670 -34.097  1.00  0.00     0.037 A 
HETATM   14  C   UNL     1      -1.521   5.377 -34.592  1.00  0.00     0.003 A 
HETATM   15  C   UNL     1      -2.184   4.421 -33.824  1.00  0.00     0.009 A 
BRANCH  12  16
HETATM   16  O   UNL     1      -1.587   8.315 -32.466  1.00  0.00    -0.356 OA
HETATM   17  C   UNL     1      -2.394   8.850 -31.423  1.00  0.00     0.210 C 
ENDBRANCH  12  16
ENDBRANCH   9  10
ENDBRANCH   6   9
ENDBRANCH   4   5
ENDBRANCH   3   4
ENDBRANCH   1   3
BRANCH   1  18
HETATM   18  S   UNL     1      -7.184   2.144 -33.641  1.00  0.00     0.241 S 
HETATM   19  O   UNL     1      -8.452   1.905 -34.293  1.00  0.00    -0.206 OA
HETATM   20  O   UNL     1      -6.333   3.254 -34.003  1.00  0.00    -0.206 OA
BRANCH  18  21
HETATM   21  C   UNL     1      -6.251   0.642 -33.707  1.00  0.00     0.075 A 
HETATM   22  C   UNL     1      -6.786  -0.469 -34.357  1.00  0.00     0.034 A 
HETATM   23  C   UNL     1      -6.115  -1.714 -34.364  1.00  0.00    -0.030 A 
HETATM   24  C   UNL     1      -4.862  -1.804 -33.742  1.00  0.00     0.041 A 
HETATM   25  C   UNL     1      -6.817  -2.830 -35.087  1.00  0.00     0.041 C 
HETATM   26  N   UNL     1      -4.048  -2.942 -33.638  1.00  0.00    -0.327 N 
HETATM   27  C   UNL     1      -4.323  -0.653 -33.127  1.00  0.00     0.031 A 
HETATM   28  C   UNL     1      -4.153  -4.239 -34.013  1.00  0.00     0.222 C 
HETATM   29  H   UNL     1      -3.168  -2.814 -33.149  1.00  0.00     0.169 HD
HETATM   30  O   UNL     1      -3.202  -4.981 -33.743  1.00  0.00    -0.273 OA
HETATM   31  C   UNL     1      -5.316  -4.785 -34.788  1.00  0.00     0.103 C 
HETATM   32  C   UNL     1      -6.659  -4.190 -34.435  1.00  0.00     0.014 C 
HETATM   33  C   UNL     1      -5.007   0.562 -33.100  1.00  0.00     0.027 A 
ENDBRANCH  18  21
ENDBRANCH   1  18
TORSDOF 8
ENDMDL
MODEL 3
REMARK VINA RESULT:      -8.4      2.684      6.028
REMARK  8 active torsions:
REMARK  status: ('A' for Active; 'I' for Inactive)
REMARK    1  A    between atoms: O_2  and  C_3 
REMARK    2  A    between atoms: C_5  and  C_6 
REMARK    3  A    between atoms: C_6  and  N_7 
REMARK       I    between atoms: N_7  and  C_8 
REMARK    4  A    between atoms: C_8  and  C_9 
REMARK    5  A    between atoms: C_9  and  C_10 
REMARK    6  A    between atoms: C_10  and  N_11 
REMARK    7  A    between atoms: N_11  and  S_12 
REMARK    8  A    between atoms: S_12  and  C_13 
ROOT
HETATM    1  N   UNL     1      -6.745   3.146 -32.065  1.00  0.00    -0.215 NA
HETATM    2  H   UNL     1      -6.875   2.468 -32.819  1.00  0.00     0.139 HD
ENDROOT
BRANCH   1   3
HETATM    3  C   UNL     1      -6.387   4.521 -32.473  1.00  0.00     0.113 C 
BRANCH   3   4
HETATM    4  C   UNL     1      -6.158   4.587 -33.976  1.00  0.00     0.118 C 
BRANCH   4   5
HETATM    5  C   UNL     1      -4.688   4.735 -34.297  1.00  0.00     0.219 C 
HETATM    6  N   UNL     1      -3.854   4.218 -33.336  1.00  0.00    -0.357 N 
HETATM    7  H   UNL     1      -4.255   3.625 -32.622  1.00  0.00     0.162 HD
HETATM    8  O   UNL     1      -4.293   5.256 -35.334  1.00  0.00    -0.274 OA
BRANCH   6   9
HETATM    9  C   UNL     1      -2.423   4.185 -33.527  1.00  0.00     0.161 C 
BRANCH   9  10
HETATM   10  C   UNL     1      -1.731   5.223 -32.682  1.00  0.00    -0.038 A 
HETATM   11  C   UNL     1      -1.234   4.889 -31.409  1.00  0.00     0.045 A 
HETATM   12  C   UNL     1      -0.585   5.838 -30.618  1.00  0.00     0.068 A 
HETATM   13  C   UNL     1      -0.431   7.136 -31.104  1.00  0.00     0.037 A 
HETATM   14  C   UNL     1      -0.920   7.485 -32.364  1.00  0.00     0.003 A 
HETATM   15  C   UNL     1      -1.568   6.532 -33.150  1.00  0.00     0.009 A 
BRANCH  12  16
HETATM   16  O   UNL     1      -0.066   5.623 -29.371  1.00  0.00    -0.356 OA
HETATM   17  C   UNL     1       1.051   4.746 -29.275  1.00  0.00     0.210 C 
ENDBRANCH  12  16
ENDBRANCH   9  10
ENDBRANCH   6   9
ENDBRANCH   4   5
ENDBRANCH   3   4
ENDBRANCH   1   3
BRANCH   1  18
HETATM   18  S   UNL     1      -5.803   2.436 -30.848  1.00  0.00     0.241 S 
HETATM   19  O   UNL     1      -4.661   3.307 -30.676  1.00  0.00    -0.206 OA
HETATM   20  O   UNL     1      -6.689   2.108 -29.756  1.00  0.00    -0.206 OA
BRANCH  18  21
HETATM   21  C   UNL     1      -5.233   0.945 -31.612  1.00  0.00     0.075 A 
HETATM   22  C   UNL     1      -5.931   0.423 -32.700  1.00  0.00     0.034 A 
HETATM   23  C   UNL     1      -5.564  -0.809 -33.291  1.00  0.00    -0.030 A 
HETATM   24  C   UNL     1      -4.440  -1.482 -32.792  1.00  0.00     0.041 A 
HETATM   25  C   UNL     1      -6.415  -1.260 -34.444  1.00  0.00     0.041 C 
HETATM   26  N   UNL     1      -3.922  -2.708 -33.236  1.00  0.00    -0.327 N 
HETATM   27  C   UNL     1      -3.725  -0.911 -31.716  1.00  0.00     0.031 A 
HETATM   28  C   UNL     1      -4.276  -3.622 -34.170  1.00  0.00     0.222 C 
HETATM   29  H   UNL     1      -3.095  -3.042 -32.750  1.00  0.00     0.169 HD
HETATM   30  O   UNL     1      -3.553  -4.619 -34.284  1.00  0.00    -0.273 OA
HETATM   31  C   UNL     1      -5.439  -3.446 -35.101  1.00  0.00     0.103 C 
HETATM   32  C   UNL     1      -6.643  -2.758 -34.501  1.00  0.00     0.014 C 
HETATM   33  C   UNL     1      -4.115   0.289 -31.121  1.00  0.00     0.027 A 
ENDBRANCH  18  21
ENDBRANCH   1  18
TORSDOF 8
ENDMDL
MODEL 4
REMARK VINA RESULT:      -8.0      3.470      6.595
REMARK  8 active torsions:
REMARK  status: ('A' for Active; 'I' for Inactive)
REMARK    1  A    between atoms: O_2  and  C_3 
REMARK    2  A    between atoms: C_5  and  C_6 
REMARK    3  A    between atoms: C_6  and  N_7 
REMARK       I    between atoms: N_7  and  C_8 
REMARK    4  A    between atoms: C_8  and  C_9 
REMARK    5  A    between atoms: C_9  and  C_10 
REMARK    6  A    between atoms: C_10  and  N_11 
REMARK    7  A    between atoms: N_11  and  S_12 
REMARK    8  A    between atoms: S_12  and  C_13 
ROOT
HETATM    1  N   UNL     1      -5.773   4.262 -33.744  1.00  0.00    -0.215 NA
HETATM    2  H   UNL     1      -6.046   3.934 -34.673  1.00  0.00     0.139 HD
ENDROOT
BRANCH   1   3
HETATM    3  C   UNL     1      -4.346   4.602 -33.562  1.00  0.00     0.113 C 
BRANCH   3   4
HETATM    4  C   UNL     1      -3.776   5.208 -34.836  1.00  0.00     0.118 C 
BRANCH   4   5
HETATM    5  C   UNL     1      -2.362   5.698 -34.621  1.00  0.00     0.219 C 
HETATM    6  N   UNL     1      -2.243   6.632 -33.619  1.00  0.00    -0.357 N 
HETATM    7  H   UNL     1      -3.027   6.766 -32.995  1.00  0.00     0.162 HD
HETATM    8  O   UNL     1      -1.416   5.277 -35.276  1.00  0.00    -0.274 OA
BRANCH   6   9
HETATM    9  C   UNL     1      -0.951   7.131 -33.214  1.00  0.00     0.161 C 
BRANCH   9  10
HETATM   10  C   UNL     1      -0.606   6.692 -31.814  1.00  0.00    -0.038 A 
HETATM   11  C   UNL     1      -1.077   7.418 -30.703  1.00  0.00     0.045 A 
HETATM   12  C   UNL     1      -0.772   7.018 -29.402  1.00  0.00     0.068 A 
HETATM   13  C   UNL     1       0.013   5.882 -29.206  1.00  0.00     0.037 A 
HETATM   14  C   UNL     1       0.489   5.152 -30.297  1.00  0.00     0.003 A 
HETATM   15  C   UNL     1       0.181   5.556 -31.595  1.00  0.00     0.009 A 
BRANCH  12  16
HETATM   16  O   UNL     1      -1.174   7.647 -28.256  1.00  0.00    -0.356 OA
HETATM   17  C   UNL     1      -0.908   6.985 -27.024  1.00  0.00     0.210 C 
ENDBRANCH  12  16
ENDBRANCH   9  10
ENDBRANCH   6   9
ENDBRANCH   4   5
ENDBRANCH   3   4
ENDBRANCH   1   3
BRANCH   1  18
HETATM   18  S   UNL     1      -6.477   3.252 -32.579  1.00  0.00     0.241 S 
HETATM   19  O   UNL     1      -5.936   3.680 -31.308  1.00  0.00    -0.206 OA
HETATM   20  O   UNL     1      -7.898   3.224 -32.838  1.00  0.00    -0.206 OA
BRANCH  18  21
HETATM   21  C   UNL     1      -5.778   1.670 -32.957  1.00  0.00     0.075 A 
HETATM   22  C   UNL     1      -6.475   0.794 -33.788  1.00  0.00     0.034 A 
HETATM   23  C   UNL     1      -5.997  -0.510 -34.052  1.00  0.00    -0.030 A 
HETATM   24  C   UNL     1      -4.768  -0.898 -33.499  1.00  0.00     0.041 A 
HETATM   25  C   UNL     1      -6.859  -1.353 -34.950  1.00  0.00     0.041 C 
HETATM   26  N   UNL     1      -4.132  -2.141 -33.639  1.00  0.00    -0.327 N 
HETATM   27  C   UNL     1      -4.062   0.023 -32.695  1.00  0.00     0.031 A 
HETATM   28  C   UNL     1      -4.430  -3.313 -34.248  1.00  0.00     0.222 C 
HETATM   29  H   UNL     1      -3.241  -2.238 -33.162  1.00  0.00     0.169 HD
HETATM   30  O   UNL     1      -3.599  -4.223 -34.154  1.00  0.00    -0.273 OA
HETATM   31  C   UNL     1      -5.664  -3.525 -35.075  1.00  0.00     0.103 C 
HETATM   32  C   UNL     1      -6.902  -2.821 -34.572  1.00  0.00     0.014 C 
HETATM   33  C   UNL     1      -4.558   1.297 -32.416  1.00  0.00     0.027 A 
ENDBRANCH  18  21
ENDBRANCH   1  18
TORSDOF 8
ENDMDL
MODEL 5
REMARK VINA RESULT:      -7.9      5.588      9.678
REMARK  8 active torsions:
REMARK  status: ('A' for Active; 'I' for Inactive)
REMARK    1  A    between atoms: O_2  and  C_3 
REMARK    2  A    between atoms: C_5  and  C_6 
REMARK    3  A    between atoms: C_6  and  N_7 
REMARK       I    between atoms: N_7  and  C_8 
REMARK    4  A    between atoms: C_8  and  C_9 
REMARK    5  A    between atoms: C_9  and  C_10 
REMARK    6  A    between atoms: C_10  and  N_11 
REMARK    7  A    between atoms: N_11  and  S_12 
REMARK    8  A    between atoms: S_12  and  C_13 
ROOT
HETATM    1  N   UNL     1      -1.604   4.467 -30.979  1.00  0.00    -0.215 NA
HETATM    2  H   UNL     1      -1.259   3.510 -30.883  1.00  0.00     0.139 HD
ENDROOT
BRANCH   1   3
HETATM    3  C   UNL     1      -2.721   4.670 -31.927  1.00  0.00     0.113 C 
BRANCH   3   4
HETATM    4  C   UNL     1      -2.889   3.448 -32.819  1.00  0.00     0.118 C 
BRANCH   4   5
HETATM    5  C   UNL     1      -3.576   2.324 -32.077  1.00  0.00     0.219 C 
HETATM    6  N   UNL     1      -4.876   2.112 -32.468  1.00  0.00    -0.357 N 
HETATM    7  H   UNL     1      -5.200   2.557 -33.315  1.00  0.00     0.162 HD
HETATM    8  O   UNL     1      -3.005   1.659 -31.220  1.00  0.00    -0.274 OA
BRANCH   6   9
HETATM    9  C   UNL     1      -5.647   1.013 -31.934  1.00  0.00     0.161 C 
BRANCH   9  10
HETATM   10  C   UNL     1      -5.747  -0.120 -32.923  1.00  0.00    -0.038 A 
HETATM   11  C   UNL     1      -4.793  -1.154 -32.920  1.00  0.00     0.045 A 
HETATM   12  C   UNL     1      -4.878  -2.213 -33.824  1.00  0.00     0.068 A 
HETATM   13  C   UNL     1      -5.927  -2.240 -34.743  1.00  0.00     0.037 A 
HETATM   14  C   UNL     1      -6.881  -1.220 -34.760  1.00  0.00     0.003 A 
HETATM   15  C   UNL     1      -6.791  -0.165 -33.854  1.00  0.00     0.009 A 
BRANCH  12  16
HETATM   16  O   UNL     1      -4.008  -3.265 -33.910  1.00  0.00    -0.356 OA
HETATM   17  C   UNL     1      -4.547  -4.523 -34.303  1.00  0.00     0.210 C 
ENDBRANCH  12  16
ENDBRANCH   9  10
ENDBRANCH   6   9
ENDBRANCH   4   5
ENDBRANCH   3   4
ENDBRANCH   1   3
BRANCH   1  18
HETATM   18  S   UNL     1      -0.280   5.516 -31.117  1.00  0.00     0.241 S 
HETATM   19  O   UNL     1       0.892   4.705 -30.870  1.00  0.00    -0.206 OA
HETATM   20  O   UNL     1      -0.451   6.264 -32.341  1.00  0.00    -0.206 OA
BRANCH  18  21
HETATM   21  C   UNL     1      -0.489   6.597 -29.732  1.00  0.00     0.075 A 
HETATM   22  C   UNL     1       0.616   7.274 -29.217  1.00  0.00     0.034 A 
HETATM   23  C   UNL     1       0.514   8.083 -28.062  1.00  0.00    -0.030 A 
HETATM   24  C   UNL     1      -0.743   8.239 -27.463  1.00  0.00     0.041 A 
HETATM   25  C   UNL     1       1.789   8.737 -27.608  1.00  0.00     0.041 C 
HETATM   26  N   UNL     1      -1.047   8.991 -26.317  1.00  0.00    -0.327 N 
HETATM   27  C   UNL     1      -1.855   7.578 -28.029  1.00  0.00     0.031 A 
HETATM   28  C   UNL     1      -0.337   9.731 -25.434  1.00  0.00     0.222 C 
HETATM   29  H   UNL     1      -2.021   8.986 -26.030  1.00  0.00     0.169 HD
HETATM   30  O   UNL     1      -0.966  10.267 -24.515  1.00  0.00    -0.273 OA
HETATM   31  C   UNL     1       1.137   9.983 -25.562  1.00  0.00     0.103 C 
HETATM   32  C   UNL     1       1.941   8.824 -26.102  1.00  0.00     0.014 C 
HETATM   33  C   UNL     1      -1.737   6.757 -29.150  1.00  0.00     0.027 A 
ENDBRANCH  18  21
ENDBRANCH   1  18
TORSDOF 8
ENDMDL
MODEL 6
REMARK VINA RESULT:      -7.7      2.894      5.408
REMARK  8 active torsions:
REMARK  status: ('A' for Active; 'I' for Inactive)
REMARK    1  A    between atoms: O_2  and  C_3 
REMARK    2  A    between atoms: C_5  and  C_6 
REMARK    3  A    between atoms: C_6  and  N_7 
REMARK       I    between atoms: N_7  and  C_8 
REMARK    4  A    between atoms: C_8  and  C_9 
REMARK    5  A    between atoms: C_9  and  C_10 
REMARK    6  A    between atoms: C_10  and  N_11 
REMARK    7  A    between atoms: N_11  and  S_12 
REMARK    8  A    between atoms: S_12  and  C_13 
ROOT
HETATM    1  N   UNL     1      -5.013   2.199 -30.512  1.00  0.00    -0.215 NA
HETATM    2  H   UNL     1      -4.982   1.280 -30.066  1.00  0.00     0.139 HD
ENDROOT
BRANCH   1   3
HETATM    3  C   UNL     1      -6.358   2.757 -30.770  1.00  0.00     0.113 C 
BRANCH   3   4
HETATM    4  C   UNL     1      -6.710   3.803 -29.722  1.00  0.00     0.118 C 
BRANCH   4   5
HETATM    5  C   UNL     1      -6.638   5.198 -30.300  1.00  0.00     0.219 C 
HETATM    6  N   UNL     1      -5.787   5.313 -31.373  1.00  0.00    -0.357 N 
HETATM    7  H   UNL     1      -5.445   4.466 -31.806  1.00  0.00     0.162 HD
HETATM    8  O   UNL     1      -7.299   6.128 -29.853  1.00  0.00    -0.274 OA
BRANCH   6   9
HETATM    9  C   UNL     1      -5.674   6.551 -32.107  1.00  0.00     0.161 C 
BRANCH   9  10
HETATM   10  C   UNL     1      -4.238   7.001 -32.208  1.00  0.00    -0.038 A 
HETATM   11  C   UNL     1      -3.423   6.549 -33.263  1.00  0.00     0.045 A 
HETATM   12  C   UNL     1      -2.095   6.963 -33.373  1.00  0.00     0.068 A 
HETATM   13  C   UNL     1      -1.575   7.837 -32.420  1.00  0.00     0.037 A 
HETATM   14  C   UNL     1      -2.370   8.294 -31.366  1.00  0.00     0.003 A 
HETATM   15  C   UNL     1      -3.696   7.876 -31.261  1.00  0.00     0.009 A 
BRANCH  12  16
HETATM   16  O   UNL     1      -1.217   6.587 -34.352  1.00  0.00    -0.356 OA
HETATM   17  C   UNL     1      -1.333   5.260 -34.853  1.00  0.00     0.210 C 
ENDBRANCH  12  16
ENDBRANCH   9  10
ENDBRANCH   6   9
ENDBRANCH   4   5
ENDBRANCH   3   4
ENDBRANCH   1   3
BRANCH   1  18
HETATM   18  S   UNL     1      -3.913   2.219 -31.801  1.00  0.00     0.241 S 
HETATM   19  O   UNL     1      -4.485   3.102 -32.793  1.00  0.00    -0.206 OA
HETATM   20  O   UNL     1      -2.600   2.442 -31.241  1.00  0.00    -0.206 OA
BRANCH  18  21
HETATM   21  C   UNL     1      -4.012   0.567 -32.428  1.00  0.00     0.075 A 
HETATM   22  C   UNL     1      -5.058   0.220 -33.283  1.00  0.00     0.034 A 
HETATM   23  C   UNL     1      -5.226  -1.107 -33.742  1.00  0.00    -0.030 A 
HETATM   24  C   UNL     1      -4.283  -2.072 -33.362  1.00  0.00     0.041 A 
HETATM   25  C   UNL     1      -6.406  -1.342 -34.641  1.00  0.00     0.041 C 
HETATM   26  N   UNL     1      -4.278  -3.433 -33.707  1.00  0.00    -0.327 N 
HETATM   27  C   UNL     1      -3.209  -1.685 -32.530  1.00  0.00     0.031 A 
HETATM   28  C   UNL     1      -5.092  -4.250 -34.415  1.00  0.00     0.222 C 
HETATM   29  H   UNL     1      -3.508  -3.980 -33.335  1.00  0.00     0.169 HD
HETATM   30  O   UNL     1      -4.754  -5.435 -34.511  1.00  0.00    -0.273 OA
HETATM   31  C   UNL     1      -6.319  -3.773 -35.136  1.00  0.00     0.103 C 
HETATM   32  C   UNL     1      -7.090  -2.680 -34.434  1.00  0.00     0.014 C 
HETATM   33  C   UNL     1      -3.071  -0.380 -32.057  1.00  0.00     0.027 A 
ENDBRANCH  18  21
ENDBRANCH   1  18
TORSDOF 8
ENDMDL
MODEL 7
REMARK VINA RESULT:      -7.7      2.632      5.700
REMARK  8 active torsions:
REMARK  status: ('A' for Active; 'I' for Inactive)
REMARK    1  A    between atoms: O_2  and  C_3 
REMARK    2  A    between atoms: C_5  and  C_6 
REMARK    3  A    between atoms: C_6  and  N_7 
REMARK       I    between atoms: N_7  and  C_8 
REMARK    4  A    between atoms: C_8  and  C_9 
REMARK    5  A    between atoms: C_9  and  C_10 
REMARK    6  A    between atoms: C_10  and  N_11 
REMARK    7  A    between atoms: N_11  and  S_12 
REMARK    8  A    between atoms: S_12  and  C_13 
ROOT
HETATM    1  N   UNL     1      -6.970   2.510 -31.779  1.00  0.00    -0.215 NA
HETATM    2  H   UNL     1      -7.737   3.073 -32.151  1.00  0.00     0.139 HD
ENDROOT
BRANCH   1   3
HETATM    3  C   UNL     1      -6.507   2.850 -30.416  1.00  0.00     0.113 C 
BRANCH   3   4
HETATM    4  C   UNL     1      -7.078   4.191 -29.980  1.00  0.00     0.118 C 
BRANCH   4   5
HETATM    5  C   UNL     1      -6.176   5.330 -30.398  1.00  0.00     0.219 C 
HETATM    6  N   UNL     1      -5.875   5.337 -31.739  1.00  0.00    -0.357 N 
HETATM    7  H   UNL     1      -6.410   4.739 -32.353  1.00  0.00     0.162 HD
HETATM    8  O   UNL     1      -5.772   6.172 -29.605  1.00  0.00    -0.274 OA
BRANCH   6   9
HETATM    9  C   UNL     1      -5.107   6.410 -32.326  1.00  0.00     0.161 C 
BRANCH   9  10
HETATM   10  C   UNL     1      -3.702   5.968 -32.648  1.00  0.00    -0.038 A 
HETATM   11  C   UNL     1      -2.867   5.458 -31.636  1.00  0.00     0.045 A 
HETATM   12  C   UNL     1      -1.567   5.039 -31.919  1.00  0.00     0.068 A 
HETATM   13  C   UNL     1      -1.095   5.130 -33.228  1.00  0.00     0.037 A 
HETATM   14  C   UNL     1      -1.909   5.636 -34.243  1.00  0.00     0.003 A 
HETATM   15  C   UNL     1      -3.208   6.053 -33.954  1.00  0.00     0.009 A 
BRANCH  12  16
HETATM   16  O   UNL     1      -0.674   4.531 -31.017  1.00  0.00    -0.356 OA
HETATM   17  C   UNL     1       0.020   5.464 -30.196  1.00  0.00     0.210 C 
ENDBRANCH  12  16
ENDBRANCH   9  10
ENDBRANCH   6   9
ENDBRANCH   4   5
ENDBRANCH   3   4
ENDBRANCH   1   3
BRANCH   1  18
HETATM   18  S   UNL     1      -5.780   2.346 -32.976  1.00  0.00     0.241 S 
HETATM   19  O   UNL     1      -6.190   3.212 -34.059  1.00  0.00    -0.206 OA
HETATM   20  O   UNL     1      -4.497   2.484 -32.326  1.00  0.00    -0.206 OA
BRANCH  18  21
HETATM   21  C   UNL     1      -5.991   0.673 -33.513  1.00  0.00     0.075 A 
HETATM   22  C   UNL     1      -5.081  -0.299 -33.100  1.00  0.00     0.034 A 
HETATM   23  C   UNL     1      -5.160  -1.631 -33.570  1.00  0.00    -0.030 A 
HETATM   24  C   UNL     1      -6.213  -1.978 -34.427  1.00  0.00     0.041 A 
HETATM   25  C   UNL     1      -4.102  -2.568 -33.058  1.00  0.00     0.041 C 
HETATM   26  N   UNL     1      -6.459  -3.235 -35.000  1.00  0.00    -0.327 N 
HETATM   27  C   UNL     1      -7.147  -0.984 -34.796  1.00  0.00     0.031 A 
HETATM   28  C   UNL     1      -5.840  -4.439 -34.983  1.00  0.00     0.222 C 
HETATM   29  H   UNL     1      -7.276  -3.296 -35.599  1.00  0.00     0.169 HD
HETATM   30  O   UNL     1      -6.368  -5.351 -35.629  1.00  0.00    -0.273 OA
HETATM   31  C   UNL     1      -4.610  -4.726 -34.174  1.00  0.00     0.103 C 
HETATM   32  C   UNL     1      -3.625  -3.585 -34.077  1.00  0.00     0.014 C 
HETATM   33  C   UNL     1      -7.041   0.334 -34.352  1.00  0.00     0.027 A 
ENDBRANCH  18  21
ENDBRANCH   1  18
TORSDOF 8
ENDMDL
MODEL 8
REMARK VINA RESULT:      -7.6      1.978      6.161
REMARK  8 active torsions:
REMARK  status: ('A' for Active; 'I' for Inactive)
REMARK    1  A    between atoms: O_2  and  C_3 
REMARK    2  A    between atoms: C_5  and  C_6 
REMARK    3  A    between atoms: C_6  and  N_7 
REMARK       I    between atoms: N_7  and  C_8 
REMARK    4  A    between atoms: C_8  and  C_9 
REMARK    5  A    between atoms: C_9  and  C_10 
REMARK    6  A    between atoms: C_10  and  N_11 
REMARK    7  A    between atoms: N_11  and  S_12 
REMARK    8  A    between atoms: S_12  and  C_13 
ROOT
HETATM    1  N   UNL     1      -5.748   4.085 -31.865  1.00  0.00    -0.215 NA
HETATM    2  H   UNL     1      -6.280   3.916 -31.009  1.00  0.00     0.139 HD
ENDROOT
BRANCH   1   3
HETATM    3  C   UNL     1      -4.400   4.668 -31.695  1.00  0.00     0.113 C 
BRANCH   3   4
HETATM    4  C   UNL     1      -3.338   3.580 -31.761  1.00  0.00     0.118 C 
BRANCH   4   5
HETATM    5  C   UNL     1      -3.938   2.218 -31.495  1.00  0.00     0.219 C 
HETATM    6  N   UNL     1      -3.743   1.316 -32.513  1.00  0.00    -0.357 N 
HETATM    7  H   UNL     1      -3.076   1.547 -33.237  1.00  0.00     0.162 HD
HETATM    8  O   UNL     1      -4.525   1.952 -30.453  1.00  0.00    -0.274 OA
BRANCH   6   9
HETATM    9  C   UNL     1      -4.162  -0.060 -32.383  1.00  0.00     0.161 C 
BRANCH   9  10
HETATM   10  C   UNL     1      -5.282  -0.386 -33.338  1.00  0.00    -0.038 A 
HETATM   11  C   UNL     1      -5.532  -1.719 -33.714  1.00  0.00     0.045 A 
HETATM   12  C   UNL     1      -6.569  -2.037 -34.591  1.00  0.00     0.068 A 
HETATM   13  C   UNL     1      -7.366  -1.012 -35.100  1.00  0.00     0.037 A 
HETATM   14  C   UNL     1      -7.131   0.316 -34.739  1.00  0.00     0.003 A 
HETATM   15  C   UNL     1      -6.092   0.628 -33.862  1.00  0.00     0.009 A 
BRANCH  12  16
HETATM   16  O   UNL     1      -6.898  -3.292 -35.022  1.00  0.00    -0.356 OA
HETATM   17  C   UNL     1      -5.941  -4.324 -34.808  1.00  0.00     0.210 C 
ENDBRANCH  12  16
ENDBRANCH   9  10
ENDBRANCH   6   9
ENDBRANCH   4   5
ENDBRANCH   3   4
ENDBRANCH   1   3
BRANCH   1  18
HETATM   18  S   UNL     1      -6.765   4.821 -33.005  1.00  0.00     0.241 S 
HETATM   19  O   UNL     1      -7.234   6.040 -32.384  1.00  0.00    -0.206 OA
HETATM   20  O   UNL     1      -6.062   4.824 -34.267  1.00  0.00    -0.206 OA
BRANCH  18  21
HETATM   21  C   UNL     1      -8.131   3.700 -33.094  1.00  0.00     0.075 A 
HETATM   22  C   UNL     1      -9.053   3.823 -34.133  1.00  0.00     0.034 A 
HETATM   23  C   UNL     1     -10.204   3.005 -34.199  1.00  0.00    -0.030 A 
HETATM   24  C   UNL     1     -10.382   2.018 -33.220  1.00  0.00     0.041 A 
HETATM   25  C   UNL     1     -11.121   3.260 -35.363  1.00  0.00     0.041 C 
HETATM   26  N   UNL     1     -11.453   1.117 -33.111  1.00  0.00    -0.327 N 
HETATM   27  C   UNL     1      -9.412   1.885 -32.202  1.00  0.00     0.031 A 
HETATM   28  C   UNL     1     -12.601   0.899 -33.793  1.00  0.00     0.222 C 
HETATM   29  H   UNL     1     -11.409   0.470 -32.330  1.00  0.00     0.169 HD
HETATM   30  O   UNL     1     -13.328  -0.017 -33.393  1.00  0.00    -0.273 OA
HETATM   31  C   UNL     1     -12.985   1.655 -35.031  1.00  0.00     0.103 C 
HETATM   32  C   UNL     1     -12.595   3.115 -35.038  1.00  0.00     0.014 C 
HETATM   33  C   UNL     1      -8.296   2.719 -32.129  1.00  0.00     0.027 A 
ENDBRANCH  18  21
ENDBRANCH   1  18
TORSDOF 8
ENDMDL
MODEL 9
REMARK VINA RESULT:      -7.6      4.092      7.444
REMARK  8 active torsions:
REMARK  status: ('A' for Active; 'I' for Inactive)
REMARK    1  A    between atoms: O_2  and  C_3 
REMARK    2  A    between atoms: C_5  and  C_6 
REMARK    3  A    between atoms: C_6  and  N_7 
REMARK       I    between atoms: N_7  and  C_8 
REMARK    4  A    between atoms: C_8  and  C_9 
REMARK    5  A    between atoms: C_9  and  C_10 
REMARK    6  A    between atoms: C_10  and  N_11 
REMARK    7  A    between atoms: N_11  and  S_12 
REMARK    8  A    between atoms: S_12  and  C_13 
ROOT
HETATM    1  N   UNL     1      -5.355   3.342 -32.992  1.00  0.00    -0.215 NA
HETATM    2  H   UNL     1      -4.576   2.912 -33.494  1.00  0.00     0.139 HD
ENDROOT
BRANCH   1   3
HETATM    3  C   UNL     1      -5.022   4.013 -31.717  1.00  0.00     0.113 C 
BRANCH   3   4
HETATM    4  C   UNL     1      -3.582   3.723 -31.323  1.00  0.00     0.118 C 
BRANCH   4   5
HETATM    5  C   UNL     1      -2.676   4.879 -31.683  1.00  0.00     0.219 C 
HETATM    6  N   UNL     1      -1.538   4.953 -30.916  1.00  0.00    -0.357 N 
HETATM    7  H   UNL     1      -1.297   4.160 -30.338  1.00  0.00     0.162 HD
HETATM    8  O   UNL     1      -2.938   5.659 -32.591  1.00  0.00    -0.274 OA
BRANCH   6   9
HETATM    9  C   UNL     1      -0.515   5.935 -31.191  1.00  0.00     0.161 C 
BRANCH   9  10
HETATM   10  C   UNL     1      -0.472   6.997 -30.122  1.00  0.00    -0.038 A 
HETATM   11  C   UNL     1       0.670   7.148 -29.314  1.00  0.00     0.045 A 
HETATM   12  C   UNL     1       0.727   8.132 -28.325  1.00  0.00     0.068 A 
HETATM   13  C   UNL     1      -0.369   8.973 -28.141  1.00  0.00     0.037 A 
HETATM   14  C   UNL     1      -1.511   8.835 -28.932  1.00  0.00     0.003 A 
HETATM   15  C   UNL     1      -1.562   7.851 -29.918  1.00  0.00     0.009 A 
BRANCH  12  16
HETATM   16  O   UNL     1       1.782   8.365 -27.487  1.00  0.00    -0.356 OA
HETATM   17  C   UNL     1       1.682   7.857 -26.161  1.00  0.00     0.210 C 
ENDBRANCH  12  16
ENDBRANCH   9  10
ENDBRANCH   6   9
ENDBRANCH   4   5
ENDBRANCH   3   4
ENDBRANCH   1   3
BRANCH   1  18
HETATM   18  S   UNL     1      -6.659   2.258 -32.971  1.00  0.00     0.241 S 
HETATM   19  O   UNL     1      -7.160   2.271 -31.615  1.00  0.00    -0.206 OA
HETATM   20  O   UNL     1      -7.498   2.576 -34.103  1.00  0.00    -0.206 OA
BRANCH  18  21
HETATM   21  C   UNL     1      -5.873   0.695 -33.241  1.00  0.00     0.075 A 
HETATM   22  C   UNL     1      -6.527  -0.280 -33.993  1.00  0.00     0.034 A 
HETATM   23  C   UNL     1      -5.977  -1.571 -34.166  1.00  0.00    -0.030 A 
HETATM   24  C   UNL     1      -4.721  -1.845 -33.606  1.00  0.00     0.041 A 
HETATM   25  C   UNL     1      -6.799  -2.527 -34.984  1.00  0.00     0.041 C 
HETATM   26  N   UNL     1      -4.015  -3.056 -33.663  1.00  0.00    -0.327 N 
HETATM   27  C   UNL     1      -4.060  -0.826 -32.885  1.00  0.00     0.031 A 
HETATM   28  C   UNL     1      -4.252  -4.286 -34.177  1.00  0.00     0.222 C 
HETATM   29  H   UNL     1      -3.114  -3.066 -33.195  1.00  0.00     0.169 HD
HETATM   30  O   UNL     1      -3.368  -5.137 -34.030  1.00  0.00    -0.273 OA
HETATM   31  C   UNL     1      -5.481  -4.631 -34.966  1.00  0.00     0.103 C 
HETATM   32  C   UNL     1      -6.752  -3.963 -34.497  1.00  0.00     0.014 C 
HETATM   33  C   UNL     1      -4.627   0.434 -32.694  1.00  0.00     0.027 A 
ENDBRANCH  18  21
ENDBRANCH   1  18
TORSDOF 8
ENDMDL
MODEL 10
REMARK VINA RESULT:      -7.6      1.378      1.546
REMARK  8 active torsions:
REMARK  status: ('A' for Active; 'I' for Inactive)
REMARK    1  A    between atoms: O_2  and  C_3 
REMARK    2  A    between atoms: C_5  and  C_6 
REMARK    3  A    between atoms: C_6  and  N_7 
REMARK       I    between atoms: N_7  and  C_8 
REMARK    4  A    between atoms: C_8  and  C_9 
REMARK    5  A    between atoms: C_9  and  C_10 
REMARK    6  A    between atoms: C_10  and  N_11 
REMARK    7  A    between atoms: N_11  and  S_12 
REMARK    8  A    between atoms: S_12  and  C_13 
ROOT
HETATM    1  N   UNL     1      -6.370   3.278 -32.279  1.00  0.00    -0.215 NA
HETATM    2  H   UNL     1      -6.972   2.583 -32.726  1.00  0.00     0.139 HD
ENDROOT
BRANCH   1   3
HETATM    3  C   UNL     1      -5.618   4.173 -33.185  1.00  0.00     0.113 C 
BRANCH   3   4
HETATM    4  C   UNL     1      -6.172   5.588 -33.114  1.00  0.00     0.118 C 
BRANCH   4   5
HETATM    5  C   UNL     1      -7.681   5.578 -33.014  1.00  0.00     0.219 C 
HETATM    6  N   UNL     1      -8.307   5.056 -34.120  1.00  0.00    -0.357 N 
HETATM    7  H   UNL     1      -7.747   4.555 -34.797  1.00  0.00     0.162 HD
HETATM    8  O   UNL     1      -8.275   5.984 -32.022  1.00  0.00    -0.274 OA
BRANCH   6   9
HETATM    9  C   UNL     1      -9.740   4.878 -34.152  1.00  0.00     0.161 C 
BRANCH   9  10
HETATM   10  C   UNL     1     -10.118   3.429 -33.980  1.00  0.00    -0.038 A 
HETATM   11  C   UNL     1     -11.450   3.068 -33.703  1.00  0.00     0.045 A 
HETATM   12  C   UNL     1     -11.816   1.731 -33.549  1.00  0.00     0.068 A 
HETATM   13  C   UNL     1     -10.841   0.741 -33.672  1.00  0.00     0.037 A 
HETATM   14  C   UNL     1      -9.515   1.082 -33.944  1.00  0.00     0.003 A 
HETATM   15  C   UNL     1      -9.155   2.420 -34.097  1.00  0.00     0.009 A 
BRANCH  12  16
HETATM   16  O   UNL     1     -13.075   1.270 -33.279  1.00  0.00    -0.356 OA
HETATM   17  C   UNL     1     -13.398  -0.041 -33.729  1.00  0.00     0.210 C 
ENDBRANCH  12  16
ENDBRANCH   9  10
ENDBRANCH   6   9
ENDBRANCH   4   5
ENDBRANCH   3   4
ENDBRANCH   1   3
BRANCH   1  18
HETATM   18  S   UNL     1      -5.492   2.524 -31.041  1.00  0.00     0.241 S 
HETATM   19  O   UNL     1      -4.289   3.310 -30.877  1.00  0.00    -0.206 OA
HETATM   20  O   UNL     1      -6.408   2.286 -29.950  1.00  0.00    -0.206 OA
BRANCH  18  21
HETATM   21  C   UNL     1      -5.031   0.979 -31.770  1.00  0.00     0.075 A 
HETATM   22  C   UNL     1      -5.770   0.479 -32.841  1.00  0.00     0.034 A 
HETATM   23  C   UNL     1      -5.492  -0.789 -33.402  1.00  0.00    -0.030 A 
HETATM   24  C   UNL     1      -4.413  -1.525 -32.893  1.00  0.00     0.041 A 
HETATM   25  C   UNL     1      -6.381  -1.210 -34.538  1.00  0.00     0.041 C 
HETATM   26  N   UNL     1      -3.983  -2.794 -33.309  1.00  0.00    -0.327 N 
HETATM   27  C   UNL     1      -3.652  -0.977 -31.836  1.00  0.00     0.031 A 
HETATM   28  C   UNL     1      -4.405  -3.705 -34.217  1.00  0.00     0.222 C 
HETATM   29  H   UNL     1      -3.177  -3.171 -32.819  1.00  0.00     0.169 HD
HETATM   30  O   UNL     1      -3.753  -4.751 -34.310  1.00  0.00    -0.273 OA
HETATM   31  C   UNL     1      -5.561  -3.473 -35.145  1.00  0.00     0.103 C 
HETATM   32  C   UNL     1      -6.710  -2.690 -34.555  1.00  0.00     0.014 C 
HETATM   33  C   UNL     1      -3.956   0.261 -31.270  1.00  0.00     0.027 A 
ENDBRANCH  18  21
ENDBRANCH   1  18
TORSDOF 8
ENDMDL
