MODEL 1
REMARK VINA RESULT:      -8.0      0.000      0.000
REMARK  3 active torsions:
REMARK  status: ('A' for Active; 'I' for Inactive)
REMARK    1  A    between atoms: C_9  and  C_10 
REMARK    2  A    between atoms: C_16  and  C_17 
REMARK       I    between atoms: C_17  and  N_18 
REMARK    3  A    between atoms: N_18  and  C_19 
ROOT
HETATM    1  C   UNL     1      -3.343   0.766 -30.905  1.00  0.00     0.070 C 
HETATM    2  C   UNL     1      -4.214   1.624 -31.789  1.00  0.00     0.037 C 
HETATM    3  N   UNL     1      -3.889   2.977 -31.819  1.00  0.00    -0.192 N 
HETATM    4  C   UNL     1      -4.384   3.829 -32.738  1.00  0.00     0.725 A 
HETATM    5  N   UNL     1      -5.371   3.404 -33.585  1.00  0.00    -0.084 N 
HETATM    6  N   UNL     1      -5.688   4.357 -34.486  1.00  0.00    -0.149 NA
HETATM    7  C   UNL     1      -4.878   5.347 -34.092  1.00  0.00     0.275 A 
HETATM    8  N   UNL     1      -4.067   5.066 -33.022  1.00  0.00    -0.054 NA
HETATM    9  C   UNL     1      -5.972   2.067 -33.541  1.00  0.00     0.202 C 
HETATM   10  C   UNL     1      -5.211   1.157 -32.581  1.00  0.00     0.062 C 
HETATM   11  H   UNL     1      -3.076   3.277 -31.285  1.00  0.00     0.184 HD
ENDROOT
BRANCH  10  12
HETATM   12  C   UNL     1      -5.585  -0.277 -32.688  1.00  0.00     0.256 C 
HETATM   13  N   UNL     1      -4.986  -0.927 -33.743  1.00  0.00    -0.322 N 
HETATM   14  H   UNL     1      -4.326  -0.402 -34.302  1.00  0.00     0.169 HD
HETATM   15  O   UNL     1      -6.319  -0.764 -31.840  1.00  0.00    -0.267 OA
BRANCH  13  16
HETATM   16  C   UNL     1      -5.210  -2.264 -34.139  1.00  0.00     0.052 A 
HETATM   17  C   UNL     1      -4.284  -3.298 -34.032  1.00  0.00     0.145 A 
HETATM   18  N   UNL     1      -4.532  -4.584 -34.397  1.00  0.00    -0.271 NA
HETATM   19  C   UNL     1      -5.756  -4.853 -34.889  1.00  0.00     0.116 A 
HETATM   20  C   UNL     1      -6.748  -3.898 -35.038  1.00  0.00     0.021 A 
HETATM   21  C   UNL     1      -6.465  -2.587 -34.659  1.00  0.00     0.032 A 
ENDBRANCH  13  16
ENDBRANCH  10  12
BRANCH   9  22
HETATM   22  C   UNL     1      -7.452   2.156 -33.180  1.00  0.00    -0.025 A 
HETATM   23  C   UNL     1      -8.421   1.755 -34.108  1.00  0.00     0.029 A 
HETATM   24  C   UNL     1      -9.758   1.820 -33.750  1.00  0.00     0.117 A 
HETATM   25  N   UNL     1     -10.192   2.246 -32.545  1.00  0.00    -0.273 NA
HETATM   26  C   UNL     1      -9.250   2.631 -31.661  1.00  0.00     0.117 A 
HETATM   27  C   UNL     1      -7.888   2.596 -31.922  1.00  0.00     0.029 A 
ENDBRANCH   9  22
TORSDOF 3
ENDMDL
MODEL 2
REMARK VINA RESULT:      -7.7      1.754      4.184
REMARK  3 active torsions:
REMARK  status: ('A' for Active; 'I' for Inactive)
REMARK    1  A    between atoms: C_9  and  C_10 
REMARK    2  A    between atoms: C_16  and  C_17 
REMARK       I    between atoms: C_17  and  N_18 
REMARK    3  A    between atoms: N_18  and  C_19 
ROOT
HETATM    1  C   UNL     1     -10.092  -0.029 -32.714  1.00  0.00     0.070 C 
HETATM    2  C   UNL     1      -9.384   1.191 -32.179  1.00  0.00     0.037 C 
HETATM    3  N   UNL     1     -10.197   2.292 -31.926  1.00  0.00    -0.192 N 
HETATM    4  C   UNL     1      -9.785   3.359 -31.212  1.00  0.00     0.725 A 
HETATM    5  N   UNL     1      -8.468   3.456 -30.849  1.00  0.00    -0.084 N 
HETATM    6  N   UNL     1      -8.252   4.540 -30.076  1.00  0.00    -0.149 NA
HETATM    7  C   UNL     1      -9.479   5.073 -30.050  1.00  0.00     0.275 A 
HETATM    8  N   UNL     1     -10.446   4.383 -30.737  1.00  0.00    -0.054 NA
HETATM    9  C   UNL     1      -7.439   2.480 -31.222  1.00  0.00     0.202 C 
HETATM   10  C   UNL     1      -8.064   1.250 -31.874  1.00  0.00     0.062 C 
HETATM   11  H   UNL     1     -11.197   2.184 -32.078  1.00  0.00     0.184 HD
ENDROOT
BRANCH  10  12
HETATM   12  C   UNL     1      -7.125   0.108 -32.026  1.00  0.00     0.256 C 
HETATM   13  N   UNL     1      -6.957  -0.302 -33.329  1.00  0.00    -0.322 N 
HETATM   14  H   UNL     1      -7.433   0.226 -34.050  1.00  0.00     0.169 HD
HETATM   15  O   UNL     1      -6.554  -0.325 -31.036  1.00  0.00    -0.267 OA
BRANCH  13  16
HETATM   16  C   UNL     1      -6.192  -1.404 -33.769  1.00  0.00     0.052 A 
HETATM   17  C   UNL     1      -4.821  -1.555 -33.581  1.00  0.00     0.145 A 
HETATM   18  N   UNL     1      -4.111  -2.638 -33.992  1.00  0.00    -0.271 NA
HETATM   19  C   UNL     1      -4.795  -3.616 -34.617  1.00  0.00     0.116 A 
HETATM   20  C   UNL     1      -6.158  -3.563 -34.856  1.00  0.00     0.021 A 
HETATM   21  C   UNL     1      -6.861  -2.439 -34.426  1.00  0.00     0.032 A 
ENDBRANCH  13  16
ENDBRANCH  10  12
BRANCH   9  22
HETATM   22  C   UNL     1      -6.390   3.124 -32.123  1.00  0.00    -0.025 A 
HETATM   23  C   UNL     1      -5.062   3.219 -31.688  1.00  0.00     0.029 A 
HETATM   24  C   UNL     1      -4.120   3.785 -32.533  1.00  0.00     0.117 A 
HETATM   25  N   UNL     1      -4.404   4.251 -33.768  1.00  0.00    -0.273 NA
HETATM   26  C   UNL     1      -5.686   4.155 -34.174  1.00  0.00     0.117 A 
HETATM   27  C   UNL     1      -6.699   3.600 -33.406  1.00  0.00     0.029 A 
ENDBRANCH   9  22
TORSDOF 3
ENDMDL
MODEL 3
REMARK VINA RESULT:      -7.5      2.045      4.099
REMARK  3 active torsions:
REMARK  status: ('A' for Active; 'I' for Inactive)
REMARK    1  A    between atoms: C_9  and  C_10 
REMARK    2  A    between atoms: C_16  and  C_17 
REMARK       I    between atoms: C_17  and  N_18 
REMARK    3  A    between atoms: N_18  and  C_19 
ROOT
HETATM    1  C   UNL     1      -9.484   2.046 -33.035  1.00  0.00     0.070 C 
HETATM    2  C   UNL     1      -8.259   2.637 -32.382  1.00  0.00     0.037 C 
HETATM    3  N   UNL     1      -8.504   3.613 -31.420  1.00  0.00    -0.192 N 
HETATM    4  C   UNL     1      -7.561   4.052 -30.565  1.00  0.00     0.725 A 
HETATM    5  N   UNL     1      -6.262   3.655 -30.735  1.00  0.00    -0.084 N 
HETATM    6  N   UNL     1      -5.472   4.123 -29.746  1.00  0.00    -0.149 NA
HETATM    7  C   UNL     1      -6.359   4.832 -29.038  1.00  0.00     0.275 A 
HETATM    8  N   UNL     1      -7.648   4.819 -29.508  1.00  0.00    -0.054 NA
HETATM    9  C   UNL     1      -5.803   2.794 -31.831  1.00  0.00     0.202 C 
HETATM   10  C   UNL     1      -6.985   2.235 -32.617  1.00  0.00     0.062 C 
HETATM   11  H   UNL     1      -9.475   3.824 -31.202  1.00  0.00     0.184 HD
ENDROOT
BRANCH  10  12
HETATM   12  C   UNL     1      -6.618   1.146 -33.559  1.00  0.00     0.256 C 
HETATM   13  N   UNL     1      -6.447  -0.078 -32.951  1.00  0.00    -0.322 N 
HETATM   14  H   UNL     1      -6.631  -0.136 -31.958  1.00  0.00     0.169 HD
HETATM   15  O   UNL     1      -6.553   1.392 -34.755  1.00  0.00    -0.267 OA
BRANCH  13  16
HETATM   16  C   UNL     1      -6.024  -1.272 -33.575  1.00  0.00     0.052 A 
HETATM   17  C   UNL     1      -4.707  -1.717 -33.646  1.00  0.00     0.145 A 
HETATM   18  N   UNL     1      -4.328  -2.884 -34.230  1.00  0.00    -0.271 NA
HETATM   19  C   UNL     1      -5.302  -3.642 -34.768  1.00  0.00     0.116 A 
HETATM   20  C   UNL     1      -6.641  -3.290 -34.754  1.00  0.00     0.021 A 
HETATM   21  C   UNL     1      -7.002  -2.087 -34.150  1.00  0.00     0.032 A 
ENDBRANCH  13  16
ENDBRANCH  10  12
BRANCH   9  22
HETATM   22  C   UNL     1      -4.831   3.547 -32.733  1.00  0.00    -0.025 A 
HETATM   23  C   UNL     1      -5.322   4.432 -33.702  1.00  0.00     0.029 A 
HETATM   24  C   UNL     1      -4.420   5.125 -34.494  1.00  0.00     0.117 A 
HETATM   25  N   UNL     1      -3.080   5.004 -34.386  1.00  0.00    -0.273 NA
HETATM   26  C   UNL     1      -2.620   4.148 -33.452  1.00  0.00     0.117 A 
HETATM   27  C   UNL     1      -3.440   3.415 -32.607  1.00  0.00     0.029 A 
ENDBRANCH   9  22
TORSDOF 3
ENDMDL
MODEL 4
REMARK VINA RESULT:      -7.3      2.506      5.672
REMARK  3 active torsions:
REMARK  status: ('A' for Active; 'I' for Inactive)
REMARK    1  A    between atoms: C_9  and  C_10 
REMARK    2  A    between atoms: C_16  and  C_17 
REMARK       I    between atoms: C_17  and  N_18 
REMARK    3  A    between atoms: N_18  and  C_19 
ROOT
HETATM    1  C   UNL     1      -9.134   5.490 -34.208  1.00  0.00     0.070 C 
HETATM    2  C   UNL     1      -8.070   4.517 -33.763  1.00  0.00     0.037 C 
HETATM    3  N   UNL     1      -6.758   4.966 -33.883  1.00  0.00    -0.192 N 
HETATM    4  C   UNL     1      -5.715   4.345 -33.300  1.00  0.00     0.725 A 
HETATM    5  N   UNL     1      -5.907   3.132 -32.695  1.00  0.00    -0.084 N 
HETATM    6  N   UNL     1      -4.779   2.696 -32.098  1.00  0.00    -0.149 NA
HETATM    7  C   UNL     1      -3.933   3.682 -32.422  1.00  0.00     0.275 A 
HETATM    8  N   UNL     1      -4.466   4.708 -33.161  1.00  0.00    -0.054 NA
HETATM    9  C   UNL     1      -7.191   2.423 -32.668  1.00  0.00     0.202 C 
HETATM   10  C   UNL     1      -8.314   3.304 -33.206  1.00  0.00     0.062 C 
HETATM   11  H   UNL     1      -6.616   5.917 -34.217  1.00  0.00     0.184 HD
ENDROOT
BRANCH  10  12
HETATM   12  C   UNL     1      -9.675   2.764 -32.955  1.00  0.00     0.256 C 
HETATM   13  N   UNL     1     -10.241   2.156 -34.053  1.00  0.00    -0.322 N 
HETATM   14  H   UNL     1      -9.679   2.089 -34.892  1.00  0.00     0.169 HD
HETATM   15  O   UNL     1     -10.147   2.844 -31.830  1.00  0.00    -0.267 OA
BRANCH  13  16
HETATM   16  C   UNL     1     -11.546   1.623 -34.136  1.00  0.00     0.052 A 
HETATM   17  C   UNL     1     -12.608   2.204 -34.825  1.00  0.00     0.145 A 
HETATM   18  N   UNL     1     -13.849   1.657 -34.912  1.00  0.00    -0.271 NA
HETATM   19  C   UNL     1     -14.043   0.481 -34.286  1.00  0.00     0.116 A 
HETATM   20  C   UNL     1     -13.056  -0.178 -33.573  1.00  0.00     0.021 A 
HETATM   21  C   UNL     1     -11.793   0.406 -33.498  1.00  0.00     0.032 A 
ENDBRANCH  13  16
ENDBRANCH  10  12
BRANCH   9  22
HETATM   22  C   UNL     1      -7.093   1.106 -33.431  1.00  0.00    -0.025 A 
HETATM   23  C   UNL     1      -7.117  -0.108 -32.732  1.00  0.00     0.029 A 
HETATM   24  C   UNL     1      -7.052  -1.294 -33.447  1.00  0.00     0.117 A 
HETATM   25  N   UNL     1      -6.973  -1.354 -34.794  1.00  0.00    -0.273 NA
HETATM   26  C   UNL     1      -6.949  -0.179 -35.454  1.00  0.00     0.117 A 
HETATM   27  C   UNL     1      -7.015   1.058 -34.831  1.00  0.00     0.029 A 
ENDBRANCH   9  22
TORSDOF 3
ENDMDL
MODEL 5
REMARK VINA RESULT:      -7.3      2.387      2.832
REMARK  3 active torsions:
REMARK  status: ('A' for Active; 'I' for Inactive)
REMARK    1  A    between atoms: C_9  and  C_10 
REMARK    2  A    between atoms: C_16  and  C_17 
REMARK       I    between atoms: C_17  and  N_18 
REMARK    3  A    between atoms: N_18  and  C_19 
ROOT
HETATM    1  C   UNL     1      -5.640   0.704 -29.703  1.00  0.00     0.070 C 
HETATM    2  C   UNL     1      -6.538   1.750 -30.315  1.00  0.00     0.037 C 
HETATM    3  N   UNL     1      -7.087   2.666 -29.421  1.00  0.00    -0.192 N 
HETATM    4  C   UNL     1      -7.690   3.804 -29.816  1.00  0.00     0.725 A 
HETATM    5  N   UNL     1      -7.927   4.011 -31.149  1.00  0.00    -0.084 N 
HETATM    6  N   UNL     1      -8.461   5.231 -31.367  1.00  0.00    -0.149 NA
HETATM    7  C   UNL     1      -8.557   5.686 -30.113  1.00  0.00     0.275 A 
HETATM    8  N   UNL     1      -8.100   4.841 -29.133  1.00  0.00    -0.054 NA
HETATM    9  C   UNL     1      -7.599   3.044 -32.201  1.00  0.00     0.202 C 
HETATM   10  C   UNL     1      -6.775   1.888 -31.643  1.00  0.00     0.062 C 
HETATM   11  H   UNL     1      -6.814   2.590 -28.444  1.00  0.00     0.184 HD
ENDROOT
BRANCH  10  12
HETATM   12  C   UNL     1      -6.174   1.019 -32.689  1.00  0.00     0.256 C 
HETATM   13  N   UNL     1      -6.557  -0.300 -32.600  1.00  0.00    -0.322 N 
HETATM   14  H   UNL     1      -7.232  -0.544 -31.887  1.00  0.00     0.169 HD
HETATM   15  O   UNL     1      -5.462   1.526 -33.543  1.00  0.00    -0.267 OA
BRANCH  13  16
HETATM   16  C   UNL     1      -6.091  -1.364 -33.403  1.00  0.00     0.052 A 
HETATM   17  C   UNL     1      -4.765  -1.778 -33.496  1.00  0.00     0.145 A 
HETATM   18  N   UNL     1      -4.345  -2.823 -34.256  1.00  0.00    -0.271 NA
HETATM   19  C   UNL     1      -5.286  -3.485 -34.957  1.00  0.00     0.116 A 
HETATM   20  C   UNL     1      -6.630  -3.154 -34.937  1.00  0.00     0.021 A 
HETATM   21  C   UNL     1      -7.033  -2.076 -34.149  1.00  0.00     0.032 A 
ENDBRANCH  13  16
ENDBRANCH  10  12
BRANCH   9  22
HETATM   22  C   UNL     1      -8.867   2.551 -32.891  1.00  0.00    -0.025 A 
HETATM   23  C   UNL     1      -9.330   3.199 -34.043  1.00  0.00     0.029 A 
HETATM   24  C   UNL     1     -10.470   2.719 -34.669  1.00  0.00     0.117 A 
HETATM   25  N   UNL     1     -11.169   1.649 -34.235  1.00  0.00    -0.273 NA
HETATM   26  C   UNL     1     -10.715   1.036 -33.124  1.00  0.00     0.117 A 
HETATM   27  C   UNL     1      -9.581   1.435 -32.431  1.00  0.00     0.029 A 
ENDBRANCH   9  22
TORSDOF 3
ENDMDL
MODEL 6
REMARK VINA RESULT:      -7.1      2.515      6.558
REMARK  3 active torsions:
REMARK  status: ('A' for Active; 'I' for Inactive)
REMARK    1  A    between atoms: C_9  and  C_10 
REMARK    2  A    between atoms: C_16  and  C_17 
REMARK       I    between atoms: C_17  and  N_18 
REMARK    3  A    between atoms: N_18  and  C_19 
ROOT
HETATM    1  C   UNL     1      -5.730   3.748 -29.688  1.00  0.00     0.070 C 
HETATM    2  C   UNL     1      -6.136   2.673 -30.665  1.00  0.00     0.037 C 
HETATM    3  N   UNL     1      -7.407   2.140 -30.476  1.00  0.00    -0.192 N 
HETATM    4  C   UNL     1      -8.024   1.372 -31.395  1.00  0.00     0.725 A 
HETATM    5  N   UNL     1      -7.329   0.953 -32.497  1.00  0.00    -0.084 N 
HETATM    6  N   UNL     1      -8.121   0.265 -33.345  1.00  0.00    -0.149 NA
HETATM    7  C   UNL     1      -9.274   0.273 -32.666  1.00  0.00     0.275 A 
HETATM    8  N   UNL     1      -9.256   0.936 -31.465  1.00  0.00    -0.054 NA
HETATM    9  C   UNL     1      -5.914   1.255 -32.739  1.00  0.00     0.202 C 
HETATM   10  C   UNL     1      -5.389   2.263 -31.720  1.00  0.00     0.062 C 
HETATM   11  H   UNL     1      -7.977   2.536 -29.732  1.00  0.00     0.184 HD
ENDROOT
BRANCH  10  12
HETATM   12  C   UNL     1      -4.056   2.824 -32.063  1.00  0.00     0.256 C 
HETATM   13  N   UNL     1      -4.116   3.963 -32.834  1.00  0.00    -0.322 N 
HETATM   14  H   UNL     1      -5.033   4.335 -33.048  1.00  0.00     0.169 HD
HETATM   15  O   UNL     1      -3.054   2.290 -31.611  1.00  0.00    -0.267 OA
BRANCH  13  16
HETATM   16  C   UNL     1      -3.019   4.669 -33.374  1.00  0.00     0.052 A 
HETATM   17  C   UNL     1      -2.570   4.571 -34.688  1.00  0.00     0.145 A 
HETATM   18  N   UNL     1      -1.526   5.281 -35.191  1.00  0.00    -0.271 NA
HETATM   19  C   UNL     1      -0.901   6.127 -34.349  1.00  0.00     0.116 A 
HETATM   20  C   UNL     1      -1.267   6.298 -33.025  1.00  0.00     0.021 A 
HETATM   21  C   UNL     1      -2.339   5.555 -32.534  1.00  0.00     0.032 A 
ENDBRANCH  13  16
ENDBRANCH  10  12
BRANCH   9  22
HETATM   22  C   UNL     1      -5.085  -0.026 -32.743  1.00  0.00    -0.025 A 
HETATM   23  C   UNL     1      -4.470  -0.462 -31.562  1.00  0.00     0.029 A 
HETATM   24  C   UNL     1      -3.743  -1.642 -31.582  1.00  0.00     0.117 A 
HETATM   25  N   UNL     1      -3.593  -2.412 -32.681  1.00  0.00    -0.273 NA
HETATM   26  C   UNL     1      -4.188  -1.980 -33.811  1.00  0.00     0.117 A 
HETATM   27  C   UNL     1      -4.941  -0.818 -33.891  1.00  0.00     0.029 A 
ENDBRANCH   9  22
TORSDOF 3
ENDMDL
MODEL 7
REMARK VINA RESULT:      -6.9      2.655      4.974
REMARK  3 active torsions:
REMARK  status: ('A' for Active; 'I' for Inactive)
REMARK    1  A    between atoms: C_9  and  C_10 
REMARK    2  A    between atoms: C_16  and  C_17 
REMARK       I    between atoms: C_17  and  N_18 
REMARK    3  A    between atoms: N_18  and  C_19 
ROOT
HETATM    1  C   UNL     1      -7.928   0.031 -35.150  1.00  0.00     0.070 C 
HETATM    2  C   UNL     1      -8.644   1.042 -34.289  1.00  0.00     0.037 C 
HETATM    3  N   UNL     1      -9.746   1.657 -34.877  1.00  0.00    -0.192 N 
HETATM    4  C   UNL     1     -10.643   2.378 -34.176  1.00  0.00     0.725 A 
HETATM    5  N   UNL     1     -10.395   2.664 -32.861  1.00  0.00    -0.084 N 
HETATM    6  N   UNL     1     -11.431   3.321 -32.298  1.00  0.00    -0.149 NA
HETATM    7  C   UNL     1     -12.252   3.432 -33.349  1.00  0.00     0.275 A 
HETATM    8  N   UNL     1     -11.805   2.872 -34.519  1.00  0.00    -0.054 NA
HETATM    9  C   UNL     1      -9.175   2.267 -32.150  1.00  0.00     0.202 C 
HETATM   10  C   UNL     1      -8.331   1.321 -32.999  1.00  0.00     0.062 C 
HETATM   11  H   UNL     1     -10.009   1.356 -35.812  1.00  0.00     0.184 HD
ENDROOT
BRANCH  10  12
HETATM   12  C   UNL     1      -7.230   0.662 -32.250  1.00  0.00     0.256 C 
HETATM   13  N   UNL     1      -5.986   0.863 -32.804  1.00  0.00    -0.322 N 
HETATM   14  H   UNL     1      -5.927   1.463 -33.616  1.00  0.00     0.169 HD
HETATM   15  O   UNL     1      -7.491   0.067 -31.215  1.00  0.00    -0.267 OA
BRANCH  13  16
HETATM   16  C   UNL     1      -4.770   0.299 -32.360  1.00  0.00     0.052 A 
HETATM   17  C   UNL     1      -3.832   0.944 -31.558  1.00  0.00     0.145 A 
HETATM   18  N   UNL     1      -2.680   0.371 -31.122  1.00  0.00    -0.271 NA
HETATM   19  C   UNL     1      -2.450  -0.902 -31.499  1.00  0.00     0.116 A 
HETATM   20  C   UNL     1      -3.316  -1.632 -32.295  1.00  0.00     0.021 A 
HETATM   21  C   UNL     1      -4.490  -1.018 -32.731  1.00  0.00     0.032 A 
ENDBRANCH  13  16
ENDBRANCH  10  12
BRANCH   9  22
HETATM   22  C   UNL     1      -8.382   3.497 -31.719  1.00  0.00    -0.025 A 
HETATM   23  C   UNL     1      -8.201   3.767 -30.356  1.00  0.00     0.029 A 
HETATM   24  C   UNL     1      -7.455   4.875 -29.986  1.00  0.00     0.117 A 
HETATM   25  N   UNL     1      -6.878   5.719 -30.868  1.00  0.00    -0.273 NA
HETATM   26  C   UNL     1      -7.062   5.450 -32.176  1.00  0.00     0.117 A 
HETATM   27  C   UNL     1      -7.784   4.363 -32.646  1.00  0.00     0.029 A 
ENDBRANCH   9  22
TORSDOF 3
ENDMDL
MODEL 8
REMARK VINA RESULT:      -6.9      2.354      6.179
REMARK  3 active torsions:
REMARK  status: ('A' for Active; 'I' for Inactive)
REMARK    1  A    between atoms: C_9  and  C_10 
REMARK    2  A    between atoms: C_16  and  C_17 
REMARK       I    between atoms: C_17  and  N_18 
REMARK    3  A    between atoms: N_18  and  C_19 
ROOT
HETATM    1  C   UNL     1      -3.416   1.158 -32.135  1.00  0.00     0.070 C 
HETATM    2  C   UNL     1      -4.599   0.361 -32.626  1.00  0.00     0.037 C 
HETATM    3  N   UNL     1      -4.336  -0.522 -33.669  1.00  0.00    -0.192 N 
HETATM    4  C   UNL     1      -5.198  -1.486 -34.049  1.00  0.00     0.725 A 
HETATM    5  N   UNL     1      -6.456  -1.513 -33.508  1.00  0.00    -0.084 N 
HETATM    6  N   UNL     1      -7.152  -2.585 -33.939  1.00  0.00    -0.149 NA
HETATM    7  C   UNL     1      -6.262  -3.137 -34.773  1.00  0.00     0.275 A 
HETATM    8  N   UNL     1      -5.055  -2.492 -34.871  1.00  0.00    -0.054 NA
HETATM    9  C   UNL     1      -6.959  -0.523 -32.550  1.00  0.00     0.202 C 
HETATM   10  C   UNL     1      -5.840   0.402 -32.080  1.00  0.00     0.062 C 
HETATM   11  H   UNL     1      -3.374  -0.595 -33.992  1.00  0.00     0.184 HD
ENDROOT
BRANCH  10  12
HETATM   12  C   UNL     1      -6.208   1.244 -30.913  1.00  0.00     0.256 C 
HETATM   13  N   UNL     1      -6.398   2.571 -31.225  1.00  0.00    -0.322 N 
HETATM   14  H   UNL     1      -6.323   2.837 -32.199  1.00  0.00     0.169 HD
HETATM   15  O   UNL     1      -6.362   0.712 -29.823  1.00  0.00    -0.267 OA
BRANCH  13  16
HETATM   16  C   UNL     1      -6.676   3.615 -30.316  1.00  0.00     0.052 A 
HETATM   17  C   UNL     1      -7.944   4.112 -30.029  1.00  0.00     0.145 A 
HETATM   18  N   UNL     1      -8.189   5.101 -29.129  1.00  0.00    -0.271 NA
HETATM   19  C   UNL     1      -7.124   5.618 -28.486  1.00  0.00     0.116 A 
HETATM   20  C   UNL     1      -5.823   5.197 -28.699  1.00  0.00     0.021 A 
HETATM   21  C   UNL     1      -5.600   4.183 -29.629  1.00  0.00     0.032 A 
ENDBRANCH  13  16
ENDBRANCH  10  12
BRANCH   9  22
HETATM   22  C   UNL     1      -8.122   0.261 -33.150  1.00  0.00    -0.025 A 
HETATM   23  C   UNL     1      -9.429   0.016 -32.709  1.00  0.00     0.029 A 
HETATM   24  C   UNL     1     -10.468   0.757 -33.249  1.00  0.00     0.117 A 
HETATM   25  N   UNL     1     -10.298   1.717 -34.183  1.00  0.00    -0.273 NA
HETATM   26  C   UNL     1      -9.037   1.941 -34.601  1.00  0.00     0.117 A 
HETATM   27  C   UNL     1      -7.931   1.259 -34.117  1.00  0.00     0.029 A 
ENDBRANCH   9  22
TORSDOF 3
ENDMDL
MODEL 9
REMARK VINA RESULT:      -6.7      2.627      6.580
REMARK  3 active torsions:
REMARK  status: ('A' for Active; 'I' for Inactive)
REMARK    1  A    between atoms: C_9  and  C_10 
REMARK    2  A    between atoms: C_16  and  C_17 
REMARK       I    between atoms: C_17  and  N_18 
REMARK    3  A    between atoms: N_18  and  C_19 
ROOT
HETATM    1  C   UNL     1      -8.200   5.842 -31.752  1.00  0.00     0.070 C 
HETATM    2  C   UNL     1      -8.390   4.469 -32.347  1.00  0.00     0.037 C 
HETATM    3  N   UNL     1      -9.674   3.941 -32.238  1.00  0.00    -0.192 N 
HETATM    4  C   UNL     1     -10.083   2.860 -32.930  1.00  0.00     0.725 A 
HETATM    5  N   UNL     1      -9.170   2.140 -33.653  1.00  0.00    -0.084 N 
HETATM    6  N   UNL     1      -9.766   1.146 -34.343  1.00  0.00    -0.149 NA
HETATM    7  C   UNL     1     -11.036   1.302 -33.953  1.00  0.00     0.275 A 
HETATM    8  N   UNL     1     -11.272   2.337 -33.084  1.00  0.00    -0.054 NA
HETATM    9  C   UNL     1      -7.736   2.444 -33.700  1.00  0.00     0.202 C 
HETATM   10  C   UNL     1      -7.437   3.777 -33.020  1.00  0.00     0.062 C 
HETATM   11  H   UNL     1     -10.388   4.526 -31.810  1.00  0.00     0.184 HD
ENDROOT
BRANCH  10  12
HETATM   12  C   UNL     1      -6.062   4.282 -33.267  1.00  0.00     0.256 C 
HETATM   13  N   UNL     1      -5.249   4.240 -32.157  1.00  0.00    -0.322 N 
HETATM   14  H   UNL     1      -5.631   3.835 -31.312  1.00  0.00     0.169 HD
HETATM   15  O   UNL     1      -5.752   4.629 -34.398  1.00  0.00    -0.267 OA
BRANCH  13  16
HETATM   16  C   UNL     1      -3.925   4.723 -32.070  1.00  0.00     0.052 A 
HETATM   17  C   UNL     1      -2.779   3.932 -32.097  1.00  0.00     0.145 A 
HETATM   18  N   UNL     1      -1.514   4.423 -32.037  1.00  0.00    -0.271 NA
HETATM   19  C   UNL     1      -1.381   5.760 -31.947  1.00  0.00     0.116 A 
HETATM   20  C   UNL     1      -2.454   6.635 -31.911  1.00  0.00     0.021 A 
HETATM   21  C   UNL     1      -3.741   6.104 -31.971  1.00  0.00     0.032 A 
ENDBRANCH  13  16
ENDBRANCH  10  12
BRANCH   9  22
HETATM   22  C   UNL     1      -6.926   1.305 -33.089  1.00  0.00    -0.025 A 
HETATM   23  C   UNL     1      -7.098   0.975 -31.738  1.00  0.00     0.029 A 
HETATM   24  C   UNL     1      -6.371  -0.080 -31.209  1.00  0.00     0.117 A 
HETATM   25  N   UNL     1      -5.500  -0.824 -31.924  1.00  0.00    -0.273 NA
HETATM   26  C   UNL     1      -5.343  -0.494 -33.222  1.00  0.00     0.117 A 
HETATM   27  C   UNL     1      -6.028   0.538 -33.845  1.00  0.00     0.029 A 
ENDBRANCH   9  22
TORSDOF 3
ENDMDL
MODEL 10
REMARK VINA RESULT:      -6.6      3.251      4.643
REMARK  3 active torsions:
REMARK  status: ('A' for Active; 'I' for Inactive)
REMARK    1  A    between atoms: C_9  and  C_10 
REMARK    2  A    between atoms: C_16  and  C_17 
REMARK       I    between atoms: C_17  and  N_18 
REMARK    3  A    between atoms: N_18  and  C_19 
ROOT
HETATM    1  C   UNL     1      -4.471   0.615 -31.543  1.00  0.00     0.070 C 
HETATM    2  C   UNL     1      -4.272   2.098 -31.736  1.00  0.00     0.037 C 
HETATM    3  N   UNL     1      -3.097   2.619 -31.202  1.00  0.00    -0.192 N 
HETATM    4  C   UNL     1      -2.638   3.850 -31.504  1.00  0.00     0.725 A 
HETATM    5  N   UNL     1      -3.424   4.700 -32.234  1.00  0.00    -0.084 N 
HETATM    6  N   UNL     1      -2.778   5.851 -32.509  1.00  0.00    -0.149 NA
HETATM    7  C   UNL     1      -1.619   5.640 -31.874  1.00  0.00     0.275 A 
HETATM    8  N   UNL     1      -1.495   4.429 -31.242  1.00  0.00    -0.054 NA
HETATM    9  C   UNL     1      -4.780   4.375 -32.692  1.00  0.00     0.202 C 
HETATM   10  C   UNL     1      -5.106   2.907 -32.435  1.00  0.00     0.062 C 
HETATM   11  H   UNL     1      -2.449   1.967 -30.766  1.00  0.00     0.184 HD
ENDROOT
BRANCH  10  12
HETATM   12  C   UNL     1      -6.342   2.439 -33.115  1.00  0.00     0.256 C 
HETATM   13  N   UNL     1      -7.419   2.297 -32.270  1.00  0.00    -0.322 N 
HETATM   14  H   UNL     1      -7.293   2.565 -31.303  1.00  0.00     0.169 HD
HETATM   15  O   UNL     1      -6.326   2.275 -34.327  1.00  0.00    -0.267 OA
BRANCH  13  16
HETATM   16  C   UNL     1      -8.695   1.799 -32.615  1.00  0.00     0.052 A 
HETATM   17  C   UNL     1      -9.752   2.565 -33.098  1.00  0.00     0.145 A 
HETATM   18  N   UNL     1     -10.963   2.057 -33.448  1.00  0.00    -0.271 NA
HETATM   19  C   UNL     1     -11.130   0.727 -33.311  1.00  0.00     0.116 A 
HETATM   20  C   UNL     1     -10.145  -0.123 -32.838  1.00  0.00     0.021 A 
HETATM   21  C   UNL     1      -8.913   0.425 -32.484  1.00  0.00     0.032 A 
ENDBRANCH  13  16
ENDBRANCH  10  12
BRANCH   9  22
HETATM   22  C   UNL     1      -5.802   5.302 -32.043  1.00  0.00    -0.025 A 
HETATM   23  C   UNL     1      -6.593   6.137 -32.842  1.00  0.00     0.029 A 
HETATM   24  C   UNL     1      -7.534   6.953 -32.233  1.00  0.00     0.117 A 
HETATM   25  N   UNL     1      -7.742   6.990 -30.900  1.00  0.00    -0.273 NA
HETATM   26  C   UNL     1      -6.973   6.184 -30.141  1.00  0.00     0.117 A 
HETATM   27  C   UNL     1      -6.011   5.328 -30.656  1.00  0.00     0.029 A 
ENDBRANCH   9  22
TORSDOF 3
ENDMDL
