MODEL 1
REMARK VINA RESULT:      -9.6      0.000      0.000
REMARK  2 active torsions:
REMARK  status: ('A' for Active; 'I' for Inactive)
REMARK    1  A    between atoms: C_4  and  C_5 
REMARK       I    between atoms: N_12  and  C_13 
REMARK    2  A    between atoms: C_13  and  C_14 
ROOT
HETATM    1  C   UNL     1      -4.109  -1.581 -32.871  1.00  0.00     0.097 A 
HETATM    2  N   UNL     1      -2.921  -1.880 -32.309  1.00  0.00    -0.173 NA
HETATM    3  N   UNL     1      -2.569  -0.781 -31.626  1.00  0.00    -0.281 N 
HETATM    4  H   UNL     1      -1.698  -0.795 -31.105  1.00  0.00     0.189 HD
HETATM    5  C   UNL     1      -3.489   0.208 -31.717  1.00  0.00     0.039 A 
HETATM    6  C   UNL     1      -4.495  -0.251 -32.535  1.00  0.00     0.015 A 
HETATM    7  C   UNL     1      -5.705   0.548 -32.871  1.00  0.00     0.169 C 
HETATM    8  N   UNL     1      -5.790   1.759 -32.019  1.00  0.00    -0.343 N 
HETATM    9  C   UNL     1      -6.930   2.571 -31.999  1.00  0.00     0.254 C 
HETATM   10  O   UNL     1      -6.943   3.715 -31.550  1.00  0.00    -0.267 OA
HETATM   11  C   UNL     1      -4.516   2.434 -31.678  1.00  0.00     0.132 C 
HETATM   12  C   UNL     1      -3.475   1.510 -31.018  1.00  0.00     0.079 C 
ENDROOT
BRANCH   9  13
HETATM   13  C   UNL     1      -8.190   2.078 -32.594  1.00  0.00     0.035 A 
HETATM   14  C   UNL     1      -8.839   2.904 -33.519  1.00  0.00     0.056 A 
HETATM   15  C   UNL     1     -10.028   2.452 -34.046  1.00  0.00     0.106 A 
HETATM   16  C   UNL     1     -10.571   1.242 -33.679  1.00  0.00     0.105 A 
HETATM   17  O   UNL     1     -10.793   3.111 -34.956  1.00  0.00    -0.323 OA
HETATM   18  O   UNL     1     -11.746   0.991 -34.316  1.00  0.00    -0.323 OA
HETATM   19  C   UNL     1      -9.962   0.419 -32.754  1.00  0.00     0.041 A 
HETATM   20  C   UNL     1     -11.896   2.192 -35.101  1.00  0.00     0.352 A 
HETATM   21  C   UNL     1      -8.757   0.850 -32.192  1.00  0.00     0.020 A 
ENDBRANCH   9  13
BRANCH   1  22
HETATM   22  C   UNL     1      -4.835  -2.585 -33.652  1.00  0.00    -0.005 A 
HETATM   23  C   UNL     1      -4.276  -3.861 -33.835  1.00  0.00     0.014 A 
HETATM   24  C   UNL     1      -4.961  -4.848 -34.546  1.00  0.00     0.001 A 
HETATM   25  C   UNL     1      -6.214  -4.571 -35.087  1.00  0.00     0.000 A 
HETATM   26  C   UNL     1      -6.776  -3.306 -34.927  1.00  0.00     0.001 A 
HETATM   27  C   UNL     1      -6.089  -2.316 -34.218  1.00  0.00     0.014 A 
ENDBRANCH   1  22
TORSDOF 2
ENDMDL
MODEL 2
REMARK VINA RESULT:      -9.5      3.277      5.793
REMARK  2 active torsions:
REMARK  status: ('A' for Active; 'I' for Inactive)
REMARK    1  A    between atoms: C_4  and  C_5 
REMARK       I    between atoms: N_12  and  C_13 
REMARK    2  A    between atoms: C_13  and  C_14 
ROOT
HETATM    1  C   UNL     1      -8.204   0.305 -32.745  1.00  0.00     0.097 A 
HETATM    2  N   UNL     1      -9.462  -0.174 -32.823  1.00  0.00    -0.173 NA
HETATM    3  N   UNL     1     -10.244   0.819 -32.374  1.00  0.00    -0.281 N 
HETATM    4  H   UNL     1     -11.249   0.673 -32.362  1.00  0.00     0.189 HD
HETATM    5  C   UNL     1      -9.541   1.921 -32.023  1.00  0.00     0.039 A 
HETATM    6  C   UNL     1      -8.211   1.631 -32.220  1.00  0.00     0.015 A 
HETATM    7  C   UNL     1      -7.114   2.601 -31.958  1.00  0.00     0.169 C 
HETATM    8  N   UNL     1      -7.659   3.959 -31.714  1.00  0.00    -0.343 N 
HETATM    9  C   UNL     1      -6.832   5.086 -31.639  1.00  0.00     0.254 C 
HETATM   10  O   UNL     1      -7.188   6.161 -31.159  1.00  0.00    -0.267 OA
HETATM   11  C   UNL     1      -8.935   4.049 -30.968  1.00  0.00     0.132 C 
HETATM   12  C   UNL     1     -10.081   3.224 -31.583  1.00  0.00     0.079 C 
ENDROOT
BRANCH   9  13
HETATM   13  C   UNL     1      -5.431   4.997 -32.100  1.00  0.00     0.035 A 
HETATM   14  C   UNL     1      -5.156   5.373 -33.421  1.00  0.00     0.056 A 
HETATM   15  C   UNL     1      -3.854   5.259 -33.853  1.00  0.00     0.106 A 
HETATM   16  C   UNL     1      -2.855   4.787 -33.033  1.00  0.00     0.105 A 
HETATM   17  O   UNL     1      -3.400   5.578 -35.094  1.00  0.00    -0.323 OA
HETATM   18  O   UNL     1      -1.648   4.753 -33.657  1.00  0.00    -0.323 OA
HETATM   19  C   UNL     1      -3.104   4.390 -31.734  1.00  0.00     0.041 A 
HETATM   20  C   UNL     1      -2.006   5.229 -34.972  1.00  0.00     0.352 A 
HETATM   21  C   UNL     1      -4.417   4.486 -31.264  1.00  0.00     0.020 A 
ENDBRANCH   9  13
BRANCH   1  22
HETATM   22  C   UNL     1      -7.073  -0.495 -33.219  1.00  0.00    -0.005 A 
HETATM   23  C   UNL     1      -5.911  -0.587 -32.435  1.00  0.00     0.014 A 
HETATM   24  C   UNL     1      -4.829  -1.370 -32.845  1.00  0.00     0.001 A 
HETATM   25  C   UNL     1      -4.895  -2.069 -34.048  1.00  0.00     0.000 A 
HETATM   26  C   UNL     1      -6.035  -1.976 -34.844  1.00  0.00     0.001 A 
HETATM   27  C   UNL     1      -7.117  -1.191 -34.435  1.00  0.00     0.014 A 
ENDBRANCH   1  22
TORSDOF 2
ENDMDL
MODEL 3
REMARK VINA RESULT:      -9.2      3.347      6.987
REMARK  2 active torsions:
REMARK  status: ('A' for Active; 'I' for Inactive)
REMARK    1  A    between atoms: C_4  and  C_5 
REMARK       I    between atoms: N_12  and  C_13 
REMARK    2  A    between atoms: C_13  and  C_14 
ROOT
HETATM    1  C   UNL     1      -5.906   5.150 -33.485  1.00  0.00     0.097 A 
HETATM    2  N   UNL     1      -6.447   6.361 -33.248  1.00  0.00    -0.173 NA
HETATM    3  N   UNL     1      -7.770   6.150 -33.188  1.00  0.00    -0.281 N 
HETATM    4  H   UNL     1      -8.377   6.941 -33.000  1.00  0.00     0.189 HD
HETATM    5  C   UNL     1      -8.100   4.848 -33.365  1.00  0.00     0.039 A 
HETATM    6  C   UNL     1      -6.929   4.162 -33.587  1.00  0.00     0.015 A 
HETATM    7  C   UNL     1      -6.873   2.693 -33.813  1.00  0.00     0.169 C 
HETATM    8  N   UNL     1      -8.182   2.063 -33.514  1.00  0.00    -0.343 N 
HETATM    9  C   UNL     1      -8.339   0.673 -33.457  1.00  0.00     0.254 C 
HETATM   10  O   UNL     1      -9.430   0.108 -33.505  1.00  0.00    -0.267 OA
HETATM   11  C   UNL     1      -9.397   2.831 -33.872  1.00  0.00     0.132 C 
HETATM   12  C   UNL     1      -9.445   4.246 -33.265  1.00  0.00     0.079 C 
ENDROOT
BRANCH   9  13
HETATM   13  C   UNL     1      -7.145  -0.196 -33.394  1.00  0.00     0.035 A 
HETATM   14  C   UNL     1      -6.948  -1.108 -34.438  1.00  0.00     0.056 A 
HETATM   15  C   UNL     1      -5.851  -1.935 -34.357  1.00  0.00     0.106 A 
HETATM   16  C   UNL     1      -4.980  -1.884 -33.293  1.00  0.00     0.105 A 
HETATM   17  O   UNL     1      -5.498  -2.875 -35.274  1.00  0.00    -0.323 OA
HETATM   18  O   UNL     1      -3.969  -2.786 -33.411  1.00  0.00    -0.323 OA
HETATM   19  C   UNL     1      -5.163  -1.010 -32.241  1.00  0.00     0.041 A 
HETATM   20  C   UNL     1      -4.319  -3.430 -34.654  1.00  0.00     0.352 A 
HETATM   21  C   UNL     1      -6.272  -0.160 -32.287  1.00  0.00     0.020 A 
ENDBRANCH   9  13
BRANCH   1  22
HETATM   22  C   UNL     1      -4.452   4.985 -33.551  1.00  0.00    -0.005 A 
HETATM   23  C   UNL     1      -3.769   5.316 -34.732  1.00  0.00     0.014 A 
HETATM   24  C   UNL     1      -2.379   5.200 -34.814  1.00  0.00     0.001 A 
HETATM   25  C   UNL     1      -1.655   4.748 -33.713  1.00  0.00     0.000 A 
HETATM   26  C   UNL     1      -2.320   4.401 -32.538  1.00  0.00     0.001 A 
HETATM   27  C   UNL     1      -3.711   4.514 -32.458  1.00  0.00     0.014 A 
ENDBRANCH   1  22
TORSDOF 2
ENDMDL
MODEL 4
REMARK VINA RESULT:      -9.0      3.594      6.345
REMARK  2 active torsions:
REMARK  status: ('A' for Active; 'I' for Inactive)
REMARK    1  A    between atoms: C_4  and  C_5 
REMARK       I    between atoms: N_12  and  C_13 
REMARK    2  A    between atoms: C_13  and  C_14 
ROOT
HETATM    1  C   UNL     1      -7.640   0.691 -31.844  1.00  0.00     0.097 A 
HETATM    2  N   UNL     1      -8.884   0.183 -31.737  1.00  0.00    -0.173 NA
HETATM    3  N   UNL     1      -9.631   1.182 -31.245  1.00  0.00    -0.281 N 
HETATM    4  H   UNL     1     -10.621   1.016 -31.098  1.00  0.00     0.189 HD
HETATM    5  C   UNL     1      -8.919   2.316 -31.042  1.00  0.00     0.039 A 
HETATM    6  C   UNL     1      -7.617   2.042 -31.391  1.00  0.00     0.015 A 
HETATM    7  C   UNL     1      -6.523   3.048 -31.320  1.00  0.00     0.169 C 
HETATM    8  N   UNL     1      -7.069   4.406 -31.079  1.00  0.00    -0.343 N 
HETATM    9  C   UNL     1      -6.270   5.552 -31.168  1.00  0.00     0.254 C 
HETATM   10  O   UNL     1      -6.592   6.643 -30.702  1.00  0.00    -0.267 OA
HETATM   11  C   UNL     1      -8.244   4.510 -30.183  1.00  0.00     0.132 C 
HETATM   12  C   UNL     1      -9.435   3.629 -30.605  1.00  0.00     0.079 C 
ENDROOT
BRANCH   9  13
HETATM   13  C   UNL     1      -4.936   5.467 -31.797  1.00  0.00     0.035 A 
HETATM   14  C   UNL     1      -3.825   5.348 -30.953  1.00  0.00     0.056 A 
HETATM   15  C   UNL     1      -2.584   5.300 -31.544  1.00  0.00     0.106 A 
HETATM   16  C   UNL     1      -2.426   5.374 -32.909  1.00  0.00     0.105 A 
HETATM   17  O   UNL     1      -1.398   5.183 -30.890  1.00  0.00    -0.323 OA
HETATM   18  O   UNL     1      -1.119   5.310 -33.282  1.00  0.00    -0.323 OA
HETATM   19  C   UNL     1      -3.502   5.512 -33.762  1.00  0.00     0.041 A 
HETATM   20  C   UNL     1      -0.472   5.219 -31.995  1.00  0.00     0.352 A 
HETATM   21  C   UNL     1      -4.779   5.572 -33.195  1.00  0.00     0.020 A 
ENDBRANCH   9  13
BRANCH   1  22
HETATM   22  C   UNL     1      -6.555  -0.111 -32.415  1.00  0.00    -0.005 A 
HETATM   23  C   UNL     1      -5.418  -0.392 -31.641  1.00  0.00     0.014 A 
HETATM   24  C   UNL     1      -4.383  -1.181 -32.147  1.00  0.00     0.001 A 
HETATM   25  C   UNL     1      -4.472  -1.698 -33.438  1.00  0.00     0.000 A 
HETATM   26  C   UNL     1      -5.587  -1.417 -34.224  1.00  0.00     0.001 A 
HETATM   27  C   UNL     1      -6.622  -0.624 -33.718  1.00  0.00     0.014 A 
ENDBRANCH   1  22
TORSDOF 2
ENDMDL
MODEL 5
REMARK VINA RESULT:      -8.9      3.238      6.789
REMARK  2 active torsions:
REMARK  status: ('A' for Active; 'I' for Inactive)
REMARK    1  A    between atoms: C_4  and  C_5 
REMARK       I    between atoms: N_12  and  C_13 
REMARK    2  A    between atoms: C_13  and  C_14 
ROOT
HETATM    1  C   UNL     1      -5.739   5.200 -31.966  1.00  0.00     0.097 A 
HETATM    2  N   UNL     1      -5.989   6.308 -31.241  1.00  0.00    -0.173 NA
HETATM    3  N   UNL     1      -7.163   6.075 -30.636  1.00  0.00    -0.281 N 
HETATM    4  H   UNL     1      -7.536   6.788 -30.018  1.00  0.00     0.189 HD
HETATM    5  C   UNL     1      -7.671   4.856 -30.933  1.00  0.00     0.039 A 
HETATM    6  C   UNL     1      -6.799   4.259 -31.813  1.00  0.00     0.015 A 
HETATM    7  C   UNL     1      -7.003   2.894 -32.368  1.00  0.00     0.169 C 
HETATM    8  N   UNL     1      -8.103   2.196 -31.659  1.00  0.00    -0.343 N 
HETATM    9  C   UNL     1      -8.364   0.834 -31.854  1.00  0.00     0.254 C 
HETATM   10  O   UNL     1      -9.416   0.289 -31.528  1.00  0.00    -0.267 OA
HETATM   11  C   UNL     1      -9.263   3.017 -31.240  1.00  0.00     0.132 C 
HETATM   12  C   UNL     1      -8.888   4.234 -30.373  1.00  0.00     0.079 C 
ENDROOT
BRANCH   9  13
HETATM   13  C   UNL     1      -7.364  -0.011 -32.540  1.00  0.00     0.035 A 
HETATM   14  C   UNL     1      -6.228  -0.393 -31.815  1.00  0.00     0.056 A 
HETATM   15  C   UNL     1      -5.287  -1.154 -32.469  1.00  0.00     0.106 A 
HETATM   16  C   UNL     1      -5.439  -1.524 -33.786  1.00  0.00     0.105 A 
HETATM   17  O   UNL     1      -4.129  -1.619 -31.929  1.00  0.00    -0.323 OA
HETATM   18  O   UNL     1      -4.395  -2.270 -34.236  1.00  0.00    -0.323 OA
HETATM   19  C   UNL     1      -6.538  -1.144 -34.528  1.00  0.00     0.041 A 
HETATM   20  C   UNL     1      -3.555  -2.302 -33.063  1.00  0.00     0.352 A 
HETATM   21  C   UNL     1      -7.512  -0.363 -33.897  1.00  0.00     0.020 A 
ENDBRANCH   9  13
BRANCH   1  22
HETATM   22  C   UNL     1      -4.490   5.071 -32.722  1.00  0.00    -0.005 A 
HETATM   23  C   UNL     1      -3.340   4.582 -32.082  1.00  0.00     0.014 A 
HETATM   24  C   UNL     1      -2.144   4.418 -32.785  1.00  0.00     0.001 A 
HETATM   25  C   UNL     1      -2.084   4.743 -34.138  1.00  0.00     0.000 A 
HETATM   26  C   UNL     1      -3.213   5.243 -34.783  1.00  0.00     0.001 A 
HETATM   27  C   UNL     1      -4.409   5.411 -34.079  1.00  0.00     0.014 A 
ENDBRANCH   1  22
TORSDOF 2
ENDMDL
MODEL 6
REMARK VINA RESULT:      -8.7      1.391      2.045
REMARK  2 active torsions:
REMARK  status: ('A' for Active; 'I' for Inactive)
REMARK    1  A    between atoms: C_4  and  C_5 
REMARK       I    between atoms: N_12  and  C_13 
REMARK    2  A    between atoms: C_13  and  C_14 
ROOT
HETATM    1  C   UNL     1      -4.576   0.325 -32.560  1.00  0.00     0.097 A 
HETATM    2  N   UNL     1      -3.426   0.202 -31.868  1.00  0.00    -0.173 NA
HETATM    3  N   UNL     1      -3.239   1.393 -31.282  1.00  0.00    -0.281 N 
HETATM    4  H   UNL     1      -2.424   1.517 -30.690  1.00  0.00     0.189 HD
HETATM    5  C   UNL     1      -4.230   2.274 -31.560  1.00  0.00     0.039 A 
HETATM    6  C   UNL     1      -5.108   1.638 -32.406  1.00  0.00     0.015 A 
HETATM    7  C   UNL     1      -6.345   2.277 -32.931  1.00  0.00     0.169 C 
HETATM    8  N   UNL     1      -6.618   3.554 -32.228  1.00  0.00    -0.343 N 
HETATM    9  C   UNL     1      -7.822   4.249 -32.395  1.00  0.00     0.254 C 
HETATM   10  O   UNL     1      -7.978   5.426 -32.077  1.00  0.00    -0.267 OA
HETATM   11  C   UNL     1      -5.447   4.381 -31.854  1.00  0.00     0.132 C 
HETATM   12  C   UNL     1      -4.397   3.635 -31.010  1.00  0.00     0.079 C 
ENDROOT
BRANCH   9  13
HETATM   13  C   UNL     1      -8.970   3.578 -33.038  1.00  0.00     0.035 A 
HETATM   14  C   UNL     1      -9.514   4.173 -34.183  1.00  0.00     0.056 A 
HETATM   15  C   UNL     1     -10.602   3.559 -34.759  1.00  0.00     0.106 A 
HETATM   16  C   UNL     1     -11.151   2.411 -34.235  1.00  0.00     0.105 A 
HETATM   17  O   UNL     1     -11.257   3.987 -35.871  1.00  0.00    -0.323 OA
HETATM   18  O   UNL     1     -12.218   1.974 -34.956  1.00  0.00    -0.323 OA
HETATM   19  C   UNL     1     -10.647   1.816 -33.097  1.00  0.00     0.041 A 
HETATM   20  C   UNL     1     -12.298   2.993 -35.974  1.00  0.00     0.352 A 
HETATM   21  C   UNL     1      -9.545   2.417 -32.480  1.00  0.00     0.020 A 
ENDBRANCH   9  13
BRANCH   1  22
HETATM   22  C   UNL     1      -5.133  -0.819 -33.286  1.00  0.00    -0.005 A 
HETATM   23  C   UNL     1      -6.525  -0.931 -33.442  1.00  0.00     0.014 A 
HETATM   24  C   UNL     1      -7.083  -1.993 -34.157  1.00  0.00     0.001 A 
HETATM   25  C   UNL     1      -6.255  -2.960 -34.724  1.00  0.00     0.000 A 
HETATM   26  C   UNL     1      -4.873  -2.870 -34.565  1.00  0.00     0.001 A 
HETATM   27  C   UNL     1      -4.315  -1.809 -33.847  1.00  0.00     0.014 A 
ENDBRANCH   1  22
TORSDOF 2
ENDMDL
MODEL 7
REMARK VINA RESULT:      -8.5     14.271     15.865
REMARK  2 active torsions:
REMARK  status: ('A' for Active; 'I' for Inactive)
REMARK    1  A    between atoms: C_4  and  C_5 
REMARK       I    between atoms: N_12  and  C_13 
REMARK    2  A    between atoms: C_13  and  C_14 
ROOT
HETATM    1  C   UNL     1      -2.809 -14.355 -40.094  1.00  0.00     0.097 A 
HETATM    2  N   UNL     1      -1.503 -14.481 -39.784  1.00  0.00    -0.173 NA
HETATM    3  N   UNL     1      -1.432 -14.251 -38.465  1.00  0.00    -0.281 N 
HETATM    4  H   UNL     1      -0.525 -14.312 -38.013  1.00  0.00     0.189 HD
HETATM    5  C   UNL     1      -2.642 -13.996 -37.912  1.00  0.00     0.039 A 
HETATM    6  C   UNL     1      -3.565 -14.025 -38.932  1.00  0.00     0.015 A 
HETATM    7  C   UNL     1      -5.021 -13.803 -38.723  1.00  0.00     0.169 C 
HETATM    8  N   UNL     1      -5.352 -13.805 -37.277  1.00  0.00    -0.343 N 
HETATM    9  C   UNL     1      -6.676 -13.814 -36.821  1.00  0.00     0.254 C 
HETATM   10  O   UNL     1      -7.002 -13.525 -35.672  1.00  0.00    -0.267 OA
HETATM   11  C   UNL     1      -4.362 -13.200 -36.357  1.00  0.00     0.132 C 
HETATM   12  C   UNL     1      -2.946 -13.797 -36.481  1.00  0.00     0.079 C 
ENDROOT
BRANCH   9  13
HETATM   13  C   UNL     1      -7.772 -14.125 -37.763  1.00  0.00     0.035 A 
HETATM   14  C   UNL     1      -8.471 -13.051 -38.325  1.00  0.00     0.056 A 
HETATM   15  C   UNL     1      -9.510 -13.349 -39.177  1.00  0.00     0.106 A 
HETATM   16  C   UNL     1      -9.864 -14.647 -39.465  1.00  0.00     0.105 A 
HETATM   17  O   UNL     1     -10.296 -12.442 -39.817  1.00  0.00    -0.323 OA
HETATM   18  O   UNL     1     -10.915 -14.716 -40.325  1.00  0.00    -0.323 OA
HETATM   19  C   UNL     1      -9.204 -15.724 -38.908  1.00  0.00     0.041 A 
HETATM   20  C   UNL     1     -11.202 -13.316 -40.521  1.00  0.00     0.352 A 
HETATM   21  C   UNL     1      -8.148 -15.458 -38.032  1.00  0.00     0.020 A 
ENDBRANCH   9  13
BRANCH   1  22
HETATM   22  C   UNL     1      -3.276 -14.604 -41.460  1.00  0.00    -0.005 A 
HETATM   23  C   UNL     1      -2.564 -15.488 -42.287  1.00  0.00     0.014 A 
HETATM   24  C   UNL     1      -3.004 -15.770 -43.583  1.00  0.00     0.001 A 
HETATM   25  C   UNL     1      -4.162 -15.167 -44.069  1.00  0.00     0.000 A 
HETATM   26  C   UNL     1      -4.871 -14.276 -43.266  1.00  0.00     0.001 A 
HETATM   27  C   UNL     1      -4.429 -13.992 -41.970  1.00  0.00     0.014 A 
ENDBRANCH   1  22
TORSDOF 2
ENDMDL
MODEL 8
REMARK VINA RESULT:      -8.4      7.252     10.930
REMARK  2 active torsions:
REMARK  status: ('A' for Active; 'I' for Inactive)
REMARK    1  A    between atoms: C_4  and  C_5 
REMARK       I    between atoms: N_12  and  C_13 
REMARK    2  A    between atoms: C_13  and  C_14 
ROOT
HETATM    1  C   UNL     1      -1.753   9.319 -27.766  1.00  0.00     0.097 A 
HETATM    2  N   UNL     1      -1.128   9.851 -26.697  1.00  0.00    -0.173 NA
HETATM    3  N   UNL     1      -0.071   9.057 -26.476  1.00  0.00    -0.281 N 
HETATM    4  H   UNL     1       0.555   9.289 -25.712  1.00  0.00     0.189 HD
HETATM    5  C   UNL     1       0.017   8.043 -27.369  1.00  0.00     0.039 A 
HETATM    6  C   UNL     1      -1.065   8.152 -28.211  1.00  0.00     0.015 A 
HETATM    7  C   UNL     1      -1.316   7.222 -29.344  1.00  0.00     0.169 C 
HETATM    8  N   UNL     1      -0.139   6.353 -29.584  1.00  0.00    -0.343 N 
HETATM    9  C   UNL     1      -0.044   5.530 -30.713  1.00  0.00     0.254 C 
HETATM   10  O   UNL     1       0.750   4.596 -30.810  1.00  0.00    -0.267 OA
HETATM   11  C   UNL     1       0.618   5.899 -28.395  1.00  0.00     0.132 C 
HETATM   12  C   UNL     1       1.100   7.044 -27.484  1.00  0.00     0.079 C 
ENDROOT
BRANCH   9  13
HETATM   13  C   UNL     1      -0.972   5.731 -31.845  1.00  0.00     0.035 A 
HETATM   14  C   UNL     1      -2.028   4.822 -31.989  1.00  0.00     0.056 A 
HETATM   15  C   UNL     1      -2.871   4.997 -33.063  1.00  0.00     0.106 A 
HETATM   16  C   UNL     1      -2.689   6.014 -33.971  1.00  0.00     0.105 A 
HETATM   17  O   UNL     1      -3.946   4.220 -33.361  1.00  0.00    -0.323 OA
HETATM   18  O   UNL     1      -3.631   6.004 -34.952  1.00  0.00    -0.323 OA
HETATM   19  C   UNL     1      -1.645   6.910 -33.864  1.00  0.00     0.041 A 
HETATM   20  C   UNL     1      -4.407   4.847 -34.576  1.00  0.00     0.352 A 
HETATM   21  C   UNL     1      -0.764   6.758 -32.788  1.00  0.00     0.020 A 
ENDBRANCH   9  13
BRANCH   1  22
HETATM   22  C   UNL     1      -2.933   9.971 -28.339  1.00  0.00    -0.005 A 
HETATM   23  C   UNL     1      -2.815  10.692 -29.538  1.00  0.00     0.014 A 
HETATM   24  C   UNL     1      -3.929  11.296 -30.124  1.00  0.00     0.001 A 
HETATM   25  C   UNL     1      -5.178  11.188 -29.516  1.00  0.00     0.000 A 
HETATM   26  C   UNL     1      -5.309  10.488 -28.318  1.00  0.00     0.001 A 
HETATM   27  C   UNL     1      -4.193   9.886 -27.729  1.00  0.00     0.014 A 
ENDBRANCH   1  22
TORSDOF 2
ENDMDL
MODEL 9
REMARK VINA RESULT:      -8.3      4.040      6.583
REMARK  2 active torsions:
REMARK  status: ('A' for Active; 'I' for Inactive)
REMARK    1  A    between atoms: C_4  and  C_5 
REMARK       I    between atoms: N_12  and  C_13 
REMARK    2  A    between atoms: C_13  and  C_14 
ROOT
HETATM    1  C   UNL     1      -8.773   1.750 -32.558  1.00  0.00     0.097 A 
HETATM    2  N   UNL     1     -10.053   1.508 -32.209  1.00  0.00    -0.173 NA
HETATM    3  N   UNL     1     -10.456   2.612 -31.563  1.00  0.00    -0.281 N 
HETATM    4  H   UNL     1     -11.411   2.650 -31.222  1.00  0.00     0.189 HD
HETATM    5  C   UNL     1      -9.490   3.559 -31.493  1.00  0.00     0.039 A 
HETATM    6  C   UNL     1      -8.371   3.038 -32.100  1.00  0.00     0.015 A 
HETATM    7  C   UNL     1      -7.092   3.787 -32.238  1.00  0.00     0.169 C 
HETATM    8  N   UNL     1      -7.275   5.213 -31.874  1.00  0.00    -0.343 N 
HETATM    9  C   UNL     1      -6.280   6.170 -32.107  1.00  0.00     0.254 C 
HETATM   10  O   UNL     1      -6.261   7.276 -31.572  1.00  0.00    -0.267 OA
HETATM   11  C   UNL     1      -8.202   5.511 -30.759  1.00  0.00     0.132 C 
HETATM   12  C   UNL     1      -9.615   4.924 -30.944  1.00  0.00     0.079 C 
ENDROOT
BRANCH   9  13
HETATM   13  C   UNL     1      -5.143   5.843 -32.993  1.00  0.00     0.035 A 
HETATM   14  C   UNL     1      -3.874   6.300 -32.619  1.00  0.00     0.056 A 
HETATM   15  C   UNL     1      -2.825   6.018 -33.464  1.00  0.00     0.106 A 
HETATM   16  C   UNL     1      -3.005   5.324 -34.638  1.00  0.00     0.105 A 
HETATM   17  O   UNL     1      -1.528   6.375 -33.265  1.00  0.00    -0.323 OA
HETATM   18  O   UNL     1      -1.842   5.156 -35.322  1.00  0.00    -0.323 OA
HETATM   19  C   UNL     1      -4.248   4.880 -35.041  1.00  0.00     0.041 A 
HETATM   20  C   UNL     1      -0.915   5.850 -34.461  1.00  0.00     0.352 A 
HETATM   21  C   UNL     1      -5.338   5.156 -34.209  1.00  0.00     0.020 A 
ENDBRANCH   9  13
BRANCH   1  22
HETATM   22  C   UNL     1      -8.020   0.772 -33.346  1.00  0.00    -0.005 A 
HETATM   23  C   UNL     1      -7.880   0.957 -34.731  1.00  0.00     0.014 A 
HETATM   24  C   UNL     1      -7.140   0.059 -35.503  1.00  0.00     0.001 A 
HETATM   25  C   UNL     1      -6.531  -1.039 -34.899  1.00  0.00     0.000 A 
HETATM   26  C   UNL     1      -6.673  -1.245 -33.528  1.00  0.00     0.001 A 
HETATM   27  C   UNL     1      -7.417  -0.347 -32.756  1.00  0.00     0.014 A 
ENDBRANCH   1  22
TORSDOF 2
ENDMDL
MODEL 10
REMARK VINA RESULT:      -8.3     14.168     16.058
REMARK  2 active torsions:
REMARK  status: ('A' for Active; 'I' for Inactive)
REMARK    1  A    between atoms: C_4  and  C_5 
REMARK       I    between atoms: N_12  and  C_13 
REMARK    2  A    between atoms: C_13  and  C_14 
ROOT
HETATM    1  C   UNL     1      -6.216 -13.606 -40.898  1.00  0.00     0.097 A 
HETATM    2  N   UNL     1      -5.867 -13.769 -42.190  1.00  0.00    -0.173 NA
HETATM    3  N   UNL     1      -4.534 -13.920 -42.177  1.00  0.00    -0.281 N 
HETATM    4  H   UNL     1      -4.058 -14.074 -43.060  1.00  0.00     0.189 HD
HETATM    5  C   UNL     1      -4.015 -13.874 -40.927  1.00  0.00     0.039 A 
HETATM    6  C   UNL     1      -5.061 -13.646 -40.064  1.00  0.00     0.015 A 
HETATM    7  C   UNL     1      -4.896 -13.544 -38.589  1.00  0.00     0.169 C 
HETATM    8  N   UNL     1      -3.535 -13.967 -38.180  1.00  0.00    -0.343 N 
HETATM    9  C   UNL     1      -3.189 -14.152 -36.836  1.00  0.00     0.254 C 
HETATM   10  O   UNL     1      -2.029 -14.213 -36.433  1.00  0.00    -0.267 OA
HETATM   11  C   UNL     1      -2.418 -13.613 -39.086  1.00  0.00     0.132 C 
HETATM   12  C   UNL     1      -2.608 -14.100 -40.535  1.00  0.00     0.079 C 
ENDROOT
BRANCH   9  13
HETATM   13  C   UNL     1      -4.251 -14.222 -35.811  1.00  0.00     0.035 A 
HETATM   14  C   UNL     1      -4.864 -15.463 -35.593  1.00  0.00     0.056 A 
HETATM   15  C   UNL     1      -5.873 -15.515 -34.659  1.00  0.00     0.106 A 
HETATM   16  C   UNL     1      -6.280 -14.398 -33.966  1.00  0.00     0.105 A 
HETATM   17  O   UNL     1      -6.576 -16.626 -34.313  1.00  0.00    -0.323 OA
HETATM   18  O   UNL     1      -7.289 -14.670 -33.096  1.00  0.00    -0.323 OA
HETATM   19  C   UNL     1      -5.707 -13.160 -34.176  1.00  0.00     0.041 A 
HETATM   20  C   UNL     1      -7.491 -16.077 -33.342  1.00  0.00     0.352 A 
HETATM   21  C   UNL     1      -4.684 -13.069 -35.125  1.00  0.00     0.020 A 
ENDBRANCH   9  13
BRANCH   1  22
HETATM   22  C   UNL     1      -7.625 -13.474 -40.520  1.00  0.00    -0.005 A 
HETATM   23  C   UNL     1      -8.144 -12.206 -40.208  1.00  0.00     0.014 A 
HETATM   24  C   UNL     1      -9.491 -12.045 -39.876  1.00  0.00     0.001 A 
HETATM   25  C   UNL     1     -10.337 -13.152 -39.848  1.00  0.00     0.000 A 
HETATM   26  C   UNL     1      -9.833 -14.418 -40.141  1.00  0.00     0.001 A 
HETATM   27  C   UNL     1      -8.484 -14.580 -40.470  1.00  0.00     0.014 A 
ENDBRANCH   1  22
TORSDOF 2
ENDMDL
