MODEL 1
REMARK VINA RESULT:      -8.7      0.000      0.000
REMARK  5 active torsions:
REMARK  status: ('A' for Active; 'I' for Inactive)
REMARK    1  A    between atoms: C_6  and  O_7 
REMARK    2  A    between atoms: O_7  and  C_8 
REMARK    3  A    between atoms: C_8  and  C_9 
REMARK       I    between atoms: C_9  and  N_10 
REMARK    4  A    between atoms: N_10  and  N_11 
REMARK    5  A    between atoms: C_12  and  C_13 
ROOT
HETATM    1  C   UNL     1      -8.077   0.764 -32.530  1.00  0.00     0.261 C 
HETATM    2  N   UNL     1      -9.022   0.930 -33.533  1.00  0.00    -0.246 N 
HETATM    3  O   UNL     1      -8.317   0.405 -31.378  1.00  0.00    -0.269 OA
HETATM    4  H   UNL     1      -8.726   1.267 -34.446  1.00  0.00     0.192 HD
ENDROOT
BRANCH   2   5
HETATM    5  N   UNL     1     -10.339   0.704 -33.266  1.00  0.00    -0.184 NA
HETATM    6  C   UNL     1     -11.193   1.328 -34.008  1.00  0.00     0.152 C 
BRANCH   6   7
HETATM    7  C   UNL     1     -12.609   1.123 -33.775  1.00  0.00     0.011 A 
HETATM    8  C   UNL     1     -13.529   1.997 -33.110  1.00  0.00     0.005 A 
HETATM    9  C   UNL     1     -14.784   1.383 -33.138  1.00  0.00     0.043 A 
HETATM   10  C   UNL     1     -13.418   3.265 -32.498  1.00  0.00     0.033 A 
HETATM   11  C   UNL     1     -15.931   1.964 -32.585  1.00  0.00     0.031 A 
HETATM   12  N   UNL     1     -14.633   0.180 -33.789  1.00  0.00    -0.364 N 
HETATM   13  C   UNL     1     -15.797   3.220 -31.986  1.00  0.00     0.021 A 
HETATM   14  C   UNL     1     -14.560   3.857 -31.946  1.00  0.00     0.012 A 
HETATM   15 BR   UNL     1     -14.418   5.561 -31.135  1.00  0.00    -0.051 Br
HETATM   16  H   UNL     1     -15.378  -0.481 -33.960  1.00  0.00     0.165 HD
HETATM   17  C   UNL     1     -13.334   0.017 -34.180  1.00  0.00     0.102 A 
ENDBRANCH   6   7
ENDBRANCH   2   5
BRANCH   1  18
HETATM   18  C   UNL     1      -6.646   0.960 -33.018  1.00  0.00     0.280 C 
BRANCH  18  19
HETATM   19  O   UNL     1      -6.451   0.362 -34.300  1.00  0.00    -0.342 OA
BRANCH  19  20
HETATM   20  C   UNL     1      -5.898  -0.891 -34.241  1.00  0.00     0.069 A 
HETATM   21  C   UNL     1      -6.473  -2.028 -34.811  1.00  0.00     0.044 A 
HETATM   22  C   UNL     1      -5.837  -3.280 -34.724  1.00  0.00    -0.053 A 
HETATM   23  C   UNL     1      -4.610  -3.384 -34.039  1.00  0.00    -0.056 A 
HETATM   24  C   UNL     1      -6.497  -4.482 -35.343  1.00  0.00     0.049 C 
HETATM   25  C   UNL     1      -3.890  -4.700 -33.910  1.00  0.00     0.049 C 
HETATM   26  C   UNL     1      -4.026  -2.228 -33.500  1.00  0.00     0.010 A 
HETATM   27  C   UNL     1      -4.663  -0.989 -33.607  1.00  0.00     0.037 A 
ENDBRANCH  19  20
ENDBRANCH  18  19
ENDBRANCH   1  18
TORSDOF 5
ENDMDL
MODEL 2
REMARK VINA RESULT:      -8.7      5.873      9.022
REMARK  5 active torsions:
REMARK  status: ('A' for Active; 'I' for Inactive)
REMARK    1  A    between atoms: C_6  and  O_7 
REMARK    2  A    between atoms: O_7  and  C_8 
REMARK    3  A    between atoms: C_8  and  C_9 
REMARK       I    between atoms: C_9  and  N_10 
REMARK    4  A    between atoms: N_10  and  N_11 
REMARK    5  A    between atoms: C_12  and  C_13 
ROOT
HETATM    1  C   UNL     1      -6.514   2.045 -32.706  1.00  0.00     0.261 C 
HETATM    2  N   UNL     1      -5.263   2.247 -32.138  1.00  0.00    -0.246 N 
HETATM    3  O   UNL     1      -7.129   2.867 -33.384  1.00  0.00    -0.269 OA
HETATM    4  H   UNL     1      -4.854   1.517 -31.561  1.00  0.00     0.192 HD
ENDROOT
BRANCH   2   5
HETATM    5  N   UNL     1      -4.631   3.443 -32.304  1.00  0.00    -0.184 NA
HETATM    6  C   UNL     1      -3.695   3.481 -33.195  1.00  0.00     0.152 C 
BRANCH   6   7
HETATM    7  C   UNL     1      -2.990   4.728 -33.421  1.00  0.00     0.011 A 
HETATM    8  C   UNL     1      -1.961   5.316 -32.617  1.00  0.00     0.005 A 
HETATM    9  C   UNL     1      -1.577   6.509 -33.237  1.00  0.00     0.043 A 
HETATM   10  C   UNL     1      -1.304   4.941 -31.425  1.00  0.00     0.033 A 
HETATM   11  C   UNL     1      -0.578   7.346 -32.729  1.00  0.00     0.031 A 
HETATM   12  N   UNL     1      -2.347   6.644 -34.369  1.00  0.00    -0.364 N 
HETATM   13  C   UNL     1       0.060   6.953 -31.549  1.00  0.00     0.021 A 
HETATM   14  C   UNL     1      -0.300   5.769 -30.911  1.00  0.00     0.012 A 
HETATM   15 BR   UNL     1       0.592   5.262 -29.320  1.00  0.00    -0.051 Br
HETATM   16  H   UNL     1      -2.287   7.415 -35.020  1.00  0.00     0.165 HD
HETATM   17  C   UNL     1      -3.193   5.579 -34.492  1.00  0.00     0.102 A 
ENDBRANCH   6   7
ENDBRANCH   2   5
BRANCH   1  18
HETATM   18  C   UNL     1      -7.038   0.627 -32.510  1.00  0.00     0.280 C 
BRANCH  18  19
HETATM   19  O   UNL     1      -7.204  -0.040 -33.762  1.00  0.00    -0.342 OA
BRANCH  19  20
HETATM   20  C   UNL     1      -6.422  -1.157 -33.896  1.00  0.00     0.069 A 
HETATM   21  C   UNL     1      -6.812  -2.307 -34.585  1.00  0.00     0.044 A 
HETATM   22  C   UNL     1      -5.946  -3.411 -34.694  1.00  0.00    -0.053 A 
HETATM   23  C   UNL     1      -4.676  -3.355 -34.086  1.00  0.00    -0.056 A 
HETATM   24  C   UNL     1      -6.410  -4.635 -35.436  1.00  0.00     0.049 C 
HETATM   25  C   UNL     1      -3.713  -4.510 -34.167  1.00  0.00     0.049 C 
HETATM   26  C   UNL     1      -4.284  -2.181 -33.426  1.00  0.00     0.010 A 
HETATM   27  C   UNL     1      -5.149  -1.088 -33.339  1.00  0.00     0.037 A 
ENDBRANCH  19  20
ENDBRANCH  18  19
ENDBRANCH   1  18
TORSDOF 5
ENDMDL
MODEL 3
REMARK VINA RESULT:      -8.4      7.999     11.385
REMARK  5 active torsions:
REMARK  status: ('A' for Active; 'I' for Inactive)
REMARK    1  A    between atoms: C_6  and  O_7 
REMARK    2  A    between atoms: O_7  and  C_8 
REMARK    3  A    between atoms: C_8  and  C_9 
REMARK       I    between atoms: C_9  and  N_10 
REMARK    4  A    between atoms: N_10  and  N_11 
REMARK    5  A    between atoms: C_12  and  C_13 
ROOT
HETATM    1  C   UNL     1      -1.594   5.005 -31.181  1.00  0.00     0.261 C 
HETATM    2  N   UNL     1      -2.738   4.218 -31.199  1.00  0.00    -0.246 N 
HETATM    3  O   UNL     1      -0.470   4.635 -31.515  1.00  0.00    -0.269 OA
HETATM    4  H   UNL     1      -3.616   4.607 -30.867  1.00  0.00     0.192 HD
ENDROOT
BRANCH   2   5
HETATM    5  N   UNL     1      -2.656   2.917 -31.597  1.00  0.00    -0.184 NA
HETATM    6  C   UNL     1      -3.614   2.136 -31.214  1.00  0.00     0.152 C 
BRANCH   6   7
HETATM    7  C   UNL     1      -3.585   0.742 -31.612  1.00  0.00     0.011 A 
HETATM    8  C   UNL     1      -4.442   0.075 -32.545  1.00  0.00     0.005 A 
HETATM    9  C   UNL     1      -4.027  -1.259 -32.612  1.00  0.00     0.043 A 
HETATM   10  C   UNL     1      -5.525   0.480 -33.356  1.00  0.00     0.033 A 
HETATM   11  C   UNL     1      -4.638  -2.207 -33.441  1.00  0.00     0.031 A 
HETATM   12  N   UNL     1      -2.965  -1.398 -31.749  1.00  0.00    -0.364 N 
HETATM   13  C   UNL     1      -5.707  -1.782 -34.236  1.00  0.00     0.021 A 
HETATM   14  C   UNL     1      -6.140  -0.459 -34.191  1.00  0.00     0.012 A 
HETATM   15 BR   UNL     1      -7.583   0.083 -35.288  1.00  0.00    -0.051 Br
HETATM   16  H   UNL     1      -2.459  -2.258 -31.591  1.00  0.00     0.165 HD
HETATM   17  C   UNL     1      -2.688  -0.203 -31.149  1.00  0.00     0.102 A 
ENDBRANCH   6   7
ENDBRANCH   2   5
BRANCH   1  18
HETATM   18  C   UNL     1      -1.874   6.457 -30.808  1.00  0.00     0.280 C 
BRANCH  18  19
HETATM   19  O   UNL     1      -0.661   7.196 -30.664  1.00  0.00    -0.342 OA
BRANCH  19  20
HETATM   20  C   UNL     1      -0.530   7.800 -29.440  1.00  0.00     0.069 A 
HETATM   21  C   UNL     1       0.625   7.741 -28.658  1.00  0.00     0.044 A 
HETATM   22  C   UNL     1       0.691   8.402 -27.418  1.00  0.00    -0.053 A 
HETATM   23  C   UNL     1      -0.431   9.119 -26.957  1.00  0.00    -0.056 A 
HETATM   24  C   UNL     1       1.951   8.302 -26.601  1.00  0.00     0.049 C 
HETATM   25  C   UNL     1      -0.416   9.839 -25.635  1.00  0.00     0.049 C 
HETATM   26  C   UNL     1      -1.573   9.199 -27.768  1.00  0.00     0.010 A 
HETATM   27  C   UNL     1      -1.618   8.549 -29.004  1.00  0.00     0.037 A 
ENDBRANCH  19  20
ENDBRANCH  18  19
ENDBRANCH   1  18
TORSDOF 5
ENDMDL
MODEL 4
REMARK VINA RESULT:      -8.2      7.499     10.612
REMARK  5 active torsions:
REMARK  status: ('A' for Active; 'I' for Inactive)
REMARK    1  A    between atoms: C_6  and  O_7 
REMARK    2  A    between atoms: O_7  and  C_8 
REMARK    3  A    between atoms: C_8  and  C_9 
REMARK       I    between atoms: C_9  and  N_10 
REMARK    4  A    between atoms: N_10  and  N_11 
REMARK    5  A    between atoms: C_12  and  C_13 
ROOT
HETATM    1  C   UNL     1      -2.499   4.251 -31.977  1.00  0.00     0.261 C 
HETATM    2  N   UNL     1      -3.212   3.196 -31.423  1.00  0.00    -0.246 N 
HETATM    3  O   UNL     1      -2.715   4.754 -33.078  1.00  0.00    -0.269 OA
HETATM    4  H   UNL     1      -2.931   2.825 -30.519  1.00  0.00     0.192 HD
ENDROOT
BRANCH   2   5
HETATM    5  N   UNL     1      -4.233   2.627 -32.124  1.00  0.00    -0.184 NA
HETATM    6  C   UNL     1      -4.132   1.361 -32.364  1.00  0.00     0.152 C 
BRANCH   6   7
HETATM    7  C   UNL     1      -5.191   0.699 -33.101  1.00  0.00     0.011 A 
HETATM    8  C   UNL     1      -5.237  -0.661 -33.547  1.00  0.00     0.005 A 
HETATM    9  C   UNL     1      -6.459  -0.845 -34.202  1.00  0.00     0.043 A 
HETATM   10  C   UNL     1      -4.362  -1.764 -33.443  1.00  0.00     0.033 A 
HETATM   11  C   UNL     1      -6.849  -2.067 -34.760  1.00  0.00     0.031 A 
HETATM   12  N   UNL     1      -7.126   0.357 -34.161  1.00  0.00    -0.364 N 
HETATM   13  C   UNL     1      -5.966  -3.145 -34.643  1.00  0.00     0.021 A 
HETATM   14  C   UNL     1      -4.744  -2.992 -33.995  1.00  0.00     0.012 A 
HETATM   15 BR   UNL     1      -3.578  -4.476 -33.846  1.00  0.00    -0.051 Br
HETATM   16  H   UNL     1      -8.041   0.523 -34.557  1.00  0.00     0.165 HD
HETATM   17  C   UNL     1      -6.378   1.288 -33.499  1.00  0.00     0.102 A 
ENDBRANCH   6   7
ENDBRANCH   2   5
BRANCH   1  18
HETATM   18  C   UNL     1      -1.459   4.834 -31.027  1.00  0.00     0.280 C 
BRANCH  18  19
HETATM   19  O   UNL     1      -1.809   6.160 -30.630  1.00  0.00    -0.342 OA
BRANCH  19  20
HETATM   20  C   UNL     1      -0.994   6.672 -29.653  1.00  0.00     0.069 A 
HETATM   21  C   UNL     1      -1.145   7.943 -29.096  1.00  0.00     0.044 A 
HETATM   22  C   UNL     1      -0.278   8.394 -28.083  1.00  0.00    -0.053 A 
HETATM   23  C   UNL     1       0.763   7.553 -27.640  1.00  0.00    -0.056 A 
HETATM   24  C   UNL     1      -0.469   9.775 -27.517  1.00  0.00     0.049 C 
HETATM   25  C   UNL     1       1.721   7.988 -26.564  1.00  0.00     0.049 C 
HETATM   26  C   UNL     1       0.881   6.266 -28.185  1.00  0.00     0.010 A 
HETATM   27  C   UNL     1       0.004   5.827 -29.179  1.00  0.00     0.037 A 
ENDBRANCH  19  20
ENDBRANCH  18  19
ENDBRANCH   1  18
TORSDOF 5
ENDMDL
MODEL 5
REMARK VINA RESULT:      -8.0      2.239      3.057
REMARK  5 active torsions:
REMARK  status: ('A' for Active; 'I' for Inactive)
REMARK    1  A    between atoms: C_6  and  O_7 
REMARK    2  A    between atoms: O_7  and  C_8 
REMARK    3  A    between atoms: C_8  and  C_9 
REMARK       I    between atoms: C_9  and  N_10 
REMARK    4  A    between atoms: N_10  and  N_11 
REMARK    5  A    between atoms: C_12  and  C_13 
ROOT
HETATM    1  C   UNL     1      -6.043   0.395 -31.467  1.00  0.00     0.261 C 
HETATM    2  N   UNL     1      -6.529   1.408 -32.283  1.00  0.00    -0.246 N 
HETATM    3  O   UNL     1      -6.730  -0.348 -30.769  1.00  0.00    -0.269 OA
HETATM    4  H   UNL     1      -5.874   1.994 -32.793  1.00  0.00     0.192 HD
ENDROOT
BRANCH   2   5
HETATM    5  N   UNL     1      -7.869   1.648 -32.336  1.00  0.00    -0.184 NA
HETATM    6  C   UNL     1      -8.488   1.231 -33.392  1.00  0.00     0.152 C 
BRANCH   6   7
HETATM    7  C   UNL     1      -9.916   1.452 -33.503  1.00  0.00     0.011 A 
HETATM    8  C   UNL     1     -10.593   2.629 -33.960  1.00  0.00     0.005 A 
HETATM    9  C   UNL     1     -11.966   2.370 -33.902  1.00  0.00     0.043 A 
HETATM   10  C   UNL     1     -10.170   3.889 -34.435  1.00  0.00     0.033 A 
HETATM   11  C   UNL     1     -12.935   3.302 -34.289  1.00  0.00     0.031 A 
HETATM   12  N   UNL     1     -12.117   1.090 -33.422  1.00  0.00    -0.364 N 
HETATM   13  C   UNL     1     -12.492   4.542 -34.758  1.00  0.00     0.021 A 
HETATM   14  C   UNL     1     -11.131   4.827 -34.829  1.00  0.00     0.012 A 
HETATM   15 BR   UNL     1     -10.566   6.513 -35.478  1.00  0.00    -0.051 Br
HETATM   16  H   UNL     1     -13.006   0.629 -33.277  1.00  0.00     0.165 HD
HETATM   17  C   UNL     1     -10.895   0.528 -33.186  1.00  0.00     0.102 A 
ENDBRANCH   6   7
ENDBRANCH   2   5
BRANCH   1  18
HETATM   18  C   UNL     1      -4.536   0.194 -31.597  1.00  0.00     0.280 C 
BRANCH  18  19
HETATM   19  O   UNL     1      -4.151   0.046 -32.964  1.00  0.00    -0.342 OA
BRANCH  19  20
HETATM   20  C   UNL     1      -4.572  -1.130 -33.527  1.00  0.00     0.069 A 
HETATM   21  C   UNL     1      -3.944  -2.361 -33.329  1.00  0.00     0.044 A 
HETATM   22  C   UNL     1      -4.445  -3.532 -33.928  1.00  0.00    -0.053 A 
HETATM   23  C   UNL     1      -5.586  -3.453 -34.750  1.00  0.00    -0.056 A 
HETATM   24  C   UNL     1      -3.730  -4.836 -33.696  1.00  0.00     0.049 C 
HETATM   25  C   UNL     1      -6.159  -4.673 -35.420  1.00  0.00     0.049 C 
HETATM   26  C   UNL     1      -6.227  -2.216 -34.914  1.00  0.00     0.010 A 
HETATM   27  C   UNL     1      -5.727  -1.065 -34.301  1.00  0.00     0.037 A 
ENDBRANCH  19  20
ENDBRANCH  18  19
ENDBRANCH   1  18
TORSDOF 5
ENDMDL
MODEL 6
REMARK VINA RESULT:      -7.8      6.566     10.077
REMARK  5 active torsions:
REMARK  status: ('A' for Active; 'I' for Inactive)
REMARK    1  A    between atoms: C_6  and  O_7 
REMARK    2  A    between atoms: O_7  and  C_8 
REMARK    3  A    between atoms: C_8  and  C_9 
REMARK       I    between atoms: C_9  and  N_10 
REMARK    4  A    between atoms: N_10  and  N_11 
REMARK    5  A    between atoms: C_12  and  C_13 
ROOT
HETATM    1  C   UNL     1      -4.819   4.715 -31.257  1.00  0.00     0.261 C 
HETATM    2  N   UNL     1      -4.157   3.719 -30.552  1.00  0.00    -0.246 N 
HETATM    3  O   UNL     1      -5.586   4.530 -32.200  1.00  0.00    -0.269 OA
HETATM    4  H   UNL     1      -3.513   3.978 -29.810  1.00  0.00     0.192 HD
ENDROOT
BRANCH   2   5
HETATM    5  N   UNL     1      -4.327   2.414 -30.906  1.00  0.00    -0.184 NA
HETATM    6  C   UNL     1      -3.325   1.839 -31.487  1.00  0.00     0.152 C 
BRANCH   6   7
HETATM    7  C   UNL     1      -3.444   0.449 -31.881  1.00  0.00     0.011 A 
HETATM    8  C   UNL     1      -4.416  -0.139 -32.753  1.00  0.00     0.005 A 
HETATM    9  C   UNL     1      -4.124  -1.503 -32.844  1.00  0.00     0.043 A 
HETATM   10  C   UNL     1      -5.512   0.361 -33.490  1.00  0.00     0.033 A 
HETATM   11  C   UNL     1      -4.869  -2.393 -33.627  1.00  0.00     0.031 A 
HETATM   12  N   UNL     1      -3.023  -1.736 -32.054  1.00  0.00    -0.364 N 
HETATM   13  C   UNL     1      -5.948  -1.874 -34.349  1.00  0.00     0.021 A 
HETATM   14  C   UNL     1      -6.261  -0.519 -34.279  1.00  0.00     0.012 A 
HETATM   15 BR   UNL     1      -7.723   0.150 -35.278  1.00  0.00    -0.051 Br
HETATM   16  H   UNL     1      -2.583  -2.638 -31.928  1.00  0.00     0.165 HD
HETATM   17  C   UNL     1      -2.603  -0.572 -31.477  1.00  0.00     0.102 A 
ENDBRANCH   6   7
ENDBRANCH   2   5
BRANCH   1  18
HETATM   18  C   UNL     1      -4.599   6.107 -30.673  1.00  0.00     0.280 C 
BRANCH  18  19
HETATM   19  O   UNL     1      -3.552   6.795 -31.358  1.00  0.00    -0.342 OA
BRANCH  19  20
HETATM   20  C   UNL     1      -2.425   6.971 -30.599  1.00  0.00     0.069 A 
HETATM   21  C   UNL     1      -1.411   6.020 -30.470  1.00  0.00     0.044 A 
HETATM   22  C   UNL     1      -0.273   6.280 -29.685  1.00  0.00    -0.053 A 
HETATM   23  C   UNL     1      -0.167   7.512 -29.009  1.00  0.00    -0.056 A 
HETATM   24  C   UNL     1       0.791   5.223 -29.564  1.00  0.00     0.049 C 
HETATM   25  C   UNL     1       1.025   7.839 -28.150  1.00  0.00     0.049 C 
HETATM   26  C   UNL     1      -1.177   8.472 -29.174  1.00  0.00     0.010 A 
HETATM   27  C   UNL     1      -2.294   8.205 -29.969  1.00  0.00     0.037 A 
ENDBRANCH  19  20
ENDBRANCH  18  19
ENDBRANCH   1  18
TORSDOF 5
ENDMDL
MODEL 7
REMARK VINA RESULT:      -7.8      6.430      8.657
REMARK  5 active torsions:
REMARK  status: ('A' for Active; 'I' for Inactive)
REMARK    1  A    between atoms: C_6  and  O_7 
REMARK    2  A    between atoms: O_7  and  C_8 
REMARK    3  A    between atoms: C_8  and  C_9 
REMARK       I    between atoms: C_9  and  N_10 
REMARK    4  A    between atoms: N_10  and  N_11 
REMARK    5  A    between atoms: C_12  and  C_13 
ROOT
HETATM    1  C   UNL     1      -3.669   1.847 -31.734  1.00  0.00     0.261 C 
HETATM    2  N   UNL     1      -4.753   2.697 -31.911  1.00  0.00    -0.246 N 
HETATM    3  O   UNL     1      -2.639   2.126 -31.123  1.00  0.00    -0.269 OA
HETATM    4  H   UNL     1      -5.545   2.384 -32.466  1.00  0.00     0.192 HD
ENDROOT
BRANCH   2   5
HETATM    5  N   UNL     1      -4.714   3.959 -31.398  1.00  0.00    -0.184 NA
HETATM    6  C   UNL     1      -4.832   4.929 -32.245  1.00  0.00     0.152 C 
BRANCH   6   7
HETATM    7  C   UNL     1      -4.804   6.294 -31.757  1.00  0.00     0.011 A 
HETATM    8  C   UNL     1      -3.713   6.986 -31.138  1.00  0.00     0.005 A 
HETATM    9  C   UNL     1      -4.151   8.283 -30.850  1.00  0.00     0.043 A 
HETATM   10  C   UNL     1      -2.385   6.641 -30.808  1.00  0.00     0.033 A 
HETATM   11  C   UNL     1      -3.336   9.247 -30.248  1.00  0.00     0.031 A 
HETATM   12  N   UNL     1      -5.458   8.372 -31.271  1.00  0.00    -0.364 N 
HETATM   13  C   UNL     1      -2.024   8.882 -29.931  1.00  0.00     0.021 A 
HETATM   14  C   UNL     1      -1.560   7.599 -30.209  1.00  0.00     0.012 A 
HETATM   15 BR   UNL     1       0.225   7.142 -29.776  1.00  0.00    -0.051 Br
HETATM   16  H   UNL     1      -6.034   9.200 -31.192  1.00  0.00     0.165 HD
HETATM   17  C   UNL     1      -5.857   7.188 -31.822  1.00  0.00     0.102 A 
ENDBRANCH   6   7
ENDBRANCH   2   5
BRANCH   1  18
HETATM   18  C   UNL     1      -3.913   0.445 -32.282  1.00  0.00     0.280 C 
BRANCH  18  19
HETATM   19  O   UNL     1      -4.975   0.441 -33.237  1.00  0.00    -0.342 OA
BRANCH  19  20
HETATM   20  C   UNL     1      -5.265  -0.805 -33.728  1.00  0.00     0.069 A 
HETATM   21  C   UNL     1      -4.393  -1.893 -33.664  1.00  0.00     0.044 A 
HETATM   22  C   UNL     1      -4.768  -3.149 -34.175  1.00  0.00    -0.053 A 
HETATM   23  C   UNL     1      -6.035  -3.301 -34.773  1.00  0.00    -0.056 A 
HETATM   24  C   UNL     1      -3.793  -4.293 -34.096  1.00  0.00     0.049 C 
HETATM   25  C   UNL     1      -6.484  -4.621 -35.342  1.00  0.00     0.049 C 
HETATM   26  C   UNL     1      -6.914  -2.208 -34.800  1.00  0.00     0.010 A 
HETATM   27  C   UNL     1      -6.533  -0.971 -34.275  1.00  0.00     0.037 A 
ENDBRANCH  19  20
ENDBRANCH  18  19
ENDBRANCH   1  18
TORSDOF 5
ENDMDL
MODEL 8
REMARK VINA RESULT:      -7.6      2.996      3.367
REMARK  5 active torsions:
REMARK  status: ('A' for Active; 'I' for Inactive)
REMARK    1  A    between atoms: C_6  and  O_7 
REMARK    2  A    between atoms: O_7  and  C_8 
REMARK    3  A    between atoms: C_8  and  C_9 
REMARK       I    between atoms: C_9  and  N_10 
REMARK    4  A    between atoms: N_10  and  N_11 
REMARK    5  A    between atoms: C_12  and  C_13 
ROOT
HETATM    1  C   UNL     1      -7.771   1.376 -32.551  1.00  0.00     0.261 C 
HETATM    2  N   UNL     1      -8.310   1.601 -33.810  1.00  0.00    -0.246 N 
HETATM    3  O   UNL     1      -8.359   1.546 -31.484  1.00  0.00    -0.269 OA
HETATM    4  H   UNL     1      -7.728   1.466 -34.633  1.00  0.00     0.192 HD
ENDROOT
BRANCH   2   5
HETATM    5  N   UNL     1      -9.587   2.064 -33.926  1.00  0.00    -0.184 NA
HETATM    6  C   UNL     1      -9.730   3.234 -34.457  1.00  0.00     0.152 C 
BRANCH   6   7
HETATM    7  C   UNL     1     -11.066   3.776 -34.612  1.00  0.00     0.011 A 
HETATM    8  C   UNL     1     -11.439   5.075 -35.087  1.00  0.00     0.005 A 
HETATM    9  C   UNL     1     -12.836   5.138 -35.074  1.00  0.00     0.043 A 
HETATM   10  C   UNL     1     -10.724   6.203 -35.545  1.00  0.00     0.033 A 
HETATM   11  C   UNL     1     -13.553   6.266 -35.489  1.00  0.00     0.031 A 
HETATM   12  N   UNL     1     -13.293   3.929 -34.604  1.00  0.00    -0.364 N 
HETATM   13  C   UNL     1     -12.822   7.370 -35.939  1.00  0.00     0.021 A 
HETATM   14  C   UNL     1     -11.431   7.334 -35.965  1.00  0.00     0.012 A 
HETATM   15 BR   UNL     1     -10.474   8.843 -36.590  1.00  0.00    -0.051 Br
HETATM   16  H   UNL     1     -14.267   3.685 -34.488  1.00  0.00     0.165 HD
HETATM   17  C   UNL     1     -12.240   3.103 -34.330  1.00  0.00     0.102 A 
ENDBRANCH   6   7
ENDBRANCH   2   5
BRANCH   1  18
HETATM   18  C   UNL     1      -6.373   0.769 -32.599  1.00  0.00     0.280 C 
BRANCH  18  19
HETATM   19  O   UNL     1      -6.048   0.326 -33.917  1.00  0.00    -0.342 OA
BRANCH  19  20
HETATM   20  C   UNL     1      -5.576  -0.960 -33.962  1.00  0.00     0.069 A 
HETATM   21  C   UNL     1      -6.204  -2.000 -34.650  1.00  0.00     0.044 A 
HETATM   22  C   UNL     1      -5.651  -3.294 -34.665  1.00  0.00    -0.053 A 
HETATM   23  C   UNL     1      -4.455  -3.541 -33.961  1.00  0.00    -0.056 A 
HETATM   24  C   UNL     1      -6.366  -4.388 -35.410  1.00  0.00     0.049 C 
HETATM   25  C   UNL     1      -3.824  -4.907 -33.938  1.00  0.00     0.049 C 
HETATM   26  C   UNL     1      -3.818  -2.480 -33.301  1.00  0.00     0.010 A 
HETATM   27  C   UNL     1      -4.371  -1.197 -33.308  1.00  0.00     0.037 A 
ENDBRANCH  19  20
ENDBRANCH  18  19
ENDBRANCH   1  18
TORSDOF 5
ENDMDL
MODEL 9
REMARK VINA RESULT:      -7.6      5.849      8.851
REMARK  5 active torsions:
REMARK  status: ('A' for Active; 'I' for Inactive)
REMARK    1  A    between atoms: C_6  and  O_7 
REMARK    2  A    between atoms: O_7  and  C_8 
REMARK    3  A    between atoms: C_8  and  C_9 
REMARK       I    between atoms: C_9  and  N_10 
REMARK    4  A    between atoms: N_10  and  N_11 
REMARK    5  A    between atoms: C_12  and  C_13 
ROOT
HETATM    1  C   UNL     1      -6.862   1.866 -31.890  1.00  0.00     0.261 C 
HETATM    2  N   UNL     1      -5.498   2.113 -31.810  1.00  0.00    -0.246 N 
HETATM    3  O   UNL     1      -7.749   2.684 -31.654  1.00  0.00    -0.269 OA
HETATM    4  H   UNL     1      -4.843   1.356 -31.988  1.00  0.00     0.192 HD
ENDROOT
BRANCH   2   5
HETATM    5  N   UNL     1      -5.056   3.344 -31.428  1.00  0.00    -0.184 NA
HETATM    6  C   UNL     1      -4.540   4.084 -32.355  1.00  0.00     0.152 C 
BRANCH   6   7
HETATM    7  C   UNL     1      -4.058   5.407 -32.010  1.00  0.00     0.011 A 
HETATM    8  C   UNL     1      -2.757   5.776 -31.538  1.00  0.00     0.005 A 
HETATM    9  C   UNL     1      -2.756   7.162 -31.354  1.00  0.00     0.043 A 
HETATM   10  C   UNL     1      -1.569   5.064 -31.263  1.00  0.00     0.033 A 
HETATM   11  C   UNL     1      -1.636   7.872 -30.907  1.00  0.00     0.031 A 
HETATM   12  N   UNL     1      -4.009   7.616 -31.694  1.00  0.00    -0.364 N 
HETATM   13  C   UNL     1      -0.471   7.146 -30.643  1.00  0.00     0.021 A 
HETATM   14  C   UNL     1      -0.441   5.765 -30.820  1.00  0.00     0.012 A 
HETATM   15 BR   UNL     1       1.156   4.816 -30.462  1.00  0.00    -0.051 Br
HETATM   16  H   UNL     1      -4.300   8.584 -31.661  1.00  0.00     0.165 HD
HETATM   17  C   UNL     1      -4.795   6.574 -32.095  1.00  0.00     0.102 A 
ENDBRANCH   6   7
ENDBRANCH   2   5
BRANCH   1  18
HETATM   18  C   UNL     1      -7.186   0.474 -32.424  1.00  0.00     0.280 C 
BRANCH  18  19
HETATM   19  O   UNL     1      -6.561   0.248 -33.687  1.00  0.00    -0.342 OA
BRANCH  19  20
HETATM   20  C   UNL     1      -5.814  -0.900 -33.730  1.00  0.00     0.069 A 
HETATM   21  C   UNL     1      -4.808  -1.214 -32.814  1.00  0.00     0.044 A 
HETATM   22  C   UNL     1      -4.093  -2.421 -32.912  1.00  0.00    -0.053 A 
HETATM   23  C   UNL     1      -4.389  -3.316 -33.959  1.00  0.00    -0.056 A 
HETATM   24  C   UNL     1      -3.009  -2.714 -31.910  1.00  0.00     0.049 C 
HETATM   25  C   UNL     1      -3.651  -4.619 -34.114  1.00  0.00     0.049 C 
HETATM   26  C   UNL     1      -5.425  -3.005 -34.852  1.00  0.00     0.010 A 
HETATM   27  C   UNL     1      -6.136  -1.808 -34.733  1.00  0.00     0.037 A 
ENDBRANCH  19  20
ENDBRANCH  18  19
ENDBRANCH   1  18
TORSDOF 5
ENDMDL
MODEL 10
REMARK VINA RESULT:      -7.5      3.576      9.174
REMARK  5 active torsions:
REMARK  status: ('A' for Active; 'I' for Inactive)
REMARK    1  A    between atoms: C_6  and  O_7 
REMARK    2  A    between atoms: O_7  and  C_8 
REMARK    3  A    between atoms: C_8  and  C_9 
REMARK       I    between atoms: C_9  and  N_10 
REMARK    4  A    between atoms: N_10  and  N_11 
REMARK    5  A    between atoms: C_12  and  C_13 
ROOT
HETATM    1  C   UNL     1      -8.245   3.988 -33.808  1.00  0.00     0.261 C 
HETATM    2  N   UNL     1      -8.235   2.707 -33.272  1.00  0.00    -0.246 N 
HETATM    3  O   UNL     1      -7.259   4.595 -34.220  1.00  0.00    -0.269 OA
HETATM    4  H   UNL     1      -9.101   2.306 -32.923  1.00  0.00     0.192 HD
ENDROOT
BRANCH   2   5
HETATM    5  N   UNL     1      -7.056   2.032 -33.158  1.00  0.00    -0.184 NA
HETATM    6  C   UNL     1      -7.080   0.945 -32.458  1.00  0.00     0.152 C 
BRANCH   6   7
HETATM    7  C   UNL     1      -5.858   0.180 -32.307  1.00  0.00     0.011 A 
HETATM    8  C   UNL     1      -5.512  -1.061 -32.933  1.00  0.00     0.005 A 
HETATM    9  C   UNL     1      -4.231  -1.408 -32.494  1.00  0.00     0.043 A 
HETATM   10  C   UNL     1      -6.160  -1.920 -33.847  1.00  0.00     0.033 A 
HETATM   11  C   UNL     1      -3.566  -2.565 -32.915  1.00  0.00     0.031 A 
HETATM   12  N   UNL     1      -3.817  -0.420 -31.630  1.00  0.00    -0.364 N 
HETATM   13  C   UNL     1      -4.228  -3.399 -33.822  1.00  0.00     0.021 A 
HETATM   14  C   UNL     1      -5.504  -3.078 -34.278  1.00  0.00     0.012 A 
HETATM   15 BR   UNL     1      -6.365  -4.225 -35.513  1.00  0.00    -0.051 Br
HETATM   16  H   UNL     1      -2.923  -0.404 -31.158  1.00  0.00     0.165 HD
HETATM   17  C   UNL     1      -4.782   0.539 -31.516  1.00  0.00     0.102 A 
ENDBRANCH   6   7
ENDBRANCH   2   5
BRANCH   1  18
HETATM   18  C   UNL     1      -9.650   4.562 -33.955  1.00  0.00     0.280 C 
BRANCH  18  19
HETATM   19  O   UNL     1     -10.373   3.900 -34.993  1.00  0.00    -0.342 OA
BRANCH  19  20
HETATM   20  C   UNL     1     -11.504   3.264 -34.553  1.00  0.00     0.069 A 
HETATM   21  C   UNL     1     -12.214   3.632 -33.409  1.00  0.00     0.044 A 
HETATM   22  C   UNL     1     -13.379   2.940 -33.029  1.00  0.00    -0.053 A 
HETATM   23  C   UNL     1     -13.821   1.852 -33.807  1.00  0.00    -0.056 A 
HETATM   24  C   UNL     1     -14.108   3.364 -31.782  1.00  0.00     0.049 C 
HETATM   25  C   UNL     1     -15.056   1.074 -33.442  1.00  0.00     0.049 C 
HETATM   26  C   UNL     1     -13.117   1.514 -34.972  1.00  0.00     0.010 A 
HETATM   27  C   UNL     1     -11.970   2.220 -35.346  1.00  0.00     0.037 A 
ENDBRANCH  19  20
ENDBRANCH  18  19
ENDBRANCH   1  18
TORSDOF 5
ENDMDL
