MODEL 1
REMARK VINA RESULT:      -7.6      0.000      0.000
REMARK  8 active torsions:
REMARK  status: ('A' for Active; 'I' for Inactive)
REMARK       I    between atoms: C_2  and  N_3 
REMARK    1  A    between atoms: N_3  and  C_4 
REMARK    2  A    between atoms: C_6  and  C_7 
REMARK    3  A    between atoms: C_7  and  N_8 
REMARK    4  A    between atoms: C_11  and  C_12 
REMARK    5  A    between atoms: C_14  and  S_15 
REMARK    6  A    between atoms: S_15  and  C_16 
REMARK    7  A    between atoms: C_16  and  C_17 
REMARK    8  A    between atoms: C_17  and  N_18 
ROOT
HETATM    1  N   UNL     1      -6.293  -0.077 -32.824  1.00  0.00    -0.066 N 
HETATM    2  H   UNL     1      -6.184   0.838 -33.283  1.00  0.00     0.280 HD
HETATM    3  C   UNL     1      -6.487   0.215 -31.350  1.00  0.00     0.246 C 
HETATM    4  C   UNL     1      -5.295   0.963 -30.745  1.00  0.00     0.064 C 
HETATM    5  C   UNL     1      -3.958   0.297 -31.099  1.00  0.00     0.014 C 
HETATM    6  C   UNL     1      -3.826  -0.054 -32.576  1.00  0.00     0.028 C 
HETATM    7  C   UNL     1      -5.020  -0.851 -33.079  1.00  0.00     0.235 C 
ENDROOT
BRANCH   4   8
HETATM    8  C   UNL     1      -5.312   2.451 -31.074  1.00  0.00     0.044 A 
HETATM    9  N   UNL     1      -5.359   2.842 -32.378  1.00  0.00    -0.227 NA
HETATM   10  C   UNL     1      -5.227   4.174 -32.590  1.00  0.00     0.188 A 
HETATM   11  N   UNL     1      -5.196   5.112 -31.637  1.00  0.00    -0.235 NA
HETATM   12  C   UNL     1      -5.180   4.686 -30.366  1.00  0.00     0.121 A 
HETATM   13  C   UNL     1      -5.221   3.357 -30.028  1.00  0.00     0.047 A 
BRANCH  10  14
HETATM   14  S   UNL     1      -4.962   4.801 -34.232  1.00  0.00    -0.088 SA
BRANCH  14  15
HETATM   15  C   UNL     1      -3.355   5.615 -34.075  1.00  0.00     0.110 C 
BRANCH  15  16
HETATM   16  C   UNL     1      -2.330   4.756 -33.333  1.00  0.00     0.245 C 
BRANCH  16  17
HETATM   17  N   UNL     1      -1.912   5.330 -32.002  1.00  0.00    -0.070 N 
HETATM   18  H   UNL     1      -2.454   4.853 -31.264  1.00  0.00     0.279 HD
HETATM   19  C   UNL     1      -2.214   6.822 -31.903  1.00  0.00     0.235 C 
HETATM   20  C   UNL     1      -0.872   7.473 -32.148  1.00  0.00     0.029 C 
HETATM   21  C   UNL     1       0.065   6.575 -31.369  1.00  0.00     0.029 C 
HETATM   22  C   UNL     1      -0.429   5.173 -31.678  1.00  0.00     0.235 C 
ENDBRANCH  16  17
ENDBRANCH  15  16
ENDBRANCH  14  15
ENDBRANCH  10  14
ENDBRANCH   4   8
BRANCH   1  23
HETATM   23  C   UNL     1      -7.496  -0.781 -33.435  1.00  0.00     0.280 C 
BRANCH  23  24
HETATM   24  C   UNL     1      -8.667   0.131 -33.637  1.00  0.00     0.010 A 
HETATM   25  S   UNL     1     -10.166  -0.177 -32.854  1.00  0.00    -0.075 SA
HETATM   26  C   UNL     1     -10.862   1.231 -33.495  1.00  0.00     0.076 A 
HETATM   27  C   UNL     1     -10.029   1.876 -34.374  1.00  0.00     0.038 A 
HETATM   28  C   UNL     1      -8.758   1.230 -34.469  1.00  0.00     0.019 A 
BRANCH  26  29
HETATM   29  N   UNL     1     -12.138   1.493 -33.060  1.00  0.00    -0.322 N 
HETATM   30  C   UNL     1     -13.244   1.360 -33.879  1.00  0.00     0.218 C 
HETATM   31  C   UNL     1     -14.542   1.607 -33.155  1.00  0.00     0.117 C 
HETATM   32  O   UNL     1     -13.205   1.147 -35.089  1.00  0.00    -0.274 OA
HETATM   33  H   UNL     1     -12.253   1.865 -32.124  1.00  0.00     0.169 HD
ENDBRANCH  26  29
ENDBRANCH  23  24
ENDBRANCH   1  23
TORSDOF 8
ENDMDL
MODEL 2
REMARK VINA RESULT:      -7.5      1.599      1.972
REMARK  8 active torsions:
REMARK  status: ('A' for Active; 'I' for Inactive)
REMARK       I    between atoms: C_2  and  N_3 
REMARK    1  A    between atoms: N_3  and  C_4 
REMARK    2  A    between atoms: C_6  and  C_7 
REMARK    3  A    between atoms: C_7  and  N_8 
REMARK    4  A    between atoms: C_11  and  C_12 
REMARK    5  A    between atoms: C_14  and  S_15 
REMARK    6  A    between atoms: S_15  and  C_16 
REMARK    7  A    between atoms: C_16  and  C_17 
REMARK    8  A    between atoms: C_17  and  N_18 
ROOT
HETATM    1  N   UNL     1      -5.854  -0.010 -32.910  1.00  0.00    -0.066 N 
HETATM    2  H   UNL     1      -5.664   0.665 -33.664  1.00  0.00     0.280 HD
HETATM    3  C   UNL     1      -5.892   0.794 -31.627  1.00  0.00     0.246 C 
HETATM    4  C   UNL     1      -4.569   1.517 -31.357  1.00  0.00     0.064 C 
HETATM    5  C   UNL     1      -3.362   0.580 -31.493  1.00  0.00     0.014 C 
HETATM    6  C   UNL     1      -3.393  -0.271 -32.757  1.00  0.00     0.028 C 
HETATM    7  C   UNL     1      -4.716  -1.005 -32.915  1.00  0.00     0.235 C 
ENDROOT
BRANCH   4   8
HETATM    8  C   UNL     1      -4.419   2.788 -32.186  1.00  0.00     0.044 A 
HETATM    9  N   UNL     1      -3.176   3.178 -32.583  1.00  0.00    -0.227 NA
HETATM   10  C   UNL     1      -3.113   4.388 -33.191  1.00  0.00     0.188 A 
HETATM   11  N   UNL     1      -4.166   5.135 -33.542  1.00  0.00    -0.235 NA
HETATM   12  C   UNL     1      -5.374   4.700 -33.157  1.00  0.00     0.121 A 
HETATM   13  C   UNL     1      -5.556   3.534 -32.458  1.00  0.00     0.047 A 
BRANCH  10  14
HETATM   14  S   UNL     1      -1.543   5.165 -33.488  1.00  0.00    -0.088 SA
BRANCH  14  15
HETATM   15  C   UNL     1      -0.844   5.260 -31.823  1.00  0.00     0.110 C 
BRANCH  15  16
HETATM   16  C   UNL     1      -1.670   6.142 -30.887  1.00  0.00     0.245 C 
BRANCH  16  17
HETATM   17  N   UNL     1      -1.202   6.105 -29.453  1.00  0.00    -0.070 N 
HETATM   18  H   UNL     1      -1.633   5.285 -28.997  1.00  0.00     0.279 HD
HETATM   19  C   UNL     1      -1.638   7.345 -28.677  1.00  0.00     0.235 C 
HETATM   20  C   UNL     1      -0.390   8.197 -28.639  1.00  0.00     0.029 C 
HETATM   21  C   UNL     1       0.691   7.168 -28.381  1.00  0.00     0.029 C 
HETATM   22  C   UNL     1       0.311   6.004 -29.279  1.00  0.00     0.235 C 
ENDBRANCH  16  17
ENDBRANCH  15  16
ENDBRANCH  14  15
ENDBRANCH  10  14
ENDBRANCH   4   8
BRANCH   1  23
HETATM   23  C   UNL     1      -7.183  -0.694 -33.202  1.00  0.00     0.280 C 
BRANCH  23  24
HETATM   24  C   UNL     1      -8.292   0.276 -33.474  1.00  0.00     0.010 A 
HETATM   25  S   UNL     1      -9.860   0.025 -32.817  1.00  0.00    -0.075 SA
HETATM   26  C   UNL     1     -10.438   1.475 -33.479  1.00  0.00     0.076 A 
HETATM   27  C   UNL     1      -9.510   2.096 -34.277  1.00  0.00     0.038 A 
HETATM   28  C   UNL     1      -8.267   1.392 -34.287  1.00  0.00     0.019 A 
BRANCH  26  29
HETATM   29  N   UNL     1     -11.731   1.789 -33.139  1.00  0.00    -0.322 N 
HETATM   30  C   UNL     1     -12.798   1.570 -33.992  1.00  0.00     0.218 C 
HETATM   31  C   UNL     1     -14.126   1.902 -33.364  1.00  0.00     0.117 C 
HETATM   32  O   UNL     1     -12.702   1.223 -35.167  1.00  0.00    -0.274 OA
HETATM   33  H   UNL     1     -11.888   2.264 -32.257  1.00  0.00     0.169 HD
ENDBRANCH  26  29
ENDBRANCH  23  24
ENDBRANCH   1  23
TORSDOF 8
ENDMDL
MODEL 3
REMARK VINA RESULT:      -7.5      3.391      7.964
REMARK  8 active torsions:
REMARK  status: ('A' for Active; 'I' for Inactive)
REMARK       I    between atoms: C_2  and  N_3 
REMARK    1  A    between atoms: N_3  and  C_4 
REMARK    2  A    between atoms: C_6  and  C_7 
REMARK    3  A    between atoms: C_7  and  N_8 
REMARK    4  A    between atoms: C_11  and  C_12 
REMARK    5  A    between atoms: C_14  and  S_15 
REMARK    6  A    between atoms: S_15  and  C_16 
REMARK    7  A    between atoms: C_16  and  C_17 
REMARK    8  A    between atoms: C_17  and  N_18 
ROOT
HETATM    1  N   UNL     1      -5.937   2.927 -31.223  1.00  0.00    -0.066 N 
HETATM    2  H   UNL     1      -6.529   3.220 -32.012  1.00  0.00     0.280 HD
HETATM    3  C   UNL     1      -6.885   2.486 -30.128  1.00  0.00     0.246 C 
HETATM    4  C   UNL     1      -7.822   3.613 -29.683  1.00  0.00     0.064 C 
HETATM    5  C   UNL     1      -7.061   4.913 -29.391  1.00  0.00     0.014 C 
HETATM    6  C   UNL     1      -6.059   5.288 -30.477  1.00  0.00     0.028 C 
HETATM    7  C   UNL     1      -5.126   4.134 -30.811  1.00  0.00     0.235 C 
ENDROOT
BRANCH   4   8
HETATM    8  C   UNL     1      -8.984   3.821 -30.649  1.00  0.00     0.044 A 
HETATM    9  N   UNL     1      -9.121   2.981 -31.711  1.00  0.00    -0.227 NA
HETATM   10  C   UNL     1     -10.091   3.317 -32.597  1.00  0.00     0.188 A 
HETATM   11  N   UNL     1     -10.981   4.302 -32.434  1.00  0.00    -0.235 NA
HETATM   12  C   UNL     1     -10.828   5.088 -31.359  1.00  0.00     0.121 A 
HETATM   13  C   UNL     1      -9.830   4.900 -30.437  1.00  0.00     0.047 A 
BRANCH  10  14
HETATM   14  S   UNL     1     -10.189   2.505 -34.175  1.00  0.00    -0.088 SA
BRANCH  14  15
HETATM   15  C   UNL     1     -11.311   3.587 -35.091  1.00  0.00     0.110 C 
BRANCH  15  16
HETATM   16  C   UNL     1     -12.759   3.096 -35.062  1.00  0.00     0.245 C 
BRANCH  16  17
HETATM   17  N   UNL     1     -13.047   2.136 -33.933  1.00  0.00    -0.070 N 
HETATM   18  H   UNL     1     -12.174   2.000 -33.398  1.00  0.00     0.279 HD
HETATM   19  C   UNL     1     -13.490   0.769 -34.445  1.00  0.00     0.235 C 
HETATM   20  C   UNL     1     -14.992   0.794 -34.269  1.00  0.00     0.029 C 
HETATM   21  C   UNL     1     -15.143   1.470 -32.923  1.00  0.00     0.029 C 
HETATM   22  C   UNL     1     -14.130   2.601 -32.964  1.00  0.00     0.235 C 
ENDBRANCH  16  17
ENDBRANCH  15  16
ENDBRANCH  14  15
ENDBRANCH  10  14
ENDBRANCH   4   8
BRANCH   1  23
HETATM   23  C   UNL     1      -5.035   1.794 -31.695  1.00  0.00     0.280 C 
BRANCH  23  24
HETATM   24  C   UNL     1      -5.679   0.926 -32.732  1.00  0.00     0.010 A 
HETATM   25  S   UNL     1      -5.670  -0.785 -32.575  1.00  0.00    -0.075 SA
HETATM   26  C   UNL     1      -6.584  -0.983 -33.990  1.00  0.00     0.076 A 
HETATM   27  C   UNL     1      -6.808   0.204 -34.641  1.00  0.00     0.038 A 
HETATM   28  C   UNL     1      -6.270   1.313 -33.919  1.00  0.00     0.019 A 
BRANCH  26  29
HETATM   29  N   UNL     1      -6.935  -2.280 -34.273  1.00  0.00    -0.322 N 
HETATM   30  C   UNL     1      -6.063  -3.173 -34.868  1.00  0.00     0.218 C 
HETATM   31  C   UNL     1      -6.638  -4.560 -34.989  1.00  0.00     0.117 C 
HETATM   32  O   UNL     1      -4.964  -2.881 -35.334  1.00  0.00    -0.274 OA
HETATM   33  H   UNL     1      -7.894  -2.560 -34.100  1.00  0.00     0.169 HD
ENDBRANCH  26  29
ENDBRANCH  23  24
ENDBRANCH   1  23
TORSDOF 8
ENDMDL
MODEL 4
REMARK VINA RESULT:      -7.5      2.477      3.070
REMARK  8 active torsions:
REMARK  status: ('A' for Active; 'I' for Inactive)
REMARK       I    between atoms: C_2  and  N_3 
REMARK    1  A    between atoms: N_3  and  C_4 
REMARK    2  A    between atoms: C_6  and  C_7 
REMARK    3  A    between atoms: C_7  and  N_8 
REMARK    4  A    between atoms: C_11  and  C_12 
REMARK    5  A    between atoms: C_14  and  S_15 
REMARK    6  A    between atoms: S_15  and  C_16 
REMARK    7  A    between atoms: C_16  and  C_17 
REMARK    8  A    between atoms: C_17  and  N_18 
ROOT
HETATM    1  N   UNL     1      -5.540  -0.496 -32.918  1.00  0.00    -0.066 N 
HETATM    2  H   UNL     1      -5.373   0.334 -33.503  1.00  0.00     0.280 HD
HETATM    3  C   UNL     1      -5.654   0.011 -31.495  1.00  0.00     0.246 C 
HETATM    4  C   UNL     1      -4.381   0.726 -31.031  1.00  0.00     0.064 C 
HETATM    5  C   UNL     1      -3.119  -0.096 -31.323  1.00  0.00     0.014 C 
HETATM    6  C   UNL     1      -3.073  -0.656 -32.740  1.00  0.00     0.028 C 
HETATM    7  C   UNL     1      -4.347  -1.406 -33.096  1.00  0.00     0.235 C 
ENDROOT
BRANCH   4   8
HETATM    8  C   UNL     1      -4.286   2.151 -31.564  1.00  0.00     0.044 A 
HETATM    9  N   UNL     1      -3.059   2.701 -31.774  1.00  0.00    -0.227 NA
HETATM   10  C   UNL     1      -3.059   4.014 -32.111  1.00  0.00     0.188 A 
HETATM   11  N   UNL     1      -4.147   4.744 -32.380  1.00  0.00    -0.235 NA
HETATM   12  C   UNL     1      -5.336   4.157 -32.188  1.00  0.00     0.121 A 
HETATM   13  C   UNL     1      -5.463   2.858 -31.763  1.00  0.00     0.047 A 
BRANCH  10  14
HETATM   14  S   UNL     1      -1.544   4.942 -32.117  1.00  0.00    -0.088 SA
BRANCH  14  15
HETATM   15  C   UNL     1      -1.709   5.952 -30.626  1.00  0.00     0.110 C 
BRANCH  15  16
HETATM   16  C   UNL     1      -0.385   6.122 -29.880  1.00  0.00     0.245 C 
BRANCH  16  17
HETATM   17  N   UNL     1      -0.530   6.799 -28.539  1.00  0.00    -0.070 N 
HETATM   18  H   UNL     1      -1.524   6.752 -28.263  1.00  0.00     0.279 HD
HETATM   19  C   UNL     1      -0.140   8.273 -28.598  1.00  0.00     0.235 C 
HETATM   20  C   UNL     1       1.251   8.296 -28.005  1.00  0.00     0.029 C 
HETATM   21  C   UNL     1       1.120   7.328 -26.849  1.00  0.00     0.029 C 
HETATM   22  C   UNL     1       0.303   6.182 -27.420  1.00  0.00     0.235 C 
ENDBRANCH  16  17
ENDBRANCH  15  16
ENDBRANCH  14  15
ENDBRANCH  10  14
ENDBRANCH   4   8
BRANCH   1  23
HETATM   23  C   UNL     1      -6.821  -1.169 -33.393  1.00  0.00     0.280 C 
BRANCH  23  24
HETATM   24  C   UNL     1      -7.980  -0.225 -33.483  1.00  0.00     0.010 A 
HETATM   25  S   UNL     1      -7.923   1.140 -34.526  1.00  0.00    -0.075 SA
HETATM   26  C   UNL     1      -9.507   1.594 -34.122  1.00  0.00     0.076 A 
HETATM   27  C   UNL     1     -10.045   0.804 -33.137  1.00  0.00     0.038 A 
HETATM   28  C   UNL     1      -9.153  -0.244 -32.754  1.00  0.00     0.019 A 
BRANCH  26  29
HETATM   29  N   UNL     1      -9.991   2.675 -34.815  1.00  0.00    -0.322 N 
HETATM   30  C   UNL     1      -9.814   3.976 -34.381  1.00  0.00     0.218 C 
HETATM   31  C   UNL     1     -10.347   4.996 -35.353  1.00  0.00     0.117 C 
HETATM   32  O   UNL     1      -9.353   4.299 -33.288  1.00  0.00    -0.274 OA
HETATM   33  H   UNL     1     -10.560   2.497 -35.636  1.00  0.00     0.169 HD
ENDBRANCH  26  29
ENDBRANCH  23  24
ENDBRANCH   1  23
TORSDOF 8
ENDMDL
MODEL 5
REMARK VINA RESULT:      -7.4      3.538      5.951
REMARK  8 active torsions:
REMARK  status: ('A' for Active; 'I' for Inactive)
REMARK       I    between atoms: C_2  and  N_3 
REMARK    1  A    between atoms: N_3  and  C_4 
REMARK    2  A    between atoms: C_6  and  C_7 
REMARK    3  A    between atoms: C_7  and  N_8 
REMARK    4  A    between atoms: C_11  and  C_12 
REMARK    5  A    between atoms: C_14  and  S_15 
REMARK    6  A    between atoms: S_15  and  C_16 
REMARK    7  A    between atoms: C_16  and  C_17 
REMARK    8  A    between atoms: C_17  and  N_18 
ROOT
HETATM    1  N   UNL     1      -4.745   4.473 -31.561  1.00  0.00    -0.066 N 
HETATM    2  H   UNL     1      -4.455   5.354 -31.115  1.00  0.00     0.280 HD
HETATM    3  C   UNL     1      -3.530   3.568 -31.530  1.00  0.00     0.246 C 
HETATM    4  C   UNL     1      -2.342   4.168 -32.289  1.00  0.00     0.064 C 
HETATM    5  C   UNL     1      -2.741   4.664 -33.685  1.00  0.00     0.014 C 
HETATM    6  C   UNL     1      -4.011   5.506 -33.691  1.00  0.00     0.028 C 
HETATM    7  C   UNL     1      -5.157   4.810 -32.975  1.00  0.00     0.235 C 
ENDROOT
BRANCH   4   8
HETATM    8  C   UNL     1      -1.610   5.232 -31.479  1.00  0.00     0.044 A 
HETATM    9  N   UNL     1      -2.327   6.068 -30.679  1.00  0.00    -0.227 NA
HETATM   10  C   UNL     1      -1.621   7.073 -30.106  1.00  0.00     0.188 A 
HETATM   11  N   UNL     1      -0.292   7.212 -30.155  1.00  0.00    -0.235 NA
HETATM   12  C   UNL     1       0.381   6.350 -30.930  1.00  0.00     0.121 A 
HETATM   13  C   UNL     1      -0.235   5.344 -31.631  1.00  0.00     0.047 A 
BRANCH  10  14
HETATM   14  S   UNL     1      -2.460   8.412 -29.292  1.00  0.00    -0.088 SA
BRANCH  14  15
HETATM   15  C   UNL     1      -2.333   7.939 -27.551  1.00  0.00     0.110 C 
BRANCH  15  16
HETATM   16  C   UNL     1      -1.700   9.032 -26.689  1.00  0.00     0.245 C 
BRANCH  16  17
HETATM   17  N   UNL     1      -0.401   8.614 -26.043  1.00  0.00    -0.070 N 
HETATM   18  H   UNL     1      -0.517   8.680 -25.019  1.00  0.00     0.279 HD
HETATM   19  C   UNL     1       0.753   9.533 -26.435  1.00  0.00     0.235 C 
HETATM   20  C   UNL     1       1.492   8.743 -27.492  1.00  0.00     0.029 C 
HETATM   21  C   UNL     1       1.461   7.341 -26.921  1.00  0.00     0.029 C 
HETATM   22  C   UNL     1       0.050   7.196 -26.379  1.00  0.00     0.235 C 
ENDBRANCH  16  17
ENDBRANCH  15  16
ENDBRANCH  14  15
ENDBRANCH  10  14
ENDBRANCH   4   8
BRANCH   1  23
HETATM   23  C   UNL     1      -5.912   3.897 -30.770  1.00  0.00     0.280 C 
BRANCH  23  24
HETATM   24  C   UNL     1      -6.085   2.423 -30.973  1.00  0.00     0.010 A 
HETATM   25  S   UNL     1      -6.719   1.808 -32.448  1.00  0.00    -0.075 SA
HETATM   26  C   UNL     1      -6.534   0.203 -31.931  1.00  0.00     0.076 A 
HETATM   27  C   UNL     1      -6.106   0.116 -30.630  1.00  0.00     0.038 A 
HETATM   28  C   UNL     1      -5.859   1.405 -30.068  1.00  0.00     0.019 A 
BRANCH  26  29
HETATM   29  N   UNL     1      -6.855  -0.746 -32.870  1.00  0.00    -0.322 N 
HETATM   30  C   UNL     1      -5.913  -1.308 -33.712  1.00  0.00     0.218 C 
HETATM   31  C   UNL     1      -6.484  -2.393 -34.587  1.00  0.00     0.117 C 
HETATM   32  O   UNL     1      -4.748  -0.931 -33.819  1.00  0.00    -0.274 OA
HETATM   33  H   UNL     1      -7.835  -0.981 -32.991  1.00  0.00     0.169 HD
ENDBRANCH  26  29
ENDBRANCH  23  24
ENDBRANCH   1  23
TORSDOF 8
ENDMDL
MODEL 6
REMARK VINA RESULT:      -7.4      2.960      5.082
REMARK  8 active torsions:
REMARK  status: ('A' for Active; 'I' for Inactive)
REMARK       I    between atoms: C_2  and  N_3 
REMARK    1  A    between atoms: N_3  and  C_4 
REMARK    2  A    between atoms: C_6  and  C_7 
REMARK    3  A    between atoms: C_7  and  N_8 
REMARK    4  A    between atoms: C_11  and  C_12 
REMARK    5  A    between atoms: C_14  and  S_15 
REMARK    6  A    between atoms: S_15  and  C_16 
REMARK    7  A    between atoms: C_16  and  C_17 
REMARK    8  A    between atoms: C_17  and  N_18 
ROOT
HETATM    1  N   UNL     1      -8.122   1.071 -33.106  1.00  0.00    -0.066 N 
HETATM    2  H   UNL     1      -7.231   1.524 -32.866  1.00  0.00     0.280 HD
HETATM    3  C   UNL     1      -7.998  -0.368 -32.648  1.00  0.00     0.246 C 
HETATM    4  C   UNL     1      -6.841  -1.097 -33.339  1.00  0.00     0.064 C 
HETATM    5  C   UNL     1      -6.865  -0.906 -34.861  1.00  0.00     0.014 C 
HETATM    6  C   UNL     1      -7.070   0.543 -35.288  1.00  0.00     0.028 C 
HETATM    7  C   UNL     1      -8.276   1.171 -34.607  1.00  0.00     0.235 C 
ENDROOT
BRANCH   4   8
HETATM    8  C   UNL     1      -5.487  -0.753 -32.728  1.00  0.00     0.044 A 
HETATM    9  N   UNL     1      -5.321   0.456 -32.123  1.00  0.00    -0.227 NA
HETATM   10  C   UNL     1      -4.054   0.741 -31.734  1.00  0.00     0.188 A 
HETATM   11  N   UNL     1      -3.021  -0.108 -31.774  1.00  0.00    -0.235 NA
HETATM   12  C   UNL     1      -3.235  -1.298 -32.351  1.00  0.00     0.121 A 
HETATM   13  C   UNL     1      -4.453  -1.668 -32.863  1.00  0.00     0.047 A 
BRANCH  10  14
HETATM   14  S   UNL     1      -3.621   2.385 -31.215  1.00  0.00    -0.088 SA
BRANCH  14  15
HETATM   15  C   UNL     1      -3.824   3.333 -32.741  1.00  0.00     0.110 C 
BRANCH  15  16
HETATM   16  C   UNL     1      -2.592   4.173 -33.081  1.00  0.00     0.245 C 
BRANCH  16  17
HETATM   17  N   UNL     1      -2.674   5.594 -32.579  1.00  0.00    -0.070 N 
HETATM   18  H   UNL     1      -3.623   5.745 -32.199  1.00  0.00     0.279 HD
HETATM   19  C   UNL     1      -2.462   6.608 -33.699  1.00  0.00     0.235 C 
HETATM   20  C   UNL     1      -1.030   7.052 -33.510  1.00  0.00     0.029 C 
HETATM   21  C   UNL     1      -0.929   7.169 -32.004  1.00  0.00     0.029 C 
HETATM   22  C   UNL     1      -1.665   5.944 -31.490  1.00  0.00     0.235 C 
ENDBRANCH  16  17
ENDBRANCH  15  16
ENDBRANCH  14  15
ENDBRANCH  10  14
ENDBRANCH   4   8
BRANCH   1  23
HETATM   23  C   UNL     1      -9.245   1.808 -32.388  1.00  0.00     0.280 C 
BRANCH  23  24
HETATM   24  C   UNL     1      -8.783   3.063 -31.714  1.00  0.00     0.010 A 
HETATM   25  S   UNL     1      -7.444   3.040 -30.636  1.00  0.00    -0.075 SA
HETATM   26  C   UNL     1      -7.528   4.717 -30.395  1.00  0.00     0.076 A 
HETATM   27  C   UNL     1      -8.609   5.284 -31.022  1.00  0.00     0.038 A 
HETATM   28  C   UNL     1      -9.347   4.322 -31.777  1.00  0.00     0.019 A 
BRANCH  26  29
HETATM   29  N   UNL     1      -6.532   5.237 -29.605  1.00  0.00    -0.322 N 
HETATM   30  C   UNL     1      -5.500   6.000 -30.118  1.00  0.00     0.218 C 
HETATM   31  C   UNL     1      -4.584   6.539 -29.050  1.00  0.00     0.117 C 
HETATM   32  O   UNL     1      -5.275   6.170 -31.315  1.00  0.00    -0.274 OA
HETATM   33  H   UNL     1      -6.525   4.984 -28.623  1.00  0.00     0.169 HD
ENDBRANCH  26  29
ENDBRANCH  23  24
ENDBRANCH   1  23
TORSDOF 8
ENDMDL
MODEL 7
REMARK VINA RESULT:      -7.3      3.562      8.976
REMARK  8 active torsions:
REMARK  status: ('A' for Active; 'I' for Inactive)
REMARK       I    between atoms: C_2  and  N_3 
REMARK    1  A    between atoms: N_3  and  C_4 
REMARK    2  A    between atoms: C_6  and  C_7 
REMARK    3  A    between atoms: C_7  and  N_8 
REMARK    4  A    between atoms: C_11  and  C_12 
REMARK    5  A    between atoms: C_14  and  S_15 
REMARK    6  A    between atoms: S_15  and  C_16 
REMARK    7  A    between atoms: C_16  and  C_17 
REMARK    8  A    between atoms: C_17  and  N_18 
ROOT
HETATM    1  N   UNL     1      -3.630   4.110 -33.295  1.00  0.00    -0.066 N 
HETATM    2  H   UNL     1      -3.818   3.135 -33.564  1.00  0.00     0.280 HD
HETATM    3  C   UNL     1      -3.898   4.192 -31.806  1.00  0.00     0.246 C 
HETATM    4  C   UNL     1      -5.344   3.827 -31.457  1.00  0.00     0.064 C 
HETATM    5  C   UNL     1      -6.356   4.574 -32.335  1.00  0.00     0.014 C 
HETATM    6  C   UNL     1      -6.015   4.537 -33.820  1.00  0.00     0.028 C 
HETATM    7  C   UNL     1      -4.583   4.977 -34.085  1.00  0.00     0.235 C 
ENDROOT
BRANCH   4   8
HETATM    8  C   UNL     1      -5.578   2.320 -31.448  1.00  0.00     0.044 A 
HETATM    9  N   UNL     1      -5.140   1.574 -32.499  1.00  0.00    -0.227 NA
HETATM   10  C   UNL     1      -5.512   0.271 -32.482  1.00  0.00     0.188 A 
HETATM   11  N   UNL     1      -6.137  -0.344 -31.472  1.00  0.00    -0.235 NA
HETATM   12  C   UNL     1      -6.526   0.421 -30.443  1.00  0.00     0.121 A 
HETATM   13  C   UNL     1      -6.284   1.771 -30.387  1.00  0.00     0.047 A 
BRANCH  10  14
HETATM   14  S   UNL     1      -5.282  -0.749 -33.920  1.00  0.00    -0.088 SA
BRANCH  14  15
HETATM   15  C   UNL     1      -6.979  -0.971 -34.505  1.00  0.00     0.110 C 
BRANCH  15  16
HETATM   16  C   UNL     1      -7.560   0.303 -35.120  1.00  0.00     0.245 C 
BRANCH  16  17
HETATM   17  N   UNL     1      -8.932   0.654 -34.597  1.00  0.00    -0.070 N 
HETATM   18  H   UNL     1      -9.625   0.388 -35.314  1.00  0.00     0.279 HD
HETATM   19  C   UNL     1      -9.081   2.151 -34.346  1.00  0.00     0.235 C 
HETATM   20  C   UNL     1      -8.921   2.278 -32.848  1.00  0.00     0.029 C 
HETATM   21  C   UNL     1      -9.700   1.082 -32.342  1.00  0.00     0.029 C 
HETATM   22  C   UNL     1      -9.311  -0.038 -33.291  1.00  0.00     0.235 C 
ENDBRANCH  16  17
ENDBRANCH  15  16
ENDBRANCH  14  15
ENDBRANCH  10  14
ENDBRANCH   4   8
BRANCH   1  23
HETATM   23  C   UNL     1      -2.181   4.432 -33.637  1.00  0.00     0.280 C 
BRANCH  23  24
HETATM   24  C   UNL     1      -1.641   5.594 -32.863  1.00  0.00     0.010 A 
HETATM   25  S   UNL     1      -0.658   5.345 -31.475  1.00  0.00    -0.075 SA
HETATM   26  C   UNL     1      -0.429   7.012 -31.260  1.00  0.00     0.076 A 
HETATM   27  C   UNL     1      -1.164   7.761 -32.144  1.00  0.00     0.038 A 
HETATM   28  C   UNL     1      -1.880   6.939 -33.067  1.00  0.00     0.019 A 
BRANCH  26  29
HETATM   29  N   UNL     1       0.424   7.349 -30.238  1.00  0.00    -0.322 N 
HETATM   30  C   UNL     1      -0.017   7.583 -28.948  1.00  0.00     0.218 C 
HETATM   31  C   UNL     1       1.109   7.841 -27.982  1.00  0.00     0.117 C 
HETATM   32  O   UNL     1      -1.196   7.662 -28.609  1.00  0.00    -0.274 OA
HETATM   33  H   UNL     1       1.400   7.501 -30.465  1.00  0.00     0.169 HD
ENDBRANCH  26  29
ENDBRANCH  23  24
ENDBRANCH   1  23
TORSDOF 8
ENDMDL
MODEL 8
REMARK VINA RESULT:      -7.3      3.322      7.398
REMARK  8 active torsions:
REMARK  status: ('A' for Active; 'I' for Inactive)
REMARK       I    between atoms: C_2  and  N_3 
REMARK    1  A    between atoms: N_3  and  C_4 
REMARK    2  A    between atoms: C_6  and  C_7 
REMARK    3  A    between atoms: C_7  and  N_8 
REMARK    4  A    between atoms: C_11  and  C_12 
REMARK    5  A    between atoms: C_14  and  S_15 
REMARK    6  A    between atoms: S_15  and  C_16 
REMARK    7  A    between atoms: C_16  and  C_17 
REMARK    8  A    between atoms: C_17  and  N_18 
ROOT
HETATM    1  N   UNL     1      -2.154   7.051 -29.930  1.00  0.00    -0.066 N 
HETATM    2  H   UNL     1      -2.674   6.299 -30.403  1.00  0.00     0.280 HD
HETATM    3  C   UNL     1      -1.827   8.071 -31.001  1.00  0.00     0.246 C 
HETATM    4  C   UNL     1      -0.972   7.477 -32.125  1.00  0.00     0.064 C 
HETATM    5  C   UNL     1       0.236   6.702 -31.583  1.00  0.00     0.014 C 
HETATM    6  C   UNL     1      -0.116   5.740 -30.454  1.00  0.00     0.028 C 
HETATM    7  C   UNL     1      -0.906   6.426 -29.350  1.00  0.00     0.235 C 
ENDROOT
BRANCH   4   8
HETATM    8  C   UNL     1      -1.796   6.658 -33.113  1.00  0.00     0.044 A 
HETATM    9  N   UNL     1      -3.138   6.539 -32.918  1.00  0.00    -0.227 NA
HETATM   10  C   UNL     1      -3.773   5.681 -33.755  1.00  0.00     0.188 A 
HETATM   11  N   UNL     1      -3.218   5.074 -34.809  1.00  0.00    -0.235 NA
HETATM   12  C   UNL     1      -1.899   5.240 -34.982  1.00  0.00     0.121 A 
HETATM   13  C   UNL     1      -1.133   6.014 -34.148  1.00  0.00     0.047 A 
BRANCH  10  14
HETATM   14  S   UNL     1      -5.451   5.189 -33.435  1.00  0.00    -0.088 SA
BRANCH  14  15
HETATM   15  C   UNL     1      -5.266   3.431 -33.053  1.00  0.00     0.110 C 
BRANCH  15  16
HETATM   16  C   UNL     1      -6.396   2.580 -33.633  1.00  0.00     0.245 C 
BRANCH  16  17
HETATM   17  N   UNL     1      -6.114   1.098 -33.600  1.00  0.00    -0.070 N 
HETATM   18  H   UNL     1      -5.967   0.778 -34.570  1.00  0.00     0.279 HD
HETATM   19  C   UNL     1      -7.287   0.306 -33.028  1.00  0.00     0.235 C 
HETATM   20  C   UNL     1      -6.857   0.010 -31.609  1.00  0.00     0.029 C 
HETATM   21  C   UNL     1      -5.392  -0.332 -31.785  1.00  0.00     0.029 C 
HETATM   22  C   UNL     1      -4.891   0.701 -32.779  1.00  0.00     0.235 C 
ENDBRANCH  16  17
ENDBRANCH  15  16
ENDBRANCH  14  15
ENDBRANCH  10  14
ENDBRANCH   4   8
BRANCH   1  23
HETATM   23  C   UNL     1      -3.039   7.631 -28.835  1.00  0.00     0.280 C 
BRANCH  23  24
HETATM   24  C   UNL     1      -4.289   6.837 -28.611  1.00  0.00     0.010 A 
HETATM   25  S   UNL     1      -5.328   6.443 -29.923  1.00  0.00    -0.075 SA
HETATM   26  C   UNL     1      -6.365   5.555 -28.918  1.00  0.00     0.076 A 
HETATM   27  C   UNL     1      -6.011   5.634 -27.595  1.00  0.00     0.038 A 
HETATM   28  C   UNL     1      -4.813   6.391 -27.414  1.00  0.00     0.019 A 
BRANCH  26  29
HETATM   29  N   UNL     1      -7.395   4.921 -29.569  1.00  0.00    -0.322 N 
HETATM   30  C   UNL     1      -7.345   3.584 -29.915  1.00  0.00     0.218 C 
HETATM   31  C   UNL     1      -8.628   3.090 -30.532  1.00  0.00     0.117 C 
HETATM   32  O   UNL     1      -6.351   2.867 -29.821  1.00  0.00    -0.274 OA
HETATM   33  H   UNL     1      -8.186   5.483 -29.865  1.00  0.00     0.169 HD
ENDBRANCH  26  29
ENDBRANCH  23  24
ENDBRANCH   1  23
TORSDOF 8
ENDMDL
MODEL 9
REMARK VINA RESULT:      -7.3      4.517      9.165
REMARK  8 active torsions:
REMARK  status: ('A' for Active; 'I' for Inactive)
REMARK       I    between atoms: C_2  and  N_3 
REMARK    1  A    between atoms: N_3  and  C_4 
REMARK    2  A    between atoms: C_6  and  C_7 
REMARK    3  A    between atoms: C_7  and  N_8 
REMARK    4  A    between atoms: C_11  and  C_12 
REMARK    5  A    between atoms: C_14  and  S_15 
REMARK    6  A    between atoms: S_15  and  C_16 
REMARK    7  A    between atoms: C_16  and  C_17 
REMARK    8  A    between atoms: C_17  and  N_18 
ROOT
HETATM    1  N   UNL     1      -2.952   4.986 -33.342  1.00  0.00    -0.066 N 
HETATM    2  H   UNL     1      -3.063   3.999 -33.073  1.00  0.00     0.280 HD
HETATM    3  C   UNL     1      -3.626   5.795 -32.253  1.00  0.00     0.246 C 
HETATM    4  C   UNL     1      -5.114   5.457 -32.117  1.00  0.00     0.064 C 
HETATM    5  C   UNL     1      -5.835   5.474 -33.471  1.00  0.00     0.014 C 
HETATM    6  C   UNL     1      -5.092   4.716 -34.565  1.00  0.00     0.028 C 
HETATM    7  C   UNL     1      -3.641   5.159 -34.676  1.00  0.00     0.235 C 
ENDROOT
BRANCH   4   8
HETATM    8  C   UNL     1      -5.350   4.163 -31.346  1.00  0.00     0.044 A 
HETATM    9  N   UNL     1      -4.406   3.184 -31.389  1.00  0.00    -0.227 NA
HETATM   10  C   UNL     1      -4.753   2.014 -30.797  1.00  0.00     0.188 A 
HETATM   11  N   UNL     1      -5.862   1.810 -30.078  1.00  0.00    -0.235 NA
HETATM   12  C   UNL     1      -6.753   2.810 -30.036  1.00  0.00     0.121 A 
HETATM   13  C   UNL     1      -6.553   4.010 -30.671  1.00  0.00     0.047 A 
BRANCH  10  14
HETATM   14  S   UNL     1      -3.764   0.557 -31.034  1.00  0.00    -0.088 SA
BRANCH  14  15
HETATM   15  C   UNL     1      -4.176   0.088 -32.731  1.00  0.00     0.110 C 
BRANCH  15  16
HETATM   16  C   UNL     1      -4.918  -1.247 -32.808  1.00  0.00     0.245 C 
BRANCH  16  17
HETATM   17  N   UNL     1      -4.968  -1.829 -34.200  1.00  0.00    -0.070 N 
HETATM   18  H   UNL     1      -4.359  -1.258 -34.808  1.00  0.00     0.279 HD
HETATM   19  C   UNL     1      -6.375  -1.785 -34.787  1.00  0.00     0.235 C 
HETATM   20  C   UNL     1      -6.877  -3.201 -34.614  1.00  0.00     0.029 C 
HETATM   21  C   UNL     1      -5.654  -4.018 -34.973  1.00  0.00     0.029 C 
HETATM   22  C   UNL     1      -4.509  -3.281 -34.300  1.00  0.00     0.235 C 
ENDBRANCH  16  17
ENDBRANCH  15  16
ENDBRANCH  14  15
ENDBRANCH  10  14
ENDBRANCH   4   8
BRANCH   1  23
HETATM   23  C   UNL     1      -1.464   5.291 -33.447  1.00  0.00     0.280 C 
BRANCH  23  24
HETATM   24  C   UNL     1      -0.876   5.790 -32.164  1.00  0.00     0.010 A 
HETATM   25  S   UNL     1      -1.230   5.011 -30.673  1.00  0.00    -0.075 SA
HETATM   26  C   UNL     1      -0.206   6.053 -29.812  1.00  0.00     0.076 A 
HETATM   27  C   UNL     1       0.316   7.047 -30.601  1.00  0.00     0.038 A 
HETATM   28  C   UNL     1      -0.084   6.904 -31.965  1.00  0.00     0.019 A 
BRANCH  26  29
HETATM   29  N   UNL     1      -0.077   5.761 -28.477  1.00  0.00    -0.322 N 
HETATM   30  C   UNL     1      -0.736   6.474 -27.493  1.00  0.00     0.218 C 
HETATM   31  C   UNL     1      -0.516   5.910 -26.114  1.00  0.00     0.117 C 
HETATM   32  O   UNL     1      -1.371   7.510 -27.678  1.00  0.00    -0.274 OA
HETATM   33  H   UNL     1       0.585   5.040 -28.211  1.00  0.00     0.169 HD
ENDBRANCH  26  29
ENDBRANCH  23  24
ENDBRANCH   1  23
TORSDOF 8
ENDMDL
MODEL 10
REMARK VINA RESULT:      -7.3      2.286      5.700
REMARK  8 active torsions:
REMARK  status: ('A' for Active; 'I' for Inactive)
REMARK       I    between atoms: C_2  and  N_3 
REMARK    1  A    between atoms: N_3  and  C_4 
REMARK    2  A    between atoms: C_6  and  C_7 
REMARK    3  A    between atoms: C_7  and  N_8 
REMARK    4  A    between atoms: C_11  and  C_12 
REMARK    5  A    between atoms: C_14  and  S_15 
REMARK    6  A    between atoms: S_15  and  C_16 
REMARK    7  A    between atoms: C_16  and  C_17 
REMARK    8  A    between atoms: C_17  and  N_18 
ROOT
HETATM    1  N   UNL     1      -7.813   4.532 -31.763  1.00  0.00    -0.066 N 
HETATM    2  H   UNL     1      -7.257   3.687 -31.954  1.00  0.00     0.280 HD
HETATM    3  C   UNL     1      -6.824   5.678 -31.707  1.00  0.00     0.246 C 
HETATM    4  C   UNL     1      -5.776   5.486 -30.607  1.00  0.00     0.064 C 
HETATM    5  C   UNL     1      -6.413   5.120 -29.261  1.00  0.00     0.014 C 
HETATM    6  C   UNL     1      -7.459   4.016 -29.364  1.00  0.00     0.028 C 
HETATM    7  C   UNL     1      -8.498   4.317 -30.434  1.00  0.00     0.235 C 
ENDROOT
BRANCH   4   8
HETATM    8  C   UNL     1      -4.674   4.515 -31.015  1.00  0.00     0.044 A 
HETATM    9  N   UNL     1      -4.925   3.177 -30.988  1.00  0.00    -0.227 NA
HETATM   10  C   UNL     1      -3.855   2.380 -31.227  1.00  0.00     0.188 A 
HETATM   11  N   UNL     1      -2.645   2.801 -31.611  1.00  0.00    -0.235 NA
HETATM   12  C   UNL     1      -2.448   4.125 -31.653  1.00  0.00     0.121 A 
HETATM   13  C   UNL     1      -3.430   5.033 -31.347  1.00  0.00     0.047 A 
BRANCH  10  14
HETATM   14  S   UNL     1      -3.952   0.630 -30.926  1.00  0.00    -0.088 SA
BRANCH  14  15
HETATM   15  C   UNL     1      -3.947  -0.045 -32.604  1.00  0.00     0.110 C 
BRANCH  15  16
HETATM   16  C   UNL     1      -4.954  -1.182 -32.784  1.00  0.00     0.245 C 
BRANCH  16  17
HETATM   17  N   UNL     1      -5.028  -1.704 -34.198  1.00  0.00    -0.070 N 
HETATM   18  H   UNL     1      -4.464  -1.081 -34.798  1.00  0.00     0.279 HD
HETATM   19  C   UNL     1      -6.456  -1.691 -34.737  1.00  0.00     0.235 C 
HETATM   20  C   UNL     1      -6.895  -3.133 -34.612  1.00  0.00     0.029 C 
HETATM   21  C   UNL     1      -5.654  -3.882 -35.047  1.00  0.00     0.029 C 
HETATM   22  C   UNL     1      -4.517  -3.130 -34.378  1.00  0.00     0.235 C 
ENDBRANCH  16  17
ENDBRANCH  15  16
ENDBRANCH  14  15
ENDBRANCH  10  14
ENDBRANCH   4   8
BRANCH   1  23
HETATM   23  C   UNL     1      -8.829   4.702 -32.885  1.00  0.00     0.280 C 
BRANCH  23  24
HETATM   24  C   UNL     1      -9.628   3.462 -33.143  1.00  0.00     0.010 A 
HETATM   25  S   UNL     1     -11.300   3.396 -32.750  1.00  0.00    -0.075 SA
HETATM   26  C   UNL     1     -11.449   1.825 -33.371  1.00  0.00     0.076 A 
HETATM   27  C   UNL     1     -10.245   1.302 -33.771  1.00  0.00     0.038 A 
HETATM   28  C   UNL     1      -9.184   2.247 -33.626  1.00  0.00     0.019 A 
BRANCH  26  29
HETATM   29  N   UNL     1     -12.725   1.318 -33.357  1.00  0.00    -0.322 N 
HETATM   30  C   UNL     1     -13.514   1.260 -34.492  1.00  0.00     0.218 C 
HETATM   31  C   UNL     1     -14.834   0.577 -34.252  1.00  0.00     0.117 C 
HETATM   32  O   UNL     1     -13.234   1.774 -35.573  1.00  0.00    -0.274 OA
HETATM   33  H   UNL     1     -13.118   1.047 -32.463  1.00  0.00     0.169 HD
ENDBRANCH  26  29
ENDBRANCH  23  24
ENDBRANCH   1  23
TORSDOF 8
ENDMDL
