MODEL 1
REMARK VINA RESULT:      -8.6      0.000      0.000
REMARK  5 active torsions:
REMARK  status: ('A' for Active; 'I' for Inactive)
REMARK    1  A    between atoms: C_8  and  C_9 
REMARK    2  A    between atoms: C_9  and  N_10 
REMARK    3  A    between atoms: N_10  and  C_13 
REMARK    4  A    between atoms: C_16  and  O_17 
REMARK    5  A    between atoms: O_17  and  C_18 
ROOT
HETATM    1  C   UNL     1      -5.352  -0.360 -33.572  1.00  0.00     0.164 A 
HETATM    2  N   UNL     1      -4.314  -1.223 -33.570  1.00  0.00    -0.236 NA
HETATM    3  C   UNL     1      -4.545  -2.458 -34.082  1.00  0.00     0.142 A 
HETATM    4  C   UNL     1      -5.769  -2.869 -34.588  1.00  0.00     0.062 A 
HETATM    5  C   UNL     1      -5.932  -4.188 -35.110  1.00  0.00     0.101 C 
HETATM    6  N   UNL     1      -6.061  -5.262 -35.529  1.00  0.00    -0.191 NA
HETATM    7  C   UNL     1      -6.824  -1.958 -34.563  1.00  0.00     0.028 A 
HETATM    8  C   UNL     1      -6.616  -0.683 -34.038  1.00  0.00     0.059 A 
ENDROOT
BRANCH   1   9
HETATM    9  O   UNL     1      -5.186   0.902 -33.033  1.00  0.00    -0.329 OA
BRANCH   9  10
HETATM   10  C   UNL     1      -6.337   1.377 -32.318  1.00  0.00     0.130 C 
HETATM   11  C   UNL     1      -5.973   1.368 -30.825  1.00  0.00     0.034 C 
HETATM   12  C   UNL     1      -4.898   2.399 -30.470  1.00  0.00     0.035 C 
HETATM   13  C   UNL     1      -5.309   3.800 -30.929  1.00  0.00     0.186 C 
HETATM   14  C   UNL     1      -5.610   3.821 -32.425  1.00  0.00     0.035 C 
HETATM   15  C   UNL     1      -6.699   2.801 -32.769  1.00  0.00     0.034 C 
BRANCH  13  16
HETATM   16  N   UNL     1      -4.203   4.751 -30.592  1.00  0.00    -0.067 N 
HETATM   17  H   UNL     1      -4.188   4.967 -29.587  1.00  0.00     0.277 HD
HETATM   18  H   UNL     1      -4.395   5.647 -31.066  1.00  0.00     0.277 HD
BRANCH  16  19
HETATM   19  C   UNL     1      -2.829   4.343 -31.024  1.00  0.00     0.274 C 
BRANCH  19  20
HETATM   20  C   UNL     1      -2.314   5.183 -32.150  1.00  0.00     0.004 A 
HETATM   21  C   UNL     1      -2.179   6.556 -32.013  1.00  0.00     0.113 A 
HETATM   22  C   UNL     1      -1.757   7.362 -33.044  1.00  0.00     0.105 A 
HETATM   23  O   UNL     1      -2.421   7.263 -30.871  1.00  0.00    -0.322 OA
HETATM   24  C   UNL     1      -1.435   6.845 -34.279  1.00  0.00     0.040 A 
HETATM   25  O   UNL     1      -1.703   8.671 -32.692  1.00  0.00    -0.323 OA
HETATM   26  C   UNL     1      -1.555   5.465 -34.456  1.00  0.00     0.003 A 
HETATM   27  C   UNL     1      -1.993   4.638 -33.404  1.00  0.00     0.012 A 
HETATM   28  C   UNL     1      -2.197   8.620 -31.341  1.00  0.00     0.352 A 
ENDBRANCH  19  20
ENDBRANCH  16  19
ENDBRANCH  13  16
ENDBRANCH   9  10
ENDBRANCH   1   9
TORSDOF 5
ENDMDL
MODEL 2
REMARK VINA RESULT:      -8.5      1.382      2.032
REMARK  5 active torsions:
REMARK  status: ('A' for Active; 'I' for Inactive)
REMARK    1  A    between atoms: C_8  and  C_9 
REMARK    2  A    between atoms: C_9  and  N_10 
REMARK    3  A    between atoms: N_10  and  C_13 
REMARK    4  A    between atoms: C_16  and  O_17 
REMARK    5  A    between atoms: O_17  and  C_18 
ROOT
HETATM    1  C   UNL     1      -5.393  -0.215 -33.515  1.00  0.00     0.164 A 
HETATM    2  N   UNL     1      -4.403  -1.130 -33.474  1.00  0.00    -0.236 NA
HETATM    3  C   UNL     1      -4.675  -2.349 -34.004  1.00  0.00     0.142 A 
HETATM    4  C   UNL     1      -5.895  -2.694 -34.564  1.00  0.00     0.062 A 
HETATM    5  C   UNL     1      -6.103  -4.001 -35.101  1.00  0.00     0.101 C 
HETATM    6  N   UNL     1      -6.269  -5.065 -35.532  1.00  0.00    -0.191 NA
HETATM    7  C   UNL     1      -6.902  -1.730 -34.579  1.00  0.00     0.028 A 
HETATM    8  C   UNL     1      -6.651  -0.469 -34.038  1.00  0.00     0.059 A 
ENDROOT
BRANCH   1   9
HETATM    9  O   UNL     1      -5.186   1.035 -32.962  1.00  0.00    -0.329 OA
BRANCH   9  10
HETATM   10  C   UNL     1      -4.751   0.993 -31.594  1.00  0.00     0.130 C 
HETATM   11  C   UNL     1      -3.394   1.713 -31.533  1.00  0.00     0.034 C 
HETATM   12  C   UNL     1      -3.506   3.214 -31.812  1.00  0.00     0.035 C 
HETATM   13  C   UNL     1      -4.522   3.873 -30.876  1.00  0.00     0.186 C 
HETATM   14  C   UNL     1      -5.886   3.196 -30.984  1.00  0.00     0.035 C 
HETATM   15  C   UNL     1      -5.769   1.699 -30.686  1.00  0.00     0.034 C 
BRANCH  13  16
HETATM   16  N   UNL     1      -4.615   5.325 -31.226  1.00  0.00    -0.067 N 
HETATM   17  H   UNL     1      -5.593   5.621 -31.339  1.00  0.00     0.277 HD
HETATM   18  H   UNL     1      -4.175   5.461 -32.149  1.00  0.00     0.277 HD
BRANCH  16  19
HETATM   19  C   UNL     1      -3.923   6.273 -30.297  1.00  0.00     0.274 C 
BRANCH  19  20
HETATM   20  C   UNL     1      -2.507   6.536 -30.703  1.00  0.00     0.004 A 
HETATM   21  C   UNL     1      -2.167   6.708 -32.036  1.00  0.00     0.113 A 
HETATM   22  C   UNL     1      -0.869   6.900 -32.447  1.00  0.00     0.105 A 
HETATM   23  O   UNL     1      -3.047   6.727 -33.079  1.00  0.00    -0.322 OA
HETATM   24  C   UNL     1       0.174   6.940 -31.549  1.00  0.00     0.040 A 
HETATM   25  O   UNL     1      -0.765   7.040 -33.792  1.00  0.00    -0.323 OA
HETATM   26  C   UNL     1      -0.129   6.774 -30.195  1.00  0.00     0.003 A 
HETATM   27  C   UNL     1      -1.456   6.569 -29.773  1.00  0.00     0.012 A 
HETATM   28  C   UNL     1      -2.132   6.854 -34.202  1.00  0.00     0.352 A 
ENDBRANCH  19  20
ENDBRANCH  16  19
ENDBRANCH  13  16
ENDBRANCH   9  10
ENDBRANCH   1   9
TORSDOF 5
ENDMDL
MODEL 3
REMARK VINA RESULT:      -8.5      6.121      9.324
REMARK  5 active torsions:
REMARK  status: ('A' for Active; 'I' for Inactive)
REMARK    1  A    between atoms: C_8  and  C_9 
REMARK    2  A    between atoms: C_9  and  N_10 
REMARK    3  A    between atoms: N_10  and  C_13 
REMARK    4  A    between atoms: C_16  and  O_17 
REMARK    5  A    between atoms: O_17  and  C_18 
ROOT
HETATM    1  C   UNL     1     -12.426   1.359 -33.594  1.00  0.00     0.164 A 
HETATM    2  N   UNL     1     -13.396   0.455 -33.844  1.00  0.00    -0.236 NA
HETATM    3  C   UNL     1     -14.652   0.780 -33.448  1.00  0.00     0.142 A 
HETATM    4  C   UNL     1     -14.979   1.965 -32.806  1.00  0.00     0.062 A 
HETATM    5  C   UNL     1     -16.326   2.233 -32.420  1.00  0.00     0.101 C 
HETATM    6  N   UNL     1     -17.422   2.445 -32.104  1.00  0.00    -0.191 NA
HETATM    7  C   UNL     1     -13.951   2.873 -32.551  1.00  0.00     0.028 A 
HETATM    8  C   UNL     1     -12.650   2.562 -32.944  1.00  0.00     0.059 A 
ENDROOT
BRANCH   1   9
HETATM    9  O   UNL     1     -11.121   1.070 -33.946  1.00  0.00    -0.329 OA
BRANCH   9  10
HETATM   10  C   UNL     1     -10.164   2.000 -33.416  1.00  0.00     0.130 C 
HETATM   11  C   UNL     1      -9.700   1.444 -32.060  1.00  0.00     0.034 C 
HETATM   12  C   UNL     1      -8.886   0.154 -32.197  1.00  0.00     0.035 C 
HETATM   13  C   UNL     1      -7.702   0.348 -33.147  1.00  0.00     0.186 C 
HETATM   14  C   UNL     1      -8.173   0.842 -34.513  1.00  0.00     0.035 C 
HETATM   15  C   UNL     1      -8.969   2.142 -34.371  1.00  0.00     0.034 C 
BRANCH  13  16
HETATM   16  N   UNL     1      -6.976  -0.954 -33.270  1.00  0.00    -0.067 N 
HETATM   17  H   UNL     1      -7.464  -1.597 -33.906  1.00  0.00     0.277 HD
HETATM   18  H   UNL     1      -6.986  -1.415 -32.347  1.00  0.00     0.277 HD
BRANCH  16  19
HETATM   19  C   UNL     1      -5.536  -0.870 -33.671  1.00  0.00     0.274 C 
BRANCH  19  20
HETATM   20  C   UNL     1      -4.843  -2.193 -33.581  1.00  0.00     0.004 A 
HETATM   21  C   UNL     1      -5.288  -3.284 -34.313  1.00  0.00     0.113 A 
HETATM   22  C   UNL     1      -4.705  -4.525 -34.214  1.00  0.00     0.105 A 
HETATM   23  O   UNL     1      -6.316  -3.266 -35.209  1.00  0.00    -0.322 OA
HETATM   24  C   UNL     1      -3.632  -4.754 -33.382  1.00  0.00     0.040 A 
HETATM   25  O   UNL     1      -5.302  -5.445 -35.012  1.00  0.00    -0.323 OA
HETATM   26  C   UNL     1      -3.152  -3.680 -32.630  1.00  0.00     0.003 A 
HETATM   27  C   UNL     1      -3.752  -2.409 -32.724  1.00  0.00     0.012 A 
HETATM   28  C   UNL     1      -6.371  -4.670 -35.584  1.00  0.00     0.352 A 
ENDBRANCH  19  20
ENDBRANCH  16  19
ENDBRANCH  13  16
ENDBRANCH   9  10
ENDBRANCH   1   9
TORSDOF 5
ENDMDL
MODEL 4
REMARK VINA RESULT:      -8.4      4.557      8.064
REMARK  5 active torsions:
REMARK  status: ('A' for Active; 'I' for Inactive)
REMARK    1  A    between atoms: C_8  and  C_9 
REMARK    2  A    between atoms: C_9  and  N_10 
REMARK    3  A    between atoms: N_10  and  C_13 
REMARK    4  A    between atoms: C_16  and  O_17 
REMARK    5  A    between atoms: O_17  and  C_18 
ROOT
HETATM    1  C   UNL     1      -9.478   1.278 -33.632  1.00  0.00     0.164 A 
HETATM    2  N   UNL     1     -10.122   2.283 -34.261  1.00  0.00    -0.236 NA
HETATM    3  C   UNL     1     -11.470   2.170 -34.373  1.00  0.00     0.142 A 
HETATM    4  C   UNL     1     -12.198   1.092 -33.891  1.00  0.00     0.062 A 
HETATM    5  C   UNL     1     -13.616   1.047 -34.049  1.00  0.00     0.101 C 
HETATM    6  N   UNL     1     -14.768   1.012 -34.183  1.00  0.00    -0.191 NA
HETATM    7  C   UNL     1     -11.500   0.065 -33.258  1.00  0.00     0.028 A 
HETATM    8  C   UNL     1     -10.114   0.154 -33.133  1.00  0.00     0.059 A 
ENDROOT
BRANCH   1   9
HETATM    9  O   UNL     1      -8.101   1.323 -33.516  1.00  0.00    -0.329 OA
BRANCH   9  10
HETATM   10  C   UNL     1      -7.645   1.995 -32.332  1.00  0.00     0.130 C 
HETATM   11  C   UNL     1      -7.621   0.950 -31.204  1.00  0.00     0.034 C 
HETATM   12  C   UNL     1      -6.556  -0.129 -31.418  1.00  0.00     0.035 C 
HETATM   13  C   UNL     1      -5.174   0.496 -31.621  1.00  0.00     0.186 C 
HETATM   14  C   UNL     1      -5.185   1.487 -32.781  1.00  0.00     0.035 C 
HETATM   15  C   UNL     1      -6.239   2.574 -32.552  1.00  0.00     0.034 C 
BRANCH  13  16
HETATM   16  N   UNL     1      -4.189  -0.604 -31.865  1.00  0.00    -0.067 N 
HETATM   17  H   UNL     1      -4.470  -1.470 -31.388  1.00  0.00     0.277 HD
HETATM   18  H   UNL     1      -3.291  -0.331 -31.439  1.00  0.00     0.277 HD
BRANCH  16  19
HETATM   19  C   UNL     1      -3.888  -0.912 -33.298  1.00  0.00     0.274 C 
BRANCH  19  20
HETATM   20  C   UNL     1      -4.829  -1.925 -33.872  1.00  0.00     0.004 A 
HETATM   21  C   UNL     1      -4.507  -3.273 -33.884  1.00  0.00     0.113 A 
HETATM   22  C   UNL     1      -5.325  -4.222 -34.450  1.00  0.00     0.105 A 
HETATM   23  O   UNL     1      -3.382  -3.820 -33.340  1.00  0.00    -0.322 OA
HETATM   24  C   UNL     1      -6.525  -3.884 -35.034  1.00  0.00     0.040 A 
HETATM   25  O   UNL     1      -4.813  -5.474 -34.354  1.00  0.00    -0.323 OA
HETATM   26  C   UNL     1      -6.888  -2.535 -35.039  1.00  0.00     0.003 A 
HETATM   27  C   UNL     1      -6.048  -1.561 -34.467  1.00  0.00     0.012 A 
HETATM   28  C   UNL     1      -3.547  -5.213 -33.721  1.00  0.00     0.352 A 
ENDBRANCH  19  20
ENDBRANCH  16  19
ENDBRANCH  13  16
ENDBRANCH   9  10
ENDBRANCH   1   9
TORSDOF 5
ENDMDL
MODEL 5
REMARK VINA RESULT:      -8.4      5.510      8.806
REMARK  5 active torsions:
REMARK  status: ('A' for Active; 'I' for Inactive)
REMARK    1  A    between atoms: C_8  and  C_9 
REMARK    2  A    between atoms: C_9  and  N_10 
REMARK    3  A    between atoms: N_10  and  C_13 
REMARK    4  A    between atoms: C_16  and  O_17 
REMARK    5  A    between atoms: O_17  and  C_18 
ROOT
HETATM    1  C   UNL     1     -11.906   1.500 -33.456  1.00  0.00     0.164 A 
HETATM    2  N   UNL     1     -12.325   2.677 -32.946  1.00  0.00    -0.236 NA
HETATM    3  C   UNL     1     -13.659   2.812 -32.737  1.00  0.00     0.142 A 
HETATM    4  C   UNL     1     -14.591   1.827 -33.025  1.00  0.00     0.062 A 
HETATM    5  C   UNL     1     -15.980   2.047 -32.778  1.00  0.00     0.101 C 
HETATM    6  N   UNL     1     -17.108   2.231 -32.579  1.00  0.00    -0.191 NA
HETATM    7  C   UNL     1     -14.127   0.628 -33.564  1.00  0.00     0.028 A 
HETATM    8  C   UNL     1     -12.761   0.463 -33.793  1.00  0.00     0.059 A 
ENDROOT
BRANCH   1   9
HETATM    9  O   UNL     1     -10.562   1.315 -33.720  1.00  0.00    -0.329 OA
BRANCH   9  10
HETATM   10  C   UNL     1      -9.718   2.316 -33.131  1.00  0.00     0.130 C 
HETATM   11  C   UNL     1      -9.240   1.761 -31.779  1.00  0.00     0.034 C 
HETATM   12  C   UNL     1      -8.299   0.562 -31.929  1.00  0.00     0.035 C 
HETATM   13  C   UNL     1      -7.114   0.905 -32.834  1.00  0.00     0.186 C 
HETATM   14  C   UNL     1      -7.590   1.397 -34.198  1.00  0.00     0.035 C 
HETATM   15  C   UNL     1      -8.515   2.607 -34.041  1.00  0.00     0.034 C 
BRANCH  13  16
HETATM   16  N   UNL     1      -6.258  -0.315 -32.974  1.00  0.00    -0.067 N 
HETATM   17  H   UNL     1      -6.538  -1.047 -32.309  1.00  0.00     0.277 HD
HETATM   18  H   UNL     1      -5.292  -0.061 -32.717  1.00  0.00     0.277 HD
BRANCH  16  19
HETATM   19  C   UNL     1      -6.176  -0.909 -34.345  1.00  0.00     0.274 C 
BRANCH  19  20
HETATM   20  C   UNL     1      -5.726  -2.336 -34.321  1.00  0.00     0.004 A 
HETATM   21  C   UNL     1      -4.683  -2.742 -33.504  1.00  0.00     0.113 A 
HETATM   22  C   UNL     1      -4.212  -4.034 -33.496  1.00  0.00     0.105 A 
HETATM   23  O   UNL     1      -4.019  -1.946 -32.617  1.00  0.00    -0.322 OA
HETATM   24  C   UNL     1      -4.761  -5.007 -34.301  1.00  0.00     0.040 A 
HETATM   25  O   UNL     1      -3.185  -4.208 -32.627  1.00  0.00    -0.323 OA
HETATM   26  C   UNL     1      -5.817  -4.638 -35.137  1.00  0.00     0.003 A 
HETATM   27  C   UNL     1      -6.296  -3.314 -35.152  1.00  0.00     0.012 A 
HETATM   28  C   UNL     1      -3.011  -2.870 -32.126  1.00  0.00     0.352 A 
ENDBRANCH  19  20
ENDBRANCH  16  19
ENDBRANCH  13  16
ENDBRANCH   9  10
ENDBRANCH   1   9
TORSDOF 5
ENDMDL
MODEL 6
REMARK VINA RESULT:      -8.2      2.496      8.350
REMARK  5 active torsions:
REMARK  status: ('A' for Active; 'I' for Inactive)
REMARK    1  A    between atoms: C_8  and  C_9 
REMARK    2  A    between atoms: C_9  and  N_10 
REMARK    3  A    between atoms: N_10  and  C_13 
REMARK    4  A    between atoms: C_16  and  O_17 
REMARK    5  A    between atoms: O_17  and  C_18 
ROOT
HETATM    1  C   UNL     1      -4.432   3.830 -32.663  1.00  0.00     0.164 A 
HETATM    2  N   UNL     1      -3.093   3.757 -32.803  1.00  0.00    -0.236 NA
HETATM    3  C   UNL     1      -2.416   4.933 -32.841  1.00  0.00     0.142 A 
HETATM    4  C   UNL     1      -3.022   6.177 -32.754  1.00  0.00     0.062 A 
HETATM    5  C   UNL     1      -2.240   7.370 -32.802  1.00  0.00     0.101 C 
HETATM    6  N   UNL     1      -1.601   8.337 -32.846  1.00  0.00    -0.191 NA
HETATM    7  C   UNL     1      -4.410   6.218 -32.622  1.00  0.00     0.028 A 
HETATM    8  C   UNL     1      -5.130   5.024 -32.585  1.00  0.00     0.059 A 
ENDROOT
BRANCH   1   9
HETATM    9  O   UNL     1      -5.178   2.666 -32.650  1.00  0.00    -0.329 OA
BRANCH   9  10
HETATM   10  C   UNL     1      -6.588   2.886 -32.815  1.00  0.00     0.130 C 
HETATM   11  C   UNL     1      -6.936   2.500 -34.262  1.00  0.00     0.034 C 
HETATM   12  C   UNL     1      -6.789   0.999 -34.527  1.00  0.00     0.035 C 
HETATM   13  C   UNL     1      -7.608   0.181 -33.526  1.00  0.00     0.186 C 
HETATM   14  C   UNL     1      -7.216   0.521 -32.090  1.00  0.00     0.035 C 
HETATM   15  C   UNL     1      -7.384   2.020 -31.827  1.00  0.00     0.034 C 
BRANCH  13  16
HETATM   16  N   UNL     1      -7.388  -1.271 -33.811  1.00  0.00    -0.067 N 
HETATM   17  H   UNL     1      -8.254  -1.725 -34.128  1.00  0.00     0.277 HD
HETATM   18  H   UNL     1      -7.138  -1.738 -32.926  1.00  0.00     0.277 HD
BRANCH  16  19
HETATM   19  C   UNL     1      -6.288  -1.596 -34.772  1.00  0.00     0.274 C 
BRANCH  19  20
HETATM   20  C   UNL     1      -5.375  -2.662 -34.254  1.00  0.00     0.004 A 
HETATM   21  C   UNL     1      -4.427  -2.380 -33.283  1.00  0.00     0.113 A 
HETATM   22  C   UNL     1      -3.540  -3.324 -32.823  1.00  0.00     0.105 A 
HETATM   23  O   UNL     1      -4.265  -1.175 -32.664  1.00  0.00    -0.322 OA
HETATM   24  C   UNL     1      -3.549  -4.616 -33.299  1.00  0.00     0.040 A 
HETATM   25  O   UNL     1      -2.699  -2.831 -31.880  1.00  0.00    -0.323 OA
HETATM   26  C   UNL     1      -4.493  -4.941 -34.276  1.00  0.00     0.003 A 
HETATM   27  C   UNL     1      -5.397  -3.974 -34.754  1.00  0.00     0.012 A 
HETATM   28  C   UNL     1      -3.105  -1.451 -31.834  1.00  0.00     0.352 A 
ENDBRANCH  19  20
ENDBRANCH  16  19
ENDBRANCH  13  16
ENDBRANCH   9  10
ENDBRANCH   1   9
TORSDOF 5
ENDMDL
MODEL 7
REMARK VINA RESULT:      -8.2      4.833      7.914
REMARK  5 active torsions:
REMARK  status: ('A' for Active; 'I' for Inactive)
REMARK    1  A    between atoms: C_8  and  C_9 
REMARK    2  A    between atoms: C_9  and  N_10 
REMARK    3  A    between atoms: N_10  and  C_13 
REMARK    4  A    between atoms: C_16  and  O_17 
REMARK    5  A    between atoms: O_17  and  C_18 
ROOT
HETATM    1  C   UNL     1      -6.065  -0.420 -33.828  1.00  0.00     0.164 A 
HETATM    2  N   UNL     1      -4.859  -0.940 -33.520  1.00  0.00    -0.236 NA
HETATM    3  C   UNL     1      -4.665  -2.250 -33.814  1.00  0.00     0.142 A 
HETATM    4  C   UNL     1      -5.627  -3.064 -34.393  1.00  0.00     0.062 A 
HETATM    5  C   UNL     1      -5.345  -4.435 -34.671  1.00  0.00     0.101 C 
HETATM    6  N   UNL     1      -5.114  -5.551 -34.892  1.00  0.00    -0.191 NA
HETATM    7  C   UNL     1      -6.868  -2.499 -34.687  1.00  0.00     0.028 A 
HETATM    8  C   UNL     1      -7.095  -1.155 -34.392  1.00  0.00     0.059 A 
ENDROOT
BRANCH   1   9
HETATM    9  O   UNL     1      -6.333   0.902 -33.523  1.00  0.00    -0.329 OA
BRANCH   9  10
HETATM   10  C   UNL     1      -6.217   1.203 -32.123  1.00  0.00     0.130 C 
HETATM   11  C   UNL     1      -6.450   2.715 -31.969  1.00  0.00     0.034 C 
HETATM   12  C   UNL     1      -7.888   3.129 -32.292  1.00  0.00     0.035 C 
HETATM   13  C   UNL     1      -8.891   2.328 -31.458  1.00  0.00     0.186 C 
HETATM   14  C   UNL     1      -8.698   0.828 -31.661  1.00  0.00     0.035 C 
HETATM   15  C   UNL     1      -7.264   0.418 -31.318  1.00  0.00     0.034 C 
BRANCH  13  16
HETATM   16  N   UNL     1     -10.273   2.749 -31.850  1.00  0.00    -0.067 N 
HETATM   17  H   UNL     1     -10.444   3.736 -31.619  1.00  0.00     0.277 HD
HETATM   18  H   UNL     1     -10.945   2.210 -31.282  1.00  0.00     0.277 HD
BRANCH  16  19
HETATM   19  C   UNL     1     -10.656   2.509 -33.276  1.00  0.00     0.274 C 
BRANCH  19  20
HETATM   20  C   UNL     1     -12.047   1.974 -33.410  1.00  0.00     0.004 A 
HETATM   21  C   UNL     1     -13.128   2.655 -32.873  1.00  0.00     0.113 A 
HETATM   22  C   UNL     1     -14.412   2.166 -32.933  1.00  0.00     0.105 A 
HETATM   23  O   UNL     1     -13.067   3.867 -32.249  1.00  0.00    -0.322 OA
HETATM   24  C   UNL     1     -14.698   0.966 -33.544  1.00  0.00     0.040 A 
HETATM   25  O   UNL     1     -15.311   2.990 -32.340  1.00  0.00    -0.323 OA
HETATM   26  C   UNL     1     -13.636   0.251 -34.102  1.00  0.00     0.003 A 
HETATM   27  C   UNL     1     -12.320   0.746 -34.034  1.00  0.00     0.012 A 
HETATM   28  C   UNL     1     -14.452   4.029 -31.838  1.00  0.00     0.352 A 
ENDBRANCH  19  20
ENDBRANCH  16  19
ENDBRANCH  13  16
ENDBRANCH   9  10
ENDBRANCH   1   9
TORSDOF 5
ENDMDL
MODEL 8
REMARK VINA RESULT:      -8.1      1.734      2.246
REMARK  5 active torsions:
REMARK  status: ('A' for Active; 'I' for Inactive)
REMARK    1  A    between atoms: C_8  and  C_9 
REMARK    2  A    between atoms: C_9  and  N_10 
REMARK    3  A    between atoms: N_10  and  C_13 
REMARK    4  A    between atoms: C_16  and  O_17 
REMARK    5  A    between atoms: O_17  and  C_18 
ROOT
HETATM    1  C   UNL     1      -5.172  -0.214 -33.484  1.00  0.00     0.164 A 
HETATM    2  N   UNL     1      -4.246  -1.189 -33.381  1.00  0.00    -0.236 NA
HETATM    3  C   UNL     1      -4.576  -2.403 -33.890  1.00  0.00     0.142 A 
HETATM    4  C   UNL     1      -5.794  -2.684 -34.490  1.00  0.00     0.062 A 
HETATM    5  C   UNL     1      -6.066  -3.989 -35.001  1.00  0.00     0.101 C 
HETATM    6  N   UNL     1      -6.285  -5.052 -35.412  1.00  0.00    -0.191 NA
HETATM    7  C   UNL     1      -6.735  -1.658 -34.569  1.00  0.00     0.028 A 
HETATM    8  C   UNL     1      -6.423  -0.402 -34.050  1.00  0.00     0.059 A 
ENDROOT
BRANCH   1   9
HETATM    9  O   UNL     1      -4.905   1.035 -32.955  1.00  0.00    -0.329 OA
BRANCH   9  10
HETATM   10  C   UNL     1      -6.081   1.828 -32.732  1.00  0.00     0.130 C 
HETATM   11  C   UNL     1      -6.251   1.961 -31.210  1.00  0.00     0.034 C 
HETATM   12  C   UNL     1      -5.144   2.798 -30.561  1.00  0.00     0.035 C 
HETATM   13  C   UNL     1      -5.033   4.172 -31.226  1.00  0.00     0.186 C 
HETATM   14  C   UNL     1      -4.802   4.036 -32.729  1.00  0.00     0.035 C 
HETATM   15  C   UNL     1      -5.922   3.215 -33.374  1.00  0.00     0.034 C 
BRANCH  13  16
HETATM   16  N   UNL     1      -3.911   4.921 -30.578  1.00  0.00    -0.067 N 
HETATM   17  H   UNL     1      -3.218   4.279 -30.172  1.00  0.00     0.277 HD
HETATM   18  H   UNL     1      -4.298   5.451 -29.782  1.00  0.00     0.277 HD
BRANCH  16  19
HETATM   19  C   UNL     1      -3.205   5.923 -31.436  1.00  0.00     0.274 C 
BRANCH  19  20
HETATM   20  C   UNL     1      -1.907   6.369 -30.839  1.00  0.00     0.004 A 
HETATM   21  C   UNL     1      -1.855   6.897 -29.557  1.00  0.00     0.113 A 
HETATM   22  C   UNL     1      -0.688   7.363 -29.000  1.00  0.00     0.105 A 
HETATM   23  O   UNL     1      -2.914   7.004 -28.704  1.00  0.00    -0.322 OA
HETATM   24  C   UNL     1       0.505   7.325 -29.685  1.00  0.00     0.040 A 
HETATM   25  O   UNL     1      -0.868   7.840 -27.742  1.00  0.00    -0.323 OA
HETATM   26  C   UNL     1       0.495   6.797 -30.978  1.00  0.00     0.003 A 
HETATM   27  C   UNL     1      -0.700   6.325 -31.554  1.00  0.00     0.012 A 
HETATM   28  C   UNL     1      -2.290   7.685 -27.582  1.00  0.00     0.352 A 
ENDBRANCH  19  20
ENDBRANCH  16  19
ENDBRANCH  13  16
ENDBRANCH   9  10
ENDBRANCH   1   9
TORSDOF 5
ENDMDL
MODEL 9
REMARK VINA RESULT:      -8.1      4.149      8.694
REMARK  5 active torsions:
REMARK  status: ('A' for Active; 'I' for Inactive)
REMARK    1  A    between atoms: C_8  and  C_9 
REMARK    2  A    between atoms: C_9  and  N_10 
REMARK    3  A    between atoms: N_10  and  C_13 
REMARK    4  A    between atoms: C_16  and  O_17 
REMARK    5  A    between atoms: O_17  and  C_18 
ROOT
HETATM    1  C   UNL     1      -4.516   3.310 -33.158  1.00  0.00     0.164 A 
HETATM    2  N   UNL     1      -3.238   3.310 -32.728  1.00  0.00    -0.236 NA
HETATM    3  C   UNL     1      -2.527   4.449 -32.923  1.00  0.00     0.142 A 
HETATM    4  C   UNL     1      -3.037   5.583 -33.538  1.00  0.00     0.062 A 
HETATM    5  C   UNL     1      -2.224   6.744 -33.707  1.00  0.00     0.101 C 
HETATM    6  N   UNL     1      -1.558   7.684 -33.847  1.00  0.00    -0.191 NA
HETATM    7  C   UNL     1      -4.358   5.546 -33.983  1.00  0.00     0.028 A 
HETATM    8  C   UNL     1      -5.110   4.386 -33.798  1.00  0.00     0.059 A 
ENDROOT
BRANCH   1   9
HETATM    9  O   UNL     1      -5.281   2.166 -33.016  1.00  0.00    -0.329 OA
BRANCH   9  10
HETATM   10  C   UNL     1      -5.133   1.533 -31.735  1.00  0.00     0.130 C 
HETATM   11  C   UNL     1      -5.980   2.339 -30.736  1.00  0.00     0.034 C 
HETATM   12  C   UNL     1      -7.483   2.224 -31.005  1.00  0.00     0.035 C 
HETATM   13  C   UNL     1      -7.924   0.759 -31.047  1.00  0.00     0.186 C 
HETATM   14  C   UNL     1      -7.124  -0.025 -32.084  1.00  0.00     0.035 C 
HETATM   15  C   UNL     1      -5.624   0.078 -31.798  1.00  0.00     0.034 C 
BRANCH  13  16
HETATM   16  N   UNL     1      -9.388   0.715 -31.354  1.00  0.00    -0.067 N 
HETATM   17  H   UNL     1      -9.825   1.636 -31.227  1.00  0.00     0.277 HD
HETATM   18  H   UNL     1      -9.841   0.095 -30.665  1.00  0.00     0.277 HD
BRANCH  16  19
HETATM   19  C   UNL     1      -9.763   0.179 -32.700  1.00  0.00     0.274 C 
BRANCH  19  20
HETATM   20  C   UNL     1     -10.477   1.192 -33.537  1.00  0.00     0.004 A 
HETATM   21  C   UNL     1     -11.811   1.026 -33.876  1.00  0.00     0.113 A 
HETATM   22  C   UNL     1     -12.482   1.912 -34.685  1.00  0.00     0.105 A 
HETATM   23  O   UNL     1     -12.612   0.006 -33.452  1.00  0.00    -0.322 OA
HETATM   24  C   UNL     1     -11.863   3.028 -35.203  1.00  0.00     0.040 A 
HETATM   25  O   UNL     1     -13.774   1.553 -34.890  1.00  0.00    -0.323 OA
HETATM   26  C   UNL     1     -10.520   3.233 -34.881  1.00  0.00     0.003 A 
HETATM   27  C   UNL     1      -9.829   2.323 -34.059  1.00  0.00     0.012 A 
HETATM   28  C   UNL     1     -13.837   0.306 -34.174  1.00  0.00     0.352 A 
ENDBRANCH  19  20
ENDBRANCH  16  19
ENDBRANCH  13  16
ENDBRANCH   9  10
ENDBRANCH   1   9
TORSDOF 5
ENDMDL
MODEL 10
REMARK VINA RESULT:      -7.9      1.906      2.863
REMARK  5 active torsions:
REMARK  status: ('A' for Active; 'I' for Inactive)
REMARK    1  A    between atoms: C_8  and  C_9 
REMARK    2  A    between atoms: C_9  and  N_10 
REMARK    3  A    between atoms: N_10  and  C_13 
REMARK    4  A    between atoms: C_16  and  O_17 
REMARK    5  A    between atoms: O_17  and  C_18 
ROOT
HETATM    1  C   UNL     1      -5.342  -0.003 -33.595  1.00  0.00     0.164 A 
HETATM    2  N   UNL     1      -4.392  -0.953 -33.481  1.00  0.00    -0.236 NA
HETATM    3  C   UNL     1      -4.703  -2.188 -33.949  1.00  0.00     0.142 A 
HETATM    4  C   UNL     1      -5.925  -2.515 -34.517  1.00  0.00     0.062 A 
HETATM    5  C   UNL     1      -6.176  -3.840 -34.986  1.00  0.00     0.101 C 
HETATM    6  N   UNL     1      -6.377  -4.919 -35.362  1.00  0.00    -0.191 NA
HETATM    7  C   UNL     1      -6.890  -1.513 -34.609  1.00  0.00     0.028 A 
HETATM    8  C   UNL     1      -6.598  -0.235 -34.132  1.00  0.00     0.059 A 
ENDROOT
BRANCH   1   9
HETATM    9  O   UNL     1      -5.095   1.267 -33.107  1.00  0.00    -0.329 OA
BRANCH   9  10
HETATM   10  C   UNL     1      -4.831   1.298 -31.696  1.00  0.00     0.130 C 
HETATM   11  C   UNL     1      -3.376   1.763 -31.522  1.00  0.00     0.034 C 
HETATM   12  C   UNL     1      -3.164   3.220 -31.944  1.00  0.00     0.035 C 
HETATM   13  C   UNL     1      -4.132   4.151 -31.209  1.00  0.00     0.186 C 
HETATM   14  C   UNL     1      -5.580   3.724 -31.435  1.00  0.00     0.035 C 
HETATM   15  C   UNL     1      -5.789   2.273 -30.993  1.00  0.00     0.034 C 
BRANCH  13  16
HETATM   16  N   UNL     1      -3.904   5.548 -31.695  1.00  0.00    -0.067 N 
HETATM   17  H   UNL     1      -4.253   6.240 -31.020  1.00  0.00     0.277 HD
HETATM   18  H   UNL     1      -4.465   5.686 -32.549  1.00  0.00     0.277 HD
BRANCH  16  19
HETATM   19  C   UNL     1      -2.497   5.895 -32.066  1.00  0.00     0.274 C 
BRANCH  19  20
HETATM   20  C   UNL     1      -1.768   6.584 -30.955  1.00  0.00     0.004 A 
HETATM   21  C   UNL     1      -0.718   5.962 -30.297  1.00  0.00     0.113 A 
HETATM   22  C   UNL     1      -0.063   6.547 -29.239  1.00  0.00     0.105 A 
HETATM   23  O   UNL     1      -0.203   4.739 -30.611  1.00  0.00    -0.322 OA
HETATM   24  C   UNL     1      -0.410   7.796 -28.776  1.00  0.00     0.040 A 
HETATM   25  O   UNL     1       0.926   5.761 -28.743  1.00  0.00    -0.323 OA
HETATM   26  C   UNL     1      -1.461   8.457 -29.416  1.00  0.00     0.003 A 
HETATM   27  C   UNL     1      -2.139   7.857 -30.494  1.00  0.00     0.012 A 
HETATM   28  C   UNL     1       0.788   4.585 -29.559  1.00  0.00     0.352 A 
ENDBRANCH  19  20
ENDBRANCH  16  19
ENDBRANCH  13  16
ENDBRANCH   9  10
ENDBRANCH   1   9
TORSDOF 5
ENDMDL
