MODEL 1
REMARK VINA RESULT:      -8.4      0.000      0.000
REMARK  8 active torsions:
REMARK  status: ('A' for Active; 'I' for Inactive)
REMARK    1  A    between atoms: C_10  and  C_11 
REMARK    2  A    between atoms: C_11  and  C_12 
REMARK       I    between atoms: C_12  and  N_13 
REMARK    3  A    between atoms: N_13  and  N_14 
REMARK       I    between atoms: N_14  and  C_15 
REMARK    4  A    between atoms: C_15  and  C_16 
REMARK    5  A    between atoms: C_16  and  C_17 
REMARK    6  A    between atoms: C_17  and  C_18 
REMARK       I    between atoms: C_18  and  N_19 
REMARK    7  A    between atoms: N_19  and  C_20 
REMARK    8  A    between atoms: C_20  and  C_21 
ROOT
HETATM    1  C   UNL     1      -3.488   2.647 -31.643  1.00  0.00     0.240 C 
HETATM    2  N   UNL     1      -3.520   3.681 -30.726  1.00  0.00    -0.267 N 
HETATM    3  O   UNL     1      -3.056   2.800 -32.785  1.00  0.00    -0.272 OA
HETATM    4  H   UNL     1      -3.712   3.545 -29.734  1.00  0.00     0.190 HD
ENDROOT
BRANCH   2   5
HETATM    5  N   UNL     1      -3.003   4.919 -31.115  1.00  0.00    -0.268 N 
HETATM    6  C   UNL     1      -1.651   5.142 -30.977  1.00  0.00     0.236 C 
HETATM    7  O   UNL     1      -0.849   4.255 -30.690  1.00  0.00    -0.272 OA
HETATM    8  H   UNL     1      -3.685   5.665 -31.260  1.00  0.00     0.190 HD
BRANCH   6   9
HETATM    9  C   UNL     1      -1.257   6.581 -31.235  1.00  0.00     0.114 C 
BRANCH   9  10
HETATM   10  C   UNL     1      -0.517   6.749 -32.554  1.00  0.00     0.112 C 
BRANCH  10  11
HETATM   11  C   UNL     1      -1.491   6.812 -33.707  1.00  0.00     0.218 C 
HETATM   12  N   UNL     1      -2.005   5.598 -34.083  1.00  0.00    -0.355 N 
HETATM   13  H   UNL     1      -1.898   4.810 -33.443  1.00  0.00     0.162 HD
HETATM   14  O   UNL     1      -1.807   7.876 -34.232  1.00  0.00    -0.274 OA
BRANCH  12  15
HETATM   15  C   UNL     1      -3.055   5.517 -35.070  1.00  0.00     0.187 C 
BRANCH  15  16
HETATM   16  C   UNL     1      -4.348   5.332 -34.375  1.00  0.00     0.070 A 
HETATM   17  O   UNL     1      -4.657   6.236 -33.401  1.00  0.00    -0.325 OA
HETATM   18  C   UNL     1      -5.867   5.879 -32.899  1.00  0.00     0.142 A 
HETATM   19  C   UNL     1      -6.340   4.756 -33.534  1.00  0.00     0.027 A 
HETATM   20  C   UNL     1      -5.359   4.399 -34.489  1.00  0.00     0.036 A 
ENDBRANCH  15  16
ENDBRANCH  12  15
ENDBRANCH  10  11
ENDBRANCH   9  10
ENDBRANCH   6   9
ENDBRANCH   2   5
BRANCH   1  21
HETATM   21  C   UNL     1      -4.075   1.351 -31.137  1.00  0.00     0.146 C 
BRANCH  21  22
HETATM   22  C   UNL     1      -4.502   0.355 -32.175  1.00  0.00    -0.015 A 
HETATM   23  C   UNL     1      -5.659   0.336 -33.034  1.00  0.00    -0.000 A 
HETATM   24  C   UNL     1      -6.791   1.165 -33.218  1.00  0.00     0.021 A 
HETATM   25  C   UNL     1      -5.556  -0.795 -33.844  1.00  0.00     0.043 A 
HETATM   26  C   UNL     1      -7.763   0.847 -34.184  1.00  0.00    -0.061 A 
HETATM   27  C   UNL     1      -8.945   1.749 -34.395  1.00  0.00     0.048 C 
HETATM   28  C   UNL     1      -7.602  -0.287 -34.982  1.00  0.00     0.009 A 
HETATM   29  C   UNL     1      -6.502  -1.130 -34.821  1.00  0.00     0.031 A 
HETATM   30  N   UNL     1      -4.405  -1.451 -33.489  1.00  0.00    -0.359 N 
HETATM   31  H   UNL     1      -4.089  -2.311 -33.915  1.00  0.00     0.166 HD
HETATM   32  C   UNL     1      -3.753  -0.774 -32.495  1.00  0.00     0.013 A 
HETATM   33  C   UNL     1      -2.467  -1.272 -31.936  1.00  0.00     0.068 C 
ENDBRANCH  21  22
ENDBRANCH   1  21
TORSDOF 8
ENDMDL
MODEL 2
REMARK VINA RESULT:      -8.4      1.927      4.401
REMARK  8 active torsions:
REMARK  status: ('A' for Active; 'I' for Inactive)
REMARK    1  A    between atoms: C_10  and  C_11 
REMARK    2  A    between atoms: C_11  and  C_12 
REMARK       I    between atoms: C_12  and  N_13 
REMARK    3  A    between atoms: N_13  and  N_14 
REMARK       I    between atoms: N_14  and  C_15 
REMARK    4  A    between atoms: C_15  and  C_16 
REMARK    5  A    between atoms: C_16  and  C_17 
REMARK    6  A    between atoms: C_17  and  C_18 
REMARK       I    between atoms: C_18  and  N_19 
REMARK    7  A    between atoms: N_19  and  C_20 
REMARK    8  A    between atoms: C_20  and  C_21 
ROOT
HETATM    1  C   UNL     1      -3.989   2.472 -31.567  1.00  0.00     0.240 C 
HETATM    2  N   UNL     1      -4.607   3.265 -32.516  1.00  0.00    -0.267 N 
HETATM    3  O   UNL     1      -2.773   2.506 -31.379  1.00  0.00    -0.272 OA
HETATM    4  H   UNL     1      -5.618   3.381 -32.577  1.00  0.00     0.190 HD
ENDROOT
BRANCH   2   5
HETATM    5  N   UNL     1      -3.814   4.154 -33.246  1.00  0.00    -0.268 N 
HETATM    6  C   UNL     1      -4.371   4.798 -34.329  1.00  0.00     0.236 C 
HETATM    7  O   UNL     1      -5.574   4.762 -34.586  1.00  0.00    -0.272 OA
HETATM    8  H   UNL     1      -2.809   4.101 -33.078  1.00  0.00     0.190 HD
BRANCH   6   9
HETATM    9  C   UNL     1      -3.357   5.565 -35.149  1.00  0.00     0.114 C 
BRANCH   9  10
HETATM   10  C   UNL     1      -1.932   5.336 -34.667  1.00  0.00     0.112 C 
BRANCH  10  11
HETATM   11  C   UNL     1      -1.463   6.498 -33.821  1.00  0.00     0.218 C 
HETATM   12  N   UNL     1      -0.880   6.136 -32.634  1.00  0.00    -0.355 N 
HETATM   13  H   UNL     1      -0.592   5.164 -32.513  1.00  0.00     0.162 HD
HETATM   14  O   UNL     1      -1.575   7.661 -34.197  1.00  0.00    -0.274 OA
BRANCH  12  15
HETATM   15  C   UNL     1      -0.255   7.126 -31.790  1.00  0.00     0.187 C 
BRANCH  15  16
HETATM   16  C   UNL     1       0.167   6.477 -30.528  1.00  0.00     0.070 A 
HETATM   17  O   UNL     1       0.600   5.186 -30.616  1.00  0.00    -0.325 OA
HETATM   18  C   UNL     1       0.926   4.792 -29.358  1.00  0.00     0.142 A 
HETATM   19  C   UNL     1       0.706   5.810 -28.461  1.00  0.00     0.027 A 
HETATM   20  C   UNL     1       0.214   6.901 -29.215  1.00  0.00     0.036 A 
ENDBRANCH  15  16
ENDBRANCH  12  15
ENDBRANCH  10  11
ENDBRANCH   9  10
ENDBRANCH   6   9
ENDBRANCH   2   5
BRANCH   1  21
HETATM   21  C   UNL     1      -4.923   1.538 -30.836  1.00  0.00     0.146 C 
BRANCH  21  22
HETATM   22  C   UNL     1      -6.043   0.942 -31.638  1.00  0.00    -0.015 A 
HETATM   23  C   UNL     1      -6.040  -0.147 -32.582  1.00  0.00    -0.000 A 
HETATM   24  C   UNL     1      -5.059  -1.014 -33.118  1.00  0.00     0.021 A 
HETATM   25  C   UNL     1      -7.355  -0.325 -33.014  1.00  0.00     0.043 A 
HETATM   26  C   UNL     1      -5.411  -2.010 -34.047  1.00  0.00    -0.061 A 
HETATM   27  C   UNL     1      -4.369  -2.946 -34.587  1.00  0.00     0.048 C 
HETATM   28  C   UNL     1      -6.745  -2.156 -34.431  1.00  0.00     0.009 A 
HETATM   29  C   UNL     1      -7.737  -1.314 -33.929  1.00  0.00     0.031 A 
HETATM   30  N   UNL     1      -8.126   0.620 -32.385  1.00  0.00    -0.359 N 
HETATM   31  H   UNL     1      -9.121   0.722 -32.523  1.00  0.00     0.166 HD
HETATM   32  C   UNL     1      -7.359   1.386 -31.549  1.00  0.00     0.013 A 
HETATM   33  C   UNL     1      -7.958   2.480 -30.739  1.00  0.00     0.068 C 
ENDBRANCH  21  22
ENDBRANCH   1  21
TORSDOF 8
ENDMDL
MODEL 3
REMARK VINA RESULT:      -8.2      5.223      8.390
REMARK  8 active torsions:
REMARK  status: ('A' for Active; 'I' for Inactive)
REMARK    1  A    between atoms: C_10  and  C_11 
REMARK    2  A    between atoms: C_11  and  C_12 
REMARK       I    between atoms: C_12  and  N_13 
REMARK    3  A    between atoms: N_13  and  N_14 
REMARK       I    between atoms: N_14  and  C_15 
REMARK    4  A    between atoms: C_15  and  C_16 
REMARK    5  A    between atoms: C_16  and  C_17 
REMARK    6  A    between atoms: C_17  and  C_18 
REMARK       I    between atoms: C_18  and  N_19 
REMARK    7  A    between atoms: N_19  and  C_20 
REMARK    8  A    between atoms: C_20  and  C_21 
ROOT
HETATM    1  C   UNL     1      -9.428   0.648 -33.578  1.00  0.00     0.240 C 
HETATM    2  N   UNL     1     -10.627   1.056 -34.131  1.00  0.00    -0.267 N 
HETATM    3  O   UNL     1      -9.379  -0.042 -32.561  1.00  0.00    -0.272 OA
HETATM    4  H   UNL     1     -10.702   1.481 -35.055  1.00  0.00     0.190 HD
ENDROOT
BRANCH   2   5
HETATM    5  N   UNL     1     -11.810   0.628 -33.524  1.00  0.00    -0.268 N 
HETATM    6  C   UNL     1     -13.005   0.872 -34.164  1.00  0.00     0.236 C 
HETATM    7  O   UNL     1     -13.077   1.294 -35.317  1.00  0.00    -0.272 OA
HETATM    8  H   UNL     1     -11.741   0.367 -32.540  1.00  0.00     0.190 HD
BRANCH   6   9
HETATM    9  C   UNL     1     -14.212   0.547 -33.310  1.00  0.00     0.114 C 
BRANCH   9  10
HETATM   10  C   UNL     1     -15.130   1.746 -33.127  1.00  0.00     0.112 C 
BRANCH  10  11
HETATM   11  C   UNL     1     -14.355   2.935 -32.606  1.00  0.00     0.218 C 
HETATM   12  N   UNL     1     -13.946   3.814 -33.575  1.00  0.00    -0.355 N 
HETATM   13  H   UNL     1     -14.374   3.748 -34.499  1.00  0.00     0.162 HD
HETATM   14  O   UNL     1     -14.147   3.098 -31.407  1.00  0.00    -0.274 OA
BRANCH  12  15
HETATM   15  C   UNL     1     -13.324   5.067 -33.216  1.00  0.00     0.187 C 
BRANCH  15  16
HETATM   16  C   UNL     1     -12.079   5.221 -34.000  1.00  0.00     0.070 A 
HETATM   17  O   UNL     1     -11.415   4.075 -34.331  1.00  0.00    -0.325 OA
HETATM   18  C   UNL     1     -10.314   4.445 -35.034  1.00  0.00     0.142 A 
HETATM   19  C   UNL     1     -10.256   5.813 -35.158  1.00  0.00     0.027 A 
HETATM   20  C   UNL     1     -11.396   6.317 -34.489  1.00  0.00     0.036 A 
ENDBRANCH  15  16
ENDBRANCH  12  15
ENDBRANCH  10  11
ENDBRANCH   9  10
ENDBRANCH   6   9
ENDBRANCH   2   5
BRANCH   1  21
HETATM   21  C   UNL     1      -8.205   1.168 -34.296  1.00  0.00     0.146 C 
BRANCH  21  22
HETATM   22  C   UNL     1      -6.889   0.558 -33.911  1.00  0.00    -0.015 A 
HETATM   23  C   UNL     1      -6.380  -0.775 -34.114  1.00  0.00    -0.000 A 
HETATM   24  C   UNL     1      -6.880  -1.967 -34.689  1.00  0.00     0.021 A 
HETATM   25  C   UNL     1      -5.083  -0.807 -33.600  1.00  0.00     0.043 A 
HETATM   26  C   UNL     1      -6.088  -3.129 -34.733  1.00  0.00    -0.061 A 
HETATM   27  C   UNL     1      -6.614  -4.382 -35.373  1.00  0.00     0.048 C 
HETATM   28  C   UNL     1      -4.790  -3.102 -34.221  1.00  0.00     0.009 A 
HETATM   29  C   UNL     1      -4.269  -1.945 -33.640  1.00  0.00     0.031 A 
HETATM   30  N   UNL     1      -4.814   0.436 -33.086  1.00  0.00    -0.359 N 
HETATM   31  H   UNL     1      -3.942   0.689 -32.643  1.00  0.00     0.166 HD
HETATM   32  C   UNL     1      -5.881   1.273 -33.269  1.00  0.00     0.013 A 
HETATM   33  C   UNL     1      -5.841   2.687 -32.809  1.00  0.00     0.068 C 
ENDBRANCH  21  22
ENDBRANCH   1  21
TORSDOF 8
ENDMDL
MODEL 4
REMARK VINA RESULT:      -8.2      2.914      5.399
REMARK  8 active torsions:
REMARK  status: ('A' for Active; 'I' for Inactive)
REMARK    1  A    between atoms: C_10  and  C_11 
REMARK    2  A    between atoms: C_11  and  C_12 
REMARK       I    between atoms: C_12  and  N_13 
REMARK    3  A    between atoms: N_13  and  N_14 
REMARK       I    between atoms: N_14  and  C_15 
REMARK    4  A    between atoms: C_15  and  C_16 
REMARK    5  A    between atoms: C_16  and  C_17 
REMARK    6  A    between atoms: C_17  and  C_18 
REMARK       I    between atoms: C_18  and  N_19 
REMARK    7  A    between atoms: N_19  and  C_20 
REMARK    8  A    between atoms: C_20  and  C_21 
ROOT
HETATM    1  C   UNL     1      -5.275   2.559 -30.199  1.00  0.00     0.240 C 
HETATM    2  N   UNL     1      -4.028   2.650 -30.787  1.00  0.00    -0.267 N 
HETATM    3  O   UNL     1      -5.823   3.529 -29.675  1.00  0.00    -0.272 OA
HETATM    4  H   UNL     1      -3.628   1.915 -31.370  1.00  0.00     0.190 HD
ENDROOT
BRANCH   2   5
HETATM    5  N   UNL     1      -3.404   3.900 -30.814  1.00  0.00    -0.268 N 
HETATM    6  C   UNL     1      -2.670   4.246 -31.927  1.00  0.00     0.236 C 
HETATM    7  O   UNL     1      -2.673   3.589 -32.966  1.00  0.00    -0.272 OA
HETATM    8  H   UNL     1      -3.335   4.387 -29.920  1.00  0.00     0.190 HD
BRANCH   6   9
HETATM    9  C   UNL     1      -1.881   5.526 -31.743  1.00  0.00     0.114 C 
BRANCH   9  10
HETATM   10  C   UNL     1      -0.381   5.276 -31.688  1.00  0.00     0.112 C 
BRANCH  10  11
HETATM   11  C   UNL     1       0.094   5.193 -30.256  1.00  0.00     0.218 C 
HETATM   12  N   UNL     1      -0.534   6.060 -29.399  1.00  0.00    -0.355 N 
HETATM   13  H   UNL     1      -1.400   6.503 -29.709  1.00  0.00     0.162 HD
HETATM   14  O   UNL     1       0.950   4.388 -29.902  1.00  0.00    -0.274 OA
BRANCH  12  15
HETATM   15  C   UNL     1      -0.291   5.994 -27.978  1.00  0.00     0.187 C 
BRANCH  15  16
HETATM   16  C   UNL     1       0.593   7.118 -27.594  1.00  0.00     0.070 A 
HETATM   17  O   UNL     1       1.049   7.129 -26.308  1.00  0.00    -0.325 OA
HETATM   18  C   UNL     1       1.827   8.234 -26.174  1.00  0.00     0.142 A 
HETATM   19  C   UNL     1       1.875   8.937 -27.354  1.00  0.00     0.027 A 
HETATM   20  C   UNL     1       1.077   8.217 -28.274  1.00  0.00     0.036 A 
ENDBRANCH  15  16
ENDBRANCH  12  15
ENDBRANCH  10  11
ENDBRANCH   9  10
ENDBRANCH   6   9
ENDBRANCH   2   5
BRANCH   1  21
HETATM   21  C   UNL     1      -5.866   1.170 -30.209  1.00  0.00     0.146 C 
BRANCH  21  22
HETATM   22  C   UNL     1      -6.637   0.776 -31.435  1.00  0.00    -0.015 A 
HETATM   23  C   UNL     1      -6.331  -0.187 -32.463  1.00  0.00    -0.000 A 
HETATM   24  C   UNL     1      -5.255  -1.065 -32.733  1.00  0.00     0.021 A 
HETATM   25  C   UNL     1      -7.403  -0.195 -33.356  1.00  0.00     0.043 A 
HETATM   26  C   UNL     1      -5.281  -1.906 -33.861  1.00  0.00    -0.061 A 
HETATM   27  C   UNL     1      -4.149  -2.857 -34.123  1.00  0.00     0.048 C 
HETATM   28  C   UNL     1      -6.386  -1.888 -34.712  1.00  0.00     0.009 A 
HETATM   29  C   UNL     1      -7.461  -1.028 -34.480  1.00  0.00     0.031 A 
HETATM   30  N   UNL     1      -8.314   0.730 -32.914  1.00  0.00    -0.359 N 
HETATM   31  H   UNL     1      -9.186   0.935 -33.381  1.00  0.00     0.166 HD
HETATM   32  C   UNL     1      -7.877   1.319 -31.758  1.00  0.00     0.013 A 
HETATM   33  C   UNL     1      -8.690   2.355 -31.066  1.00  0.00     0.068 C 
ENDBRANCH  21  22
ENDBRANCH   1  21
TORSDOF 8
ENDMDL
MODEL 5
REMARK VINA RESULT:      -8.1      2.586      4.777
REMARK  8 active torsions:
REMARK  status: ('A' for Active; 'I' for Inactive)
REMARK    1  A    between atoms: C_10  and  C_11 
REMARK    2  A    between atoms: C_11  and  C_12 
REMARK       I    between atoms: C_12  and  N_13 
REMARK    3  A    between atoms: N_13  and  N_14 
REMARK       I    between atoms: N_14  and  C_15 
REMARK    4  A    between atoms: C_15  and  C_16 
REMARK    5  A    between atoms: C_16  and  C_17 
REMARK    6  A    between atoms: C_17  and  C_18 
REMARK       I    between atoms: C_18  and  N_19 
REMARK    7  A    between atoms: N_19  and  C_20 
REMARK    8  A    between atoms: C_20  and  C_21 
ROOT
HETATM    1  C   UNL     1      -4.862   2.151 -30.468  1.00  0.00     0.240 C 
HETATM    2  N   UNL     1      -3.574   2.374 -30.917  1.00  0.00    -0.267 N 
HETATM    3  O   UNL     1      -5.571   3.061 -30.037  1.00  0.00    -0.272 OA
HETATM    4  H   UNL     1      -3.031   1.680 -31.429  1.00  0.00     0.190 HD
ENDROOT
BRANCH   2   5
HETATM    5  N   UNL     1      -3.095   3.687 -30.912  1.00  0.00    -0.268 N 
HETATM    6  C   UNL     1      -2.532   4.187 -32.065  1.00  0.00     0.236 C 
HETATM    7  O   UNL     1      -2.582   3.603 -33.146  1.00  0.00    -0.272 OA
HETATM    8  H   UNL     1      -2.979   4.119 -29.995  1.00  0.00     0.190 HD
BRANCH   6   9
HETATM    9  C   UNL     1      -1.870   5.534 -31.866  1.00  0.00     0.114 C 
BRANCH   9  10
HETATM   10  C   UNL     1      -0.352   5.433 -31.833  1.00  0.00     0.112 C 
BRANCH  10  11
HETATM   11  C   UNL     1       0.140   5.272 -30.413  1.00  0.00     0.218 C 
HETATM   12  N   UNL     1      -0.469   6.099 -29.505  1.00  0.00    -0.355 N 
HETATM   13  H   UNL     1      -1.334   6.565 -29.780  1.00  0.00     0.162 HD
HETATM   14  O   UNL     1       0.994   4.443 -30.113  1.00  0.00    -0.274 OA
BRANCH  12  15
HETATM   15  C   UNL     1      -0.207   5.959 -28.092  1.00  0.00     0.187 C 
BRANCH  15  16
HETATM   16  C   UNL     1       0.627   7.097 -27.648  1.00  0.00     0.070 A 
HETATM   17  O   UNL     1       1.025   7.094 -26.342  1.00  0.00    -0.325 OA
HETATM   18  C   UNL     1       1.764   8.217 -26.152  1.00  0.00     0.142 A 
HETATM   19  C   UNL     1       1.844   8.945 -27.315  1.00  0.00     0.027 A 
HETATM   20  C   UNL     1       1.109   8.224 -28.284  1.00  0.00     0.036 A 
ENDBRANCH  15  16
ENDBRANCH  12  15
ENDBRANCH  10  11
ENDBRANCH   9  10
ENDBRANCH   6   9
ENDBRANCH   2   5
BRANCH   1  21
HETATM   21  C   UNL     1      -5.288   0.703 -30.501  1.00  0.00     0.146 C 
BRANCH  21  22
HETATM   22  C   UNL     1      -5.393   0.063 -31.855  1.00  0.00    -0.015 A 
HETATM   23  C   UNL     1      -6.421   0.163 -32.859  1.00  0.00    -0.000 A 
HETATM   24  C   UNL     1      -7.666   0.826 -32.965  1.00  0.00     0.021 A 
HETATM   25  C   UNL     1      -6.009  -0.600 -33.952  1.00  0.00     0.043 A 
HETATM   26  C   UNL     1      -8.444   0.713 -34.132  1.00  0.00    -0.061 A 
HETATM   27  C   UNL     1      -9.749   1.445 -34.248  1.00  0.00     0.048 C 
HETATM   28  C   UNL     1      -7.975  -0.049 -35.204  1.00  0.00     0.009 A 
HETATM   29  C   UNL     1      -6.756  -0.723 -35.130  1.00  0.00     0.031 A 
HETATM   30  N   UNL     1      -4.798  -1.159 -33.631  1.00  0.00    -0.359 N 
HETATM   31  H   UNL     1      -4.274  -1.767 -34.243  1.00  0.00     0.166 HD
HETATM   32  C   UNL     1      -4.406  -0.767 -32.379  1.00  0.00     0.013 A 
HETATM   33  C   UNL     1      -3.118  -1.228 -31.794  1.00  0.00     0.068 C 
ENDBRANCH  21  22
ENDBRANCH   1  21
TORSDOF 8
ENDMDL
MODEL 6
REMARK VINA RESULT:      -8.0      2.161      4.008
REMARK  8 active torsions:
REMARK  status: ('A' for Active; 'I' for Inactive)
REMARK    1  A    between atoms: C_10  and  C_11 
REMARK    2  A    between atoms: C_11  and  C_12 
REMARK       I    between atoms: C_12  and  N_13 
REMARK    3  A    between atoms: N_13  and  N_14 
REMARK       I    between atoms: N_14  and  C_15 
REMARK    4  A    between atoms: C_15  and  C_16 
REMARK    5  A    between atoms: C_16  and  C_17 
REMARK    6  A    between atoms: C_17  and  C_18 
REMARK       I    between atoms: C_18  and  N_19 
REMARK    7  A    between atoms: N_19  and  C_20 
REMARK    8  A    between atoms: C_20  and  C_21 
ROOT
HETATM    1  C   UNL     1      -5.618   1.530 -29.993  1.00  0.00     0.240 C 
HETATM    2  N   UNL     1      -6.780   2.079 -29.486  1.00  0.00    -0.267 N 
HETATM    3  O   UNL     1      -4.614   2.209 -30.206  1.00  0.00    -0.272 OA
HETATM    4  H   UNL     1      -7.562   1.521 -29.144  1.00  0.00     0.190 HD
ENDROOT
BRANCH   2   5
HETATM    5  N   UNL     1      -6.782   3.441 -29.174  1.00  0.00    -0.268 N 
HETATM    6  C   UNL     1      -7.234   4.334 -30.121  1.00  0.00     0.236 C 
HETATM    7  O   UNL     1      -7.793   3.986 -31.160  1.00  0.00    -0.272 OA
HETATM    8  H   UNL     1      -6.236   3.715 -28.357  1.00  0.00     0.190 HD
BRANCH   6   9
HETATM    9  C   UNL     1      -6.989   5.778 -29.739  1.00  0.00     0.114 C 
BRANCH   9  10
HETATM   10  C   UNL     1      -5.546   6.031 -29.328  1.00  0.00     0.112 C 
BRANCH  10  11
HETATM   11  C   UNL     1      -4.641   6.039 -30.539  1.00  0.00     0.218 C 
HETATM   12  N   UNL     1      -3.675   5.066 -30.531  1.00  0.00    -0.355 N 
HETATM   13  H   UNL     1      -3.774   4.291 -29.874  1.00  0.00     0.162 HD
HETATM   14  O   UNL     1      -4.794   6.838 -31.458  1.00  0.00    -0.274 OA
BRANCH  12  15
HETATM   15  C   UNL     1      -2.832   4.858 -31.684  1.00  0.00     0.187 C 
BRANCH  15  16
HETATM   16  C   UNL     1      -1.486   5.402 -31.394  1.00  0.00     0.070 A 
HETATM   17  O   UNL     1      -0.596   4.553 -30.802  1.00  0.00    -0.325 OA
HETATM   18  C   UNL     1       0.556   5.251 -30.624  1.00  0.00     0.142 A 
HETATM   19  C   UNL     1       0.419   6.537 -31.089  1.00  0.00     0.027 A 
HETATM   20  C   UNL     1      -0.902   6.637 -31.587  1.00  0.00     0.036 A 
ENDBRANCH  15  16
ENDBRANCH  12  15
ENDBRANCH  10  11
ENDBRANCH   9  10
ENDBRANCH   6   9
ENDBRANCH   2   5
BRANCH   1  21
HETATM   21  C   UNL     1      -5.714   0.057 -30.308  1.00  0.00     0.146 C 
BRANCH  21  22
HETATM   22  C   UNL     1      -5.689  -0.325 -31.759  1.00  0.00    -0.015 A 
HETATM   23  C   UNL     1      -6.661  -0.105 -32.800  1.00  0.00    -0.000 A 
HETATM   24  C   UNL     1      -7.944   0.487 -32.873  1.00  0.00     0.021 A 
HETATM   25  C   UNL     1      -6.128  -0.623 -33.981  1.00  0.00     0.043 A 
HETATM   26  C   UNL     1      -8.640   0.544 -34.094  1.00  0.00    -0.061 A 
HETATM   27  C   UNL     1      -9.988   1.202 -34.169  1.00  0.00     0.048 C 
HETATM   28  C   UNL     1      -8.053   0.027 -35.250  1.00  0.00     0.009 A 
HETATM   29  C   UNL     1      -6.793  -0.571 -35.212  1.00  0.00     0.031 A 
HETATM   30  N   UNL     1      -4.900  -1.154 -33.680  1.00  0.00    -0.359 N 
HETATM   31  H   UNL     1      -4.296  -1.603 -34.354  1.00  0.00     0.166 HD
HETATM   32  C   UNL     1      -4.614  -0.979 -32.353  1.00  0.00     0.013 A 
HETATM   33  C   UNL     1      -3.331  -1.458 -31.770  1.00  0.00     0.068 C 
ENDBRANCH  21  22
ENDBRANCH   1  21
TORSDOF 8
ENDMDL
MODEL 7
REMARK VINA RESULT:      -8.0      2.275      4.515
REMARK  8 active torsions:
REMARK  status: ('A' for Active; 'I' for Inactive)
REMARK    1  A    between atoms: C_10  and  C_11 
REMARK    2  A    between atoms: C_11  and  C_12 
REMARK       I    between atoms: C_12  and  N_13 
REMARK    3  A    between atoms: N_13  and  N_14 
REMARK       I    between atoms: N_14  and  C_15 
REMARK    4  A    between atoms: C_15  and  C_16 
REMARK    5  A    between atoms: C_16  and  C_17 
REMARK    6  A    between atoms: C_17  and  C_18 
REMARK       I    between atoms: C_18  and  N_19 
REMARK    7  A    between atoms: N_19  and  C_20 
REMARK    8  A    between atoms: C_20  and  C_21 
ROOT
HETATM    1  C   UNL     1      -3.749   1.148 -31.032  1.00  0.00     0.240 C 
HETATM    2  N   UNL     1      -4.025   2.500 -31.101  1.00  0.00    -0.267 N 
HETATM    3  O   UNL     1      -2.605   0.708 -31.153  1.00  0.00    -0.272 OA
HETATM    4  H   UNL     1      -4.925   2.902 -30.840  1.00  0.00     0.190 HD
ENDROOT
BRANCH   2   5
HETATM    5  N   UNL     1      -2.955   3.382 -31.272  1.00  0.00    -0.268 N 
HETATM    6  C   UNL     1      -2.830   4.041 -32.475  1.00  0.00     0.236 C 
HETATM    7  O   UNL     1      -3.701   4.026 -33.344  1.00  0.00    -0.272 OA
HETATM    8  H   UNL     1      -2.202   3.312 -30.587  1.00  0.00     0.190 HD
BRANCH   6   9
HETATM    9  C   UNL     1      -1.525   4.798 -32.604  1.00  0.00     0.114 C 
BRANCH   9  10
HETATM   10  C   UNL     1      -1.657   6.029 -33.489  1.00  0.00     0.112 C 
BRANCH  10  11
HETATM   11  C   UNL     1      -1.736   7.283 -32.650  1.00  0.00     0.218 C 
HETATM   12  N   UNL     1      -1.857   7.057 -31.303  1.00  0.00    -0.355 N 
HETATM   13  H   UNL     1      -1.650   6.123 -30.949  1.00  0.00     0.162 HD
HETATM   14  O   UNL     1      -1.664   8.403 -33.148  1.00  0.00    -0.274 OA
BRANCH  12  15
HETATM   15  C   UNL     1      -1.798   8.154 -30.365  1.00  0.00     0.187 C 
BRANCH  15  16
HETATM   16  C   UNL     1      -0.816   7.822 -29.309  1.00  0.00     0.070 A 
HETATM   17  O   UNL     1      -1.136   8.193 -28.035  1.00  0.00    -0.325 OA
HETATM   18  C   UNL     1      -0.108   7.802 -27.239  1.00  0.00     0.142 A 
HETATM   19  C   UNL     1       0.872   7.188 -27.982  1.00  0.00     0.027 A 
HETATM   20  C   UNL     1       0.417   7.201 -29.322  1.00  0.00     0.036 A 
ENDBRANCH  15  16
ENDBRANCH  12  15
ENDBRANCH  10  11
ENDBRANCH   9  10
ENDBRANCH   6   9
ENDBRANCH   2   5
BRANCH   1  21
HETATM   21  C   UNL     1      -4.967   0.274 -30.856  1.00  0.00     0.146 C 
BRANCH  21  22
HETATM   22  C   UNL     1      -5.656  -0.181 -32.109  1.00  0.00    -0.015 A 
HETATM   23  C   UNL     1      -5.386  -1.306 -32.969  1.00  0.00    -0.000 A 
HETATM   24  C   UNL     1      -4.424  -2.342 -33.000  1.00  0.00     0.021 A 
HETATM   25  C   UNL     1      -6.351  -1.298 -33.977  1.00  0.00     0.043 A 
HETATM   26  C   UNL     1      -4.454  -3.318 -34.013  1.00  0.00    -0.061 A 
HETATM   27  C   UNL     1      -3.448  -4.434 -34.021  1.00  0.00     0.048 C 
HETATM   28  C   UNL     1      -5.452  -3.275 -34.987  1.00  0.00     0.009 A 
HETATM   29  C   UNL     1      -6.412  -2.262 -34.991  1.00  0.00     0.031 A 
HETATM   30  N   UNL     1      -7.161  -0.212 -33.762  1.00  0.00    -0.359 N 
HETATM   31  H   UNL     1      -7.943   0.037 -34.351  1.00  0.00     0.166 HD
HETATM   32  C   UNL     1      -6.766   0.468 -32.642  1.00  0.00     0.013 A 
HETATM   33  C   UNL     1      -7.490   1.684 -32.181  1.00  0.00     0.068 C 
ENDBRANCH  21  22
ENDBRANCH   1  21
TORSDOF 8
ENDMDL
MODEL 8
REMARK VINA RESULT:      -7.8      4.864      7.881
REMARK  8 active torsions:
REMARK  status: ('A' for Active; 'I' for Inactive)
REMARK    1  A    between atoms: C_10  and  C_11 
REMARK    2  A    between atoms: C_11  and  C_12 
REMARK       I    between atoms: C_12  and  N_13 
REMARK    3  A    between atoms: N_13  and  N_14 
REMARK       I    between atoms: N_14  and  C_15 
REMARK    4  A    between atoms: C_15  and  C_16 
REMARK    5  A    between atoms: C_16  and  C_17 
REMARK    6  A    between atoms: C_17  and  C_18 
REMARK       I    between atoms: C_18  and  N_19 
REMARK    7  A    between atoms: N_19  and  C_20 
REMARK    8  A    between atoms: C_20  and  C_21 
ROOT
HETATM    1  C   UNL     1      -9.316   0.712 -34.014  1.00  0.00     0.240 C 
HETATM    2  N   UNL     1     -10.378   1.445 -34.508  1.00  0.00    -0.267 N 
HETATM    3  O   UNL     1      -9.336   0.208 -32.891  1.00  0.00    -0.272 OA
HETATM    4  H   UNL     1     -10.458   1.728 -35.484  1.00  0.00     0.190 HD
ENDROOT
BRANCH   2   5
HETATM    5  N   UNL     1     -11.516   1.574 -33.708  1.00  0.00    -0.268 N 
HETATM    6  C   UNL     1     -12.719   1.861 -34.315  1.00  0.00     0.236 C 
HETATM    7  O   UNL     1     -12.879   1.843 -35.534  1.00  0.00    -0.272 OA
HETATM    8  H   UNL     1     -11.352   1.677 -32.706  1.00  0.00     0.190 HD
BRANCH   6   9
HETATM    9  C   UNL     1     -13.822   2.178 -33.327  1.00  0.00     0.114 C 
BRANCH   9  10
HETATM   10  C   UNL     1     -13.921   3.667 -33.030  1.00  0.00     0.112 C 
BRANCH  10  11
HETATM   11  C   UNL     1     -13.197   4.004 -31.747  1.00  0.00     0.218 C 
HETATM   12  N   UNL     1     -12.024   4.692 -31.921  1.00  0.00    -0.355 N 
HETATM   13  H   UNL     1     -11.848   5.125 -32.829  1.00  0.00     0.162 HD
HETATM   14  O   UNL     1     -13.654   3.705 -30.647  1.00  0.00    -0.274 OA
BRANCH  12  15
HETATM   15  C   UNL     1     -11.299   5.209 -30.785  1.00  0.00     0.187 C 
BRANCH  15  16
HETATM   16  C   UNL     1     -10.068   4.408 -30.603  1.00  0.00     0.070 A 
HETATM   17  O   UNL     1      -9.061   4.985 -29.885  1.00  0.00    -0.325 OA
HETATM   18  C   UNL     1      -8.040   4.091 -29.847  1.00  0.00     0.142 A 
HETATM   19  C   UNL     1      -8.373   2.948 -30.533  1.00  0.00     0.027 A 
HETATM   20  C   UNL     1      -9.685   3.151 -31.024  1.00  0.00     0.036 A 
ENDBRANCH  15  16
ENDBRANCH  12  15
ENDBRANCH  10  11
ENDBRANCH   9  10
ENDBRANCH   6   9
ENDBRANCH   2   5
BRANCH   1  21
HETATM   21  C   UNL     1      -8.129   0.636 -34.943  1.00  0.00     0.146 C 
BRANCH  21  22
HETATM   22  C   UNL     1      -6.846   0.126 -34.355  1.00  0.00    -0.015 A 
HETATM   23  C   UNL     1      -6.259  -1.190 -34.389  1.00  0.00    -0.000 A 
HETATM   24  C   UNL     1      -6.632  -2.446 -34.921  1.00  0.00     0.021 A 
HETATM   25  C   UNL     1      -5.035  -1.115 -33.722  1.00  0.00     0.043 A 
HETATM   26  C   UNL     1      -5.792  -3.565 -34.777  1.00  0.00    -0.061 A 
HETATM   27  C   UNL     1      -6.181  -4.888 -35.372  1.00  0.00     0.048 C 
HETATM   28  C   UNL     1      -4.569  -3.432 -34.116  1.00  0.00     0.009 A 
HETATM   29  C   UNL     1      -4.174  -2.209 -33.572  1.00  0.00     0.031 A 
HETATM   30  N   UNL     1      -4.885   0.175 -33.281  1.00  0.00    -0.359 N 
HETATM   31  H   UNL     1      -4.086   0.505 -32.759  1.00  0.00     0.166 HD
HETATM   32  C   UNL     1      -5.957   0.939 -33.657  1.00  0.00     0.013 A 
HETATM   33  C   UNL     1      -6.034   2.383 -33.311  1.00  0.00     0.068 C 
ENDBRANCH  21  22
ENDBRANCH   1  21
TORSDOF 8
ENDMDL
MODEL 9
REMARK VINA RESULT:      -7.6      4.386      7.166
REMARK  8 active torsions:
REMARK  status: ('A' for Active; 'I' for Inactive)
REMARK    1  A    between atoms: C_10  and  C_11 
REMARK    2  A    between atoms: C_11  and  C_12 
REMARK       I    between atoms: C_12  and  N_13 
REMARK    3  A    between atoms: N_13  and  N_14 
REMARK       I    between atoms: N_14  and  C_15 
REMARK    4  A    between atoms: C_15  and  C_16 
REMARK    5  A    between atoms: C_16  and  C_17 
REMARK    6  A    between atoms: C_17  and  C_18 
REMARK       I    between atoms: C_18  and  N_19 
REMARK    7  A    between atoms: N_19  and  C_20 
REMARK    8  A    between atoms: C_20  and  C_21 
ROOT
HETATM    1  C   UNL     1      -9.147   1.037 -32.835  1.00  0.00     0.240 C 
HETATM    2  N   UNL     1     -10.454   1.079 -32.386  1.00  0.00    -0.267 N 
HETATM    3  O   UNL     1      -8.814   1.512 -33.920  1.00  0.00    -0.272 OA
HETATM    4  H   UNL     1     -10.726   0.848 -31.431  1.00  0.00     0.190 HD
ENDROOT
BRANCH   2   5
HETATM    5  N   UNL     1     -11.402   1.722 -33.185  1.00  0.00    -0.268 N 
HETATM    6  C   UNL     1     -12.412   0.969 -33.744  1.00  0.00     0.236 C 
HETATM    7  O   UNL     1     -12.622  -0.205 -33.443  1.00  0.00    -0.272 OA
HETATM    8  H   UNL     1     -11.164   2.664 -33.496  1.00  0.00     0.190 HD
BRANCH   6   9
HETATM    9  C   UNL     1     -13.242   1.742 -34.746  1.00  0.00     0.114 C 
BRANCH   9  10
HETATM   10  C   UNL     1     -12.392   2.358 -35.848  1.00  0.00     0.112 C 
BRANCH  10  11
HETATM   11  C   UNL     1     -12.060   3.797 -35.524  1.00  0.00     0.218 C 
HETATM   12  N   UNL     1     -10.729   4.108 -35.628  1.00  0.00    -0.355 N 
HETATM   13  H   UNL     1     -10.118   3.459 -36.125  1.00  0.00     0.162 HD
HETATM   14  O   UNL     1     -12.928   4.611 -35.224  1.00  0.00    -0.274 OA
BRANCH  12  15
HETATM   15  C   UNL     1     -10.281   5.473 -35.491  1.00  0.00     0.187 C 
BRANCH  15  16
HETATM   16  C   UNL     1      -9.391   5.566 -34.312  1.00  0.00     0.070 A 
HETATM   17  O   UNL     1      -8.198   4.908 -34.390  1.00  0.00    -0.325 OA
HETATM   18  C   UNL     1      -7.552   5.119 -33.214  1.00  0.00     0.142 A 
HETATM   19  C   UNL     1      -8.314   5.900 -32.378  1.00  0.00     0.027 A 
HETATM   20  C   UNL     1      -9.505   6.190 -33.085  1.00  0.00     0.036 A 
ENDBRANCH  15  16
ENDBRANCH  12  15
ENDBRANCH  10  11
ENDBRANCH   9  10
ENDBRANCH   6   9
ENDBRANCH   2   5
BRANCH   1  21
HETATM   21  C   UNL     1      -8.197   0.315 -31.910  1.00  0.00     0.146 C 
BRANCH  21  22
HETATM   22  C   UNL     1      -6.828   0.017 -32.450  1.00  0.00    -0.015 A 
HETATM   23  C   UNL     1      -6.363  -1.074 -33.269  1.00  0.00    -0.000 A 
HETATM   24  C   UNL     1      -6.948  -2.232 -33.832  1.00  0.00     0.021 A 
HETATM   25  C   UNL     1      -5.009  -0.853 -33.524  1.00  0.00     0.043 A 
HETATM   26  C   UNL     1      -6.182  -3.115 -34.615  1.00  0.00    -0.061 A 
HETATM   27  C   UNL     1      -6.818  -4.325 -35.235  1.00  0.00     0.048 C 
HETATM   28  C   UNL     1      -4.836  -2.837 -34.854  1.00  0.00     0.009 A 
HETATM   29  C   UNL     1      -4.225  -1.708 -34.308  1.00  0.00     0.031 A 
HETATM   30  N   UNL     1      -4.652   0.304 -32.877  1.00  0.00    -0.359 N 
HETATM   31  H   UNL     1      -3.721   0.695 -32.889  1.00  0.00     0.166 HD
HETATM   32  C   UNL     1      -5.731   0.846 -32.233  1.00  0.00     0.013 A 
HETATM   33  C   UNL     1      -5.613   2.113 -31.463  1.00  0.00     0.068 C 
ENDBRANCH  21  22
ENDBRANCH   1  21
TORSDOF 8
ENDMDL
MODEL 10
REMARK VINA RESULT:      -7.5      2.321      3.820
REMARK  8 active torsions:
REMARK  status: ('A' for Active; 'I' for Inactive)
REMARK    1  A    between atoms: C_10  and  C_11 
REMARK    2  A    between atoms: C_11  and  C_12 
REMARK       I    between atoms: C_12  and  N_13 
REMARK    3  A    between atoms: N_13  and  N_14 
REMARK       I    between atoms: N_14  and  C_15 
REMARK    4  A    between atoms: C_15  and  C_16 
REMARK    5  A    between atoms: C_16  and  C_17 
REMARK    6  A    between atoms: C_17  and  C_18 
REMARK       I    between atoms: C_18  and  N_19 
REMARK    7  A    between atoms: N_19  and  C_20 
REMARK    8  A    between atoms: C_20  and  C_21 
ROOT
HETATM    1  C   UNL     1      -3.923   2.307 -30.995  1.00  0.00     0.240 C 
HETATM    2  N   UNL     1      -3.909   3.688 -30.936  1.00  0.00    -0.267 N 
HETATM    3  O   UNL     1      -2.915   1.655 -31.265  1.00  0.00    -0.272 OA
HETATM    4  H   UNL     1      -4.676   4.240 -30.554  1.00  0.00     0.190 HD
ENDROOT
BRANCH   2   5
HETATM    5  N   UNL     1      -2.693   4.342 -31.152  1.00  0.00    -0.268 N 
HETATM    6  C   UNL     1      -2.410   4.805 -32.418  1.00  0.00     0.236 C 
HETATM    7  O   UNL     1      -3.238   4.825 -33.328  1.00  0.00    -0.272 OA
HETATM    8  H   UNL     1      -1.990   4.236 -30.421  1.00  0.00     0.190 HD
BRANCH   6   9
HETATM    9  C   UNL     1      -0.988   5.304 -32.564  1.00  0.00     0.114 C 
BRANCH   9  10
HETATM   10  C   UNL     1      -0.926   6.713 -33.135  1.00  0.00     0.112 C 
BRANCH  10  11
HETATM   11  C   UNL     1      -1.404   7.722 -32.116  1.00  0.00     0.218 C 
HETATM   12  N   UNL     1      -1.227   7.338 -30.812  1.00  0.00    -0.355 N 
HETATM   13  H   UNL     1      -0.599   6.558 -30.619  1.00  0.00     0.162 HD
HETATM   14  O   UNL     1      -1.880   8.803 -32.449  1.00  0.00    -0.274 OA
BRANCH  12  15
HETATM   15  C   UNL     1      -1.501   8.257 -29.732  1.00  0.00     0.187 C 
BRANCH  15  16
HETATM   16  C   UNL     1      -2.812   7.915 -29.138  1.00  0.00     0.070 A 
HETATM   17  O   UNL     1      -3.360   6.721 -29.506  1.00  0.00    -0.325 OA
HETATM   18  C   UNL     1      -4.548   6.614 -28.857  1.00  0.00     0.142 A 
HETATM   19  C   UNL     1      -4.774   7.724 -28.078  1.00  0.00     0.027 A 
HETATM   20  C   UNL     1      -3.653   8.568 -28.259  1.00  0.00     0.036 A 
ENDBRANCH  15  16
ENDBRANCH  12  15
ENDBRANCH  10  11
ENDBRANCH   9  10
ENDBRANCH   6   9
ENDBRANCH   2   5
BRANCH   1  21
HETATM   21  C   UNL     1      -5.280   1.690 -30.757  1.00  0.00     0.146 C 
BRANCH  21  22
HETATM   22  C   UNL     1      -6.077   1.327 -31.976  1.00  0.00    -0.015 A 
HETATM   23  C   UNL     1      -5.960   0.201 -32.868  1.00  0.00    -0.000 A 
HETATM   24  C   UNL     1      -5.101  -0.918 -32.972  1.00  0.00     0.021 A 
HETATM   25  C   UNL     1      -6.975   0.319 -33.819  1.00  0.00     0.043 A 
HETATM   26  C   UNL     1      -5.277  -1.865 -33.997  1.00  0.00    -0.061 A 
HETATM   27  C   UNL     1      -4.380  -3.067 -34.082  1.00  0.00     0.048 C 
HETATM   28  C   UNL     1      -6.320  -1.710 -34.912  1.00  0.00     0.009 A 
HETATM   29  C   UNL     1      -7.180  -0.613 -34.844  1.00  0.00     0.031 A 
HETATM   30  N   UNL     1      -7.668   1.469 -33.540  1.00  0.00    -0.359 N 
HETATM   31  H   UNL     1      -8.455   1.801 -34.080  1.00  0.00     0.166 HD
HETATM   32  C   UNL     1      -7.150   2.085 -32.434  1.00  0.00     0.013 A 
HETATM   33  C   UNL     1      -7.732   3.352 -31.913  1.00  0.00     0.068 C 
ENDBRANCH  21  22
ENDBRANCH   1  21
TORSDOF 8
ENDMDL
