MODEL 1
REMARK VINA RESULT:      -9.1      0.000      0.000
REMARK  7 active torsions:
REMARK  status: ('A' for Active; 'I' for Inactive)
REMARK    1  A    between atoms: O_2  and  C_3 
REMARK    2  A    between atoms: C_6  and  C_7 
REMARK       I    between atoms: C_7  and  N_8 
REMARK    3  A    between atoms: C_14  and  C_15 
REMARK       I    between atoms: C_15  and  N_16 
REMARK    4  A    between atoms: N_16  and  C_17 
REMARK    5  A    between atoms: C_17  and  C_18 
REMARK       I    between atoms: N_25  and  C_26 
REMARK    6  A    between atoms: C_26  and  C_27 
REMARK    7  A    between atoms: C_30  and  O_31 
ROOT
HETATM    1  C   UNL     1     -11.772   4.434 -31.934  1.00  0.00     0.253 C 
HETATM    2  N   UNL     1     -10.399   4.265 -31.691  1.00  0.00    -0.348 N 
HETATM    3  C   UNL     1      -9.375   4.623 -32.669  1.00  0.00     0.131 C 
HETATM    4  C   UNL     1      -8.020   4.866 -32.041  1.00  0.00     0.081 C 
HETATM    5  C   UNL     1      -7.551   3.747 -31.108  1.00  0.00     0.142 C 
HETATM    6  O   UNL     1      -6.473   4.368 -30.339  1.00  0.00    -0.358 OA
HETATM    7  C   UNL     1      -5.363   3.465 -30.278  1.00  0.00     0.206 C 
HETATM    8  C   UNL     1      -5.466   2.640 -31.534  1.00  0.00     0.206 C 
HETATM    9  N   UNL     1      -6.910   2.592 -31.758  1.00  0.00    -0.300 N 
HETATM   10  C   UNL     1      -7.573   1.624 -32.491  1.00  0.00     0.257 C 
HETATM   11  O   UNL     1      -8.760   1.681 -32.792  1.00  0.00    -0.267 OA
HETATM   12  C   UNL     1      -8.648   3.408 -30.091  1.00  0.00     0.081 C 
HETATM   13  C   UNL     1     -10.051   3.275 -30.673  1.00  0.00     0.131 C 
HETATM   14  O   UNL     1     -12.647   4.111 -31.131  1.00  0.00    -0.267 OA
ENDROOT
BRANCH   8  15
HETATM   15  C   UNL     1      -4.657   3.298 -32.671  1.00  0.00     0.243 C 
HETATM   16  N   UNL     1      -3.337   3.546 -32.380  1.00  0.00    -0.355 N 
HETATM   17  H   UNL     1      -2.945   3.145 -31.539  1.00  0.00     0.162 HD
HETATM   18  O   UNL     1      -5.179   3.654 -33.725  1.00  0.00    -0.271 OA
BRANCH  16  19
HETATM   19  C   UNL     1      -2.431   4.149 -33.326  1.00  0.00     0.161 C 
BRANCH  19  20
HETATM   20  C   UNL     1      -1.562   5.155 -32.619  1.00  0.00    -0.041 A 
HETATM   21  C   UNL     1      -1.464   6.469 -33.096  1.00  0.00     0.009 A 
HETATM   22  C   UNL     1      -0.601   7.381 -32.485  1.00  0.00     0.001 A 
HETATM   23  C   UNL     1       0.179   6.984 -31.401  1.00  0.00     0.000 A 
HETATM   24  C   UNL     1       0.094   5.679 -30.921  1.00  0.00     0.001 A 
HETATM   25  C   UNL     1      -0.773   4.768 -31.526  1.00  0.00     0.009 A 
ENDBRANCH  19  20
ENDBRANCH  16  19
ENDBRANCH   8  15
BRANCH  10  26
HETATM   26  C   UNL     1      -6.829   0.467 -33.037  1.00  0.00     0.032 A 
HETATM   27  C   UNL     1      -5.987  -0.309 -32.242  1.00  0.00     0.020 A 
HETATM   28  C   UNL     1      -5.331  -1.408 -32.804  1.00  0.00     0.038 A 
HETATM   29  C   UNL     1      -5.542  -1.760 -34.143  1.00  0.00     0.068 A 
HETATM   30  C   UNL     1      -6.419  -1.004 -34.921  1.00  0.00     0.038 A 
HETATM   31  C   UNL     1      -7.069   0.102 -34.366  1.00  0.00     0.020 A 
BRANCH  29  32
HETATM   32  O   UNL     1      -4.842  -2.858 -34.562  1.00  0.00    -0.356 OA
HETATM   33  C   UNL     1      -5.600  -4.018 -34.886  1.00  0.00     0.210 C 
ENDBRANCH  29  32
ENDBRANCH  10  26
BRANCH   1  34
HETATM   34  C   UNL     1     -12.223   5.039 -33.210  1.00  0.00     0.032 A 
HETATM   35  C   UNL     1     -12.409   4.256 -34.353  1.00  0.00     0.020 A 
HETATM   36  C   UNL     1     -12.859   4.852 -35.533  1.00  0.00     0.038 A 
HETATM   37  C   UNL     1     -13.172   6.214 -35.567  1.00  0.00     0.068 A 
HETATM   38  C   UNL     1     -13.009   6.987 -34.415  1.00  0.00     0.038 A 
HETATM   39  C   UNL     1     -12.540   6.400 -33.235  1.00  0.00     0.020 A 
BRANCH  37  40
HETATM   40  O   UNL     1     -13.615   6.670 -36.779  1.00  0.00    -0.356 OA
HETATM   41  C   UNL     1     -13.337   8.034 -37.076  1.00  0.00     0.210 C 
ENDBRANCH  37  40
ENDBRANCH   1  34
TORSDOF 7
ENDMDL
MODEL 2
REMARK VINA RESULT:      -9.0      3.341      7.711
REMARK  7 active torsions:
REMARK  status: ('A' for Active; 'I' for Inactive)
REMARK    1  A    between atoms: O_2  and  C_3 
REMARK    2  A    between atoms: C_6  and  C_7 
REMARK       I    between atoms: C_7  and  N_8 
REMARK    3  A    between atoms: C_14  and  C_15 
REMARK       I    between atoms: C_15  and  N_16 
REMARK    4  A    between atoms: N_16  and  C_17 
REMARK    5  A    between atoms: C_17  and  C_18 
REMARK       I    between atoms: N_25  and  C_26 
REMARK    6  A    between atoms: C_26  and  C_27 
REMARK    7  A    between atoms: C_30  and  O_31 
ROOT
HETATM    1  C   UNL     1      -7.757   1.750 -31.668  1.00  0.00     0.253 C 
HETATM    2  N   UNL     1      -7.444   3.118 -31.706  1.00  0.00    -0.348 N 
HETATM    3  C   UNL     1      -6.168   3.623 -32.207  1.00  0.00     0.131 C 
HETATM    4  C   UNL     1      -6.239   5.067 -32.652  1.00  0.00     0.081 C 
HETATM    5  C   UNL     1      -6.859   6.012 -31.619  1.00  0.00     0.142 C 
HETATM    6  O   UNL     1      -7.185   7.206 -32.396  1.00  0.00    -0.358 OA
HETATM    7  C   UNL     1      -6.767   8.366 -31.669  1.00  0.00     0.206 C 
HETATM    8  C   UNL     1      -5.605   7.899 -30.831  1.00  0.00     0.206 C 
HETATM    9  N   UNL     1      -5.952   6.503 -30.568  1.00  0.00    -0.300 N 
HETATM   10  C   UNL     1      -5.480   5.749 -29.509  1.00  0.00     0.257 C 
HETATM   11  O   UNL     1      -5.662   4.543 -29.388  1.00  0.00    -0.267 OA
HETATM   12  C   UNL     1      -8.200   5.453 -31.126  1.00  0.00     0.081 C 
HETATM   13  C   UNL     1      -8.196   3.968 -30.783  1.00  0.00     0.131 C 
HETATM   14  O   UNL     1      -8.817   1.310 -31.223  1.00  0.00    -0.267 OA
ENDROOT
BRANCH   8  15
HETATM   15  C   UNL     1      -4.281   8.103 -31.596  1.00  0.00     0.243 C 
HETATM   16  N   UNL     1      -3.828   7.003 -32.283  1.00  0.00    -0.355 N 
HETATM   17  H   UNL     1      -4.448   6.210 -32.386  1.00  0.00     0.162 HD
HETATM   18  O   UNL     1      -3.636   9.147 -31.522  1.00  0.00    -0.271 OA
BRANCH  16  19
HETATM   19  C   UNL     1      -2.613   7.014 -33.059  1.00  0.00     0.161 C 
BRANCH  19  20
HETATM   20  C   UNL     1      -1.488   6.439 -32.239  1.00  0.00    -0.041 A 
HETATM   21  C   UNL     1      -1.604   5.165 -31.667  1.00  0.00     0.009 A 
HETATM   22  C   UNL     1      -0.593   4.663 -30.845  1.00  0.00     0.001 A 
HETATM   23  C   UNL     1       0.537   5.434 -30.580  1.00  0.00     0.000 A 
HETATM   24  C   UNL     1       0.661   6.705 -31.139  1.00  0.00     0.001 A 
HETATM   25  C   UNL     1      -0.345   7.205 -31.966  1.00  0.00     0.009 A 
ENDBRANCH  19  20
ENDBRANCH  16  19
ENDBRANCH   8  15
BRANCH  10  26
HETATM   26  C   UNL     1      -4.629   6.374 -28.473  1.00  0.00     0.032 A 
HETATM   27  C   UNL     1      -3.283   6.659 -28.699  1.00  0.00     0.020 A 
HETATM   28  C   UNL     1      -2.533   7.277 -27.694  1.00  0.00     0.038 A 
HETATM   29  C   UNL     1      -3.127   7.647 -26.482  1.00  0.00     0.068 A 
HETATM   30  C   UNL     1      -4.485   7.398 -26.279  1.00  0.00     0.038 A 
HETATM   31  C   UNL     1      -5.237   6.771 -27.277  1.00  0.00     0.020 A 
BRANCH  29  32
HETATM   32  O   UNL     1      -2.281   8.247 -25.590  1.00  0.00    -0.356 OA
HETATM   33  C   UNL     1      -2.818   8.581 -24.317  1.00  0.00     0.210 C 
ENDBRANCH  29  32
ENDBRANCH  10  26
BRANCH   1  34
HETATM   34  C   UNL     1      -6.788   0.760 -32.193  1.00  0.00     0.032 A 
HETATM   35  C   UNL     1      -5.852   0.151 -31.352  1.00  0.00     0.020 A 
HETATM   36  C   UNL     1      -4.968  -0.796 -31.873  1.00  0.00     0.038 A 
HETATM   37  C   UNL     1      -5.044  -1.177 -33.216  1.00  0.00     0.068 A 
HETATM   38  C   UNL     1      -5.998  -0.585 -34.047  1.00  0.00     0.038 A 
HETATM   39  C   UNL     1      -6.873   0.379 -33.535  1.00  0.00     0.020 A 
BRANCH  37  40
HETATM   40  O   UNL     1      -4.132  -2.124 -33.596  1.00  0.00    -0.356 OA
HETATM   41  C   UNL     1      -4.559  -3.041 -34.597  1.00  0.00     0.210 C 
ENDBRANCH  37  40
ENDBRANCH   1  34
TORSDOF 7
ENDMDL
MODEL 3
REMARK VINA RESULT:      -8.9      3.100      9.580
REMARK  7 active torsions:
REMARK  status: ('A' for Active; 'I' for Inactive)
REMARK    1  A    between atoms: O_2  and  C_3 
REMARK    2  A    between atoms: C_6  and  C_7 
REMARK       I    between atoms: C_7  and  N_8 
REMARK    3  A    between atoms: C_14  and  C_15 
REMARK       I    between atoms: C_15  and  N_16 
REMARK    4  A    between atoms: N_16  and  C_17 
REMARK    5  A    between atoms: C_17  and  C_18 
REMARK       I    between atoms: N_25  and  C_26 
REMARK    6  A    between atoms: C_26  and  C_27 
REMARK    7  A    between atoms: C_30  and  O_31 
ROOT
HETATM    1  C   UNL     1      -6.155   2.943 -33.255  1.00  0.00     0.253 C 
HETATM    2  N   UNL     1      -7.169   3.788 -32.776  1.00  0.00    -0.348 N 
HETATM    3  C   UNL     1      -8.536   3.329 -32.544  1.00  0.00     0.131 C 
HETATM    4  C   UNL     1      -9.292   4.197 -31.563  1.00  0.00     0.081 C 
HETATM    5  C   UNL     1      -9.241   5.694 -31.881  1.00  0.00     0.142 C 
HETATM    6  O   UNL     1      -9.663   6.326 -30.633  1.00  0.00    -0.358 OA
HETATM    7  C   UNL     1     -10.612   7.357 -30.929  1.00  0.00     0.206 C 
HETATM    8  C   UNL     1     -11.282   6.911 -32.202  1.00  0.00     0.206 C 
HETATM    9  N   UNL     1     -10.213   6.175 -32.876  1.00  0.00    -0.300 N 
HETATM   10  C   UNL     1     -10.140   5.942 -34.237  1.00  0.00     0.257 C 
HETATM   11  O   UNL     1      -9.320   5.199 -34.765  1.00  0.00    -0.267 OA
HETATM   12  C   UNL     1      -7.790   6.139 -32.107  1.00  0.00     0.081 C 
HETATM   13  C   UNL     1      -6.961   5.219 -32.995  1.00  0.00     0.131 C 
HETATM   14  O   UNL     1      -5.006   3.324 -33.480  1.00  0.00    -0.267 OA
ENDROOT
BRANCH   8  15
HETATM   15  C   UNL     1     -12.538   6.076 -31.878  1.00  0.00     0.243 C 
HETATM   16  N   UNL     1     -12.337   4.718 -31.822  1.00  0.00    -0.355 N 
HETATM   17  H   UNL     1     -11.388   4.370 -31.825  1.00  0.00     0.162 HD
HETATM   18  O   UNL     1     -13.652   6.583 -31.767  1.00  0.00    -0.271 OA
BRANCH  16  19
HETATM   19  C   UNL     1     -13.396   3.785 -31.526  1.00  0.00     0.161 C 
BRANCH  19  20
HETATM   20  C   UNL     1     -13.495   2.768 -32.632  1.00  0.00    -0.041 A 
HETATM   21  C   UNL     1     -14.631   1.955 -32.750  1.00  0.00     0.009 A 
HETATM   22  C   UNL     1     -14.692   0.962 -33.729  1.00  0.00     0.001 A 
HETATM   23  C   UNL     1     -13.614   0.765 -34.590  1.00  0.00     0.000 A 
HETATM   24  C   UNL     1     -12.477   1.563 -34.479  1.00  0.00     0.001 A 
HETATM   25  C   UNL     1     -12.418   2.561 -33.505  1.00  0.00     0.009 A 
ENDBRANCH  19  20
ENDBRANCH  16  19
ENDBRANCH   8  15
BRANCH  10  26
HETATM   26  C   UNL     1     -11.140   6.540 -35.148  1.00  0.00     0.032 A 
HETATM   27  C   UNL     1     -10.890   7.725 -35.841  1.00  0.00     0.020 A 
HETATM   28  C   UNL     1     -11.861   8.229 -36.711  1.00  0.00     0.038 A 
HETATM   29  C   UNL     1     -13.060   7.540 -36.924  1.00  0.00     0.068 A 
HETATM   30  C   UNL     1     -13.285   6.334 -36.261  1.00  0.00     0.038 A 
HETATM   31  C   UNL     1     -12.323   5.830 -35.381  1.00  0.00     0.020 A 
BRANCH  29  32
HETATM   32  O   UNL     1     -13.917   8.143 -37.804  1.00  0.00    -0.356 OA
HETATM   33  C   UNL     1     -13.342   8.720 -38.970  1.00  0.00     0.210 C 
ENDBRANCH  29  32
ENDBRANCH  10  26
BRANCH   1  34
HETATM   34  C   UNL     1      -6.448   1.512 -33.502  1.00  0.00     0.032 A 
HETATM   35  C   UNL     1      -6.915   1.076 -34.745  1.00  0.00     0.020 A 
HETATM   36  C   UNL     1      -7.158  -0.284 -34.955  1.00  0.00     0.038 A 
HETATM   37  C   UNL     1      -6.890  -1.217 -33.948  1.00  0.00     0.068 A 
HETATM   38  C   UNL     1      -6.398  -0.780 -32.717  1.00  0.00     0.038 A 
HETATM   39  C   UNL     1      -6.171   0.583 -32.495  1.00  0.00     0.020 A 
BRANCH  37  40
HETATM   40  O   UNL     1      -7.157  -2.516 -34.286  1.00  0.00    -0.356 OA
HETATM   41  C   UNL     1      -6.094  -3.237 -34.898  1.00  0.00     0.210 C 
ENDBRANCH  37  40
ENDBRANCH   1  34
TORSDOF 7
ENDMDL
MODEL 4
REMARK VINA RESULT:      -8.6      4.338      8.556
REMARK  7 active torsions:
REMARK  status: ('A' for Active; 'I' for Inactive)
REMARK    1  A    between atoms: O_2  and  C_3 
REMARK    2  A    between atoms: C_6  and  C_7 
REMARK       I    between atoms: C_7  and  N_8 
REMARK    3  A    between atoms: C_14  and  C_15 
REMARK       I    between atoms: C_15  and  N_16 
REMARK    4  A    between atoms: N_16  and  C_17 
REMARK    5  A    between atoms: C_17  and  C_18 
REMARK       I    between atoms: N_25  and  C_26 
REMARK    6  A    between atoms: C_26  and  C_27 
REMARK    7  A    between atoms: C_30  and  O_31 
ROOT
HETATM    1  C   UNL     1      -7.455   3.286 -30.482  1.00  0.00     0.253 C 
HETATM    2  N   UNL     1      -6.948   4.595 -30.431  1.00  0.00    -0.348 N 
HETATM    3  C   UNL     1      -5.544   4.908 -30.685  1.00  0.00     0.131 C 
HETATM    4  C   UNL     1      -5.326   6.346 -31.102  1.00  0.00     0.081 C 
HETATM    5  C   UNL     1      -5.980   7.374 -30.175  1.00  0.00     0.142 C 
HETATM    6  O   UNL     1      -5.987   8.600 -30.971  1.00  0.00    -0.358 OA
HETATM    7  C   UNL     1      -5.545   9.690 -30.154  1.00  0.00     0.206 C 
HETATM    8  C   UNL     1      -4.632   9.062 -29.133  1.00  0.00     0.206 C 
HETATM    9  N   UNL     1      -5.216   7.732 -28.969  1.00  0.00    -0.300 N 
HETATM   10  C   UNL     1      -5.055   6.921 -27.860  1.00  0.00     0.257 C 
HETATM   11  O   UNL     1      -5.426   5.754 -27.801  1.00  0.00    -0.267 OA
HETATM   12  C   UNL     1      -7.454   7.016 -29.942  1.00  0.00     0.081 C 
HETATM   13  C   UNL     1      -7.724   5.547 -29.639  1.00  0.00     0.131 C 
HETATM   14  O   UNL     1      -8.629   3.005 -30.243  1.00  0.00    -0.267 OA
ENDROOT
BRANCH   8  15
HETATM   15  C   UNL     1      -3.176   9.070 -29.645  1.00  0.00     0.243 C 
HETATM   16  N   UNL     1      -2.603   7.830 -29.794  1.00  0.00    -0.355 N 
HETATM   17  H   UNL     1      -3.196   7.014 -29.728  1.00  0.00     0.162 HD
HETATM   18  O   UNL     1      -2.550  10.112 -29.820  1.00  0.00    -0.271 OA
BRANCH  16  19
HETATM   19  C   UNL     1      -1.254   7.647 -30.268  1.00  0.00     0.161 C 
BRANCH  19  20
HETATM   20  C   UNL     1      -1.281   7.021 -31.637  1.00  0.00    -0.041 A 
HETATM   21  C   UNL     1      -1.631   7.784 -32.760  1.00  0.00     0.009 A 
HETATM   22  C   UNL     1      -1.730   7.186 -34.018  1.00  0.00     0.001 A 
HETATM   23  C   UNL     1      -1.490   5.821 -34.162  1.00  0.00     0.000 A 
HETATM   24  C   UNL     1      -1.148   5.052 -33.052  1.00  0.00     0.001 A 
HETATM   25  C   UNL     1      -1.042   5.649 -31.795  1.00  0.00     0.009 A 
ENDBRANCH  19  20
ENDBRANCH  16  19
ENDBRANCH   8  15
BRANCH  10  26
HETATM   26  C   UNL     1      -4.324   7.419 -26.675  1.00  0.00     0.032 A 
HETATM   27  C   UNL     1      -4.919   8.276 -25.749  1.00  0.00     0.020 A 
HETATM   28  C   UNL     1      -4.190   8.693 -24.632  1.00  0.00     0.038 A 
HETATM   29  C   UNL     1      -2.887   8.231 -24.412  1.00  0.00     0.068 A 
HETATM   30  C   UNL     1      -2.314   7.340 -25.320  1.00  0.00     0.038 A 
HETATM   31  C   UNL     1      -3.034   6.928 -26.445  1.00  0.00     0.020 A 
BRANCH  29  32
HETATM   32  O   UNL     1      -2.293   8.714 -23.279  1.00  0.00    -0.356 OA
HETATM   33  C   UNL     1      -1.551   9.921 -23.406  1.00  0.00     0.210 C 
ENDBRANCH  29  32
ENDBRANCH  10  26
BRANCH   1  34
HETATM   34  C   UNL     1      -6.558   2.165 -30.848  1.00  0.00     0.032 A 
HETATM   35  C   UNL     1      -6.211   1.926 -32.181  1.00  0.00     0.020 A 
HETATM   36  C   UNL     1      -5.343   0.877 -32.492  1.00  0.00     0.038 A 
HETATM   37  C   UNL     1      -4.780   0.096 -31.477  1.00  0.00     0.068 A 
HETATM   38  C   UNL     1      -5.109   0.355 -30.145  1.00  0.00     0.038 A 
HETATM   39  C   UNL     1      -5.993   1.392 -29.830  1.00  0.00     0.020 A 
BRANCH  37  40
HETATM   40  O   UNL     1      -3.936  -0.889 -31.914  1.00  0.00    -0.356 OA
HETATM   41  C   UNL     1      -4.294  -1.526 -33.136  1.00  0.00     0.210 C 
ENDBRANCH  37  40
ENDBRANCH   1  34
TORSDOF 7
ENDMDL
MODEL 5
REMARK VINA RESULT:      -8.4      2.031      8.241
REMARK  7 active torsions:
REMARK  status: ('A' for Active; 'I' for Inactive)
REMARK    1  A    between atoms: O_2  and  C_3 
REMARK    2  A    between atoms: C_6  and  C_7 
REMARK       I    between atoms: C_7  and  N_8 
REMARK    3  A    between atoms: C_14  and  C_15 
REMARK       I    between atoms: C_15  and  N_16 
REMARK    4  A    between atoms: N_16  and  C_17 
REMARK    5  A    between atoms: C_17  and  C_18 
REMARK       I    between atoms: N_25  and  C_26 
REMARK    6  A    between atoms: C_26  and  C_27 
REMARK    7  A    between atoms: C_30  and  O_31 
ROOT
HETATM    1  C   UNL     1      -4.899   5.353 -30.074  1.00  0.00     0.253 C 
HETATM    2  N   UNL     1      -5.827   4.380 -30.478  1.00  0.00    -0.348 N 
HETATM    3  C   UNL     1      -5.799   3.764 -31.802  1.00  0.00     0.131 C 
HETATM    4  C   UNL     1      -6.498   2.423 -31.844  1.00  0.00     0.081 C 
HETATM    5  C   UNL     1      -7.908   2.431 -31.249  1.00  0.00     0.142 C 
HETATM    6  O   UNL     1      -8.199   1.015 -31.031  1.00  0.00    -0.358 OA
HETATM    7  C   UNL     1      -9.524   0.733 -31.497  1.00  0.00     0.206 C 
HETATM    8  C   UNL     1      -9.769   1.738 -32.593  1.00  0.00     0.206 C 
HETATM    9  N   UNL     1      -8.983   2.887 -32.145  1.00  0.00    -0.300 N 
HETATM   10  C   UNL     1      -9.199   4.198 -32.526  1.00  0.00     0.257 C 
HETATM   11  O   UNL     1      -8.442   5.125 -32.260  1.00  0.00    -0.267 OA
HETATM   12  C   UNL     1      -7.893   3.075 -29.856  1.00  0.00     0.081 C 
HETATM   13  C   UNL     1      -7.094   4.368 -29.749  1.00  0.00     0.131 C 
HETATM   14  O   UNL     1      -4.927   5.900 -28.971  1.00  0.00    -0.267 OA
ENDROOT
BRANCH   8  15
HETATM   15  C   UNL     1      -9.343   1.154 -33.956  1.00  0.00     0.243 C 
HETATM   16  N   UNL     1      -8.197   0.396 -33.933  1.00  0.00    -0.355 N 
HETATM   17  H   UNL     1      -7.810   0.133 -33.036  1.00  0.00     0.162 HD
HETATM   18  O   UNL     1      -9.936   1.421 -34.998  1.00  0.00    -0.271 OA
BRANCH  16  19
HETATM   19  C   UNL     1      -7.655  -0.233 -35.112  1.00  0.00     0.161 C 
BRANCH  19  20
HETATM   20  C   UNL     1      -6.486  -1.101 -34.727  1.00  0.00    -0.041 A 
HETATM   21  C   UNL     1      -6.472  -2.462 -35.059  1.00  0.00     0.009 A 
HETATM   22  C   UNL     1      -5.425  -3.283 -34.637  1.00  0.00     0.001 A 
HETATM   23  C   UNL     1      -4.388  -2.753 -33.871  1.00  0.00     0.000 A 
HETATM   24  C   UNL     1      -4.394  -1.402 -33.531  1.00  0.00     0.001 A 
HETATM   25  C   UNL     1      -5.437  -0.578 -33.957  1.00  0.00     0.009 A 
ENDBRANCH  19  20
ENDBRANCH  16  19
ENDBRANCH   8  15
BRANCH  10  26
HETATM   26  C   UNL     1     -10.359   4.544 -33.376  1.00  0.00     0.032 A 
HETATM   27  C   UNL     1     -11.642   4.692 -32.848  1.00  0.00     0.020 A 
HETATM   28  C   UNL     1     -12.696   5.048 -33.694  1.00  0.00     0.038 A 
HETATM   29  C   UNL     1     -12.472   5.295 -35.053  1.00  0.00     0.068 A 
HETATM   30  C   UNL     1     -11.179   5.188 -35.566  1.00  0.00     0.038 A 
HETATM   31  C   UNL     1     -10.123   4.821 -34.727  1.00  0.00     0.020 A 
BRANCH  29  32
HETATM   32  O   UNL     1     -13.590   5.640 -35.763  1.00  0.00    -0.356 OA
HETATM   33  C   UNL     1     -13.991   7.003 -35.709  1.00  0.00     0.210 C 
ENDBRANCH  29  32
ENDBRANCH  10  26
BRANCH   1  34
HETATM   34  C   UNL     1      -3.811   5.758 -30.996  1.00  0.00     0.032 A 
HETATM   35  C   UNL     1      -3.813   7.017 -31.604  1.00  0.00     0.020 A 
HETATM   36  C   UNL     1      -2.761   7.378 -32.448  1.00  0.00     0.038 A 
HETATM   37  C   UNL     1      -1.682   6.512 -32.650  1.00  0.00     0.068 A 
HETATM   38  C   UNL     1      -1.671   5.266 -32.019  1.00  0.00     0.038 A 
HETATM   39  C   UNL     1      -2.732   4.891 -31.188  1.00  0.00     0.020 A 
BRANCH  37  40
HETATM   40  O   UNL     1      -0.711   6.991 -33.487  1.00  0.00    -0.356 OA
HETATM   41  C   UNL     1      -0.401   6.183 -34.616  1.00  0.00     0.210 C 
ENDBRANCH  37  40
ENDBRANCH   1  34
TORSDOF 7
ENDMDL
MODEL 6
REMARK VINA RESULT:      -8.3      2.657      8.714
REMARK  7 active torsions:
REMARK  status: ('A' for Active; 'I' for Inactive)
REMARK    1  A    between atoms: O_2  and  C_3 
REMARK    2  A    between atoms: C_6  and  C_7 
REMARK       I    between atoms: C_7  and  N_8 
REMARK    3  A    between atoms: C_14  and  C_15 
REMARK       I    between atoms: C_15  and  N_16 
REMARK    4  A    between atoms: N_16  and  C_17 
REMARK    5  A    between atoms: C_17  and  C_18 
REMARK       I    between atoms: N_25  and  C_26 
REMARK    6  A    between atoms: C_26  and  C_27 
REMARK    7  A    between atoms: C_30  and  O_31 
ROOT
HETATM    1  C   UNL     1      -5.489   6.501 -30.277  1.00  0.00     0.253 C 
HETATM    2  N   UNL     1      -6.747   5.901 -30.454  1.00  0.00    -0.348 N 
HETATM    3  C   UNL     1      -7.015   4.929 -31.511  1.00  0.00     0.131 C 
HETATM    4  C   UNL     1      -8.203   4.041 -31.208  1.00  0.00     0.081 C 
HETATM    5  C   UNL     1      -9.466   4.802 -30.798  1.00  0.00     0.142 C 
HETATM    6  O   UNL     1     -10.304   3.774 -30.184  1.00  0.00    -0.358 OA
HETATM    7  C   UNL     1     -11.642   3.905 -30.678  1.00  0.00     0.206 C 
HETATM    8  C   UNL     1     -11.490   4.505 -32.051  1.00  0.00     0.206 C 
HETATM    9  N   UNL     1     -10.289   5.325 -31.902  1.00  0.00    -0.300 N 
HETATM   10  C   UNL     1      -9.961   6.412 -32.692  1.00  0.00     0.257 C 
HETATM   11  O   UNL     1      -8.883   6.994 -32.649  1.00  0.00    -0.267 OA
HETATM   12  C   UNL     1      -9.145   5.804 -29.682  1.00  0.00     0.081 C 
HETATM   13  C   UNL     1      -7.884   6.632 -29.897  1.00  0.00     0.131 C 
HETATM   14  O   UNL     1      -5.256   7.342 -29.408  1.00  0.00    -0.267 OA
ENDROOT
BRANCH   8  15
HETATM   15  C   UNL     1     -11.383   3.389 -33.111  1.00  0.00     0.243 C 
HETATM   16  N   UNL     1     -10.855   2.203 -32.659  1.00  0.00    -0.355 N 
HETATM   17  H   UNL     1     -10.733   2.079 -31.663  1.00  0.00     0.162 HD
HETATM   18  O   UNL     1     -11.666   3.577 -34.292  1.00  0.00    -0.271 OA
BRANCH  16  19
HETATM   19  C   UNL     1     -10.688   1.051 -33.509  1.00  0.00     0.161 C 
BRANCH  19  20
HETATM   20  C   UNL     1      -9.224   0.716 -33.621  1.00  0.00    -0.041 A 
HETATM   21  C   UNL     1      -8.592   0.705 -34.872  1.00  0.00     0.009 A 
HETATM   22  C   UNL     1      -7.254   0.323 -34.985  1.00  0.00     0.001 A 
HETATM   23  C   UNL     1      -6.540  -0.063 -33.852  1.00  0.00     0.000 A 
HETATM   24  C   UNL     1      -7.160  -0.061 -32.604  1.00  0.00     0.001 A 
HETATM   25  C   UNL     1      -8.496   0.327 -32.488  1.00  0.00     0.009 A 
ENDBRANCH  19  20
ENDBRANCH  16  19
ENDBRANCH   8  15
BRANCH  10  26
HETATM   26  C   UNL     1     -10.904   6.890 -33.726  1.00  0.00     0.032 A 
HETATM   27  C   UNL     1     -12.094   7.538 -33.395  1.00  0.00     0.020 A 
HETATM   28  C   UNL     1     -12.935   7.994 -34.414  1.00  0.00     0.038 A 
HETATM   29  C   UNL     1     -12.578   7.843 -35.760  1.00  0.00     0.068 A 
HETATM   30  C   UNL     1     -11.365   7.233 -36.083  1.00  0.00     0.038 A 
HETATM   31  C   UNL     1     -10.526   6.765 -35.068  1.00  0.00     0.020 A 
BRANCH  29  32
HETATM   32  O   UNL     1     -13.488   8.339 -36.652  1.00  0.00    -0.356 OA
HETATM   33  C   UNL     1     -14.026   7.424 -37.598  1.00  0.00     0.210 C 
ENDBRANCH  29  32
ENDBRANCH  10  26
BRANCH   1  34
HETATM   34  C   UNL     1      -4.361   6.116 -31.157  1.00  0.00     0.032 A 
HETATM   35  C   UNL     1      -3.999   6.906 -32.252  1.00  0.00     0.020 A 
HETATM   36  C   UNL     1      -2.915   6.529 -33.048  1.00  0.00     0.038 A 
HETATM   37  C   UNL     1      -2.159   5.397 -32.729  1.00  0.00     0.068 A 
HETATM   38  C   UNL     1      -2.508   4.625 -31.619  1.00  0.00     0.038 A 
HETATM   39  C   UNL     1      -3.605   4.987 -30.830  1.00  0.00     0.020 A 
BRANCH  37  40
HETATM   40  O   UNL     1      -1.117   5.147 -33.580  1.00  0.00    -0.356 OA
HETATM   41  C   UNL     1      -1.413   5.205 -34.971  1.00  0.00     0.210 C 
ENDBRANCH  37  40
ENDBRANCH   1  34
TORSDOF 7
ENDMDL
MODEL 7
REMARK VINA RESULT:      -8.2      2.532      4.213
REMARK  7 active torsions:
REMARK  status: ('A' for Active; 'I' for Inactive)
REMARK    1  A    between atoms: O_2  and  C_3 
REMARK    2  A    between atoms: C_6  and  C_7 
REMARK       I    between atoms: C_7  and  N_8 
REMARK    3  A    between atoms: C_14  and  C_15 
REMARK       I    between atoms: C_15  and  N_16 
REMARK    4  A    between atoms: N_16  and  C_17 
REMARK    5  A    between atoms: C_17  and  C_18 
REMARK       I    between atoms: N_25  and  C_26 
REMARK    6  A    between atoms: C_26  and  C_27 
REMARK    7  A    between atoms: C_30  and  O_31 
ROOT
HETATM    1  C   UNL     1     -11.020   2.145 -33.633  1.00  0.00     0.253 C 
HETATM    2  N   UNL     1      -9.915   2.279 -32.777  1.00  0.00    -0.348 N 
HETATM    3  C   UNL     1      -9.538   3.552 -32.168  1.00  0.00     0.131 C 
HETATM    4  C   UNL     1      -8.702   3.383 -30.918  1.00  0.00     0.081 C 
HETATM    5  C   UNL     1      -7.496   2.456 -31.091  1.00  0.00     0.142 C 
HETATM    6  O   UNL     1      -7.108   2.136 -29.718  1.00  0.00    -0.358 OA
HETATM    7  C   UNL     1      -5.686   2.249 -29.596  1.00  0.00     0.206 C 
HETATM    8  C   UNL     1      -5.290   3.275 -30.627  1.00  0.00     0.206 C 
HETATM    9  N   UNL     1      -6.290   3.067 -31.673  1.00  0.00    -0.300 N 
HETATM   10  C   UNL     1      -6.139   3.416 -33.002  1.00  0.00     0.257 C 
HETATM   11  O   UNL     1      -7.040   3.372 -33.832  1.00  0.00    -0.267 OA
HETATM   12  C   UNL     1      -7.934   1.128 -31.722  1.00  0.00     0.081 C 
HETATM   13  C   UNL     1      -8.878   1.257 -32.913  1.00  0.00     0.131 C 
HETATM   14  O   UNL     1     -11.332   1.085 -34.175  1.00  0.00    -0.267 OA
ENDROOT
BRANCH   8  15
HETATM   15  C   UNL     1      -5.292   4.686 -30.001  1.00  0.00     0.243 C 
HETATM   16  N   UNL     1      -4.127   5.396 -30.163  1.00  0.00    -0.355 N 
HETATM   17  H   UNL     1      -3.429   5.040 -30.802  1.00  0.00     0.162 HD
HETATM   18  O   UNL     1      -6.233   5.105 -29.332  1.00  0.00    -0.271 OA
BRANCH  16  19
HETATM   19  C   UNL     1      -3.952   6.733 -29.651  1.00  0.00     0.161 C 
BRANCH  19  20
HETATM   20  C   UNL     1      -2.483   7.057 -29.582  1.00  0.00    -0.041 A 
HETATM   21  C   UNL     1      -1.571   6.403 -30.420  1.00  0.00     0.009 A 
HETATM   22  C   UNL     1      -0.201   6.648 -30.304  1.00  0.00     0.001 A 
HETATM   23  C   UNL     1       0.268   7.542 -29.343  1.00  0.00     0.000 A 
HETATM   24  C   UNL     1      -0.630   8.194 -28.501  1.00  0.00     0.001 A 
HETATM   25  C   UNL     1      -1.999   7.955 -28.619  1.00  0.00     0.009 A 
ENDBRANCH  19  20
ENDBRANCH  16  19
ENDBRANCH   8  15
BRANCH  10  26
HETATM   26  C   UNL     1      -4.850   3.959 -33.486  1.00  0.00     0.032 A 
HETATM   27  C   UNL     1      -4.790   5.040 -34.366  1.00  0.00     0.020 A 
HETATM   28  C   UNL     1      -3.544   5.530 -34.767  1.00  0.00     0.038 A 
HETATM   29  C   UNL     1      -2.360   4.975 -34.267  1.00  0.00     0.068 A 
HETATM   30  C   UNL     1      -2.429   3.923 -33.353  1.00  0.00     0.038 A 
HETATM   31  C   UNL     1      -3.672   3.421 -32.957  1.00  0.00     0.020 A 
BRANCH  29  32
HETATM   32  O   UNL     1      -1.214   5.554 -34.738  1.00  0.00    -0.356 OA
HETATM   33  C   UNL     1      -0.762   6.725 -34.070  1.00  0.00     0.210 C 
ENDBRANCH  29  32
ENDBRANCH  10  26
BRANCH   1  34
HETATM   34  C   UNL     1     -11.881   3.319 -33.910  1.00  0.00     0.032 A 
HETATM   35  C   UNL     1     -12.843   3.741 -32.988  1.00  0.00     0.020 A 
HETATM   36  C   UNL     1     -13.621   4.866 -33.267  1.00  0.00     0.038 A 
HETATM   37  C   UNL     1     -13.412   5.602 -34.437  1.00  0.00     0.068 A 
HETATM   38  C   UNL     1     -12.432   5.192 -35.344  1.00  0.00     0.038 A 
HETATM   39  C   UNL     1     -11.662   4.054 -35.078  1.00  0.00     0.020 A 
BRANCH  37  40
HETATM   40  O   UNL     1     -14.230   6.689 -34.584  1.00  0.00    -0.356 OA
HETATM   41  C   UNL     1     -14.649   7.327 -33.382  1.00  0.00     0.210 C 
ENDBRANCH  37  40
ENDBRANCH   1  34
TORSDOF 7
ENDMDL
MODEL 8
REMARK VINA RESULT:      -8.2      4.114      8.270
REMARK  7 active torsions:
REMARK  status: ('A' for Active; 'I' for Inactive)
REMARK    1  A    between atoms: O_2  and  C_3 
REMARK    2  A    between atoms: C_6  and  C_7 
REMARK       I    between atoms: C_7  and  N_8 
REMARK    3  A    between atoms: C_14  and  C_15 
REMARK       I    between atoms: C_15  and  N_16 
REMARK    4  A    between atoms: N_16  and  C_17 
REMARK    5  A    between atoms: C_17  and  C_18 
REMARK       I    between atoms: N_25  and  C_26 
REMARK    6  A    between atoms: C_26  and  C_27 
REMARK    7  A    between atoms: C_30  and  O_31 
ROOT
HETATM    1  C   UNL     1      -7.895   2.913 -30.854  1.00  0.00     0.253 C 
HETATM    2  N   UNL     1      -7.478   4.254 -30.815  1.00  0.00    -0.348 N 
HETATM    3  C   UNL     1      -6.123   4.670 -31.165  1.00  0.00     0.131 C 
HETATM    4  C   UNL     1      -6.037   6.125 -31.569  1.00  0.00     0.081 C 
HETATM    5  C   UNL     1      -6.691   7.090 -30.576  1.00  0.00     0.142 C 
HETATM    6  O   UNL     1      -6.843   8.324 -31.345  1.00  0.00    -0.358 OA
HETATM    7  C   UNL     1      -6.418   9.431 -30.541  1.00  0.00     0.206 C 
HETATM    8  C   UNL     1      -5.390   8.855 -29.603  1.00  0.00     0.206 C 
HETATM    9  N   UNL     1      -5.865   7.484 -29.422  1.00  0.00    -0.300 N 
HETATM   10  C   UNL     1      -5.565   6.671 -28.345  1.00  0.00     0.257 C 
HETATM   11  O   UNL     1      -5.849   5.480 -28.282  1.00  0.00    -0.267 OA
HETATM   12  C   UNL     1      -8.114   6.626 -30.243  1.00  0.00     0.081 C 
HETATM   13  C   UNL     1      -8.258   5.137 -29.949  1.00  0.00     0.131 C 
HETATM   14  O   UNL     1      -9.026   2.546 -30.535  1.00  0.00    -0.267 OA
ENDROOT
BRANCH   8  15
HETATM   15  C   UNL     1      -3.980   8.974 -30.220  1.00  0.00     0.243 C 
HETATM   16  N   UNL     1      -2.956   9.112 -29.315  1.00  0.00    -0.355 N 
HETATM   17  H   UNL     1      -3.156   8.961 -28.335  1.00  0.00     0.162 HD
HETATM   18  O   UNL     1      -3.799   9.030 -31.435  1.00  0.00    -0.271 OA
BRANCH  16  19
HETATM   19  C   UNL     1      -1.575   9.230 -29.711  1.00  0.00     0.161 C 
BRANCH  19  20
HETATM   20  C   UNL     1      -0.833   7.977 -29.327  1.00  0.00    -0.041 A 
HETATM   21  C   UNL     1      -0.022   7.954 -28.184  1.00  0.00     0.009 A 
HETATM   22  C   UNL     1       0.725   6.818 -27.870  1.00  0.00     0.001 A 
HETATM   23  C   UNL     1       0.677   5.699 -28.700  1.00  0.00     0.000 A 
HETATM   24  C   UNL     1      -0.121   5.713 -29.842  1.00  0.00     0.001 A 
HETATM   25  C   UNL     1      -0.874   6.846 -30.155  1.00  0.00     0.009 A 
ENDBRANCH  19  20
ENDBRANCH  16  19
ENDBRANCH   8  15
BRANCH  10  26
HETATM   26  C   UNL     1      -4.784   7.203 -27.207  1.00  0.00     0.032 A 
HETATM   27  C   UNL     1      -5.319   8.137 -26.319  1.00  0.00     0.020 A 
HETATM   28  C   UNL     1      -4.545   8.584 -25.245  1.00  0.00     0.038 A 
HETATM   29  C   UNL     1      -3.258   8.077 -25.028  1.00  0.00     0.068 A 
HETATM   30  C   UNL     1      -2.747   7.111 -25.895  1.00  0.00     0.038 A 
HETATM   31  C   UNL     1      -3.512   6.668 -26.977  1.00  0.00     0.020 A 
BRANCH  29  32
HETATM   32  O   UNL     1      -2.615   8.596 -23.938  1.00  0.00    -0.356 OA
HETATM   33  C   UNL     1      -1.573   9.531 -24.190  1.00  0.00     0.210 C 
ENDBRANCH  29  32
ENDBRANCH  10  26
BRANCH   1  34
HETATM   34  C   UNL     1      -6.952   1.864 -31.307  1.00  0.00     0.032 A 
HETATM   35  C   UNL     1      -6.275   1.057 -30.388  1.00  0.00     0.020 A 
HETATM   36  C   UNL     1      -5.412   0.060 -30.848  1.00  0.00     0.038 A 
HETATM   37  C   UNL     1      -5.258  -0.170 -32.218  1.00  0.00     0.068 A 
HETATM   38  C   UNL     1      -5.957   0.621 -33.133  1.00  0.00     0.038 A 
HETATM   39  C   UNL     1      -6.808   1.634 -32.678  1.00  0.00     0.020 A 
BRANCH  37  40
HETATM   40  O   UNL     1      -4.395  -1.184 -32.535  1.00  0.00    -0.356 OA
HETATM   41  C   UNL     1      -4.615  -1.828 -33.786  1.00  0.00     0.210 C 
ENDBRANCH  37  40
ENDBRANCH   1  34
TORSDOF 7
ENDMDL
MODEL 9
REMARK VINA RESULT:      -8.2      3.687      7.203
REMARK  7 active torsions:
REMARK  status: ('A' for Active; 'I' for Inactive)
REMARK    1  A    between atoms: O_2  and  C_3 
REMARK    2  A    between atoms: C_6  and  C_7 
REMARK       I    between atoms: C_7  and  N_8 
REMARK    3  A    between atoms: C_14  and  C_15 
REMARK       I    between atoms: C_15  and  N_16 
REMARK    4  A    between atoms: N_16  and  C_17 
REMARK    5  A    between atoms: C_17  and  C_18 
REMARK       I    between atoms: N_25  and  C_26 
REMARK    6  A    between atoms: C_26  and  C_27 
REMARK    7  A    between atoms: C_30  and  O_31 
ROOT
HETATM    1  C   UNL     1     -11.028   8.692 -29.888  1.00  0.00     0.253 C 
HETATM    2  N   UNL     1     -10.779   7.604 -30.741  1.00  0.00    -0.348 N 
HETATM    3  C   UNL     1     -10.498   6.260 -30.245  1.00  0.00     0.131 C 
HETATM    4  C   UNL     1     -10.788   5.181 -31.266  1.00  0.00     0.081 C 
HETATM    5  C   UNL     1     -10.151   5.428 -32.636  1.00  0.00     0.142 C 
HETATM    6  O   UNL     1     -10.878   4.521 -33.522  1.00  0.00    -0.358 OA
HETATM    7  C   UNL     1      -9.941   3.843 -34.368  1.00  0.00     0.206 C 
HETATM    8  C   UNL     1      -8.666   3.790 -33.568  1.00  0.00     0.206 C 
HETATM    9  N   UNL     1      -8.744   5.017 -32.776  1.00  0.00    -0.300 N 
HETATM   10  C   UNL     1      -7.664   5.677 -32.219  1.00  0.00     0.257 C 
HETATM   11  O   UNL     1      -7.760   6.616 -31.437  1.00  0.00    -0.267 OA
HETATM   12  C   UNL     1     -10.477   6.844 -33.126  1.00  0.00     0.081 C 
HETATM   13  C   UNL     1     -10.312   7.945 -32.085  1.00  0.00     0.131 C 
HETATM   14  O   UNL     1     -11.238   9.835 -30.292  1.00  0.00    -0.267 OA
ENDROOT
BRANCH   8  15
HETATM   15  C   UNL     1      -8.611   2.489 -32.740  1.00  0.00     0.243 C 
HETATM   16  N   UNL     1      -8.462   1.337 -33.475  1.00  0.00    -0.355 N 
HETATM   17  H   UNL     1      -8.234   1.417 -34.457  1.00  0.00     0.162 HD
HETATM   18  O   UNL     1      -8.777   2.479 -31.523  1.00  0.00    -0.271 OA
BRANCH  16  19
HETATM   19  C   UNL     1      -8.383   0.031 -32.868  1.00  0.00     0.161 C 
BRANCH  19  20
HETATM   20  C   UNL     1      -7.102  -0.642 -33.286  1.00  0.00    -0.041 A 
HETATM   21  C   UNL     1      -7.096  -1.566 -34.339  1.00  0.00     0.009 A 
HETATM   22  C   UNL     1      -5.925  -2.246 -34.677  1.00  0.00     0.001 A 
HETATM   23  C   UNL     1      -4.753  -2.015 -33.959  1.00  0.00     0.000 A 
HETATM   24  C   UNL     1      -4.749  -1.103 -32.906  1.00  0.00     0.001 A 
HETATM   25  C   UNL     1      -5.917  -0.418 -32.571  1.00  0.00     0.009 A 
ENDBRANCH  19  20
ENDBRANCH  16  19
ENDBRANCH   8  15
BRANCH  10  26
HETATM   26  C   UNL     1      -6.287   5.209 -32.490  1.00  0.00     0.032 A 
HETATM   27  C   UNL     1      -5.576   5.623 -33.617  1.00  0.00     0.020 A 
HETATM   28  C   UNL     1      -4.267   5.171 -33.808  1.00  0.00     0.038 A 
HETATM   29  C   UNL     1      -3.650   4.343 -32.863  1.00  0.00     0.068 A 
HETATM   30  C   UNL     1      -4.352   3.968 -31.717  1.00  0.00     0.038 A 
HETATM   31  C   UNL     1      -5.665   4.408 -31.526  1.00  0.00     0.020 A 
BRANCH  29  32
HETATM   32  O   UNL     1      -2.368   3.981 -33.172  1.00  0.00    -0.356 OA
HETATM   33  C   UNL     1      -1.369   4.987 -33.058  1.00  0.00     0.210 C 
ENDBRANCH  29  32
ENDBRANCH  10  26
BRANCH   1  34
HETATM   34  C   UNL     1     -11.056   8.483 -28.421  1.00  0.00     0.032 A 
HETATM   35  C   UNL     1      -9.876   8.478 -27.671  1.00  0.00     0.020 A 
HETATM   36  C   UNL     1      -9.938   8.303 -26.287  1.00  0.00     0.038 A 
HETATM   37  C   UNL     1     -11.172   8.184 -25.640  1.00  0.00     0.068 A 
HETATM   38  C   UNL     1     -12.349   8.216 -26.390  1.00  0.00     0.038 A 
HETATM   39  C   UNL     1     -12.292   8.371 -27.780  1.00  0.00     0.020 A 
BRANCH  37  40
HETATM   40  O   UNL     1     -11.094   8.033 -24.282  1.00  0.00    -0.356 OA
HETATM   41  C   UNL     1     -12.100   8.690 -23.519  1.00  0.00     0.210 C 
ENDBRANCH  37  40
ENDBRANCH   1  34
TORSDOF 7
ENDMDL
MODEL 10
REMARK VINA RESULT:      -8.2      3.032      4.625
REMARK  7 active torsions:
REMARK  status: ('A' for Active; 'I' for Inactive)
REMARK    1  A    between atoms: O_2  and  C_3 
REMARK    2  A    between atoms: C_6  and  C_7 
REMARK       I    between atoms: C_7  and  N_8 
REMARK    3  A    between atoms: C_14  and  C_15 
REMARK       I    between atoms: C_15  and  N_16 
REMARK    4  A    between atoms: N_16  and  C_17 
REMARK    5  A    between atoms: C_17  and  C_18 
REMARK       I    between atoms: N_25  and  C_26 
REMARK    6  A    between atoms: C_26  and  C_27 
REMARK    7  A    between atoms: C_30  and  O_31 
ROOT
HETATM    1  C   UNL     1     -10.922   4.704 -35.106  1.00  0.00     0.253 C 
HETATM    2  N   UNL     1     -10.138   4.409 -33.979  1.00  0.00    -0.348 N 
HETATM    3  C   UNL     1      -9.725   5.427 -33.017  1.00  0.00     0.131 C 
HETATM    4  C   UNL     1      -9.374   4.850 -31.663  1.00  0.00     0.081 C 
HETATM    5  C   UNL     1      -8.386   3.682 -31.716  1.00  0.00     0.142 C 
HETATM    6  O   UNL     1      -8.519   3.057 -30.401  1.00  0.00    -0.358 OA
HETATM    7  C   UNL     1      -7.214   2.778 -29.882  1.00  0.00     0.206 C 
HETATM    8  C   UNL     1      -6.320   3.817 -30.506  1.00  0.00     0.206 C 
HETATM    9  N   UNL     1      -6.961   4.046 -31.799  1.00  0.00    -0.300 N 
HETATM   10  C   UNL     1      -6.334   4.552 -32.923  1.00  0.00     0.257 C 
HETATM   11  O   UNL     1      -6.920   4.876 -33.950  1.00  0.00    -0.267 OA
HETATM   12  C   UNL     1      -8.859   2.632 -32.729  1.00  0.00     0.081 C 
HETATM   13  C   UNL     1      -9.337   3.189 -34.065  1.00  0.00     0.131 C 
HETATM   14  O   UNL     1     -11.254   3.862 -35.940  1.00  0.00    -0.267 OA
ENDROOT
BRANCH   8  15
HETATM   15  C   UNL     1      -6.235   5.062 -29.597  1.00  0.00     0.243 C 
HETATM   16  N   UNL     1      -4.962   5.442 -29.246  1.00  0.00    -0.355 N 
HETATM   17  H   UNL     1      -4.181   5.010 -29.721  1.00  0.00     0.162 HD
HETATM   18  O   UNL     1      -7.237   5.615 -29.149  1.00  0.00    -0.271 OA
BRANCH  16  19
HETATM   19  C   UNL     1      -4.694   6.585 -28.409  1.00  0.00     0.161 C 
BRANCH  19  20
HETATM   20  C   UNL     1      -3.898   7.602 -29.184  1.00  0.00    -0.041 A 
HETATM   21  C   UNL     1      -4.548   8.563 -29.970  1.00  0.00     0.009 A 
HETATM   22  C   UNL     1      -3.810   9.457 -30.748  1.00  0.00     0.001 A 
HETATM   23  C   UNL     1      -2.418   9.391 -30.755  1.00  0.00     0.000 A 
HETATM   24  C   UNL     1      -1.761   8.436 -29.981  1.00  0.00     0.001 A 
HETATM   25  C   UNL     1      -2.497   7.545 -29.198  1.00  0.00     0.009 A 
ENDBRANCH  19  20
ENDBRANCH  16  19
ENDBRANCH   8  15
BRANCH  10  26
HETATM   26  C   UNL     1      -4.878   4.813 -32.907  1.00  0.00     0.032 A 
HETATM   27  C   UNL     1      -4.362   6.101 -32.765  1.00  0.00     0.020 A 
HETATM   28  C   UNL     1      -2.978   6.286 -32.728  1.00  0.00     0.038 A 
HETATM   29  C   UNL     1      -2.106   5.192 -32.793  1.00  0.00     0.068 A 
HETATM   30  C   UNL     1      -2.630   3.903 -32.891  1.00  0.00     0.038 A 
HETATM   31  C   UNL     1      -4.014   3.713 -32.940  1.00  0.00     0.020 A 
BRANCH  29  32
HETATM   32  O   UNL     1      -0.778   5.516 -32.740  1.00  0.00    -0.356 OA
HETATM   33  C   UNL     1      -0.132   5.379 -31.481  1.00  0.00     0.210 C 
ENDBRANCH  29  32
ENDBRANCH  10  26
BRANCH   1  34
HETATM   34  C   UNL     1     -11.401   6.090 -35.326  1.00  0.00     0.032 A 
HETATM   35  C   UNL     1     -10.580   7.049 -35.926  1.00  0.00     0.020 A 
HETATM   36  C   UNL     1     -11.068   8.339 -36.142  1.00  0.00     0.038 A 
HETATM   37  C   UNL     1     -12.387   8.665 -35.808  1.00  0.00     0.068 A 
HETATM   38  C   UNL     1     -13.212   7.696 -35.233  1.00  0.00     0.038 A 
HETATM   39  C   UNL     1     -12.721   6.407 -34.997  1.00  0.00     0.020 A 
BRANCH  37  40
HETATM   40  O   UNL     1     -12.744   9.957 -36.084  1.00  0.00    -0.356 OA
HETATM   41  C   UNL     1     -11.722  10.792 -36.617  1.00  0.00     0.210 C 
ENDBRANCH  37  40
ENDBRANCH   1  34
TORSDOF 7
ENDMDL
