MODEL 1
REMARK VINA RESULT:      -9.8      0.000      0.000
REMARK  4 active torsions:
REMARK  status: ('A' for Active; 'I' for Inactive)
REMARK    1  A    between atoms: N_7  and  C_8 
REMARK    2  A    between atoms: C_14  and  C_15 
REMARK    3  A    between atoms: C_15  and  N_16 
REMARK       I    between atoms: N_16  and  C_17 
REMARK       I    between atoms: C_17  and  N_18 
REMARK    4  A    between atoms: N_18  and  C_19 
ROOT
HETATM    1  C   UNL     1      -4.219   1.031 -31.528  1.00  0.00     0.186 C 
ENDROOT
BRANCH   1   2
HETATM    2  C   UNL     1      -5.610   0.751 -32.089  1.00  0.00     0.084 C 
HETATM    3  C   UNL     1      -5.776  -0.417 -32.981  1.00  0.00     0.008 A 
HETATM    4  C   UNL     1      -4.708  -1.229 -33.388  1.00  0.00     0.014 A 
HETATM    5  C   UNL     1      -7.063  -0.701 -33.420  1.00  0.00     0.046 A 
HETATM    6  C   UNL     1      -4.940  -2.327 -34.221  1.00  0.00     0.001 A 
HETATM    7  C   UNL     1      -6.234  -2.617 -34.650  1.00  0.00     0.001 A 
HETATM    8  C   UNL     1      -7.296  -1.806 -34.252  1.00  0.00     0.018 A 
HETATM    9  C   UNL     1      -8.177   0.173 -33.020  1.00  0.00     0.275 C 
HETATM   10  O   UNL     1      -9.320  -0.123 -33.362  1.00  0.00    -0.266 OA
HETATM   11  N   UNL     1      -7.846   1.312 -32.284  1.00  0.00    -0.229 N 
HETATM   12  N   UNL     1      -6.585   1.557 -31.784  1.00  0.00    -0.171 NA
BRANCH  11  13
HETATM   13  C   UNL     1      -8.920   2.196 -31.836  1.00  0.00     0.114 C 
HETATM   14  C   UNL     1      -8.609   2.869 -30.497  1.00  0.00     0.027 C 
HETATM   15  C   UNL     1      -9.568   4.045 -30.479  1.00  0.00     0.002 C 
HETATM   16  C   UNL     1      -9.506   4.574 -31.905  1.00  0.00     0.002 C 
HETATM   17  C   UNL     1      -9.266   3.350 -32.791  1.00  0.00     0.027 C 
ENDBRANCH  11  13
ENDBRANCH   1   2
BRANCH   1  18
HETATM   18  N   UNL     1      -4.113   2.336 -30.915  1.00  0.00    -0.337 N 
HETATM   19  C   UNL     1      -3.294   3.271 -31.491  1.00  0.00     0.317 C 
HETATM   20  N   UNL     1      -3.378   4.477 -30.849  1.00  0.00    -0.334 N 
HETATM   21  O   UNL     1      -2.578   3.025 -32.451  1.00  0.00    -0.247 OA
HETATM   22  H   UNL     1      -3.656   4.393 -29.883  1.00  0.00     0.165 HD
HETATM   23  H   UNL     1      -4.934   2.665 -30.422  1.00  0.00     0.164 HD
BRANCH  20  24
HETATM   24  C   UNL     1      -2.531   5.633 -31.179  1.00  0.00     0.035 C 
HETATM   25  C   UNL     1      -2.979   6.334 -32.489  1.00  0.00     0.035 C 
HETATM   26  C   UNL     1      -2.095   7.562 -32.778  1.00  0.00    -0.012 C 
HETATM   27  C   UNL     1      -0.630   7.111 -32.905  1.00  0.00     0.009 C 
HETATM   28  C   UNL     1      -2.221   8.562 -31.620  1.00  0.00     0.009 C 
HETATM   29  C   UNL     1      -0.163   6.451 -31.597  1.00  0.00    -0.012 C 
HETATM   30  C   UNL     1      -1.043   5.222 -31.307  1.00  0.00     0.035 C 
HETATM   31  C   UNL     1      -0.303   7.458 -30.443  1.00  0.00     0.009 C 
HETATM   32  C   UNL     1      -1.768   7.903 -30.308  1.00  0.00    -0.012 C 
HETATM   33  C   UNL     1      -2.647   6.671 -30.031  1.00  0.00     0.035 C 
ENDBRANCH  20  24
ENDBRANCH   1  18
TORSDOF 4
ENDMDL
MODEL 2
REMARK VINA RESULT:      -9.8      1.620      2.329
REMARK  4 active torsions:
REMARK  status: ('A' for Active; 'I' for Inactive)
REMARK    1  A    between atoms: N_7  and  C_8 
REMARK    2  A    between atoms: C_14  and  C_15 
REMARK    3  A    between atoms: C_15  and  N_16 
REMARK       I    between atoms: N_16  and  C_17 
REMARK       I    between atoms: C_17  and  N_18 
REMARK    4  A    between atoms: N_18  and  C_19 
ROOT
HETATM    1  C   UNL     1      -5.603   1.511 -30.450  1.00  0.00     0.186 C 
ENDROOT
BRANCH   1   2
HETATM    2  C   UNL     1      -6.038   0.672 -31.648  1.00  0.00     0.084 C 
HETATM    3  C   UNL     1      -5.150  -0.427 -32.084  1.00  0.00     0.008 A 
HETATM    4  C   UNL     1      -3.902  -0.683 -31.497  1.00  0.00     0.014 A 
HETATM    5  C   UNL     1      -5.598  -1.229 -33.126  1.00  0.00     0.046 A 
HETATM    6  C   UNL     1      -3.121  -1.749 -31.951  1.00  0.00     0.001 A 
HETATM    7  C   UNL     1      -3.578  -2.560 -32.988  1.00  0.00     0.001 A 
HETATM    8  C   UNL     1      -4.815  -2.301 -33.578  1.00  0.00     0.018 A 
HETATM    9  C   UNL     1      -6.892  -0.936 -33.764  1.00  0.00     0.275 C 
HETATM   10  O   UNL     1      -7.307  -1.689 -34.642  1.00  0.00    -0.266 OA
HETATM   11  N   UNL     1      -7.557   0.212 -33.331  1.00  0.00    -0.229 N 
HETATM   12  N   UNL     1      -7.154   0.965 -32.250  1.00  0.00    -0.171 NA
BRANCH  11  13
HETATM   13  C   UNL     1      -8.861   0.529 -33.912  1.00  0.00     0.114 C 
HETATM   14  C   UNL     1     -10.022   0.150 -32.991  1.00  0.00     0.027 C 
HETATM   15  C   UNL     1     -11.171   0.977 -33.540  1.00  0.00     0.002 C 
HETATM   16  C   UNL     1     -10.528   2.323 -33.839  1.00  0.00     0.002 C 
HETATM   17  C   UNL     1      -9.088   2.011 -34.251  1.00  0.00     0.027 C 
ENDBRANCH  11  13
ENDBRANCH   1   2
BRANCH   1  18
HETATM   18  N   UNL     1      -5.450   2.912 -30.773  1.00  0.00    -0.337 N 
HETATM   19  C   UNL     1      -4.209   3.378 -31.118  1.00  0.00     0.317 C 
HETATM   20  N   UNL     1      -4.250   4.696 -31.486  1.00  0.00    -0.334 N 
HETATM   21  O   UNL     1      -3.204   2.682 -31.080  1.00  0.00    -0.247 OA
HETATM   22  H   UNL     1      -5.019   5.199 -31.068  1.00  0.00     0.165 HD
HETATM   23  H   UNL     1      -6.256   3.366 -31.183  1.00  0.00     0.164 HD
BRANCH  20  24
HETATM   24  C   UNL     1      -3.052   5.489 -31.800  1.00  0.00     0.035 C 
HETATM   25  C   UNL     1      -1.928   4.629 -32.436  1.00  0.00     0.035 C 
HETATM   26  C   UNL     1      -0.709   5.502 -32.787  1.00  0.00    -0.012 C 
HETATM   27  C   UNL     1      -0.186   6.178 -31.509  1.00  0.00     0.009 C 
HETATM   28  C   UNL     1      -1.131   6.580 -33.796  1.00  0.00     0.009 C 
HETATM   29  C   UNL     1      -1.280   7.066 -30.892  1.00  0.00    -0.012 C 
HETATM   30  C   UNL     1      -2.498   6.195 -30.537  1.00  0.00     0.035 C 
HETATM   31  C   UNL     1      -1.701   8.134 -31.914  1.00  0.00     0.009 C 
HETATM   32  C   UNL     1      -2.234   7.462 -33.190  1.00  0.00    -0.012 C 
HETATM   33  C   UNL     1      -3.444   6.582 -32.830  1.00  0.00     0.035 C 
ENDBRANCH  20  24
ENDBRANCH   1  18
TORSDOF 4
ENDMDL
MODEL 3
REMARK VINA RESULT:      -9.8      0.486      1.393
REMARK  4 active torsions:
REMARK  status: ('A' for Active; 'I' for Inactive)
REMARK    1  A    between atoms: N_7  and  C_8 
REMARK    2  A    between atoms: C_14  and  C_15 
REMARK    3  A    between atoms: C_15  and  N_16 
REMARK       I    between atoms: N_16  and  C_17 
REMARK       I    between atoms: C_17  and  N_18 
REMARK    4  A    between atoms: N_18  and  C_19 
ROOT
HETATM    1  C   UNL     1      -3.843   1.071 -32.066  1.00  0.00     0.186 C 
ENDROOT
BRANCH   1   2
HETATM    2  C   UNL     1      -5.258   0.786 -32.558  1.00  0.00     0.084 C 
HETATM    3  C   UNL     1      -5.493  -0.471 -33.302  1.00  0.00     0.008 A 
HETATM    4  C   UNL     1      -4.468  -1.367 -33.636  1.00  0.00     0.014 A 
HETATM    5  C   UNL     1      -6.801  -0.752 -33.676  1.00  0.00     0.046 A 
HETATM    6  C   UNL     1      -4.764  -2.545 -34.328  1.00  0.00     0.001 A 
HETATM    7  C   UNL     1      -6.079  -2.830 -34.691  1.00  0.00     0.001 A 
HETATM    8  C   UNL     1      -7.099  -1.935 -34.367  1.00  0.00     0.018 A 
HETATM    9  C   UNL     1      -7.870   0.208 -33.356  1.00  0.00     0.275 C 
HETATM   10  O   UNL     1      -9.032  -0.080 -33.636  1.00  0.00    -0.266 OA
HETATM   11  N   UNL     1      -7.476   1.410 -32.767  1.00  0.00    -0.229 N 
HETATM   12  N   UNL     1      -6.194   1.660 -32.327  1.00  0.00    -0.171 NA
BRANCH  11  13
HETATM   13  C   UNL     1      -8.504   2.384 -32.401  1.00  0.00     0.114 C 
HETATM   14  C   UNL     1      -8.767   2.423 -30.894  1.00  0.00     0.027 C 
HETATM   15  C   UNL     1      -9.453   3.764 -30.707  1.00  0.00     0.002 C 
HETATM   16  C   UNL     1      -8.659   4.697 -31.609  1.00  0.00     0.002 C 
HETATM   17  C   UNL     1      -8.201   3.840 -32.791  1.00  0.00     0.027 C 
ENDBRANCH  11  13
ENDBRANCH   1   2
BRANCH   1  18
HETATM   18  N   UNL     1      -3.764   2.262 -31.248  1.00  0.00    -0.337 N 
HETATM   19  C   UNL     1      -3.054   3.337 -31.716  1.00  0.00     0.317 C 
HETATM   20  N   UNL     1      -3.155   4.411 -30.874  1.00  0.00    -0.334 N 
HETATM   21  O   UNL     1      -2.411   3.306 -32.755  1.00  0.00    -0.247 OA
HETATM   22  H   UNL     1      -3.344   4.148 -29.918  1.00  0.00     0.165 HD
HETATM   23  H   UNL     1      -4.557   2.444 -30.646  1.00  0.00     0.164 HD
BRANCH  20  24
HETATM   24  C   UNL     1      -2.411   5.665 -31.065  1.00  0.00     0.035 C 
HETATM   25  C   UNL     1      -2.702   6.697 -29.943  1.00  0.00     0.035 C 
HETATM   26  C   UNL     1      -1.875   7.978 -30.156  1.00  0.00    -0.012 C 
HETATM   27  C   UNL     1      -2.227   8.586 -31.525  1.00  0.00     0.009 C 
HETATM   28  C   UNL     1      -0.380   7.628 -30.125  1.00  0.00     0.009 C 
HETATM   29  C   UNL     1      -1.904   7.585 -32.647  1.00  0.00    -0.012 C 
HETATM   30  C   UNL     1      -2.732   6.305 -32.438  1.00  0.00     0.035 C 
HETATM   31  C   UNL     1      -0.408   7.235 -32.600  1.00  0.00     0.009 C 
HETATM   32  C   UNL     1      -0.055   6.619 -31.237  1.00  0.00    -0.012 C 
HETATM   33  C   UNL     1      -0.892   5.346 -31.025  1.00  0.00     0.035 C 
ENDBRANCH  20  24
ENDBRANCH   1  18
TORSDOF 4
ENDMDL
MODEL 4
REMARK VINA RESULT:      -9.5      3.211      7.345
REMARK  4 active torsions:
REMARK  status: ('A' for Active; 'I' for Inactive)
REMARK    1  A    between atoms: N_7  and  C_8 
REMARK    2  A    between atoms: C_14  and  C_15 
REMARK    3  A    between atoms: C_15  and  N_16 
REMARK       I    between atoms: N_16  and  C_17 
REMARK       I    between atoms: C_17  and  N_18 
REMARK    4  A    between atoms: N_18  and  C_19 
ROOT
HETATM    1  C   UNL     1      -7.458  -0.745 -34.930  1.00  0.00     0.186 C 
ENDROOT
BRANCH   1   2
HETATM    2  C   UNL     1      -6.232  -0.981 -34.053  1.00  0.00     0.084 C 
HETATM    3  C   UNL     1      -5.584  -2.309 -34.112  1.00  0.00     0.008 A 
HETATM    4  C   UNL     1      -6.085  -3.374 -34.874  1.00  0.00     0.014 A 
HETATM    5  C   UNL     1      -4.424  -2.483 -33.366  1.00  0.00     0.046 A 
HETATM    6  C   UNL     1      -5.411  -4.599 -34.894  1.00  0.00     0.001 A 
HETATM    7  C   UNL     1      -4.242  -4.766 -34.156  1.00  0.00     0.001 A 
HETATM    8  C   UNL     1      -3.747  -3.711 -33.390  1.00  0.00     0.018 A 
HETATM    9  C   UNL     1      -3.920  -1.375 -32.538  1.00  0.00     0.275 C 
HETATM   10  O   UNL     1      -2.860  -1.518 -31.933  1.00  0.00    -0.266 OA
HETATM   11  N   UNL     1      -4.711  -0.226 -32.482  1.00  0.00    -0.229 N 
HETATM   12  N   UNL     1      -5.818  -0.022 -33.277  1.00  0.00    -0.171 NA
BRANCH  11  13
HETATM   13  C   UNL     1      -4.238   0.914 -31.698  1.00  0.00     0.114 C 
HETATM   14  C   UNL     1      -3.984   2.154 -32.559  1.00  0.00     0.027 C 
HETATM   15  C   UNL     1      -3.988   3.279 -31.539  1.00  0.00     0.002 C 
HETATM   16  C   UNL     1      -5.146   2.918 -30.619  1.00  0.00     0.002 C 
HETATM   17  C   UNL     1      -5.187   1.388 -30.586  1.00  0.00     0.027 C 
ENDBRANCH  11  13
ENDBRANCH   1   2
BRANCH   1  18
HETATM   18  N   UNL     1      -7.797   0.656 -35.053  1.00  0.00    -0.337 N 
HETATM   19  C   UNL     1      -8.949   1.109 -34.465  1.00  0.00     0.317 C 
HETATM   20  N   UNL     1      -9.078   2.466 -34.590  1.00  0.00    -0.334 N 
HETATM   21  O   UNL     1      -9.751   0.367 -33.916  1.00  0.00    -0.247 OA
HETATM   22  H   UNL     1      -8.590   2.838 -35.392  1.00  0.00     0.165 HD
HETATM   23  H   UNL     1      -7.019   1.299 -35.127  1.00  0.00     0.164 HD
BRANCH  20  24
HETATM   24  C   UNL     1     -10.266   3.213 -34.152  1.00  0.00     0.035 C 
HETATM   25  C   UNL     1     -10.440   3.189 -32.611  1.00  0.00     0.035 C 
HETATM   26  C   UNL     1     -11.670   4.015 -32.190  1.00  0.00    -0.012 C 
HETATM   27  C   UNL     1     -12.924   3.432 -32.862  1.00  0.00     0.009 C 
HETATM   28  C   UNL     1     -11.481   5.471 -32.639  1.00  0.00     0.009 C 
HETATM   29  C   UNL     1     -12.779   3.489 -34.393  1.00  0.00    -0.012 C 
HETATM   30  C   UNL     1     -11.552   2.662 -34.816  1.00  0.00     0.035 C 
HETATM   31  C   UNL     1     -12.581   4.950 -34.830  1.00  0.00     0.009 C 
HETATM   32  C   UNL     1     -11.323   5.531 -34.166  1.00  0.00    -0.012 C 
HETATM   33  C   UNL     1     -10.100   4.696 -34.581  1.00  0.00     0.035 C 
ENDBRANCH  20  24
ENDBRANCH   1  18
TORSDOF 4
ENDMDL
MODEL 5
REMARK VINA RESULT:      -9.2      1.217      4.083
REMARK  4 active torsions:
REMARK  status: ('A' for Active; 'I' for Inactive)
REMARK    1  A    between atoms: N_7  and  C_8 
REMARK    2  A    between atoms: C_14  and  C_15 
REMARK    3  A    between atoms: C_15  and  N_16 
REMARK       I    between atoms: N_16  and  C_17 
REMARK       I    between atoms: C_17  and  N_18 
REMARK    4  A    between atoms: N_18  and  C_19 
ROOT
HETATM    1  C   UNL     1      -5.677   1.306 -30.194  1.00  0.00     0.186 C 
ENDROOT
BRANCH   1   2
HETATM    2  C   UNL     1      -6.481   0.973 -31.447  1.00  0.00     0.084 C 
HETATM    3  C   UNL     1      -7.767   1.673 -31.651  1.00  0.00     0.008 A 
HETATM    4  C   UNL     1      -8.311   2.567 -30.718  1.00  0.00     0.014 A 
HETATM    5  C   UNL     1      -8.448   1.415 -32.834  1.00  0.00     0.046 A 
HETATM    6  C   UNL     1      -9.525   3.206 -30.984  1.00  0.00     0.001 A 
HETATM    7  C   UNL     1     -10.200   2.955 -32.177  1.00  0.00     0.001 A 
HETATM    8  C   UNL     1      -9.665   2.060 -33.103  1.00  0.00     0.018 A 
HETATM    9  C   UNL     1      -7.894   0.449 -33.796  1.00  0.00     0.275 C 
HETATM   10  O   UNL     1      -8.473   0.276 -34.867  1.00  0.00    -0.266 OA
HETATM   11  N   UNL     1      -6.740  -0.231 -33.405  1.00  0.00    -0.229 N 
HETATM   12  N   UNL     1      -6.021   0.076 -32.270  1.00  0.00    -0.171 NA
BRANCH  11  13
HETATM   13  C   UNL     1      -6.132  -1.178 -34.339  1.00  0.00     0.114 C 
HETATM   14  C   UNL     1      -4.757  -1.663 -33.873  1.00  0.00     0.027 C 
HETATM   15  C   UNL     1      -4.556  -2.932 -34.682  1.00  0.00     0.002 C 
HETATM   16  C   UNL     1      -5.922  -3.601 -34.637  1.00  0.00     0.002 C 
HETATM   17  C   UNL     1      -6.941  -2.460 -34.597  1.00  0.00     0.027 C 
ENDBRANCH  11  13
ENDBRANCH   1   2
BRANCH   1  18
HETATM   18  N   UNL     1      -5.332   2.707 -30.106  1.00  0.00    -0.337 N 
HETATM   19  C   UNL     1      -4.327   3.190 -30.903  1.00  0.00     0.317 C 
HETATM   20  N   UNL     1      -4.187   4.546 -30.771  1.00  0.00    -0.334 N 
HETATM   21  O   UNL     1      -3.648   2.472 -31.622  1.00  0.00    -0.247 OA
HETATM   22  H   UNL     1      -4.504   4.891 -29.877  1.00  0.00     0.165 HD
HETATM   23  H   UNL     1      -6.084   3.338 -29.858  1.00  0.00     0.164 HD
BRANCH  20  24
HETATM   24  C   UNL     1      -3.119   5.319 -31.421  1.00  0.00     0.035 C 
HETATM   25  C   UNL     1      -3.531   5.818 -32.832  1.00  0.00     0.035 C 
HETATM   26  C   UNL     1      -2.403   6.656 -33.462  1.00  0.00    -0.012 C 
HETATM   27  C   UNL     1      -1.132   5.797 -33.565  1.00  0.00     0.009 C 
HETATM   28  C   UNL     1      -2.121   7.877 -32.573  1.00  0.00     0.009 C 
HETATM   29  C   UNL     1      -0.692   5.331 -32.167  1.00  0.00    -0.012 C 
HETATM   30  C   UNL     1      -1.816   4.490 -31.537  1.00  0.00     0.035 C 
HETATM   31  C   UNL     1      -0.422   6.561 -31.284  1.00  0.00     0.009 C 
HETATM   32  C   UNL     1      -1.694   7.416 -31.171  1.00  0.00    -0.012 C 
HETATM   33  C   UNL     1      -2.820   6.570 -30.552  1.00  0.00     0.035 C 
ENDBRANCH  20  24
ENDBRANCH   1  18
TORSDOF 4
ENDMDL
MODEL 6
REMARK VINA RESULT:      -8.9      1.631      4.415
REMARK  4 active torsions:
REMARK  status: ('A' for Active; 'I' for Inactive)
REMARK    1  A    between atoms: N_7  and  C_8 
REMARK    2  A    between atoms: C_14  and  C_15 
REMARK    3  A    between atoms: C_15  and  N_16 
REMARK       I    between atoms: N_16  and  C_17 
REMARK       I    between atoms: C_17  and  N_18 
REMARK    4  A    between atoms: N_18  and  C_19 
ROOT
HETATM    1  C   UNL     1      -6.224   3.823 -34.162  1.00  0.00     0.186 C 
ENDROOT
BRANCH   1   2
HETATM    2  C   UNL     1      -7.151   2.672 -33.785  1.00  0.00     0.084 C 
HETATM    3  C   UNL     1      -8.575   2.982 -33.534  1.00  0.00     0.008 A 
HETATM    4  C   UNL     1      -9.091   4.286 -33.555  1.00  0.00     0.014 A 
HETATM    5  C   UNL     1      -9.420   1.912 -33.269  1.00  0.00     0.046 A 
HETATM    6  C   UNL     1     -10.452   4.504 -33.323  1.00  0.00     0.001 A 
HETATM    7  C   UNL     1     -11.299   3.428 -33.069  1.00  0.00     0.001 A 
HETATM    8  C   UNL     1     -10.786   2.132 -33.040  1.00  0.00     0.018 A 
HETATM    9  C   UNL     1      -8.869   0.548 -33.213  1.00  0.00     0.275 C 
HETATM   10  O   UNL     1      -9.636  -0.397 -33.039  1.00  0.00    -0.266 OA
HETATM   11  N   UNL     1      -7.485   0.426 -33.340  1.00  0.00    -0.229 N 
HETATM   12  N   UNL     1      -6.655   1.473 -33.678  1.00  0.00    -0.171 NA
BRANCH  11  13
HETATM   13  C   UNL     1      -6.893  -0.911 -33.322  1.00  0.00     0.114 C 
HETATM   14  C   UNL     1      -6.773  -1.519 -34.721  1.00  0.00     0.027 C 
HETATM   15  C   UNL     1      -5.740  -2.615 -34.525  1.00  0.00     0.002 C 
HETATM   16  C   UNL     1      -4.701  -1.964 -33.623  1.00  0.00     0.002 C 
HETATM   17  C   UNL     1      -5.478  -0.996 -32.727  1.00  0.00     0.027 C 
ENDBRANCH  11  13
ENDBRANCH   1   2
BRANCH   1  18
HETATM   18  N   UNL     1      -4.923   3.722 -33.538  1.00  0.00    -0.337 N 
HETATM   19  C   UNL     1      -4.393   4.833 -32.935  1.00  0.00     0.317 C 
HETATM   20  N   UNL     1      -3.207   4.550 -32.312  1.00  0.00    -0.334 N 
HETATM   21  O   UNL     1      -4.930   5.930 -32.976  1.00  0.00    -0.247 OA
HETATM   22  H   UNL     1      -2.724   3.762 -32.720  1.00  0.00     0.165 HD
HETATM   23  H   UNL     1      -4.678   2.816 -33.159  1.00  0.00     0.164 HD
BRANCH  20  24
HETATM   24  C   UNL     1      -2.360   5.570 -31.677  1.00  0.00     0.035 C 
HETATM   25  C   UNL     1      -3.105   6.336 -30.553  1.00  0.00     0.035 C 
HETATM   26  C   UNL     1      -2.174   7.365 -29.886  1.00  0.00    -0.012 C 
HETATM   27  C   UNL     1      -1.675   8.359 -30.949  1.00  0.00     0.009 C 
HETATM   28  C   UNL     1      -0.972   6.636 -29.268  1.00  0.00     0.009 C 
HETATM   29  C   UNL     1      -0.899   7.614 -32.048  1.00  0.00    -0.012 C 
HETATM   30  C   UNL     1      -1.829   6.587 -32.717  1.00  0.00     0.035 C 
HETATM   31  C   UNL     1       0.296   6.879 -31.416  1.00  0.00     0.009 C 
HETATM   32  C   UNL     1      -0.200   5.879 -30.360  1.00  0.00    -0.012 C 
HETATM   33  C   UNL     1      -1.140   4.861 -31.030  1.00  0.00     0.035 C 
ENDBRANCH  20  24
ENDBRANCH   1  18
TORSDOF 4
ENDMDL
MODEL 7
REMARK VINA RESULT:      -8.8      2.778      7.522
REMARK  4 active torsions:
REMARK  status: ('A' for Active; 'I' for Inactive)
REMARK    1  A    between atoms: N_7  and  C_8 
REMARK    2  A    between atoms: C_14  and  C_15 
REMARK    3  A    between atoms: C_15  and  N_16 
REMARK       I    between atoms: N_16  and  C_17 
REMARK       I    between atoms: C_17  and  N_18 
REMARK    4  A    between atoms: N_18  and  C_19 
ROOT
HETATM    1  C   UNL     1      -8.497  -0.033 -33.359  1.00  0.00     0.186 C 
ENDROOT
BRANCH   1   2
HETATM    2  C   UNL     1      -7.005  -0.244 -33.119  1.00  0.00     0.084 C 
HETATM    3  C   UNL     1      -6.379  -1.461 -33.679  1.00  0.00     0.008 A 
HETATM    4  C   UNL     1      -7.103  -2.457 -34.350  1.00  0.00     0.014 A 
HETATM    5  C   UNL     1      -5.006  -1.599 -33.518  1.00  0.00     0.046 A 
HETATM    6  C   UNL     1      -6.443  -3.575 -34.867  1.00  0.00     0.001 A 
HETATM    7  C   UNL     1      -5.064  -3.705 -34.715  1.00  0.00     0.001 A 
HETATM    8  C   UNL     1      -4.344  -2.720 -34.041  1.00  0.00     0.018 A 
HETATM    9  C   UNL     1      -4.254  -0.570 -32.782  1.00  0.00     0.275 C 
HETATM   10  O   UNL     1      -3.031  -0.671 -32.700  1.00  0.00    -0.266 OA
HETATM   11  N   UNL     1      -5.001   0.454 -32.199  1.00  0.00    -0.229 N 
HETATM   12  N   UNL     1      -6.349   0.635 -32.419  1.00  0.00    -0.171 NA
BRANCH  11  13
HETATM   13  C   UNL     1      -4.297   1.518 -31.484  1.00  0.00     0.114 C 
HETATM   14  C   UNL     1      -3.620   2.513 -32.428  1.00  0.00     0.027 C 
HETATM   15  C   UNL     1      -3.398   3.724 -31.539  1.00  0.00     0.002 C 
HETATM   16  C   UNL     1      -4.691   3.819 -30.742  1.00  0.00     0.002 C 
HETATM   17  C   UNL     1      -5.171   2.378 -30.557  1.00  0.00     0.027 C 
ENDBRANCH  11  13
ENDBRANCH   1   2
BRANCH   1  18
HETATM   18  N   UNL     1      -9.091   0.890 -32.417  1.00  0.00    -0.337 N 
HETATM   19  C   UNL     1     -10.013   1.795 -32.873  1.00  0.00     0.317 C 
HETATM   20  N   UNL     1     -10.548   2.529 -31.848  1.00  0.00    -0.334 N 
HETATM   21  O   UNL     1     -10.293   1.918 -34.057  1.00  0.00    -0.247 OA
HETATM   22  H   UNL     1      -9.932   2.602 -31.051  1.00  0.00     0.165 HD
HETATM   23  H   UNL     1      -9.183   0.559 -31.465  1.00  0.00     0.164 HD
BRANCH  20  24
HETATM   24  C   UNL     1     -11.480   3.647 -32.051  1.00  0.00     0.035 C 
HETATM   25  C   UNL     1     -10.884   4.752 -32.962  1.00  0.00     0.035 C 
HETATM   26  C   UNL     1     -11.905   5.884 -33.183  1.00  0.00    -0.012 C 
HETATM   27  C   UNL     1     -12.292   6.487 -31.822  1.00  0.00     0.009 C 
HETATM   28  C   UNL     1     -13.159   5.312 -33.861  1.00  0.00     0.009 C 
HETATM   29  C   UNL     1     -12.922   5.408 -30.924  1.00  0.00    -0.012 C 
HETATM   30  C   UNL     1     -11.903   4.278 -30.700  1.00  0.00     0.035 C 
HETATM   31  C   UNL     1     -14.170   4.836 -31.617  1.00  0.00     0.009 C 
HETATM   32  C   UNL     1     -13.784   4.225 -32.974  1.00  0.00    -0.012 C 
HETATM   33  C   UNL     1     -12.756   3.103 -32.748  1.00  0.00     0.035 C 
ENDBRANCH  20  24
ENDBRANCH   1  18
TORSDOF 4
ENDMDL
MODEL 8
REMARK VINA RESULT:      -8.8      2.668      8.771
REMARK  4 active torsions:
REMARK  status: ('A' for Active; 'I' for Inactive)
REMARK    1  A    between atoms: N_7  and  C_8 
REMARK    2  A    between atoms: C_14  and  C_15 
REMARK    3  A    between atoms: C_15  and  N_16 
REMARK       I    between atoms: N_16  and  C_17 
REMARK       I    between atoms: C_17  and  N_18 
REMARK    4  A    between atoms: N_18  and  C_19 
ROOT
HETATM    1  C   UNL     1      -7.454   3.017 -29.851  1.00  0.00     0.186 C 
ENDROOT
BRANCH   1   2
HETATM    2  C   UNL     1      -6.093   3.137 -30.530  1.00  0.00     0.084 C 
HETATM    3  C   UNL     1      -5.436   4.462 -30.537  1.00  0.00     0.008 A 
HETATM    4  C   UNL     1      -6.035   5.618 -30.017  1.00  0.00     0.014 A 
HETATM    5  C   UNL     1      -4.164   4.536 -31.090  1.00  0.00     0.046 A 
HETATM    6  C   UNL     1      -5.349   6.835 -30.043  1.00  0.00     0.001 A 
HETATM    7  C   UNL     1      -4.068   6.904 -30.588  1.00  0.00     0.001 A 
HETATM    8  C   UNL     1      -3.474   5.757 -31.112  1.00  0.00     0.018 A 
HETATM    9  C   UNL     1      -3.551   3.328 -31.667  1.00  0.00     0.275 C 
HETATM   10  O   UNL     1      -2.401   3.391 -32.097  1.00  0.00    -0.266 OA
HETATM   11  N   UNL     1      -4.345   2.181 -31.706  1.00  0.00    -0.229 N 
HETATM   12  N   UNL     1      -5.575   2.084 -31.092  1.00  0.00    -0.171 NA
BRANCH  11  13
HETATM   13  C   UNL     1      -3.771   0.947 -32.241  1.00  0.00     0.114 C 
HETATM   14  C   UNL     1      -3.224   0.030 -31.146  1.00  0.00     0.027 C 
HETATM   15  C   UNL     1      -3.145  -1.317 -31.842  1.00  0.00     0.002 C 
HETATM   16  C   UNL     1      -4.436  -1.376 -32.646  1.00  0.00     0.002 C 
HETATM   17  C   UNL     1      -4.738   0.069 -33.052  1.00  0.00     0.027 C 
ENDBRANCH  11  13
ENDBRANCH   1   2
BRANCH   1  18
HETATM   18  N   UNL     1      -8.383   2.198 -30.598  1.00  0.00    -0.337 N 
HETATM   19  C   UNL     1      -9.220   2.804 -31.498  1.00  0.00     0.317 C 
HETATM   20  N   UNL     1      -9.965   1.887 -32.188  1.00  0.00    -0.334 N 
HETATM   21  O   UNL     1      -9.280   4.017 -31.635  1.00  0.00    -0.247 OA
HETATM   22  H   UNL     1     -10.103   1.025 -31.680  1.00  0.00     0.165 HD
HETATM   23  H   UNL     1      -8.086   1.250 -30.792  1.00  0.00     0.164 HD
BRANCH  20  24
HETATM   24  C   UNL     1     -11.025   2.252 -33.139  1.00  0.00     0.035 C 
HETATM   25  C   UNL     1     -10.467   2.983 -34.388  1.00  0.00     0.035 C 
HETATM   26  C   UNL     1     -11.601   3.312 -35.378  1.00  0.00    -0.012 C 
HETATM   27  C   UNL     1     -12.641   4.202 -34.677  1.00  0.00     0.009 C 
HETATM   28  C   UNL     1     -12.271   2.008 -35.832  1.00  0.00     0.009 C 
HETATM   29  C   UNL     1     -13.231   3.470 -33.460  1.00  0.00    -0.012 C 
HETATM   30  C   UNL     1     -12.100   3.143 -32.468  1.00  0.00     0.035 C 
HETATM   31  C   UNL     1     -13.891   2.161 -33.925  1.00  0.00     0.009 C 
HETATM   32  C   UNL     1     -12.851   1.266 -34.618  1.00  0.00    -0.012 C 
HETATM   33  C   UNL     1     -11.716   0.951 -33.629  1.00  0.00     0.035 C 
ENDBRANCH  20  24
ENDBRANCH   1  18
TORSDOF 4
ENDMDL
MODEL 9
REMARK VINA RESULT:      -8.8      2.977      9.173
REMARK  4 active torsions:
REMARK  status: ('A' for Active; 'I' for Inactive)
REMARK    1  A    between atoms: N_7  and  C_8 
REMARK    2  A    between atoms: C_14  and  C_15 
REMARK    3  A    between atoms: C_15  and  N_16 
REMARK       I    between atoms: N_16  and  C_17 
REMARK       I    between atoms: C_17  and  N_18 
REMARK    4  A    between atoms: N_18  and  C_19 
ROOT
HETATM    1  C   UNL     1      -5.224   6.536 -28.328  1.00  0.00     0.186 C 
ENDROOT
BRANCH   1   2
HETATM    2  C   UNL     1      -3.796   7.066 -28.413  1.00  0.00     0.084 C 
HETATM    3  C   UNL     1      -3.188   7.620 -27.184  1.00  0.00     0.008 A 
HETATM    4  C   UNL     1      -3.885   7.747 -25.974  1.00  0.00     0.014 A 
HETATM    5  C   UNL     1      -1.862   8.026 -27.260  1.00  0.00     0.046 A 
HETATM    6  C   UNL     1      -3.242   8.266 -24.846  1.00  0.00     0.001 A 
HETATM    7  C   UNL     1      -1.908   8.661 -24.923  1.00  0.00     0.001 A 
HETATM    8  C   UNL     1      -1.216   8.543 -26.127  1.00  0.00     0.018 A 
HETATM    9  C   UNL     1      -1.143   7.925 -28.541  1.00  0.00     0.275 C 
HETATM   10  O   UNL     1       0.047   8.228 -28.581  1.00  0.00    -0.266 OA
HETATM   11  N   UNL     1      -1.887   7.505 -29.644  1.00  0.00    -0.229 N 
HETATM   12  N   UNL     1      -3.179   7.031 -29.558  1.00  0.00    -0.171 NA
BRANCH  11  13
HETATM   13  C   UNL     1      -1.212   7.359 -30.933  1.00  0.00     0.114 C 
HETATM   14  C   UNL     1      -1.351   5.949 -31.513  1.00  0.00     0.027 C 
HETATM   15  C   UNL     1      -1.031   6.157 -32.982  1.00  0.00     0.002 C 
HETATM   16  C   UNL     1      -1.748   7.455 -33.321  1.00  0.00     0.002 C 
HETATM   17  C   UNL     1      -1.703   8.299 -32.045  1.00  0.00     0.027 C 
ENDBRANCH  11  13
ENDBRANCH   1   2
BRANCH   1  18
HETATM   18  N   UNL     1      -5.289   5.092 -28.345  1.00  0.00    -0.337 N 
HETATM   19  C   UNL     1      -5.466   4.453 -29.544  1.00  0.00     0.317 C 
HETATM   20  N   UNL     1      -5.410   3.093 -29.404  1.00  0.00    -0.334 N 
HETATM   21  O   UNL     1      -5.661   5.052 -30.592  1.00  0.00    -0.247 OA
HETATM   22  H   UNL     1      -5.666   2.780 -28.479  1.00  0.00     0.165 HD
HETATM   23  H   UNL     1      -4.759   4.613 -27.628  1.00  0.00     0.164 HD
BRANCH  20  24
HETATM   24  C   UNL     1      -5.674   2.151 -30.502  1.00  0.00     0.035 C 
HETATM   25  C   UNL     1      -4.468   2.023 -31.469  1.00  0.00     0.035 C 
HETATM   26  C   UNL     1      -4.769   1.000 -32.579  1.00  0.00    -0.012 C 
HETATM   27  C   UNL     1      -6.014   1.452 -33.360  1.00  0.00     0.009 C 
HETATM   28  C   UNL     1      -5.036  -0.373 -31.945  1.00  0.00     0.009 C 
HETATM   29  C   UNL     1      -7.226   1.543 -32.417  1.00  0.00    -0.012 C 
HETATM   30  C   UNL     1      -6.929   2.567 -31.309  1.00  0.00     0.035 C 
HETATM   31  C   UNL     1      -7.479   0.166 -31.781  1.00  0.00     0.009 C 
HETATM   32  C   UNL     1      -6.238  -0.284 -30.993  1.00  0.00    -0.012 C 
HETATM   33  C   UNL     1      -5.936   0.748 -29.892  1.00  0.00     0.035 C 
ENDBRANCH  20  24
ENDBRANCH   1  18
TORSDOF 4
ENDMDL
MODEL 10
REMARK VINA RESULT:      -8.8      2.207      4.459
REMARK  4 active torsions:
REMARK  status: ('A' for Active; 'I' for Inactive)
REMARK    1  A    between atoms: N_7  and  C_8 
REMARK    2  A    between atoms: C_14  and  C_15 
REMARK    3  A    between atoms: C_15  and  N_16 
REMARK       I    between atoms: N_16  and  C_17 
REMARK       I    between atoms: C_17  and  N_18 
REMARK    4  A    between atoms: N_18  and  C_19 
ROOT
HETATM    1  C   UNL     1      -8.399   4.754 -33.697  1.00  0.00     0.186 C 
ENDROOT
BRANCH   1   2
HETATM    2  C   UNL     1      -8.900   3.346 -33.390  1.00  0.00     0.084 C 
HETATM    3  C   UNL     1     -10.268   2.987 -33.823  1.00  0.00     0.008 A 
HETATM    4  C   UNL     1     -11.143   3.898 -34.433  1.00  0.00     0.014 A 
HETATM    5  C   UNL     1     -10.680   1.679 -33.605  1.00  0.00     0.046 A 
HETATM    6  C   UNL     1     -12.417   3.485 -34.831  1.00  0.00     0.001 A 
HETATM    7  C   UNL     1     -12.823   2.169 -34.622  1.00  0.00     0.001 A 
HETATM    8  C   UNL     1     -11.958   1.265 -34.008  1.00  0.00     0.018 A 
HETATM    9  C   UNL     1      -9.773   0.734 -32.932  1.00  0.00     0.275 C 
HETATM   10  O   UNL     1     -10.124  -0.437 -32.800  1.00  0.00    -0.266 OA
HETATM   11  N   UNL     1      -8.565   1.253 -32.463  1.00  0.00    -0.229 N 
HETATM   12  N   UNL     1      -8.122   2.527 -32.744  1.00  0.00    -0.171 NA
BRANCH  11  13
HETATM   13  C   UNL     1      -7.616   0.348 -31.815  1.00  0.00     0.114 C 
HETATM   14  C   UNL     1      -6.601  -0.240 -32.797  1.00  0.00     0.027 C 
HETATM   15  C   UNL     1      -5.484  -0.714 -31.884  1.00  0.00     0.002 C 
HETATM   16  C   UNL     1      -5.359   0.410 -30.865  1.00  0.00     0.002 C 
HETATM   17  C   UNL     1      -6.772   0.973 -30.693  1.00  0.00     0.027 C 
ENDBRANCH  11  13
ENDBRANCH   1   2
BRANCH   1  18
HETATM   18  N   UNL     1      -7.014   4.777 -34.113  1.00  0.00    -0.337 N 
HETATM   19  C   UNL     1      -6.073   5.267 -33.246  1.00  0.00     0.317 C 
HETATM   20  N   UNL     1      -4.807   5.133 -33.749  1.00  0.00    -0.334 N 
HETATM   21  O   UNL     1      -6.360   5.769 -32.169  1.00  0.00    -0.247 OA
HETATM   22  H   UNL     1      -4.783   5.107 -34.758  1.00  0.00     0.165 HD
HETATM   23  H   UNL     1      -6.730   4.051 -34.759  1.00  0.00     0.164 HD
BRANCH  20  24
HETATM   24  C   UNL     1      -3.609   5.669 -33.087  1.00  0.00     0.035 C 
HETATM   25  C   UNL     1      -3.905   6.977 -32.307  1.00  0.00     0.035 C 
HETATM   26  C   UNL     1      -2.636   7.484 -31.595  1.00  0.00    -0.012 C 
HETATM   27  C   UNL     1      -1.538   7.740 -32.641  1.00  0.00     0.009 C 
HETATM   28  C   UNL     1      -2.153   6.419 -30.600  1.00  0.00     0.009 C 
HETATM   29  C   UNL     1      -1.208   6.439 -33.392  1.00  0.00    -0.012 C 
HETATM   30  C   UNL     1      -2.473   5.933 -34.107  1.00  0.00     0.035 C 
HETATM   31  C   UNL     1      -0.735   5.378 -32.386  1.00  0.00     0.009 C 
HETATM   32  C   UNL     1      -1.834   5.113 -31.345  1.00  0.00    -0.012 C 
HETATM   33  C   UNL     1      -3.102   4.618 -32.063  1.00  0.00     0.035 C 
ENDBRANCH  20  24
ENDBRANCH   1  18
TORSDOF 4
ENDMDL
