MODEL 1
REMARK VINA RESULT:      -8.8      0.000      0.000
REMARK  5 active torsions:
REMARK  status: ('A' for Active; 'I' for Inactive)
REMARK    1  A    between atoms: O_2  and  C_3 
REMARK    2  A    between atoms: C_3  and  C_4 
REMARK    3  A    between atoms: C_6  and  C_7 
REMARK       I    between atoms: C_7  and  N_8 
REMARK    4  A    between atoms: N_8  and  C_9 
REMARK    5  A    between atoms: C_10  and  O_11 
ROOT
HETATM    1  C   UNL     1      -4.215   1.592 -32.216  1.00  0.00     0.071 A 
HETATM    2  C   UNL     1      -5.509   1.656 -32.770  1.00  0.00     0.096 A 
HETATM    3  C   UNL     1      -6.125   0.542 -33.362  1.00  0.00     0.054 A 
HETATM    4  C   UNL     1      -5.391  -0.656 -33.440  1.00  0.00     0.014 A 
HETATM    5  C   UNL     1      -4.112  -0.686 -32.895  1.00  0.00     0.089 A 
HETATM    6  O   UNL     1      -3.552  -1.916 -33.061  1.00  0.00    -0.309 OA
HETATM    7  C   UNL     1      -4.460  -2.682 -33.722  1.00  0.00     0.087 A 
HETATM    8  C   UNL     1      -5.619  -1.957 -33.978  1.00  0.00     0.011 A 
HETATM    9  C   UNL     1      -4.268  -4.009 -34.101  1.00  0.00     0.038 A 
HETATM   10  C   UNL     1      -5.322  -4.624 -34.781  1.00  0.00     0.003 A 
HETATM   11  C   UNL     1      -6.505  -3.932 -35.056  1.00  0.00     0.001 A 
HETATM   12  C   UNL     1      -6.671  -2.597 -34.660  1.00  0.00     0.015 A 
HETATM   13  C   UNL     1      -3.492   0.398 -32.270  1.00  0.00     0.070 A 
ENDROOT
BRANCH   1  14
HETATM   14  N   UNL     1      -3.708   2.788 -31.656  1.00  0.00    -0.320 N 
HETATM   15  C   UNL     1      -2.907   3.729 -32.268  1.00  0.00     0.256 C 
HETATM   16  O   UNL     1      -2.461   3.677 -33.407  1.00  0.00    -0.267 OA
HETATM   17  H   UNL     1      -4.079   2.992 -30.735  1.00  0.00     0.169 HD
BRANCH  15  18
HETATM   18  C   UNL     1      -2.645   4.953 -31.459  1.00  0.00     0.033 A 
HETATM   19  C   UNL     1      -1.309   5.281 -31.188  1.00  0.00     0.026 A 
HETATM   20  C   UNL     1      -0.988   6.434 -30.460  1.00  0.00    -0.034 A 
HETATM   21  C   UNL     1      -2.028   7.251 -29.996  1.00  0.00     0.009 A 
HETATM   22  C   UNL     1      -3.361   6.919 -30.247  1.00  0.00     0.002 A 
HETATM   23  C   UNL     1      -3.673   5.770 -30.976  1.00  0.00     0.017 A 
BRANCH  20  24
HETATM   24  C   UNL     1       0.452   6.790 -30.191  1.00  0.00     0.205 C 
BRANCH  24  25
HETATM   25  O   UNL     1       0.527   7.540 -28.982  1.00  0.00    -0.391 OA
HETATM   26  C   UNL     1       0.825   6.705 -27.872  1.00  0.00     0.201 C 
ENDBRANCH  24  25
ENDBRANCH  20  24
ENDBRANCH  15  18
ENDBRANCH   1  14
BRANCH   2  27
HETATM   27  O   UNL     1      -6.189   2.852 -32.680  1.00  0.00    -0.354 OA
HETATM   28  C   UNL     1      -6.318   3.460 -33.967  1.00  0.00     0.210 C 
ENDBRANCH   2  27
TORSDOF 5
ENDMDL
MODEL 2
REMARK VINA RESULT:      -8.6      1.310      1.986
REMARK  5 active torsions:
REMARK  status: ('A' for Active; 'I' for Inactive)
REMARK    1  A    between atoms: O_2  and  C_3 
REMARK    2  A    between atoms: C_3  and  C_4 
REMARK    3  A    between atoms: C_6  and  C_7 
REMARK       I    between atoms: C_7  and  N_8 
REMARK    4  A    between atoms: N_8  and  C_9 
REMARK    5  A    between atoms: C_10  and  O_11 
ROOT
HETATM    1  C   UNL     1      -3.915   1.859 -32.247  1.00  0.00     0.071 A 
HETATM    2  C   UNL     1      -5.242   2.021 -32.694  1.00  0.00     0.096 A 
HETATM    3  C   UNL     1      -5.975   0.965 -33.256  1.00  0.00     0.054 A 
HETATM    4  C   UNL     1      -5.332  -0.276 -33.416  1.00  0.00     0.014 A 
HETATM    5  C   UNL     1      -4.019  -0.404 -32.975  1.00  0.00     0.089 A 
HETATM    6  O   UNL     1      -3.558  -1.662 -33.210  1.00  0.00    -0.309 OA
HETATM    7  C   UNL     1      -4.564  -2.352 -33.811  1.00  0.00     0.087 A 
HETATM    8  C   UNL     1      -5.688  -1.546 -33.958  1.00  0.00     0.011 A 
HETATM    9  C   UNL     1      -4.492  -3.678 -34.229  1.00  0.00     0.038 A 
HETATM   10  C   UNL     1      -5.635  -4.206 -34.835  1.00  0.00     0.003 A 
HETATM   11  C   UNL     1      -6.787  -3.432 -35.001  1.00  0.00     0.001 A 
HETATM   12  C   UNL     1      -6.831  -2.099 -34.567  1.00  0.00     0.015 A 
HETATM   13  C   UNL     1      -3.281   0.622 -32.381  1.00  0.00     0.070 A 
ENDROOT
BRANCH   1  14
HETATM   14  N   UNL     1      -3.287   3.005 -31.706  1.00  0.00    -0.320 N 
HETATM   15  C   UNL     1      -2.557   3.961 -32.381  1.00  0.00     0.256 C 
HETATM   16  O   UNL     1      -2.294   3.968 -33.577  1.00  0.00    -0.267 OA
HETATM   17  H   UNL     1      -3.504   3.162 -30.729  1.00  0.00     0.169 HD
BRANCH  15  18
HETATM   18  C   UNL     1      -2.131   5.126 -31.555  1.00  0.00     0.033 A 
HETATM   19  C   UNL     1      -3.122   5.816 -30.841  1.00  0.00     0.026 A 
HETATM   20  C   UNL     1      -2.789   6.901 -30.020  1.00  0.00    -0.034 A 
HETATM   21  C   UNL     1      -1.447   7.294 -29.931  1.00  0.00     0.009 A 
HETATM   22  C   UNL     1      -0.458   6.622 -30.655  1.00  0.00     0.002 A 
HETATM   23  C   UNL     1      -0.797   5.540 -31.469  1.00  0.00     0.017 A 
BRANCH  20  24
HETATM   24  C   UNL     1      -3.858   7.623 -29.240  1.00  0.00     0.205 C 
BRANCH  24  25
HETATM   25  O   UNL     1      -4.717   6.664 -28.631  1.00  0.00    -0.391 OA
HETATM   26  C   UNL     1      -4.538   6.627 -27.222  1.00  0.00     0.201 C 
ENDBRANCH  24  25
ENDBRANCH  20  24
ENDBRANCH  15  18
ENDBRANCH   1  14
BRANCH   2  27
HETATM   27  O   UNL     1      -5.830   3.257 -32.527  1.00  0.00    -0.354 OA
HETATM   28  C   UNL     1      -6.151   3.842 -33.791  1.00  0.00     0.210 C 
ENDBRANCH   2  27
TORSDOF 5
ENDMDL
MODEL 3
REMARK VINA RESULT:      -8.4      2.179      2.504
REMARK  5 active torsions:
REMARK  status: ('A' for Active; 'I' for Inactive)
REMARK    1  A    between atoms: O_2  and  C_3 
REMARK    2  A    between atoms: C_3  and  C_4 
REMARK    3  A    between atoms: C_6  and  C_7 
REMARK       I    between atoms: C_7  and  N_8 
REMARK    4  A    between atoms: N_8  and  C_9 
REMARK    5  A    between atoms: C_10  and  O_11 
ROOT
HETATM    1  C   UNL     1      -5.175   1.614 -32.907  1.00  0.00     0.071 A 
HETATM    2  C   UNL     1      -6.446   1.371 -33.465  1.00  0.00     0.096 A 
HETATM    3  C   UNL     1      -6.835   0.100 -33.912  1.00  0.00     0.054 A 
HETATM    4  C   UNL     1      -5.895  -0.945 -33.838  1.00  0.00     0.014 A 
HETATM    5  C   UNL     1      -4.645  -0.674 -33.292  1.00  0.00     0.089 A 
HETATM    6  O   UNL     1      -3.868  -1.791 -33.302  1.00  0.00    -0.309 OA
HETATM    7  C   UNL     1      -4.606  -2.786 -33.862  1.00  0.00     0.087 A 
HETATM    8  C   UNL     1      -5.871  -2.322 -34.208  1.00  0.00     0.011 A 
HETATM    9  C   UNL     1      -4.168  -4.092 -34.071  1.00  0.00     0.038 A 
HETATM   10  C   UNL     1      -5.077  -4.969 -34.669  1.00  0.00     0.003 A 
HETATM   11  C   UNL     1      -6.359  -4.544 -35.030  1.00  0.00     0.001 A 
HETATM   12  C   UNL     1      -6.773  -3.223 -34.805  1.00  0.00     0.015 A 
HETATM   13  C   UNL     1      -4.247   0.574 -32.808  1.00  0.00     0.070 A 
ENDROOT
BRANCH   1  14
HETATM   14  N   UNL     1      -4.907   2.942 -32.501  1.00  0.00    -0.320 N 
HETATM   15  C   UNL     1      -4.821   3.427 -31.213  1.00  0.00     0.256 C 
HETATM   16  O   UNL     1      -4.998   2.791 -30.181  1.00  0.00    -0.267 OA
HETATM   17  H   UNL     1      -4.655   3.556 -33.268  1.00  0.00     0.169 HD
BRANCH  15  18
HETATM   18  C   UNL     1      -4.392   4.850 -31.104  1.00  0.00     0.033 A 
HETATM   19  C   UNL     1      -3.478   5.329 -32.053  1.00  0.00     0.026 A 
HETATM   20  C   UNL     1      -3.055   6.664 -32.030  1.00  0.00    -0.034 A 
HETATM   21  C   UNL     1      -3.555   7.514 -31.033  1.00  0.00     0.009 A 
HETATM   22  C   UNL     1      -4.451   7.037 -30.074  1.00  0.00     0.002 A 
HETATM   23  C   UNL     1      -4.871   5.706 -30.106  1.00  0.00     0.017 A 
BRANCH  20  24
HETATM   24  C   UNL     1      -2.088   7.176 -33.066  1.00  0.00     0.205 C 
BRANCH  24  25
HETATM   25  O   UNL     1      -2.352   6.529 -34.308  1.00  0.00    -0.391 OA
HETATM   26  C   UNL     1      -1.250   5.736 -34.725  1.00  0.00     0.201 C 
ENDBRANCH  24  25
ENDBRANCH  20  24
ENDBRANCH  15  18
ENDBRANCH   1  14
BRANCH   2  27
HETATM   27  O   UNL     1      -7.332   2.425 -33.528  1.00  0.00    -0.354 OA
HETATM   28  C   UNL     1      -8.656   1.995 -33.202  1.00  0.00     0.210 C 
ENDBRANCH   2  27
TORSDOF 5
ENDMDL
MODEL 4
REMARK VINA RESULT:      -8.3      1.895      3.196
REMARK  5 active torsions:
REMARK  status: ('A' for Active; 'I' for Inactive)
REMARK    1  A    between atoms: O_2  and  C_3 
REMARK    2  A    between atoms: C_3  and  C_4 
REMARK    3  A    between atoms: C_6  and  C_7 
REMARK       I    between atoms: C_7  and  N_8 
REMARK    4  A    between atoms: N_8  and  C_9 
REMARK    5  A    between atoms: C_10  and  O_11 
ROOT
HETATM    1  C   UNL     1      -3.658   3.708 -31.565  1.00  0.00     0.071 A 
HETATM    2  C   UNL     1      -4.571   4.301 -32.460  1.00  0.00     0.096 A 
HETATM    3  C   UNL     1      -5.452   3.539 -33.243  1.00  0.00     0.054 A 
HETATM    4  C   UNL     1      -5.372   2.137 -33.155  1.00  0.00     0.014 A 
HETATM    5  C   UNL     1      -4.454   1.580 -32.272  1.00  0.00     0.089 A 
HETATM    6  O   UNL     1      -4.512   0.221 -32.320  1.00  0.00    -0.309 OA
HETATM    7  C   UNL     1      -5.459  -0.108 -33.239  1.00  0.00     0.087 A 
HETATM    8  C   UNL     1      -6.029   1.038 -33.784  1.00  0.00     0.011 A 
HETATM    9  C   UNL     1      -5.815  -1.406 -33.597  1.00  0.00     0.038 A 
HETATM   10  C   UNL     1      -6.809  -1.535 -34.571  1.00  0.00     0.003 A 
HETATM   11  C   UNL     1      -7.410  -0.410 -35.143  1.00  0.00     0.001 A 
HETATM   12  C   UNL     1      -7.032   0.885 -34.760  1.00  0.00     0.015 A 
HETATM   13  C   UNL     1      -3.592   2.317 -31.457  1.00  0.00     0.070 A 
ENDROOT
BRANCH   1  14
HETATM   14  N   UNL     1      -2.822   4.589 -30.840  1.00  0.00    -0.320 N 
HETATM   15  C   UNL     1      -1.560   5.026 -31.187  1.00  0.00     0.256 C 
HETATM   16  O   UNL     1      -0.922   4.698 -32.178  1.00  0.00    -0.267 OA
HETATM   17  H   UNL     1      -3.274   5.003 -30.033  1.00  0.00     0.169 HD
BRANCH  15  18
HETATM   18  C   UNL     1      -0.983   6.059 -30.281  1.00  0.00     0.033 A 
HETATM   19  C   UNL     1      -1.653   7.286 -30.182  1.00  0.00     0.026 A 
HETATM   20  C   UNL     1      -1.185   8.292 -29.326  1.00  0.00    -0.034 A 
HETATM   21  C   UNL     1      -0.025   8.053 -28.576  1.00  0.00     0.009 A 
HETATM   22  C   UNL     1       0.657   6.839 -28.685  1.00  0.00     0.002 A 
HETATM   23  C   UNL     1       0.182   5.841 -29.538  1.00  0.00     0.017 A 
BRANCH  20  24
HETATM   24  C   UNL     1      -1.924   9.600 -29.210  1.00  0.00     0.205 C 
BRANCH  24  25
HETATM   25  O   UNL     1      -2.505   9.920 -30.471  1.00  0.00    -0.391 OA
HETATM   26  C   UNL     1      -3.666  10.723 -30.319  1.00  0.00     0.201 C 
ENDBRANCH  24  25
ENDBRANCH  20  24
ENDBRANCH  15  18
ENDBRANCH   1  14
BRANCH   2  27
HETATM   27  O   UNL     1      -4.609   5.677 -32.521  1.00  0.00    -0.354 OA
HETATM   28  C   UNL     1      -5.958   6.146 -32.576  1.00  0.00     0.210 C 
ENDBRANCH   2  27
TORSDOF 5
ENDMDL
MODEL 5
REMARK VINA RESULT:      -8.3      4.873      7.321
REMARK  5 active torsions:
REMARK  status: ('A' for Active; 'I' for Inactive)
REMARK    1  A    between atoms: O_2  and  C_3 
REMARK    2  A    between atoms: C_3  and  C_4 
REMARK    3  A    between atoms: C_6  and  C_7 
REMARK       I    between atoms: C_7  and  N_8 
REMARK    4  A    between atoms: N_8  and  C_9 
REMARK    5  A    between atoms: C_10  and  O_11 
ROOT
HETATM    1  C   UNL     1      -7.643   0.612 -34.285  1.00  0.00     0.071 A 
HETATM    2  C   UNL     1      -6.830   0.966 -33.190  1.00  0.00     0.096 A 
HETATM    3  C   UNL     1      -5.786   0.145 -32.737  1.00  0.00     0.054 A 
HETATM    4  C   UNL     1      -5.591  -1.092 -33.378  1.00  0.00     0.014 A 
HETATM    5  C   UNL     1      -6.416  -1.420 -34.449  1.00  0.00     0.089 A 
HETATM    6  O   UNL     1      -6.090  -2.646 -34.943  1.00  0.00    -0.309 OA
HETATM    7  C   UNL     1      -5.062  -3.120 -34.190  1.00  0.00     0.087 A 
HETATM    8  C   UNL     1      -4.708  -2.198 -33.210  1.00  0.00     0.011 A 
HETATM    9  C   UNL     1      -4.443  -4.356 -34.362  1.00  0.00     0.038 A 
HETATM   10  C   UNL     1      -3.405  -4.664 -33.479  1.00  0.00     0.003 A 
HETATM   11  C   UNL     1      -3.016  -3.766 -32.481  1.00  0.00     0.001 A 
HETATM   12  C   UNL     1      -3.656  -2.527 -32.334  1.00  0.00     0.015 A 
HETATM   13  C   UNL     1      -7.438  -0.605 -34.940  1.00  0.00     0.070 A 
ENDROOT
BRANCH   1  14
HETATM   14  N   UNL     1      -8.664   1.526 -34.635  1.00  0.00    -0.320 N 
HETATM   15  C   UNL     1      -9.967   1.544 -34.183  1.00  0.00     0.256 C 
HETATM   16  O   UNL     1     -10.484   0.742 -33.415  1.00  0.00    -0.267 OA
HETATM   17  H   UNL     1      -8.338   2.298 -35.204  1.00  0.00     0.169 HD
BRANCH  15  18
HETATM   18  C   UNL     1     -10.772   2.715 -34.633  1.00  0.00     0.033 A 
HETATM   19  C   UNL     1     -10.191   3.986 -34.521  1.00  0.00     0.026 A 
HETATM   20  C   UNL     1     -10.878   5.128 -34.954  1.00  0.00    -0.034 A 
HETATM   21  C   UNL     1     -12.163   4.979 -35.493  1.00  0.00     0.009 A 
HETATM   22  C   UNL     1     -12.753   3.717 -35.590  1.00  0.00     0.002 A 
HETATM   23  C   UNL     1     -12.062   2.584 -35.159  1.00  0.00     0.017 A 
BRANCH  20  24
HETATM   24  C   UNL     1     -10.238   6.489 -34.849  1.00  0.00     0.205 C 
BRANCH  24  25
HETATM   25  O   UNL     1     -10.359   7.157 -36.101  1.00  0.00    -0.391 OA
HETATM   26  C   UNL     1     -10.838   8.484 -35.937  1.00  0.00     0.201 C 
ENDBRANCH  24  25
ENDBRANCH  20  24
ENDBRANCH  15  18
ENDBRANCH   1  14
BRANCH   2  27
HETATM   27  O   UNL     1      -7.061   2.183 -32.584  1.00  0.00    -0.354 OA
HETATM   28  C   UNL     1      -7.049   2.053 -31.161  1.00  0.00     0.210 C 
ENDBRANCH   2  27
TORSDOF 5
ENDMDL
MODEL 6
REMARK VINA RESULT:      -8.2      1.510      8.948
REMARK  5 active torsions:
REMARK  status: ('A' for Active; 'I' for Inactive)
REMARK    1  A    between atoms: O_2  and  C_3 
REMARK    2  A    between atoms: C_3  and  C_4 
REMARK    3  A    between atoms: C_6  and  C_7 
REMARK       I    between atoms: C_7  and  N_8 
REMARK    4  A    between atoms: N_8  and  C_9 
REMARK    5  A    between atoms: C_10  and  O_11 
ROOT
HETATM    1  C   UNL     1      -3.993   3.590 -32.308  1.00  0.00     0.071 A 
HETATM    2  C   UNL     1      -4.785   4.678 -31.891  1.00  0.00     0.096 A 
HETATM    3  C   UNL     1      -4.244   5.779 -31.210  1.00  0.00     0.054 A 
HETATM    4  C   UNL     1      -2.872   5.756 -30.898  1.00  0.00     0.014 A 
HETATM    5  C   UNL     1      -2.117   4.664 -31.314  1.00  0.00     0.089 A 
HETATM    6  O   UNL     1      -0.820   4.807 -30.927  1.00  0.00    -0.309 OA
HETATM    7  C   UNL     1      -0.731   5.985 -30.252  1.00  0.00     0.087 A 
HETATM    8  C   UNL     1      -1.969   6.617 -30.209  1.00  0.00     0.011 A 
HETATM    9  C   UNL     1       0.430   6.495 -29.677  1.00  0.00     0.038 A 
HETATM   10  C   UNL     1       0.314   7.723 -29.018  1.00  0.00     0.003 A 
HETATM   11  C   UNL     1      -0.911   8.393 -28.952  1.00  0.00     0.001 A 
HETATM   12  C   UNL     1      -2.063   7.855 -29.544  1.00  0.00     0.015 A 
HETATM   13  C   UNL     1      -2.626   3.574 -32.023  1.00  0.00     0.070 A 
ENDROOT
BRANCH   1  14
HETATM   14  N   UNL     1      -4.664   2.542 -32.980  1.00  0.00    -0.320 N 
HETATM   15  C   UNL     1      -4.820   1.238 -32.558  1.00  0.00     0.256 C 
HETATM   16  O   UNL     1      -4.371   0.745 -31.532  1.00  0.00    -0.267 OA
HETATM   17  H   UNL     1      -5.159   2.845 -33.811  1.00  0.00     0.169 HD
BRANCH  15  18
HETATM   18  C   UNL     1      -5.694   0.397 -33.425  1.00  0.00     0.033 A 
HETATM   19  C   UNL     1      -5.273  -0.912 -33.700  1.00  0.00     0.026 A 
HETATM   20  C   UNL     1      -6.059  -1.768 -34.482  1.00  0.00    -0.034 A 
HETATM   21  C   UNL     1      -7.273  -1.289 -34.995  1.00  0.00     0.009 A 
HETATM   22  C   UNL     1      -7.687   0.020 -34.740  1.00  0.00     0.002 A 
HETATM   23  C   UNL     1      -6.900   0.866 -33.958  1.00  0.00     0.017 A 
BRANCH  20  24
HETATM   24  C   UNL     1      -5.610  -3.180 -34.755  1.00  0.00     0.205 C 
BRANCH  24  25
HETATM   25  O   UNL     1      -4.199  -3.261 -34.579  1.00  0.00    -0.391 OA
HETATM   26  C   UNL     1      -3.828  -4.451 -33.897  1.00  0.00     0.201 C 
ENDBRANCH  24  25
ENDBRANCH  20  24
ENDBRANCH  15  18
ENDBRANCH   1  14
BRANCH   2  27
HETATM   27  O   UNL     1      -6.127   4.656 -32.208  1.00  0.00    -0.354 OA
HETATM   28  C   UNL     1      -6.434   5.652 -33.186  1.00  0.00     0.210 C 
ENDBRANCH   2  27
TORSDOF 5
ENDMDL
MODEL 7
REMARK VINA RESULT:      -8.0      5.618      9.223
REMARK  5 active torsions:
REMARK  status: ('A' for Active; 'I' for Inactive)
REMARK    1  A    between atoms: O_2  and  C_3 
REMARK    2  A    between atoms: C_3  and  C_4 
REMARK    3  A    between atoms: C_6  and  C_7 
REMARK       I    between atoms: C_7  and  N_8 
REMARK    4  A    between atoms: N_8  and  C_9 
REMARK    5  A    between atoms: C_10  and  O_11 
ROOT
HETATM    1  C   UNL     1      -9.266   0.788 -32.348  1.00  0.00     0.071 A 
HETATM    2  C   UNL     1      -8.645   1.621 -31.395  1.00  0.00     0.096 A 
HETATM    3  C   UNL     1      -7.277   1.526 -31.098  1.00  0.00     0.054 A 
HETATM    4  C   UNL     1      -6.526   0.528 -31.747  1.00  0.00     0.014 A 
HETATM    5  C   UNL     1      -7.168  -0.285 -32.675  1.00  0.00     0.089 A 
HETATM    6  O   UNL     1      -6.296  -1.189 -33.199  1.00  0.00    -0.309 OA
HETATM    7  C   UNL     1      -5.090  -0.972 -32.608  1.00  0.00     0.087 A 
HETATM    8  C   UNL     1      -5.172   0.083 -31.705  1.00  0.00     0.011 A 
HETATM    9  C   UNL     1      -3.930  -1.700 -32.858  1.00  0.00     0.038 A 
HETATM   10  C   UNL     1      -2.790  -1.326 -32.141  1.00  0.00     0.003 A 
HETATM   11  C   UNL     1      -2.828  -0.270 -31.225  1.00  0.00     0.001 A 
HETATM   12  C   UNL     1      -4.011   0.446 -30.996  1.00  0.00     0.015 A 
HETATM   13  C   UNL     1      -8.519  -0.187 -33.013  1.00  0.00     0.070 A 
ENDROOT
BRANCH   1  14
HETATM   14  N   UNL     1     -10.653   0.983 -32.548  1.00  0.00    -0.320 N 
HETATM   15  C   UNL     1     -11.282   1.433 -33.689  1.00  0.00     0.256 C 
HETATM   16  O   UNL     1     -10.741   1.780 -34.731  1.00  0.00    -0.267 OA
HETATM   17  H   UNL     1     -11.223   0.647 -31.780  1.00  0.00     0.169 HD
BRANCH  15  18
HETATM   18  C   UNL     1     -12.771   1.407 -33.637  1.00  0.00     0.033 A 
HETATM   19  C   UNL     1     -13.412   2.358 -32.831  1.00  0.00     0.026 A 
HETATM   20  C   UNL     1     -14.810   2.411 -32.758  1.00  0.00    -0.034 A 
HETATM   21  C   UNL     1     -15.560   1.488 -33.500  1.00  0.00     0.009 A 
HETATM   22  C   UNL     1     -14.926   0.526 -34.290  1.00  0.00     0.002 A 
HETATM   23  C   UNL     1     -13.533   0.481 -34.360  1.00  0.00     0.017 A 
BRANCH  20  24
HETATM   24  C   UNL     1     -15.491   3.450 -31.905  1.00  0.00     0.205 C 
BRANCH  24  25
HETATM   25  O   UNL     1     -14.698   4.633 -31.892  1.00  0.00    -0.391 OA
HETATM   26  C   UNL     1     -15.489   5.792 -32.119  1.00  0.00     0.201 C 
ENDBRANCH  24  25
ENDBRANCH  20  24
ENDBRANCH  15  18
ENDBRANCH   1  14
BRANCH   2  27
HETATM   27  O   UNL     1      -9.420   2.578 -30.775  1.00  0.00    -0.354 OA
HETATM   28  C   UNL     1      -8.603   3.615 -30.226  1.00  0.00     0.210 C 
ENDBRANCH   2  27
TORSDOF 5
ENDMDL
MODEL 8
REMARK VINA RESULT:      -7.8      4.610      7.709
REMARK  5 active torsions:
REMARK  status: ('A' for Active; 'I' for Inactive)
REMARK    1  A    between atoms: O_2  and  C_3 
REMARK    2  A    between atoms: C_3  and  C_4 
REMARK    3  A    between atoms: C_6  and  C_7 
REMARK       I    between atoms: C_7  and  N_8 
REMARK    4  A    between atoms: N_8  and  C_9 
REMARK    5  A    between atoms: C_10  and  O_11 
ROOT
HETATM    1  C   UNL     1      -7.887   0.782 -34.330  1.00  0.00     0.071 A 
HETATM    2  C   UNL     1      -6.823   1.104 -33.463  1.00  0.00     0.096 A 
HETATM    3  C   UNL     1      -5.787   0.200 -33.183  1.00  0.00     0.054 A 
HETATM    4  C   UNL     1      -5.856  -1.084 -33.755  1.00  0.00     0.014 A 
HETATM    5  C   UNL     1      -6.923  -1.377 -34.597  1.00  0.00     0.089 A 
HETATM    6  O   UNL     1      -6.831  -2.656 -35.055  1.00  0.00    -0.309 OA
HETATM    7  C   UNL     1      -5.711  -3.198 -34.506  1.00  0.00     0.087 A 
HETATM    8  C   UNL     1      -5.065  -2.269 -33.697  1.00  0.00     0.011 A 
HETATM    9  C   UNL     1      -5.265  -4.501 -34.712  1.00  0.00     0.038 A 
HETATM   10  C   UNL     1      -4.092  -4.873 -34.049  1.00  0.00     0.003 A 
HETATM   11  C   UNL     1      -3.410  -3.970 -33.228  1.00  0.00     0.001 A 
HETATM   12  C   UNL     1      -3.882  -2.662 -33.042  1.00  0.00     0.015 A 
HETATM   13  C   UNL     1      -7.946  -0.483 -34.919  1.00  0.00     0.070 A 
ENDROOT
BRANCH   1  14
HETATM   14  N   UNL     1      -8.869   1.781 -34.522  1.00  0.00    -0.320 N 
HETATM   15  C   UNL     1     -10.164   1.789 -34.048  1.00  0.00     0.256 C 
HETATM   16  O   UNL     1     -10.708   0.906 -33.397  1.00  0.00    -0.267 OA
HETATM   17  H   UNL     1      -8.515   2.614 -34.978  1.00  0.00     0.169 HD
BRANCH  15  18
HETATM   18  C   UNL     1     -10.920   3.048 -34.306  1.00  0.00     0.033 A 
HETATM   19  C   UNL     1     -12.040   3.311 -33.504  1.00  0.00     0.026 A 
HETATM   20  C   UNL     1     -12.779   4.489 -33.670  1.00  0.00    -0.034 A 
HETATM   21  C   UNL     1     -12.385   5.399 -34.661  1.00  0.00     0.009 A 
HETATM   22  C   UNL     1     -11.281   5.133 -35.475  1.00  0.00     0.002 A 
HETATM   23  C   UNL     1     -10.548   3.958 -35.301  1.00  0.00     0.017 A 
BRANCH  20  24
HETATM   24  C   UNL     1     -13.968   4.774 -32.790  1.00  0.00     0.205 C 
BRANCH  24  25
HETATM   25  O   UNL     1     -13.671   4.364 -31.459  1.00  0.00    -0.391 OA
HETATM   26  C   UNL     1     -14.057   5.350 -30.513  1.00  0.00     0.201 C 
ENDBRANCH  24  25
ENDBRANCH  20  24
ENDBRANCH  15  18
ENDBRANCH   1  14
BRANCH   2  27
HETATM   27  O   UNL     1      -6.800   2.370 -32.917  1.00  0.00    -0.354 OA
HETATM   28  C   UNL     1      -6.485   2.315 -31.524  1.00  0.00     0.210 C 
ENDBRANCH   2  27
TORSDOF 5
ENDMDL
MODEL 9
REMARK VINA RESULT:      -7.7      5.224      8.682
REMARK  5 active torsions:
REMARK  status: ('A' for Active; 'I' for Inactive)
REMARK    1  A    between atoms: O_2  and  C_3 
REMARK    2  A    between atoms: C_3  and  C_4 
REMARK    3  A    between atoms: C_6  and  C_7 
REMARK       I    between atoms: C_7  and  N_8 
REMARK    4  A    between atoms: N_8  and  C_9 
REMARK    5  A    between atoms: C_10  and  O_11 
ROOT
HETATM    1  C   UNL     1      -9.145   1.266 -32.516  1.00  0.00     0.071 A 
HETATM    2  C   UNL     1      -8.125   1.473 -31.566  1.00  0.00     0.096 A 
HETATM    3  C   UNL     1      -6.909   0.774 -31.611  1.00  0.00     0.054 A 
HETATM    4  C   UNL     1      -6.739  -0.196 -32.616  1.00  0.00     0.014 A 
HETATM    5  C   UNL     1      -7.767  -0.386 -33.533  1.00  0.00     0.089 A 
HETATM    6  O   UNL     1      -7.435  -1.358 -34.426  1.00  0.00    -0.309 OA
HETATM    7  C   UNL     1      -6.197  -1.808 -34.085  1.00  0.00     0.087 A 
HETATM    8  C   UNL     1      -5.715  -1.120 -32.976  1.00  0.00     0.011 A 
HETATM    9  C   UNL     1      -5.500  -2.818 -34.744  1.00  0.00     0.038 A 
HETATM   10  C   UNL     1      -4.239  -3.142 -34.235  1.00  0.00     0.003 A 
HETATM   11  C   UNL     1      -3.717  -2.475 -33.123  1.00  0.00     0.001 A 
HETATM   12  C   UNL     1      -4.441  -1.460 -32.482  1.00  0.00     0.015 A 
HETATM   13  C   UNL     1      -8.971   0.321 -33.530  1.00  0.00     0.070 A 
ENDROOT
BRANCH   1  14
HETATM   14  N   UNL     1     -10.324   2.030 -32.353  1.00  0.00    -0.320 N 
HETATM   15  C   UNL     1     -10.632   3.238 -32.944  1.00  0.00     0.256 C 
HETATM   16  O   UNL     1      -9.914   3.885 -33.696  1.00  0.00    -0.267 OA
HETATM   17  H   UNL     1     -11.042   1.557 -31.816  1.00  0.00     0.169 HD
BRANCH  15  18
HETATM   18  C   UNL     1     -12.012   3.733 -32.679  1.00  0.00     0.033 A 
HETATM   19  C   UNL     1     -13.061   2.806 -32.745  1.00  0.00     0.026 A 
HETATM   20  C   UNL     1     -14.380   3.195 -32.477  1.00  0.00    -0.034 A 
HETATM   21  C   UNL     1     -14.635   4.534 -32.150  1.00  0.00     0.009 A 
HETATM   22  C   UNL     1     -13.596   5.466 -32.101  1.00  0.00     0.002 A 
HETATM   23  C   UNL     1     -12.284   5.070 -32.367  1.00  0.00     0.017 A 
BRANCH  20  24
HETATM   24  C   UNL     1     -15.499   2.186 -32.530  1.00  0.00     0.205 C 
BRANCH  24  25
HETATM   25  O   UNL     1     -14.985   0.946 -33.007  1.00  0.00    -0.391 OA
HETATM   26  C   UNL     1     -15.322   0.734 -34.370  1.00  0.00     0.201 C 
ENDBRANCH  24  25
ENDBRANCH  20  24
ENDBRANCH  15  18
ENDBRANCH   1  14
BRANCH   2  27
HETATM   27  O   UNL     1      -8.337   2.426 -30.592  1.00  0.00    -0.354 OA
HETATM   28  C   UNL     1      -7.100   2.844 -30.013  1.00  0.00     0.210 C 
ENDBRANCH   2  27
TORSDOF 5
ENDMDL
MODEL 10
REMARK VINA RESULT:      -7.7      4.080      7.312
REMARK  5 active torsions:
REMARK  status: ('A' for Active; 'I' for Inactive)
REMARK    1  A    between atoms: O_2  and  C_3 
REMARK    2  A    between atoms: C_3  and  C_4 
REMARK    3  A    between atoms: C_6  and  C_7 
REMARK       I    between atoms: C_7  and  N_8 
REMARK    4  A    between atoms: N_8  and  C_9 
REMARK    5  A    between atoms: C_10  and  O_11 
ROOT
HETATM    1  C   UNL     1      -6.997   0.955 -34.249  1.00  0.00     0.071 A 
HETATM    2  C   UNL     1      -5.880   1.047 -33.394  1.00  0.00     0.096 A 
HETATM    3  C   UNL     1      -5.030  -0.044 -33.155  1.00  0.00     0.054 A 
HETATM    4  C   UNL     1      -5.347  -1.275 -33.758  1.00  0.00     0.014 A 
HETATM    5  C   UNL     1      -6.461  -1.338 -34.588  1.00  0.00     0.089 A 
HETATM    6  O   UNL     1      -6.618  -2.598 -35.080  1.00  0.00    -0.309 OA
HETATM    7  C   UNL     1      -5.614  -3.356 -34.564  1.00  0.00     0.087 A 
HETATM    8  C   UNL     1      -4.794  -2.589 -33.744  1.00  0.00     0.011 A 
HETATM    9  C   UNL     1      -5.424  -4.714 -34.811  1.00  0.00     0.038 A 
HETATM   10  C   UNL     1      -4.334  -5.318 -34.180  1.00  0.00     0.003 A 
HETATM   11  C   UNL     1      -3.483  -4.583 -33.349  1.00  0.00     0.001 A 
HETATM   12  C   UNL     1      -3.698  -3.216 -33.121  1.00  0.00     0.015 A 
HETATM   13  C   UNL     1      -7.301  -0.259 -34.869  1.00  0.00     0.070 A 
ENDROOT
BRANCH   1  14
HETATM   14  N   UNL     1      -7.775   2.127 -34.398  1.00  0.00    -0.320 N 
HETATM   15  C   UNL     1      -9.101   2.304 -34.062  1.00  0.00     0.256 C 
HETATM   16  O   UNL     1      -9.855   1.456 -33.600  1.00  0.00    -0.267 OA
HETATM   17  H   UNL     1      -7.238   2.934 -34.694  1.00  0.00     0.169 HD
BRANCH  15  18
HETATM   18  C   UNL     1      -9.608   3.696 -34.216  1.00  0.00     0.033 A 
HETATM   19  C   UNL     1     -10.870   3.869 -34.802  1.00  0.00     0.026 A 
HETATM   20  C   UNL     1     -11.423   5.148 -34.951  1.00  0.00    -0.034 A 
HETATM   21  C   UNL     1     -10.686   6.256 -34.511  1.00  0.00     0.009 A 
HETATM   22  C   UNL     1      -9.420   6.091 -33.945  1.00  0.00     0.002 A 
HETATM   23  C   UNL     1      -8.878   4.814 -33.798  1.00  0.00     0.017 A 
BRANCH  20  24
HETATM   24  C   UNL     1     -12.789   5.322 -35.562  1.00  0.00     0.205 C 
BRANCH  24  25
HETATM   25  O   UNL     1     -13.047   6.712 -35.735  1.00  0.00    -0.391 OA
HETATM   26  C   UNL     1     -14.016   6.939 -36.748  1.00  0.00     0.201 C 
ENDBRANCH  24  25
ENDBRANCH  20  24
ENDBRANCH  15  18
ENDBRANCH   1  14
BRANCH   2  27
HETATM   27  O   UNL     1      -5.611   2.269 -32.816  1.00  0.00    -0.354 OA
HETATM   28  C   UNL     1      -5.271   2.115 -31.437  1.00  0.00     0.210 C 
ENDBRANCH   2  27
TORSDOF 5
ENDMDL
