MODEL 1
REMARK VINA RESULT:      -8.9      0.000      0.000
REMARK  6 active torsions:
REMARK  status: ('A' for Active; 'I' for Inactive)
REMARK    1  A    between atoms: C_2  and  O_3 
REMARK    2  A    between atoms: C_2  and  C_4 
REMARK    3  A    between atoms: C_2  and  C_11 
REMARK    4  A    between atoms: C_11  and  N_12 
REMARK       I    between atoms: N_12  and  C_13 
REMARK    5  A    between atoms: C_13  and  C_14 
REMARK    6  A    between atoms: C_18  and  C_19 
ROOT
HETATM    1  N   UNL     1      -2.713   3.895 -31.322  1.00  0.00    -0.352 N 
HETATM    2  C   UNL     1      -3.944   3.289 -31.235  1.00  0.00     0.272 C 
HETATM    3  O   UNL     1      -4.957   3.866 -30.849  1.00  0.00    -0.266 OA
HETATM    4  H   UNL     1      -1.976   3.354 -31.770  1.00  0.00     0.162 HD
ENDROOT
BRANCH   2   5
HETATM    5  C   UNL     1      -3.945   1.883 -31.665  1.00  0.00     0.146 A 
HETATM    6  N   UNL     1      -3.010   1.000 -31.259  1.00  0.00    -0.169 NA
HETATM    7  N   UNL     1      -3.355  -0.143 -31.874  1.00  0.00    -0.277 N 
HETATM    8  H   UNL     1      -2.765  -0.955 -31.733  1.00  0.00     0.189 HD
HETATM    9  C   UNL     1      -4.482  -0.057 -32.651  1.00  0.00     0.063 A 
HETATM   10  C   UNL     1      -4.876   1.263 -32.537  1.00  0.00     0.071 A 
BRANCH   9  11
HETATM   11  C   UNL     1      -5.041  -1.170 -33.416  1.00  0.00    -0.008 A 
HETATM   12  C   UNL     1      -4.251  -2.271 -33.786  1.00  0.00     0.017 A 
HETATM   13  C   UNL     1      -4.802  -3.328 -34.516  1.00  0.00     0.043 A 
HETATM   14  C   UNL     1      -6.142  -3.290 -34.876  1.00  0.00     0.116 A 
HETATM   15  F   UNL     1      -6.667  -4.305 -35.576  1.00  0.00    -0.206 F 
HETATM   16  C   UNL     1      -6.944  -2.216 -34.518  1.00  0.00     0.043 A 
HETATM   17  C   UNL     1      -6.395  -1.160 -33.787  1.00  0.00     0.017 A 
ENDBRANCH   9  11
ENDBRANCH   2   5
BRANCH   1  18
HETATM   18  C   UNL     1      -2.498   5.311 -31.085  1.00  0.00     0.165 C 
BRANCH  18  19
HETATM   19  C   UNL     1      -0.995   5.736 -31.161  1.00  0.00     0.099 C 
HETATM   20  C   UNL     1      -0.745   6.533 -32.452  1.00  0.00     0.053 C 
BRANCH  19  21
HETATM   21  O   UNL     1      -0.274   4.493 -31.234  1.00  0.00    -0.384 OA
HETATM   22  H   UNL     1      -0.665   3.891 -30.576  1.00  0.00     0.211 HD
ENDBRANCH  19  21
BRANCH  19  23
HETATM   23  C   UNL     1      -0.512   6.550 -29.945  1.00  0.00    -0.001 A 
HETATM   24  C   UNL     1      -0.997   7.840 -29.631  1.00  0.00     0.043 A 
HETATM   25 CL   UNL     1      -2.183   8.666 -30.589  1.00  0.00    -0.084 Cl
HETATM   26  C   UNL     1      -0.548   8.535 -28.497  1.00  0.00     0.024 A 
HETATM   27  C   UNL     1       0.387   7.964 -27.642  1.00  0.00     0.002 A 
HETATM   28  C   UNL     1       0.873   6.693 -27.914  1.00  0.00     0.001 A 
HETATM   29  C   UNL     1       0.427   5.997 -29.044  1.00  0.00     0.012 A 
ENDBRANCH  19  23
ENDBRANCH  18  19
ENDBRANCH   1  18
TORSDOF 6
ENDMDL
MODEL 2
REMARK VINA RESULT:      -8.8      2.492      3.486
REMARK  6 active torsions:
REMARK  status: ('A' for Active; 'I' for Inactive)
REMARK    1  A    between atoms: C_2  and  O_3 
REMARK    2  A    between atoms: C_2  and  C_4 
REMARK    3  A    between atoms: C_2  and  C_11 
REMARK    4  A    between atoms: C_11  and  N_12 
REMARK       I    between atoms: N_12  and  C_13 
REMARK    5  A    between atoms: C_13  and  C_14 
REMARK    6  A    between atoms: C_18  and  C_19 
ROOT
HETATM    1  N   UNL     1      -4.587   3.212 -31.309  1.00  0.00    -0.352 N 
HETATM    2  C   UNL     1      -3.396   2.530 -31.394  1.00  0.00     0.272 C 
HETATM    3  O   UNL     1      -2.302   3.049 -31.185  1.00  0.00    -0.266 OA
HETATM    4  H   UNL     1      -5.432   2.650 -31.382  1.00  0.00     0.162 HD
ENDROOT
BRANCH   2   5
HETATM    5  C   UNL     1      -3.549   1.110 -31.742  1.00  0.00     0.146 A 
HETATM    6  N   UNL     1      -2.813   0.139 -31.164  1.00  0.00    -0.169 NA
HETATM    7  N   UNL     1      -3.242  -0.988 -31.756  1.00  0.00    -0.277 N 
HETATM    8  H   UNL     1      -2.800  -1.861 -31.492  1.00  0.00     0.189 HD
HETATM    9  C   UNL     1      -4.235  -0.804 -32.683  1.00  0.00     0.063 A 
HETATM   10  C   UNL     1      -4.442   0.562 -32.697  1.00  0.00     0.071 A 
BRANCH   9  11
HETATM   11  C   UNL     1      -4.850  -1.883 -33.455  1.00  0.00    -0.008 A 
HETATM   12  C   UNL     1      -4.149  -3.066 -33.743  1.00  0.00     0.017 A 
HETATM   13  C   UNL     1      -4.753  -4.089 -34.480  1.00  0.00     0.043 A 
HETATM   14  C   UNL     1      -6.057  -3.934 -34.930  1.00  0.00     0.116 A 
HETATM   15  F   UNL     1      -6.633  -4.916 -35.636  1.00  0.00    -0.206 F 
HETATM   16  C   UNL     1      -6.772  -2.777 -34.653  1.00  0.00     0.043 A 
HETATM   17  C   UNL     1      -6.171  -1.756 -33.915  1.00  0.00     0.017 A 
ENDBRANCH   9  11
ENDBRANCH   2   5
BRANCH   1  18
HETATM   18  C   UNL     1      -4.695   4.584 -30.845  1.00  0.00     0.165 C 
BRANCH  18  19
HETATM   19  C   UNL     1      -4.808   5.627 -32.003  1.00  0.00     0.099 C 
HETATM   20  C   UNL     1      -5.170   7.006 -31.426  1.00  0.00     0.053 C 
BRANCH  19  21
HETATM   21  O   UNL     1      -5.906   5.156 -32.805  1.00  0.00    -0.384 OA
HETATM   22  H   UNL     1      -6.639   4.947 -32.199  1.00  0.00     0.211 HD
ENDBRANCH  19  21
BRANCH  19  23
HETATM   23  C   UNL     1      -3.538   5.742 -32.870  1.00  0.00    -0.001 A 
HETATM   24  C   UNL     1      -2.329   6.308 -32.405  1.00  0.00     0.043 A 
HETATM   25 CL   UNL     1      -2.137   6.957 -30.809  1.00  0.00    -0.084 Cl
HETATM   26  C   UNL     1      -1.189   6.368 -33.222  1.00  0.00     0.024 A 
HETATM   27  C   UNL     1      -1.217   5.859 -34.515  1.00  0.00     0.002 A 
HETATM   28  C   UNL     1      -2.384   5.285 -34.995  1.00  0.00     0.001 A 
HETATM   29  C   UNL     1      -3.524   5.223 -34.185  1.00  0.00     0.012 A 
ENDBRANCH  19  23
ENDBRANCH  18  19
ENDBRANCH   1  18
TORSDOF 6
ENDMDL
MODEL 3
REMARK VINA RESULT:      -8.7      1.972      2.405
REMARK  6 active torsions:
REMARK  status: ('A' for Active; 'I' for Inactive)
REMARK    1  A    between atoms: C_2  and  O_3 
REMARK    2  A    between atoms: C_2  and  C_4 
REMARK    3  A    between atoms: C_2  and  C_11 
REMARK    4  A    between atoms: C_11  and  N_12 
REMARK       I    between atoms: N_12  and  C_13 
REMARK    5  A    between atoms: C_13  and  C_14 
REMARK    6  A    between atoms: C_18  and  C_19 
ROOT
HETATM    1  N   UNL     1      -4.293   3.663 -32.587  1.00  0.00    -0.352 N 
HETATM    2  C   UNL     1      -5.555   3.162 -32.372  1.00  0.00     0.272 C 
HETATM    3  O   UNL     1      -6.376   3.691 -31.627  1.00  0.00    -0.266 OA
HETATM    4  H   UNL     1      -3.747   3.209 -33.316  1.00  0.00     0.162 HD
ENDROOT
BRANCH   2   5
HETATM    5  C   UNL     1      -5.843   1.937 -33.131  1.00  0.00     0.146 A 
HETATM    6  N   UNL     1      -6.717   1.909 -34.157  1.00  0.00    -0.169 NA
HETATM    7  N   UNL     1      -6.701   0.628 -34.562  1.00  0.00    -0.277 N 
HETATM    8  H   UNL     1      -7.317   0.363 -35.323  1.00  0.00     0.189 HD
HETATM    9  C   UNL     1      -5.846  -0.183 -33.861  1.00  0.00     0.063 A 
HETATM   10  C   UNL     1      -5.284   0.652 -32.913  1.00  0.00     0.071 A 
BRANCH   9  11
HETATM   11  C   UNL     1      -5.667  -1.610 -34.121  1.00  0.00    -0.008 A 
HETATM   12  C   UNL     1      -4.435  -2.244 -33.895  1.00  0.00     0.017 A 
HETATM   13  C   UNL     1      -4.281  -3.611 -34.146  1.00  0.00     0.043 A 
HETATM   14  C   UNL     1      -5.357  -4.347 -34.622  1.00  0.00     0.116 A 
HETATM   15  F   UNL     1      -5.207  -5.656 -34.862  1.00  0.00    -0.206 F 
HETATM   16  C   UNL     1      -6.587  -3.744 -34.849  1.00  0.00     0.043 A 
HETATM   17  C   UNL     1      -6.741  -2.380 -34.596  1.00  0.00     0.017 A 
ENDBRANCH   9  11
ENDBRANCH   2   5
BRANCH   1  18
HETATM   18  C   UNL     1      -3.834   4.935 -32.057  1.00  0.00     0.165 C 
BRANCH  18  19
HETATM   19  C   UNL     1      -2.293   4.986 -31.801  1.00  0.00     0.099 C 
HETATM   20  C   UNL     1      -1.548   5.118 -33.140  1.00  0.00     0.053 C 
BRANCH  19  21
HETATM   21  O   UNL     1      -1.983   3.705 -31.221  1.00  0.00    -0.384 OA
HETATM   22  H   UNL     1      -1.065   3.491 -31.464  1.00  0.00     0.211 HD
ENDBRANCH  19  21
BRANCH  19  23
HETATM   23  C   UNL     1      -1.852   6.113 -30.846  1.00  0.00    -0.001 A 
HETATM   24  C   UNL     1      -0.523   6.271 -30.393  1.00  0.00     0.043 A 
HETATM   25 CL   UNL     1       0.767   5.205 -30.846  1.00  0.00    -0.084 Cl
HETATM   26  C   UNL     1      -0.161   7.328 -29.543  1.00  0.00     0.024 A 
HETATM   27  C   UNL     1      -1.106   8.260 -29.130  1.00  0.00     0.002 A 
HETATM   28  C   UNL     1      -2.417   8.139 -29.568  1.00  0.00     0.001 A 
HETATM   29  C   UNL     1      -2.782   7.086 -30.415  1.00  0.00     0.012 A 
ENDBRANCH  19  23
ENDBRANCH  18  19
ENDBRANCH   1  18
TORSDOF 6
ENDMDL
MODEL 4
REMARK VINA RESULT:      -8.7      6.433      9.043
REMARK  6 active torsions:
REMARK  status: ('A' for Active; 'I' for Inactive)
REMARK    1  A    between atoms: C_2  and  O_3 
REMARK    2  A    between atoms: C_2  and  C_4 
REMARK    3  A    between atoms: C_2  and  C_11 
REMARK    4  A    between atoms: C_11  and  N_12 
REMARK       I    between atoms: N_12  and  C_13 
REMARK    5  A    between atoms: C_13  and  C_14 
REMARK    6  A    between atoms: C_18  and  C_19 
ROOT
HETATM    1  N   UNL     1      -6.493  -0.351 -32.123  1.00  0.00    -0.352 N 
HETATM    2  C   UNL     1      -6.869   0.953 -32.348  1.00  0.00     0.272 C 
HETATM    3  O   UNL     1      -6.213   1.921 -31.974  1.00  0.00    -0.266 OA
HETATM    4  H   UNL     1      -7.050  -1.065 -32.585  1.00  0.00     0.162 HD
ENDROOT
BRANCH   2   5
HETATM    5  C   UNL     1      -8.126   1.086 -33.099  1.00  0.00     0.146 A 
HETATM    6  N   UNL     1      -8.159   1.421 -34.404  1.00  0.00    -0.169 NA
HETATM    7  N   UNL     1      -9.469   1.447 -34.699  1.00  0.00    -0.277 N 
HETATM    8  H   UNL     1      -9.739   1.708 -35.641  1.00  0.00     0.189 HD
HETATM    9  C   UNL     1     -10.297   1.128 -33.653  1.00  0.00     0.063 A 
HETATM   10  C   UNL     1      -9.439   0.900 -32.595  1.00  0.00     0.071 A 
BRANCH   9  11
HETATM   11  C   UNL     1     -11.756   1.097 -33.739  1.00  0.00    -0.008 A 
HETATM   12  C   UNL     1     -12.472  -0.098 -33.562  1.00  0.00     0.017 A 
HETATM   13  C   UNL     1     -13.868  -0.111 -33.645  1.00  0.00     0.043 A 
HETATM   14  C   UNL     1     -14.551   1.069 -33.904  1.00  0.00     0.116 A 
HETATM   15  F   UNL     1     -15.888   1.055 -33.983  1.00  0.00    -0.206 F 
HETATM   16  C   UNL     1     -13.866   2.264 -34.078  1.00  0.00     0.043 A 
HETATM   17  C   UNL     1     -12.473   2.277 -33.993  1.00  0.00     0.017 A 
ENDBRANCH   9  11
ENDBRANCH   2   5
BRANCH   1  18
HETATM   18  C   UNL     1      -5.223  -0.727 -31.527  1.00  0.00     0.165 C 
BRANCH  18  19
HETATM   19  C   UNL     1      -4.127  -1.099 -32.577  1.00  0.00     0.099 C 
HETATM   20  C   UNL     1      -2.734  -0.991 -31.935  1.00  0.00     0.053 C 
BRANCH  19  21
HETATM   21  O   UNL     1      -4.248  -0.090 -33.596  1.00  0.00    -0.384 OA
HETATM   22  H   UNL     1      -4.000  -0.501 -34.444  1.00  0.00     0.211 HD
ENDBRANCH  19  21
BRANCH  19  23
HETATM   23  C   UNL     1      -4.305  -2.497 -33.202  1.00  0.00    -0.001 A 
HETATM   24  C   UNL     1      -5.232  -2.774 -34.233  1.00  0.00     0.043 A 
HETATM   25 CL   UNL     1      -6.290  -1.576 -34.904  1.00  0.00    -0.084 Cl
HETATM   26  C   UNL     1      -5.343  -4.057 -34.791  1.00  0.00     0.024 A 
HETATM   27  C   UNL     1      -4.531  -5.094 -34.348  1.00  0.00     0.002 A 
HETATM   28  C   UNL     1      -3.602  -4.851 -33.347  1.00  0.00     0.001 A 
HETATM   29  C   UNL     1      -3.488  -3.573 -32.787  1.00  0.00     0.012 A 
ENDBRANCH  19  23
ENDBRANCH  18  19
ENDBRANCH   1  18
TORSDOF 6
ENDMDL
MODEL 5
REMARK VINA RESULT:      -8.5      4.777      9.141
REMARK  6 active torsions:
REMARK  status: ('A' for Active; 'I' for Inactive)
REMARK    1  A    between atoms: C_2  and  O_3 
REMARK    2  A    between atoms: C_2  and  C_4 
REMARK    3  A    between atoms: C_2  and  C_11 
REMARK    4  A    between atoms: C_11  and  N_12 
REMARK       I    between atoms: N_12  and  C_13 
REMARK    5  A    between atoms: C_13  and  C_14 
REMARK    6  A    between atoms: C_18  and  C_19 
ROOT
HETATM    1  N   UNL     1      -7.288   2.893 -33.296  1.00  0.00    -0.352 N 
HETATM    2  C   UNL     1      -7.132   4.148 -33.835  1.00  0.00     0.272 C 
HETATM    3  O   UNL     1      -8.067   4.834 -34.239  1.00  0.00    -0.266 OA
HETATM    4  H   UNL     1      -6.457   2.474 -32.885  1.00  0.00     0.162 HD
ENDROOT
BRANCH   2   5
HETATM    5  C   UNL     1      -5.736   4.609 -33.869  1.00  0.00     0.146 A 
HETATM    6  N   UNL     1      -5.042   4.737 -35.017  1.00  0.00    -0.169 NA
HETATM    7  N   UNL     1      -3.831   5.162 -34.619  1.00  0.00    -0.277 N 
HETATM    8  H   UNL     1      -3.120   5.303 -35.328  1.00  0.00     0.189 HD
HETATM    9  C   UNL     1      -3.703   5.335 -33.265  1.00  0.00     0.063 A 
HETATM   10  C   UNL     1      -4.934   4.967 -32.755  1.00  0.00     0.071 A 
BRANCH   9  11
HETATM   11  C   UNL     1      -2.478   5.783 -32.605  1.00  0.00    -0.008 A 
HETATM   12  C   UNL     1      -1.729   4.919 -31.790  1.00  0.00     0.017 A 
HETATM   13  C   UNL     1      -0.558   5.363 -31.168  1.00  0.00     0.043 A 
HETATM   14  C   UNL     1      -0.133   6.671 -31.360  1.00  0.00     0.116 A 
HETATM   15  F   UNL     1       0.989   7.094 -30.762  1.00  0.00    -0.206 F 
HETATM   16  C   UNL     1      -0.853   7.543 -32.164  1.00  0.00     0.043 A 
HETATM   17  C   UNL     1      -2.021   7.099 -32.787  1.00  0.00     0.017 A 
ENDBRANCH   9  11
ENDBRANCH   2   5
BRANCH   1  18
HETATM   18  C   UNL     1      -8.583   2.289 -33.032  1.00  0.00     0.165 C 
BRANCH  18  19
HETATM   19  C   UNL     1      -8.492   0.910 -32.302  1.00  0.00     0.099 C 
HETATM   20  C   UNL     1      -9.740   0.071 -32.620  1.00  0.00     0.053 C 
BRANCH  19  21
HETATM   21  O   UNL     1      -8.500   1.245 -30.902  1.00  0.00    -0.384 OA
HETATM   22  H   UNL     1      -7.898   0.626 -30.452  1.00  0.00     0.211 HD
ENDBRANCH  19  21
BRANCH  19  23
HETATM   23  C   UNL     1      -7.222   0.105 -32.640  1.00  0.00    -0.001 A 
HETATM   24  C   UNL     1      -6.908  -0.339 -33.944  1.00  0.00     0.043 A 
HETATM   25 CL   UNL     1      -7.925  -0.044 -35.317  1.00  0.00    -0.084 Cl
HETATM   26  C   UNL     1      -5.727  -1.049 -34.211  1.00  0.00     0.024 A 
HETATM   27  C   UNL     1      -4.823  -1.327 -33.192  1.00  0.00     0.002 A 
HETATM   28  C   UNL     1      -5.095  -0.892 -31.904  1.00  0.00     0.001 A 
HETATM   29  C   UNL     1      -6.272  -0.185 -31.633  1.00  0.00     0.012 A 
ENDBRANCH  19  23
ENDBRANCH  18  19
ENDBRANCH   1  18
TORSDOF 6
ENDMDL
MODEL 6
REMARK VINA RESULT:      -8.5      4.250      9.488
REMARK  6 active torsions:
REMARK  status: ('A' for Active; 'I' for Inactive)
REMARK    1  A    between atoms: C_2  and  O_3 
REMARK    2  A    between atoms: C_2  and  C_4 
REMARK    3  A    between atoms: C_2  and  C_11 
REMARK    4  A    between atoms: C_11  and  N_12 
REMARK       I    between atoms: N_12  and  C_13 
REMARK    5  A    between atoms: C_13  and  C_14 
REMARK    6  A    between atoms: C_18  and  C_19 
ROOT
HETATM    1  N   UNL     1      -5.888   2.957 -33.816  1.00  0.00    -0.352 N 
HETATM    2  C   UNL     1      -5.968   4.323 -33.956  1.00  0.00     0.272 C 
HETATM    3  O   UNL     1      -6.997   4.912 -34.276  1.00  0.00    -0.266 OA
HETATM    4  H   UNL     1      -5.019   2.596 -33.429  1.00  0.00     0.162 HD
ENDROOT
BRANCH   2   5
HETATM    5  C   UNL     1      -4.708   5.024 -33.669  1.00  0.00     0.146 A 
HETATM    6  N   UNL     1      -3.978   5.625 -34.629  1.00  0.00    -0.169 NA
HETATM    7  N   UNL     1      -2.920   6.125 -33.967  1.00  0.00    -0.277 N 
HETATM    8  H   UNL     1      -2.208   6.607 -34.505  1.00  0.00     0.189 HD
HETATM    9  C   UNL     1      -2.931   5.894 -32.616  1.00  0.00     0.063 A 
HETATM   10  C   UNL     1      -4.085   5.165 -32.403  1.00  0.00     0.071 A 
BRANCH   9  11
HETATM   11  C   UNL     1      -1.884   6.338 -31.698  1.00  0.00    -0.008 A 
HETATM   12  C   UNL     1      -0.534   6.356 -32.083  1.00  0.00     0.017 A 
HETATM   13  C   UNL     1       0.455   6.786 -31.194  1.00  0.00     0.043 A 
HETATM   14  C   UNL     1       0.098   7.200 -29.918  1.00  0.00     0.116 A 
HETATM   15  F   UNL     1       1.047   7.612 -29.067  1.00  0.00    -0.206 F 
HETATM   16  C   UNL     1      -1.230   7.196 -29.514  1.00  0.00     0.043 A 
HETATM   17  C   UNL     1      -2.218   6.769 -30.404  1.00  0.00     0.017 A 
ENDBRANCH   9  11
ENDBRANCH   2   5
BRANCH   1  18
HETATM   18  C   UNL     1      -7.036   2.073 -33.911  1.00  0.00     0.165 C 
BRANCH  18  19
HETATM   19  C   UNL     1      -6.985   0.874 -32.909  1.00  0.00     0.099 C 
HETATM   20  C   UNL     1      -8.399   0.574 -32.386  1.00  0.00     0.053 C 
BRANCH  19  21
HETATM   21  O   UNL     1      -6.178   1.353 -31.817  1.00  0.00    -0.384 OA
HETATM   22  H   UNL     1      -5.246   1.277 -32.089  1.00  0.00     0.211 HD
ENDBRANCH  19  21
BRANCH  19  23
HETATM   23  C   UNL     1      -6.363  -0.408 -33.496  1.00  0.00    -0.001 A 
HETATM   24  C   UNL     1      -4.979  -0.693 -33.446  1.00  0.00     0.043 A 
HETATM   25 CL   UNL     1      -3.816   0.377 -32.733  1.00  0.00    -0.084 Cl
HETATM   26  C   UNL     1      -4.459  -1.886 -33.971  1.00  0.00     0.024 A 
HETATM   27  C   UNL     1      -5.299  -2.831 -34.548  1.00  0.00     0.002 A 
HETATM   28  C   UNL     1      -6.664  -2.587 -34.600  1.00  0.00     0.001 A 
HETATM   29  C   UNL     1      -7.186  -1.398 -34.078  1.00  0.00     0.012 A 
ENDBRANCH  19  23
ENDBRANCH  18  19
ENDBRANCH   1  18
TORSDOF 6
ENDMDL
MODEL 7
REMARK VINA RESULT:      -8.3      1.951      2.423
REMARK  6 active torsions:
REMARK  status: ('A' for Active; 'I' for Inactive)
REMARK    1  A    between atoms: C_2  and  O_3 
REMARK    2  A    between atoms: C_2  and  C_4 
REMARK    3  A    between atoms: C_2  and  C_11 
REMARK    4  A    between atoms: C_11  and  N_12 
REMARK       I    between atoms: N_12  and  C_13 
REMARK    5  A    between atoms: C_13  and  C_14 
REMARK    6  A    between atoms: C_18  and  C_19 
ROOT
HETATM    1  N   UNL     1      -4.493   4.258 -32.609  1.00  0.00    -0.352 N 
HETATM    2  C   UNL     1      -5.809   4.016 -32.294  1.00  0.00     0.272 C 
HETATM    3  O   UNL     1      -6.568   4.873 -31.848  1.00  0.00    -0.266 OA
HETATM    4  H   UNL     1      -3.999   3.506 -33.085  1.00  0.00     0.162 HD
ENDROOT
BRANCH   2   5
HETATM    5  C   UNL     1      -6.238   2.635 -32.560  1.00  0.00     0.146 A 
HETATM    6  N   UNL     1      -7.463   2.181 -32.230  1.00  0.00    -0.169 NA
HETATM    7  N   UNL     1      -7.449   0.896 -32.622  1.00  0.00    -0.277 N 
HETATM    8  H   UNL     1      -8.276   0.336 -32.445  1.00  0.00     0.189 HD
HETATM    9  C   UNL     1      -6.278   0.490 -33.209  1.00  0.00     0.063 A 
HETATM   10  C   UNL     1      -5.469   1.610 -33.167  1.00  0.00     0.071 A 
BRANCH   9  11
HETATM   11  C   UNL     1      -6.033  -0.862 -33.706  1.00  0.00    -0.008 A 
HETATM   12  C   UNL     1      -7.081  -1.666 -34.183  1.00  0.00     0.017 A 
HETATM   13  C   UNL     1      -6.829  -2.957 -34.658  1.00  0.00     0.043 A 
HETATM   14  C   UNL     1      -5.530  -3.446 -34.659  1.00  0.00     0.116 A 
HETATM   15  F   UNL     1      -5.291  -4.684 -35.115  1.00  0.00    -0.206 F 
HETATM   16  C   UNL     1      -4.476  -2.670 -34.198  1.00  0.00     0.043 A 
HETATM   17  C   UNL     1      -4.728  -1.380 -33.726  1.00  0.00     0.017 A 
ENDBRANCH   9  11
ENDBRANCH   2   5
BRANCH   1  18
HETATM   18  C   UNL     1      -3.887   5.577 -32.563  1.00  0.00     0.165 C 
BRANCH  18  19
HETATM   19  C   UNL     1      -2.397   5.597 -33.036  1.00  0.00     0.099 C 
HETATM   20  C   UNL     1      -2.247   6.543 -34.239  1.00  0.00     0.053 C 
BRANCH  19  21
HETATM   21  O   UNL     1      -2.141   4.248 -33.471  1.00  0.00    -0.384 OA
HETATM   22  H   UNL     1      -2.451   4.176 -34.391  1.00  0.00     0.211 HD
ENDBRANCH  19  21
BRANCH  19  23
HETATM   23  C   UNL     1      -1.394   5.991 -31.934  1.00  0.00    -0.001 A 
HETATM   24  C   UNL     1      -1.430   7.232 -31.260  1.00  0.00     0.043 A 
HETATM   25 CL   UNL     1      -2.597   8.467 -31.606  1.00  0.00    -0.084 Cl
HETATM   26  C   UNL     1      -0.512   7.539 -30.243  1.00  0.00     0.024 A 
HETATM   27  C   UNL     1       0.457   6.618 -29.863  1.00  0.00     0.002 A 
HETATM   28  C   UNL     1       0.510   5.385 -30.496  1.00  0.00     0.001 A 
HETATM   29  C   UNL     1      -0.404   5.075 -31.511  1.00  0.00     0.012 A 
ENDBRANCH  19  23
ENDBRANCH  18  19
ENDBRANCH   1  18
TORSDOF 6
ENDMDL
MODEL 8
REMARK VINA RESULT:      -8.3      4.606     10.205
REMARK  6 active torsions:
REMARK  status: ('A' for Active; 'I' for Inactive)
REMARK    1  A    between atoms: C_2  and  O_3 
REMARK    2  A    between atoms: C_2  and  C_4 
REMARK    3  A    between atoms: C_2  and  C_11 
REMARK    4  A    between atoms: C_11  and  N_12 
REMARK       I    between atoms: N_12  and  C_13 
REMARK    5  A    between atoms: C_13  and  C_14 
REMARK    6  A    between atoms: C_18  and  C_19 
ROOT
HETATM    1  N   UNL     1      -3.441   3.794 -31.766  1.00  0.00    -0.352 N 
HETATM    2  C   UNL     1      -2.401   4.384 -32.445  1.00  0.00     0.272 C 
HETATM    3  O   UNL     1      -2.267   4.322 -33.665  1.00  0.00    -0.266 OA
HETATM    4  H   UNL     1      -3.514   4.016 -30.776  1.00  0.00     0.162 HD
ENDROOT
BRANCH   2   5
HETATM    5  C   UNL     1      -1.467   5.117 -31.579  1.00  0.00     0.146 A 
HETATM    6  N   UNL     1      -0.157   4.809 -31.500  1.00  0.00    -0.169 NA
HETATM    7  N   UNL     1       0.330   5.688 -30.609  1.00  0.00    -0.277 N 
HETATM    8  H   UNL     1       1.313   5.625 -30.367  1.00  0.00     0.189 HD
HETATM    9  C   UNL     1      -0.595   6.570 -30.111  1.00  0.00     0.063 A 
HETATM   10  C   UNL     1      -1.779   6.205 -30.724  1.00  0.00     0.071 A 
BRANCH   9  11
HETATM   11  C   UNL     1      -0.295   7.609 -29.128  1.00  0.00    -0.008 A 
HETATM   12  C   UNL     1      -1.249   8.577 -28.774  1.00  0.00     0.017 A 
HETATM   13  C   UNL     1      -0.947   9.563 -27.830  1.00  0.00     0.043 A 
HETATM   14  C   UNL     1       0.307   9.583 -27.236  1.00  0.00     0.116 A 
HETATM   15  F   UNL     1       0.594  10.529 -26.332  1.00  0.00    -0.206 F 
HETATM   16  C   UNL     1       1.266   8.635 -27.565  1.00  0.00     0.043 A 
HETATM   17  C   UNL     1       0.964   7.649 -28.507  1.00  0.00     0.017 A 
ENDBRANCH   9  11
ENDBRANCH   2   5
BRANCH   1  18
HETATM   18  C   UNL     1      -4.558   3.138 -32.422  1.00  0.00     0.165 C 
BRANCH  18  19
HETATM   19  C   UNL     1      -4.624   1.599 -32.155  1.00  0.00     0.099 C 
HETATM   20  C   UNL     1      -5.159   1.341 -30.737  1.00  0.00     0.053 C 
BRANCH  19  21
HETATM   21  O   UNL     1      -3.253   1.165 -32.221  1.00  0.00    -0.384 OA
HETATM   22  H   UNL     1      -3.156   0.415 -31.607  1.00  0.00     0.211 HD
ENDBRANCH  19  21
BRANCH  19  23
HETATM   23  C   UNL     1      -5.469   0.820 -33.181  1.00  0.00    -0.001 A 
HETATM   24  C   UNL     1      -5.392  -0.582 -33.346  1.00  0.00     0.043 A 
HETATM   25 CL   UNL     1      -4.323  -1.588 -32.424  1.00  0.00    -0.084 Cl
HETATM   26  C   UNL     1      -6.200  -1.254 -34.276  1.00  0.00     0.024 A 
HETATM   27  C   UNL     1      -7.111  -0.554 -35.058  1.00  0.00     0.002 A 
HETATM   28  C   UNL     1      -7.221   0.820 -34.910  1.00  0.00     0.001 A 
HETATM   29  C   UNL     1      -6.416   1.495 -33.984  1.00  0.00     0.012 A 
ENDBRANCH  19  23
ENDBRANCH  18  19
ENDBRANCH   1  18
TORSDOF 6
ENDMDL
MODEL 9
REMARK VINA RESULT:      -8.3      2.173      2.889
REMARK  6 active torsions:
REMARK  status: ('A' for Active; 'I' for Inactive)
REMARK    1  A    between atoms: C_2  and  O_3 
REMARK    2  A    between atoms: C_2  and  C_4 
REMARK    3  A    between atoms: C_2  and  C_11 
REMARK    4  A    between atoms: C_11  and  N_12 
REMARK       I    between atoms: N_12  and  C_13 
REMARK    5  A    between atoms: C_13  and  C_14 
REMARK    6  A    between atoms: C_18  and  C_19 
ROOT
HETATM    1  N   UNL     1      -4.987   4.234 -31.775  1.00  0.00    -0.352 N 
HETATM    2  C   UNL     1      -5.179   2.980 -31.245  1.00  0.00     0.272 C 
HETATM    3  O   UNL     1      -5.090   2.730 -30.046  1.00  0.00    -0.266 OA
HETATM    4  H   UNL     1      -5.208   4.344 -32.762  1.00  0.00     0.162 HD
ENDROOT
BRANCH   2   5
HETATM    5  C   UNL     1      -5.521   1.960 -32.247  1.00  0.00     0.146 A 
HETATM    6  N   UNL     1      -6.258   2.237 -33.342  1.00  0.00    -0.169 NA
HETATM    7  N   UNL     1      -6.351   1.057 -33.977  1.00  0.00    -0.277 N 
HETATM    8  H   UNL     1      -6.895   1.019 -34.832  1.00  0.00     0.189 HD
HETATM    9  C   UNL     1      -5.696   0.022 -33.360  1.00  0.00     0.063 A 
HETATM   10  C   UNL     1      -5.158   0.589 -32.220  1.00  0.00     0.071 A 
BRANCH   9  11
HETATM   11  C   UNL     1      -5.665  -1.350 -33.865  1.00  0.00    -0.008 A 
HETATM   12  C   UNL     1      -6.835  -1.994 -34.300  1.00  0.00     0.017 A 
HETATM   13  C   UNL     1      -6.788  -3.306 -34.782  1.00  0.00     0.043 A 
HETATM   14  C   UNL     1      -5.573  -3.975 -34.832  1.00  0.00     0.116 A 
HETATM   15  F   UNL     1      -5.530  -5.232 -35.294  1.00  0.00    -0.206 F 
HETATM   16  C   UNL     1      -4.402  -3.359 -34.413  1.00  0.00     0.043 A 
HETATM   17  C   UNL     1      -4.449  -2.048 -33.933  1.00  0.00     0.017 A 
ENDBRANCH   9  11
ENDBRANCH   2   5
BRANCH   1  18
HETATM   18  C   UNL     1      -4.780   5.423 -30.966  1.00  0.00     0.165 C 
BRANCH  18  19
HETATM   19  C   UNL     1      -3.888   6.503 -31.660  1.00  0.00     0.099 C 
HETATM   20  C   UNL     1      -4.371   7.908 -31.265  1.00  0.00     0.053 C 
BRANCH  19  21
HETATM   21  O   UNL     1      -4.121   6.310 -33.068  1.00  0.00    -0.384 OA
HETATM   22  H   UNL     1      -4.522   5.429 -33.178  1.00  0.00     0.211 HD
ENDBRANCH  19  21
BRANCH  19  23
HETATM   23  C   UNL     1      -2.383   6.364 -31.355  1.00  0.00    -0.001 A 
HETATM   24  C   UNL     1      -1.549   5.410 -31.981  1.00  0.00     0.043 A 
HETATM   25 CL   UNL     1      -2.125   4.270 -33.154  1.00  0.00    -0.084 Cl
HETATM   26  C   UNL     1      -0.178   5.336 -31.692  1.00  0.00     0.024 A 
HETATM   27  C   UNL     1       0.402   6.213 -30.783  1.00  0.00     0.002 A 
HETATM   28  C   UNL     1      -0.387   7.170 -30.162  1.00  0.00     0.001 A 
HETATM   29  C   UNL     1      -1.755   7.246 -30.448  1.00  0.00     0.012 A 
ENDBRANCH  19  23
ENDBRANCH  18  19
ENDBRANCH   1  18
TORSDOF 6
ENDMDL
MODEL 10
REMARK VINA RESULT:      -8.1      4.316      9.970
REMARK  6 active torsions:
REMARK  status: ('A' for Active; 'I' for Inactive)
REMARK    1  A    between atoms: C_2  and  O_3 
REMARK    2  A    between atoms: C_2  and  C_4 
REMARK    3  A    between atoms: C_2  and  C_11 
REMARK    4  A    between atoms: C_11  and  N_12 
REMARK       I    between atoms: N_12  and  C_13 
REMARK    5  A    between atoms: C_13  and  C_14 
REMARK    6  A    between atoms: C_18  and  C_19 
ROOT
HETATM    1  N   UNL     1      -2.954   2.981 -31.667  1.00  0.00    -0.352 N 
HETATM    2  C   UNL     1      -2.399   4.105 -32.231  1.00  0.00     0.272 C 
HETATM    3  O   UNL     1      -2.221   4.240 -33.439  1.00  0.00    -0.266 OA
HETATM    4  H   UNL     1      -3.164   3.034 -30.673  1.00  0.00     0.162 HD
ENDROOT
BRANCH   2   5
HETATM    5  C   UNL     1      -2.050   5.148 -31.254  1.00  0.00     0.146 A 
HETATM    6  N   UNL     1      -2.814   6.241 -31.058  1.00  0.00    -0.169 NA
HETATM    7  N   UNL     1      -2.153   6.932 -30.114  1.00  0.00    -0.277 N 
HETATM    8  H   UNL     1      -2.538   7.823 -29.821  1.00  0.00     0.189 HD
HETATM    9  C   UNL     1      -1.001   6.336 -29.670  1.00  0.00     0.063 A 
HETATM   10  C   UNL     1      -0.909   5.174 -30.413  1.00  0.00     0.071 A 
BRANCH   9  11
HETATM   11  C   UNL     1      -0.118   6.907 -28.654  1.00  0.00    -0.008 A 
HETATM   12  C   UNL     1      -0.087   6.397 -27.345  1.00  0.00     0.017 A 
HETATM   13  C   UNL     1       0.764   6.952 -26.385  1.00  0.00     0.043 A 
HETATM   14  C   UNL     1       1.587   8.016 -26.730  1.00  0.00     0.116 A 
HETATM   15  F   UNL     1       2.402   8.547 -25.809  1.00  0.00    -0.206 F 
HETATM   16  C   UNL     1       1.578   8.534 -28.018  1.00  0.00     0.043 A 
HETATM   17  C   UNL     1       0.729   7.979 -28.977  1.00  0.00     0.017 A 
ENDBRANCH   9  11
ENDBRANCH   2   5
BRANCH   1  18
HETATM   18  C   UNL     1      -3.504   1.883 -32.442  1.00  0.00     0.165 C 
BRANCH  18  19
HETATM   19  C   UNL     1      -4.852   1.331 -31.876  1.00  0.00     0.099 C 
HETATM   20  C   UNL     1      -5.608   2.455 -31.149  1.00  0.00     0.053 C 
BRANCH  19  21
HETATM   21  O   UNL     1      -4.456   0.337 -30.912  1.00  0.00    -0.384 OA
HETATM   22  H   UNL     1      -4.792   0.625 -30.044  1.00  0.00     0.211 HD
ENDBRANCH  19  21
BRANCH  19  23
HETATM   23  C   UNL     1      -5.765   0.692 -32.941  1.00  0.00    -0.001 A 
HETATM   24  C   UNL     1      -6.343   1.420 -34.006  1.00  0.00     0.043 A 
HETATM   25 CL   UNL     1      -6.106   3.123 -34.229  1.00  0.00    -0.084 Cl
HETATM   26  C   UNL     1      -7.148   0.792 -34.969  1.00  0.00     0.024 A 
HETATM   27  C   UNL     1      -7.391  -0.575 -34.906  1.00  0.00     0.002 A 
HETATM   28  C   UNL     1      -6.826  -1.320 -33.881  1.00  0.00     0.001 A 
HETATM   29  C   UNL     1      -6.024  -0.697 -32.918  1.00  0.00     0.012 A 
ENDBRANCH  19  23
ENDBRANCH  18  19
ENDBRANCH   1  18
TORSDOF 6
ENDMDL
