MODEL 1
REMARK VINA RESULT:      -8.1      0.000      0.000
REMARK  5 active torsions:
REMARK  status: ('A' for Active; 'I' for Inactive)
REMARK    1  A    between atoms: C_2  and  C_3 
REMARK    2  A    between atoms: C_3  and  N_4 
REMARK    3  A    between atoms: C_7  and  C_8 
REMARK    4  A    between atoms: C_8  and  O_9 
REMARK    5  A    between atoms: N_13  and  C_15 
ROOT
HETATM    1  N   UNL     1      -8.806   1.952 -33.954  1.00  0.00    -0.067 N 
HETATM    2  H   UNL     1      -9.467   2.198 -34.705  1.00  0.00     0.280 HD
HETATM    3  C   UNL     1      -8.695   3.219 -33.145  1.00  0.00     0.242 C 
HETATM    4  C   UNL     1      -7.436   3.291 -32.239  1.00  0.00     0.044 C 
HETATM    5  C   UNL     1      -6.111   2.918 -33.001  1.00  0.00    -0.029 C 
HETATM    6  C   UNL     1      -5.728   4.022 -34.040  1.00  0.00     0.037 C 
HETATM    7  C   UNL     1      -5.168   5.311 -33.424  1.00  0.00     0.236 C 
HETATM    8  N   UNL     1      -3.966   5.022 -32.547  1.00  0.00    -0.067 N 
HETATM    9  H   UNL     1      -3.765   5.907 -32.058  1.00  0.00     0.280 HD
HETATM   10  C   UNL     1      -4.378   4.057 -31.452  1.00  0.00     0.236 C 
HETATM   11  C   UNL     1      -4.879   2.747 -32.059  1.00  0.00     0.037 C 
HETATM   12  C   UNL     1      -6.350   1.563 -33.729  1.00  0.00     0.037 C 
HETATM   13  C   UNL     1      -7.550   1.559 -34.671  1.00  0.00     0.236 C 
ENDROOT
BRANCH   4  14
HETATM   14  C   UNL     1      -7.636   2.530 -30.911  1.00  0.00     0.171 C 
BRANCH  14  15
HETATM   15  O   UNL     1      -9.009   2.536 -30.577  1.00  0.00    -0.400 OA
HETATM   16  H   UNL     1      -9.382   1.653 -30.771  1.00  0.00     0.209 HD
ENDBRANCH  14  15
ENDBRANCH   4  14
BRANCH   1  17
HETATM   17  C   UNL     1      -9.535   0.796 -33.282  1.00  0.00     0.273 C 
BRANCH  17  18
HETATM   18  C   UNL     1     -10.996   0.726 -33.645  1.00  0.00    -0.033 A 
HETATM   19  C   UNL     1     -11.590   1.728 -34.432  1.00  0.00     0.010 A 
HETATM   20  C   UNL     1     -12.954   1.677 -34.737  1.00  0.00     0.024 A 
HETATM   21  C   UNL     1     -13.732   0.622 -34.266  1.00  0.00     0.034 A 
HETATM   22  C   UNL     1     -13.156  -0.388 -33.502  1.00  0.00     0.024 A 
HETATM   23 CL   UNL     1     -15.410   0.568 -34.630  1.00  0.00    -0.084 Cl
HETATM   24  C   UNL     1     -11.794  -0.338 -33.195  1.00  0.00     0.010 A 
ENDBRANCH  17  18
ENDBRANCH   1  17
BRANCH   8  25
HETATM   25  C   UNL     1      -2.652   4.673 -33.308  1.00  0.00     0.192 C 
HETATM   26  C   UNL     1      -2.433   5.603 -34.512  1.00  0.00     0.059 C 
HETATM   27  C   UNL     1      -2.055   7.012 -34.078  1.00  0.00     0.169 C 
HETATM   28  O   UNL     1      -0.920   6.977 -33.225  1.00  0.00    -0.391 OA
HETATM   29  C   UNL     1      -1.090   6.209 -32.042  1.00  0.00     0.169 C 
HETATM   30  C   UNL     1      -1.417   4.766 -32.399  1.00  0.00     0.059 C 
ENDBRANCH   8  25
TORSDOF 5
ENDMDL
MODEL 2
REMARK VINA RESULT:      -7.6      4.573      6.124
REMARK  5 active torsions:
REMARK  status: ('A' for Active; 'I' for Inactive)
REMARK    1  A    between atoms: C_2  and  C_3 
REMARK    2  A    between atoms: C_3  and  N_4 
REMARK    3  A    between atoms: C_7  and  C_8 
REMARK    4  A    between atoms: C_8  and  O_9 
REMARK    5  A    between atoms: N_13  and  C_15 
ROOT
HETATM    1  N   UNL     1      -5.690   1.173 -32.700  1.00  0.00    -0.067 N 
HETATM    2  H   UNL     1      -4.848   0.580 -32.713  1.00  0.00     0.280 HD
HETATM    3  C   UNL     1      -5.171   2.543 -33.052  1.00  0.00     0.242 C 
HETATM    4  C   UNL     1      -6.120   3.707 -32.660  1.00  0.00     0.044 C 
HETATM    5  C   UNL     1      -6.644   3.599 -31.180  1.00  0.00    -0.029 C 
HETATM    6  C   UNL     1      -5.494   3.865 -30.154  1.00  0.00     0.037 C 
HETATM    7  C   UNL     1      -5.070   5.335 -30.038  1.00  0.00     0.236 C 
HETATM    8  N   UNL     1      -6.251   6.219 -29.693  1.00  0.00    -0.067 N 
HETATM    9  H   UNL     1      -5.908   7.186 -29.795  1.00  0.00     0.280 HD
HETATM   10  C   UNL     1      -7.310   6.066 -30.768  1.00  0.00     0.236 C 
HETATM   11  C   UNL     1      -7.781   4.614 -30.846  1.00  0.00     0.037 C 
HETATM   12  C   UNL     1      -7.209   2.162 -30.984  1.00  0.00     0.037 C 
HETATM   13  C   UNL     1      -6.218   1.047 -31.304  1.00  0.00     0.236 C 
ENDROOT
BRANCH   4  14
HETATM   14  C   UNL     1      -7.232   3.924 -33.708  1.00  0.00     0.171 C 
BRANCH  14  15
HETATM   15  O   UNL     1      -7.137   5.239 -34.218  1.00  0.00    -0.400 OA
HETATM   16  H   UNL     1      -6.286   5.626 -33.927  1.00  0.00     0.209 HD
ENDBRANCH  14  15
ENDBRANCH   4  14
BRANCH   1  17
HETATM   17  C   UNL     1      -6.548   0.494 -33.761  1.00  0.00     0.273 C 
BRANCH  17  18
HETATM   18  C   UNL     1      -6.137  -0.930 -34.032  1.00  0.00    -0.033 A 
HETATM   19  C   UNL     1      -7.077  -1.877 -34.478  1.00  0.00     0.010 A 
HETATM   20  C   UNL     1      -6.699  -3.206 -34.694  1.00  0.00     0.024 A 
HETATM   21  C   UNL     1      -5.380  -3.597 -34.477  1.00  0.00     0.034 A 
HETATM   22  C   UNL     1      -4.433  -2.669 -34.054  1.00  0.00     0.024 A 
HETATM   23 CL   UNL     1      -4.920  -5.232 -34.730  1.00  0.00    -0.084 Cl
HETATM   24  C   UNL     1      -4.810  -1.341 -33.835  1.00  0.00     0.010 A 
ENDBRANCH  17  18
ENDBRANCH   1  17
BRANCH   8  25
HETATM   25  C   UNL     1      -6.752   6.122 -28.220  1.00  0.00     0.192 C 
HETATM   26  C   UNL     1      -5.593   6.256 -27.220  1.00  0.00     0.059 C 
HETATM   27  C   UNL     1      -5.055   7.679 -27.164  1.00  0.00     0.169 C 
HETATM   28  O   UNL     1      -6.105   8.592 -26.881  1.00  0.00    -0.391 OA
HETATM   29  C   UNL     1      -7.168   8.585 -27.823  1.00  0.00     0.169 C 
HETATM   30  C   UNL     1      -7.795   7.201 -27.894  1.00  0.00     0.059 C 
ENDBRANCH   8  25
TORSDOF 5
ENDMDL
MODEL 3
REMARK VINA RESULT:      -7.5      3.267      4.122
REMARK  5 active torsions:
REMARK  status: ('A' for Active; 'I' for Inactive)
REMARK    1  A    between atoms: C_2  and  C_3 
REMARK    2  A    between atoms: C_3  and  N_4 
REMARK    3  A    between atoms: C_7  and  C_8 
REMARK    4  A    between atoms: C_8  and  O_9 
REMARK    5  A    between atoms: N_13  and  C_15 
ROOT
HETATM    1  N   UNL     1      -7.984   1.990 -33.261  1.00  0.00    -0.067 N 
HETATM    2  H   UNL     1      -8.839   2.241 -33.778  1.00  0.00     0.280 HD
HETATM    3  C   UNL     1      -7.901   3.032 -32.176  1.00  0.00     0.242 C 
HETATM    4  C   UNL     1      -6.492   3.182 -31.541  1.00  0.00     0.044 C 
HETATM    5  C   UNL     1      -5.346   3.301 -32.612  1.00  0.00    -0.029 C 
HETATM    6  C   UNL     1      -5.420   4.669 -33.367  1.00  0.00     0.037 C 
HETATM    7  C   UNL     1      -4.958   5.878 -32.543  1.00  0.00     0.236 C 
HETATM    8  N   UNL     1      -3.549   5.680 -32.022  1.00  0.00    -0.067 N 
HETATM    9  H   UNL     1      -3.391   6.454 -31.360  1.00  0.00     0.280 HD
HETATM   10  C   UNL     1      -3.512   4.425 -31.171  1.00  0.00     0.236 C 
HETATM   11  C   UNL     1      -3.912   3.207 -32.003  1.00  0.00     0.037 C 
HETATM   12  C   UNL     1      -5.518   2.128 -33.619  1.00  0.00     0.037 C 
HETATM   13  C   UNL     1      -6.891   2.064 -34.282  1.00  0.00     0.236 C 
ENDROOT
BRANCH   4  14
HETATM   14  C   UNL     1      -6.232   2.117 -30.454  1.00  0.00     0.171 C 
BRANCH  14  15
HETATM   15  O   UNL     1      -6.995   2.430 -29.307  1.00  0.00    -0.400 OA
HETATM   16  H   UNL     1      -6.773   3.339 -29.022  1.00  0.00     0.209 HD
ENDBRANCH  14  15
ENDBRANCH   4  14
BRANCH   1  17
HETATM   17  C   UNL     1      -8.320   0.577 -32.800  1.00  0.00     0.273 C 
BRANCH  17  18
HETATM   18  C   UNL     1      -7.283  -0.440 -33.204  1.00  0.00    -0.033 A 
HETATM   19  C   UNL     1      -6.161  -0.683 -32.393  1.00  0.00     0.010 A 
HETATM   20  C   UNL     1      -5.183  -1.601 -32.790  1.00  0.00     0.024 A 
HETATM   21  C   UNL     1      -5.324  -2.290 -33.992  1.00  0.00     0.034 A 
HETATM   22  C   UNL     1      -6.438  -2.075 -34.797  1.00  0.00     0.024 A 
HETATM   23 CL   UNL     1      -4.116  -3.408 -34.484  1.00  0.00    -0.084 Cl
HETATM   24  C   UNL     1      -7.415  -1.156 -34.404  1.00  0.00     0.010 A 
ENDBRANCH  17  18
ENDBRANCH   1  17
BRANCH   8  25
HETATM   25  C   UNL     1      -2.417   5.820 -33.084  1.00  0.00     0.192 C 
HETATM   26  C   UNL     1      -2.125   7.294 -33.407  1.00  0.00     0.059 C 
HETATM   27  C   UNL     1      -1.419   7.996 -32.256  1.00  0.00     0.169 C 
HETATM   28  O   UNL     1      -0.240   7.291 -31.897  1.00  0.00    -0.391 OA
HETATM   29  C   UNL     1      -0.453   5.945 -31.496  1.00  0.00     0.169 C 
HETATM   30  C   UNL     1      -1.109   5.161 -32.622  1.00  0.00     0.059 C 
ENDBRANCH   8  25
TORSDOF 5
ENDMDL
MODEL 4
REMARK VINA RESULT:      -7.4      1.680      2.181
REMARK  5 active torsions:
REMARK  status: ('A' for Active; 'I' for Inactive)
REMARK    1  A    between atoms: C_2  and  C_3 
REMARK    2  A    between atoms: C_3  and  N_4 
REMARK    3  A    between atoms: C_7  and  C_8 
REMARK    4  A    between atoms: C_8  and  O_9 
REMARK    5  A    between atoms: N_13  and  C_15 
ROOT
HETATM    1  N   UNL     1      -8.640   2.928 -33.220  1.00  0.00    -0.067 N 
HETATM    2  H   UNL     1      -9.564   3.322 -32.993  1.00  0.00     0.280 HD
HETATM    3  C   UNL     1      -8.069   2.554 -31.876  1.00  0.00     0.242 C 
HETATM    4  C   UNL     1      -6.528   2.371 -31.865  1.00  0.00     0.044 C 
HETATM    5  C   UNL     1      -5.764   3.559 -32.559  1.00  0.00    -0.029 C 
HETATM    6  C   UNL     1      -5.862   4.867 -31.706  1.00  0.00     0.037 C 
HETATM    7  C   UNL     1      -4.992   4.871 -30.442  1.00  0.00     0.236 C 
HETATM    8  N   UNL     1      -3.538   4.610 -30.779  1.00  0.00    -0.067 N 
HETATM    9  H   UNL     1      -3.068   4.471 -29.871  1.00  0.00     0.280 HD
HETATM   10  C   UNL     1      -3.428   3.271 -31.482  1.00  0.00     0.236 C 
HETATM   11  C   UNL     1      -4.244   3.281 -32.774  1.00  0.00     0.037 C 
HETATM   12  C   UNL     1      -6.414   3.786 -33.955  1.00  0.00     0.037 C 
HETATM   13  C   UNL     1      -7.918   4.042 -33.915  1.00  0.00     0.236 C 
ENDROOT
BRANCH   4  14
HETATM   14  C   UNL     1      -6.108   0.973 -32.366  1.00  0.00     0.171 C 
BRANCH  14  15
HETATM   15  O   UNL     1      -6.960   0.002 -31.795  1.00  0.00    -0.400 OA
HETATM   16  H   UNL     1      -7.459  -0.438 -32.513  1.00  0.00     0.209 HD
ENDBRANCH  14  15
ENDBRANCH   4  14
BRANCH   1  17
HETATM   17  C   UNL     1      -9.025   1.765 -34.125  1.00  0.00     0.273 C 
BRANCH  17  18
HETATM   18  C   UNL     1     -10.514   1.535 -34.193  1.00  0.00    -0.033 A 
HETATM   19  C   UNL     1     -11.332   2.355 -34.988  1.00  0.00     0.010 A 
HETATM   20  C   UNL     1     -12.717   2.160 -35.019  1.00  0.00     0.024 A 
HETATM   21  C   UNL     1     -13.292   1.140 -34.265  1.00  0.00     0.034 A 
HETATM   22  C   UNL     1     -12.494   0.307 -33.487  1.00  0.00     0.024 A 
HETATM   23 CL   UNL     1     -14.994   0.910 -34.295  1.00  0.00    -0.084 Cl
HETATM   24  C   UNL     1     -11.110   0.502 -33.453  1.00  0.00     0.010 A 
ENDBRANCH  17  18
ENDBRANCH   1  17
BRANCH   8  25
HETATM   25  C   UNL     1      -2.782   5.797 -31.447  1.00  0.00     0.192 C 
HETATM   26  C   UNL     1      -2.838   7.063 -30.578  1.00  0.00     0.059 C 
HETATM   27  C   UNL     1      -1.969   6.936 -29.335  1.00  0.00     0.169 C 
HETATM   28  O   UNL     1      -0.637   6.604 -29.698  1.00  0.00    -0.391 OA
HETATM   29  C   UNL     1      -0.504   5.391 -30.424  1.00  0.00     0.169 C 
HETATM   30  C   UNL     1      -1.306   5.465 -31.715  1.00  0.00     0.059 C 
ENDBRANCH   8  25
TORSDOF 5
ENDMDL
MODEL 5
REMARK VINA RESULT:      -7.3      4.707      7.700
REMARK  5 active torsions:
REMARK  status: ('A' for Active; 'I' for Inactive)
REMARK    1  A    between atoms: C_2  and  C_3 
REMARK    2  A    between atoms: C_3  and  N_4 
REMARK    3  A    between atoms: C_7  and  C_8 
REMARK    4  A    between atoms: C_8  and  O_9 
REMARK    5  A    between atoms: N_13  and  C_15 
ROOT
HETATM    1  N   UNL     1      -6.905   1.263 -34.116  1.00  0.00    -0.067 N 
HETATM    2  H   UNL     1      -6.282   1.171 -34.930  1.00  0.00     0.280 HD
HETATM    3  C   UNL     1      -8.248   0.824 -34.639  1.00  0.00     0.242 C 
HETATM    4  C   UNL     1      -9.454   1.293 -33.780  1.00  0.00     0.044 C 
HETATM    5  C   UNL     1      -9.393   2.824 -33.422  1.00  0.00    -0.029 C 
HETATM    6  C   UNL     1      -9.636   3.709 -34.689  1.00  0.00     0.037 C 
HETATM    7  C   UNL     1     -11.092   3.744 -35.173  1.00  0.00     0.236 C 
HETATM    8  N   UNL     1     -12.024   4.199 -34.069  1.00  0.00    -0.067 N 
HETATM    9  H   UNL     1     -12.976   4.036 -34.432  1.00  0.00     0.280 HD
HETATM   10  C   UNL     1     -11.890   3.252 -32.892  1.00  0.00     0.236 C 
HETATM   11  C   UNL     1     -10.455   3.259 -32.366  1.00  0.00     0.037 C 
HETATM   12  C   UNL     1      -7.982   3.115 -32.834  1.00  0.00     0.037 C 
HETATM   13  C   UNL     1      -6.825   2.712 -33.744  1.00  0.00     0.236 C 
ENDROOT
BRANCH   4  14
HETATM   14  C   UNL     1      -9.692   0.371 -32.566  1.00  0.00     0.171 C 
BRANCH  14  15
HETATM   15  O   UNL     1     -10.879  -0.368 -32.772  1.00  0.00    -0.400 OA
HETATM   16  H   UNL     1     -10.666  -1.159 -33.307  1.00  0.00     0.209 HD
ENDBRANCH  14  15
ENDBRANCH   4  14
BRANCH   1  17
HETATM   17  C   UNL     1      -6.239   0.321 -33.122  1.00  0.00     0.273 C 
BRANCH  17  18
HETATM   18  C   UNL     1      -5.995  -1.057 -33.684  1.00  0.00    -0.033 A 
HETATM   19  C   UNL     1      -7.068  -1.866 -34.094  1.00  0.00     0.010 A 
HETATM   20  C   UNL     1      -6.838  -3.157 -34.581  1.00  0.00     0.024 A 
HETATM   21  C   UNL     1      -5.537  -3.644 -34.671  1.00  0.00     0.034 A 
HETATM   22  C   UNL     1      -4.462  -2.849 -34.287  1.00  0.00     0.024 A 
HETATM   23 CL   UNL     1      -5.258  -5.234 -35.258  1.00  0.00    -0.084 Cl
HETATM   24  C   UNL     1      -4.690  -1.560 -33.798  1.00  0.00     0.010 A 
ENDBRANCH  17  18
ENDBRANCH   1  17
BRANCH   8  25
HETATM   25  C   UNL     1     -11.974   5.719 -33.734  1.00  0.00     0.192 C 
HETATM   26  C   UNL     1     -12.221   6.581 -34.982  1.00  0.00     0.059 C 
HETATM   27  C   UNL     1     -13.672   6.516 -35.437  1.00  0.00     0.169 C 
HETATM   28  O   UNL     1     -14.539   6.872 -34.370  1.00  0.00    -0.391 OA
HETATM   29  C   UNL     1     -14.427   6.051 -33.216  1.00  0.00     0.169 C 
HETATM   30  C   UNL     1     -13.009   6.110 -32.668  1.00  0.00     0.059 C 
ENDBRANCH   8  25
TORSDOF 5
ENDMDL
MODEL 6
REMARK VINA RESULT:      -7.3      4.371      6.362
REMARK  5 active torsions:
REMARK  status: ('A' for Active; 'I' for Inactive)
REMARK    1  A    between atoms: C_2  and  C_3 
REMARK    2  A    between atoms: C_3  and  N_4 
REMARK    3  A    between atoms: C_7  and  C_8 
REMARK    4  A    between atoms: C_8  and  O_9 
REMARK    5  A    between atoms: N_13  and  C_15 
ROOT
HETATM    1  N   UNL     1      -5.898   0.987 -31.973  1.00  0.00    -0.067 N 
HETATM    2  H   UNL     1      -6.323   0.098 -31.674  1.00  0.00     0.280 HD
HETATM    3  C   UNL     1      -5.292   1.539 -30.709  1.00  0.00     0.242 C 
HETATM    4  C   UNL     1      -4.994   3.062 -30.754  1.00  0.00     0.044 C 
HETATM    5  C   UNL     1      -6.210   3.909 -31.285  1.00  0.00    -0.029 C 
HETATM    6  C   UNL     1      -7.383   3.919 -30.251  1.00  0.00     0.037 C 
HETATM    7  C   UNL     1      -7.139   4.798 -29.017  1.00  0.00     0.236 C 
HETATM    8  N   UNL     1      -6.821   6.225 -29.416  1.00  0.00    -0.067 N 
HETATM    9  H   UNL     1      -6.518   6.690 -28.547  1.00  0.00     0.280 HD
HETATM   10  C   UNL     1      -5.594   6.224 -30.306  1.00  0.00     0.236 C 
HETATM   11  C   UNL     1      -5.853   5.401 -31.568  1.00  0.00     0.037 C 
HETATM   12  C   UNL     1      -6.684   3.266 -32.621  1.00  0.00     0.037 C 
HETATM   13  C   UNL     1      -7.043   1.787 -32.515  1.00  0.00     0.236 C 
ENDROOT
BRANCH   4  14
HETATM   14  C   UNL     1      -3.656   3.369 -31.459  1.00  0.00     0.171 C 
BRANCH  14  15
HETATM   15  O   UNL     1      -2.670   2.472 -30.991  1.00  0.00    -0.400 OA
HETATM   16  H   UNL     1      -1.862   2.980 -30.774  1.00  0.00     0.209 HD
ENDBRANCH  14  15
ENDBRANCH   4  14
BRANCH   1  17
HETATM   17  C   UNL     1      -4.911   0.506 -33.029  1.00  0.00     0.273 C 
BRANCH  17  18
HETATM   18  C   UNL     1      -5.273  -0.837 -33.610  1.00  0.00    -0.033 A 
HETATM   19  C   UNL     1      -4.297  -1.835 -33.776  1.00  0.00     0.010 A 
HETATM   20  C   UNL     1      -4.631  -3.066 -34.350  1.00  0.00     0.024 A 
HETATM   21  C   UNL     1      -5.942  -3.313 -34.751  1.00  0.00     0.034 A 
HETATM   22  C   UNL     1      -6.923  -2.343 -34.577  1.00  0.00     0.024 A 
HETATM   23 CL   UNL     1      -6.346  -4.821 -35.467  1.00  0.00    -0.084 Cl
HETATM   24  C   UNL     1      -6.591  -1.111 -34.006  1.00  0.00     0.010 A 
ENDBRANCH  17  18
ENDBRANCH   1  17
BRANCH   8  25
HETATM   25  C   UNL     1      -8.033   7.064 -29.921  1.00  0.00     0.192 C 
HETATM   26  C   UNL     1      -9.247   6.920 -28.990  1.00  0.00     0.059 C 
HETATM   27  C   UNL     1      -9.034   7.638 -27.665  1.00  0.00     0.169 C 
HETATM   28  O   UNL     1      -8.702   9.000 -27.892  1.00  0.00    -0.391 OA
HETATM   29  C   UNL     1      -7.530   9.204 -28.670  1.00  0.00     0.169 C 
HETATM   30  C   UNL     1      -7.692   8.557 -30.037  1.00  0.00     0.059 C 
ENDBRANCH   8  25
TORSDOF 5
ENDMDL
MODEL 7
REMARK VINA RESULT:      -7.3      4.472      8.080
REMARK  5 active torsions:
REMARK  status: ('A' for Active; 'I' for Inactive)
REMARK    1  A    between atoms: C_2  and  C_3 
REMARK    2  A    between atoms: C_3  and  N_4 
REMARK    3  A    between atoms: C_7  and  C_8 
REMARK    4  A    between atoms: C_8  and  O_9 
REMARK    5  A    between atoms: N_13  and  C_15 
ROOT
HETATM    1  N   UNL     1      -6.829   0.972 -32.580  1.00  0.00    -0.067 N 
HETATM    2  H   UNL     1      -6.357   0.426 -31.845  1.00  0.00     0.280 HD
HETATM    3  C   UNL     1      -6.764   2.389 -32.073  1.00  0.00     0.242 C 
HETATM    4  C   UNL     1      -7.786   3.352 -32.736  1.00  0.00     0.044 C 
HETATM    5  C   UNL     1      -9.246   2.767 -32.771  1.00  0.00    -0.029 C 
HETATM    6  C   UNL     1      -9.864   2.706 -31.336  1.00  0.00     0.037 C 
HETATM    7  C   UNL     1     -10.280   4.067 -30.761  1.00  0.00     0.236 C 
HETATM    8  N   UNL     1     -11.249   4.776 -31.684  1.00  0.00    -0.067 N 
HETATM    9  H   UNL     1     -11.342   5.730 -31.302  1.00  0.00     0.280 HD
HETATM   10  C   UNL     1     -10.592   4.962 -33.039  1.00  0.00     0.236 C 
HETATM   11  C   UNL     1     -10.231   3.606 -33.644  1.00  0.00     0.037 C 
HETATM   12  C   UNL     1      -9.166   1.336 -33.378  1.00  0.00     0.037 C 
HETATM   13  C   UNL     1      -8.211   0.397 -32.648  1.00  0.00     0.236 C 
ENDROOT
BRANCH   4  14
HETATM   14  C   UNL     1      -7.284   3.879 -34.097  1.00  0.00     0.171 C 
BRANCH  14  15
HETATM   15  O   UNL     1      -7.179   5.287 -34.038  1.00  0.00    -0.400 OA
HETATM   16  H   UNL     1      -6.232   5.532 -34.065  1.00  0.00     0.209 HD
ENDBRANCH  14  15
ENDBRANCH   4  14
BRANCH   1  17
HETATM   17  C   UNL     1      -5.957   0.658 -33.789  1.00  0.00     0.273 C 
BRANCH  17  18
HETATM   18  C   UNL     1      -5.366  -0.729 -33.750  1.00  0.00    -0.033 A 
HETATM   19  C   UNL     1      -4.351  -1.051 -32.833  1.00  0.00     0.010 A 
HETATM   20  C   UNL     1      -3.781  -2.328 -32.824  1.00  0.00     0.024 A 
HETATM   21  C   UNL     1      -4.226  -3.294 -33.723  1.00  0.00     0.034 A 
HETATM   22  C   UNL     1      -5.243  -2.997 -34.625  1.00  0.00     0.024 A 
HETATM   23 CL   UNL     1      -3.515  -4.858 -33.720  1.00  0.00    -0.084 Cl
HETATM   24  C   UNL     1      -5.812  -1.720 -34.637  1.00  0.00     0.010 A 
ENDBRANCH  17  18
ENDBRANCH   1  17
BRANCH   8  25
HETATM   25  C   UNL     1     -12.699   4.205 -31.699  1.00  0.00     0.192 C 
HETATM   26  C   UNL     1     -13.345   4.268 -30.306  1.00  0.00     0.059 C 
HETATM   27  C   UNL     1     -13.688   5.696 -29.904  1.00  0.00     0.169 C 
HETATM   28  O   UNL     1     -14.506   6.302 -30.894  1.00  0.00    -0.391 OA
HETATM   29  C   UNL     1     -13.926   6.362 -32.189  1.00  0.00     0.169 C 
HETATM   30  C   UNL     1     -13.606   4.959 -32.683  1.00  0.00     0.059 C 
ENDBRANCH   8  25
TORSDOF 5
ENDMDL
MODEL 8
REMARK VINA RESULT:      -7.2      4.406      9.867
REMARK  5 active torsions:
REMARK  status: ('A' for Active; 'I' for Inactive)
REMARK    1  A    between atoms: C_2  and  C_3 
REMARK    2  A    between atoms: C_3  and  N_4 
REMARK    3  A    between atoms: C_7  and  C_8 
REMARK    4  A    between atoms: C_8  and  O_9 
REMARK    5  A    between atoms: N_13  and  C_15 
ROOT
HETATM    1  N   UNL     1      -3.266   6.543 -31.389  1.00  0.00    -0.067 N 
HETATM    2  H   UNL     1      -3.303   7.429 -30.865  1.00  0.00     0.280 HD
HETATM    3  C   UNL     1      -4.133   6.800 -32.594  1.00  0.00     0.242 C 
HETATM    4  C   UNL     1      -4.631   5.515 -33.309  1.00  0.00     0.044 C 
HETATM    5  C   UNL     1      -5.240   4.457 -32.316  1.00  0.00    -0.029 C 
HETATM    6  C   UNL     1      -6.602   4.954 -31.729  1.00  0.00     0.037 C 
HETATM    7  C   UNL     1      -7.778   4.903 -32.713  1.00  0.00     0.236 C 
HETATM    8  N   UNL     1      -7.963   3.507 -33.272  1.00  0.00    -0.067 N 
HETATM    9  H   UNL     1      -8.655   3.607 -34.030  1.00  0.00     0.280 HD
HETATM   10  C   UNL     1      -6.683   3.083 -33.967  1.00  0.00     0.236 C 
HETATM   11  C   UNL     1      -5.519   3.072 -32.976  1.00  0.00     0.037 C 
HETATM   12  C   UNL     1      -4.212   4.243 -31.167  1.00  0.00     0.037 C 
HETATM   13  C   UNL     1      -3.810   5.521 -30.437  1.00  0.00     0.236 C 
ENDROOT
BRANCH   4  14
HETATM   14  C   UNL     1      -3.569   4.940 -34.270  1.00  0.00     0.171 C 
BRANCH  14  15
HETATM   15  O   UNL     1      -3.339   5.865 -35.312  1.00  0.00    -0.400 OA
HETATM   16  H   UNL     1      -3.321   5.381 -36.163  1.00  0.00     0.209 HD
ENDBRANCH  14  15
ENDBRANCH   4  14
BRANCH   1  17
HETATM   17  C   UNL     1      -1.772   6.419 -31.659  1.00  0.00     0.273 C 
BRANCH  17  18
HETATM   18  C   UNL     1      -0.927   6.651 -30.433  1.00  0.00    -0.033 A 
HETATM   19  C   UNL     1      -0.123   5.624 -29.909  1.00  0.00     0.010 A 
HETATM   20  C   UNL     1       0.632   5.833 -28.750  1.00  0.00     0.024 A 
HETATM   21  C   UNL     1       0.597   7.071 -28.112  1.00  0.00     0.034 A 
HETATM   22  C   UNL     1      -0.179   8.104 -28.629  1.00  0.00     0.024 A 
HETATM   23 CL   UNL     1       1.514   7.322 -26.682  1.00  0.00    -0.084 Cl
HETATM   24  C   UNL     1      -0.935   7.896 -29.785  1.00  0.00     0.010 A 
ENDBRANCH  17  18
ENDBRANCH   1  17
BRANCH   8  25
HETATM   25  C   UNL     1      -8.585   2.470 -32.290  1.00  0.00     0.192 C 
HETATM   26  C   UNL     1      -9.958   2.932 -31.776  1.00  0.00     0.059 C 
HETATM   27  C   UNL     1     -11.023   2.858 -32.861  1.00  0.00     0.169 C 
HETATM   28  O   UNL     1     -11.078   1.548 -33.407  1.00  0.00    -0.391 OA
HETATM   29  C   UNL     1      -9.862   1.095 -33.986  1.00  0.00     0.169 C 
HETATM   30  C   UNL     1      -8.757   1.090 -32.941  1.00  0.00     0.059 C 
ENDBRANCH   8  25
TORSDOF 5
ENDMDL
MODEL 9
REMARK VINA RESULT:      -7.2      4.201      6.025
REMARK  5 active torsions:
REMARK  status: ('A' for Active; 'I' for Inactive)
REMARK    1  A    between atoms: C_2  and  C_3 
REMARK    2  A    between atoms: C_3  and  N_4 
REMARK    3  A    between atoms: C_7  and  C_8 
REMARK    4  A    between atoms: C_8  and  O_9 
REMARK    5  A    between atoms: N_13  and  C_15 
ROOT
HETATM    1  N   UNL     1      -8.433   3.591 -32.574  1.00  0.00    -0.067 N 
HETATM    2  H   UNL     1      -8.290   4.270 -31.813  1.00  0.00     0.280 HD
HETATM    3  C   UNL     1      -8.775   2.311 -31.854  1.00  0.00     0.242 C 
HETATM    4  C   UNL     1      -8.588   1.028 -32.709  1.00  0.00     0.044 C 
HETATM    5  C   UNL     1      -7.199   0.979 -33.445  1.00  0.00    -0.029 C 
HETATM    6  C   UNL     1      -6.029   0.768 -32.429  1.00  0.00     0.037 C 
HETATM    7  C   UNL     1      -5.928  -0.653 -31.858  1.00  0.00     0.236 C 
HETATM    8  N   UNL     1      -5.807  -1.679 -32.966  1.00  0.00    -0.067 N 
HETATM    9  H   UNL     1      -5.908  -2.595 -32.502  1.00  0.00     0.280 HD
HETATM   10  C   UNL     1      -7.018  -1.568 -33.873  1.00  0.00     0.236 C 
HETATM   11  C   UNL     1      -7.090  -0.172 -34.493  1.00  0.00     0.037 C 
HETATM   12  C   UNL     1      -7.014   2.330 -34.195  1.00  0.00     0.037 C 
HETATM   13  C   UNL     1      -7.125   3.564 -33.305  1.00  0.00     0.236 C 
ENDROOT
BRANCH   4  14
HETATM   14  C   UNL     1      -9.799   0.765 -33.628  1.00  0.00     0.171 C 
BRANCH  14  15
HETATM   15  O   UNL     1     -10.846   0.201 -32.865  1.00  0.00    -0.400 OA
HETATM   16  H   UNL     1     -11.115   0.845 -32.179  1.00  0.00     0.209 HD
ENDBRANCH  14  15
ENDBRANCH   4  14
BRANCH   1  17
HETATM   17  C   UNL     1      -9.572   4.244 -33.346  1.00  0.00     0.273 C 
BRANCH  17  18
HETATM   18  C   UNL     1     -10.744   4.614 -32.472  1.00  0.00    -0.033 A 
HETATM   19  C   UNL     1     -10.637   5.650 -31.528  1.00  0.00     0.010 A 
HETATM   20  C   UNL     1     -11.715   5.966 -30.695  1.00  0.00     0.024 A 
HETATM   21  C   UNL     1     -12.909   5.258 -30.805  1.00  0.00     0.034 A 
HETATM   22  C   UNL     1     -13.038   4.242 -31.747  1.00  0.00     0.024 A 
HETATM   23 CL   UNL     1     -14.228   5.639 -29.772  1.00  0.00    -0.084 Cl
HETATM   24  C   UNL     1     -11.961   3.923 -32.579  1.00  0.00     0.010 A 
ENDBRANCH  17  18
ENDBRANCH   1  17
BRANCH   8  25
HETATM   25  C   UNL     1      -4.422  -1.737 -33.677  1.00  0.00     0.192 C 
HETATM   26  C   UNL     1      -3.274  -1.884 -32.667  1.00  0.00     0.059 C 
HETATM   27  C   UNL     1      -3.244  -3.270 -32.039  1.00  0.00     0.169 C 
HETATM   28  O   UNL     1      -3.188  -4.266 -33.050  1.00  0.00    -0.391 OA
HETATM   29  C   UNL     1      -4.275  -4.246 -33.965  1.00  0.00     0.169 C 
HETATM   30  C   UNL     1      -4.335  -2.902 -34.675  1.00  0.00     0.059 C 
ENDBRANCH   8  25
TORSDOF 5
ENDMDL
MODEL 10
REMARK VINA RESULT:      -7.2      3.831      8.733
REMARK  5 active torsions:
REMARK  status: ('A' for Active; 'I' for Inactive)
REMARK    1  A    between atoms: C_2  and  C_3 
REMARK    2  A    between atoms: C_3  and  N_4 
REMARK    3  A    between atoms: C_7  and  C_8 
REMARK    4  A    between atoms: C_8  and  O_9 
REMARK    5  A    between atoms: N_13  and  C_15 
ROOT
HETATM    1  N   UNL     1      -4.735   1.911 -32.564  1.00  0.00    -0.067 N 
HETATM    2  H   UNL     1      -4.123   1.356 -33.179  1.00  0.00     0.280 HD
HETATM    3  C   UNL     1      -5.683   0.892 -31.985  1.00  0.00     0.242 C 
HETATM    4  C   UNL     1      -6.986   1.495 -31.396  1.00  0.00     0.044 C 
HETATM    5  C   UNL     1      -7.684   2.517 -32.368  1.00  0.00    -0.029 C 
HETATM    6  C   UNL     1      -8.292   1.787 -33.610  1.00  0.00     0.037 C 
HETATM    7  C   UNL     1      -9.569   0.988 -33.319  1.00  0.00     0.236 C 
HETATM    8  N   UNL     1     -10.634   1.867 -32.695  1.00  0.00    -0.067 N 
HETATM    9  H   UNL     1     -11.378   1.220 -32.392  1.00  0.00     0.280 HD
HETATM   10  C   UNL     1     -10.089   2.462 -31.411  1.00  0.00     0.236 C 
HETATM   11  C   UNL     1      -8.851   3.311 -31.703  1.00  0.00     0.037 C 
HETATM   12  C   UNL     1      -6.606   3.541 -32.827  1.00  0.00     0.037 C 
HETATM   13  C   UNL     1      -5.376   2.912 -33.475  1.00  0.00     0.236 C 
ENDROOT
BRANCH   4  14
HETATM   14  C   UNL     1      -6.779   2.028 -29.962  1.00  0.00     0.171 C 
BRANCH  14  15
HETATM   15  O   UNL     1      -6.166   1.025 -29.179  1.00  0.00    -0.400 OA
HETATM   16  H   UNL     1      -6.351   0.154 -29.585  1.00  0.00     0.209 HD
ENDBRANCH  14  15
ENDBRANCH   4  14
BRANCH   1  17
HETATM   17  C   UNL     1      -3.721   2.502 -31.592  1.00  0.00     0.273 C 
BRANCH  17  18
HETATM   18  C   UNL     1      -3.207   3.853 -32.022  1.00  0.00    -0.033 A 
HETATM   19  C   UNL     1      -2.358   3.977 -33.135  1.00  0.00     0.010 A 
HETATM   20  C   UNL     1      -1.855   5.228 -33.508  1.00  0.00     0.024 A 
HETATM   21  C   UNL     1      -2.203   6.363 -32.779  1.00  0.00     0.034 A 
HETATM   22  C   UNL     1      -3.057   6.259 -31.685  1.00  0.00     0.024 A 
HETATM   23 CL   UNL     1      -1.573   7.895 -33.231  1.00  0.00    -0.084 Cl
HETATM   24  C   UNL     1      -3.559   5.010 -31.310  1.00  0.00     0.010 A 
ENDBRANCH  17  18
ENDBRANCH   1  17
BRANCH   8  25
HETATM   25  C   UNL     1     -11.335   2.862 -33.667  1.00  0.00     0.192 C 
HETATM   26  C   UNL     1     -11.770   2.169 -34.968  1.00  0.00     0.059 C 
HETATM   27  C   UNL     1     -12.948   1.231 -34.744  1.00  0.00     0.169 C 
HETATM   28  O   UNL     1     -14.023   1.929 -34.133  1.00  0.00    -0.391 OA
HETATM   29  C   UNL     1     -13.713   2.516 -32.877  1.00  0.00     0.169 C 
HETATM   30  C   UNL     1     -12.574   3.512 -33.033  1.00  0.00     0.059 C 
ENDBRANCH   8  25
TORSDOF 5
ENDMDL
