MODEL 1
REMARK VINA RESULT:      -8.8      0.000      0.000
REMARK  7 active torsions:
REMARK  status: ('A' for Active; 'I' for Inactive)
REMARK    1  A    between atoms: C_3  and  N_4 
REMARK       I    between atoms: N_4  and  C_5 
REMARK    2  A    between atoms: C_5  and  C_6 
REMARK    3  A    between atoms: C_6  and  C_14 
REMARK    4  A    between atoms: C_8  and  C_9 
REMARK    5  A    between atoms: C_9  and  O_15 
REMARK    6  A    between atoms: C_10  and  O_17 
REMARK    7  A    between atoms: C_22  and  N_23 
REMARK       I    between atoms: N_23  and  C_24 
REMARK       I    between atoms: C_24  and  N_25 
ROOT
HETATM    1  C           1      -6.630   2.793 -30.634  0.00  0.00     0.016 C 
HETATM    2  C           1      -7.411   2.300 -33.059  0.00  0.00     0.012 C 
HETATM    3  C           1      -6.492   1.872 -31.865  0.00  0.00    -0.030 C 
HETATM    4  C           1      -8.937   1.944 -33.009  0.00  0.00     0.008 C 
HETATM    5  C           1      -9.081   0.471 -32.572  0.00  0.00     0.128 C 
HETATM    6  C           1      -6.832   0.416 -31.460  0.00  0.00     0.013 C 
HETATM    7  C           1      -4.719   3.268 -32.983  0.00  0.00     0.056 A 
HETATM    8  C           1      -5.002   1.927 -32.355  0.00  0.00     0.056 C 
HETATM    9  C           1      -9.520   2.063 -34.445  0.00  0.00     0.020 C 
HETATM   10  C           1      -8.330   0.150 -31.288  0.00  0.00     0.033 C 
HETATM   11  C           1      -7.124   3.748 -33.511  0.00  0.00     0.055 C 
HETATM   12  C           1      -5.656   4.062 -33.510  0.00  0.00     0.012 A 
HETATM   13  N           1      -3.572   3.795 -33.048  0.00  0.00    -0.227 NA
HETATM   14  C           1      -3.685   4.921 -33.614  0.00  0.00     0.175 A 
HETATM   15  S           1      -5.042   5.292 -34.015  0.00  0.00    -0.055 SA
ENDROOT
BRANCH  14  16
HETATM   16  N           1      -2.726   5.835 -33.856  0.00  0.00    -0.287 N 
HETATM   17  C           1      -1.954   6.651 -33.082  0.00  0.00     0.324 C 
HETATM   18  O           1      -1.486   7.608 -33.641  0.00  0.00    -0.247 OA
HETATM   19  N           1      -1.741   6.477 -31.735  0.00  0.00    -0.330 N 
HETATM   20  C           1      -1.597   5.178 -31.095  0.00  0.00     0.153 C 
HETATM   21  C           1      -1.451   7.584 -30.831  0.00  0.00     0.153 C 
HETATM   22  C           1      -0.224   5.078 -30.433  0.00  0.00     0.187 C 
HETATM   23  O           1      -0.025   6.143 -29.537  0.00  0.00    -0.388 OA
HETATM   24  C           1      -0.080   7.384 -30.193  0.00  0.00     0.187 C 
HETATM   25  H           1      -2.624   5.998 -34.848  0.00  0.00     0.172 HD
ENDBRANCH  14  16
BRANCH   8  26
HETATM   26  C           1      -3.927   1.530 -31.322  0.00  0.00     0.114 C 
BRANCH  26  27
HETATM   27  C           1      -3.213   0.205 -31.580  0.00  0.00     0.218 C 
HETATM   28  N           1      -3.893  -0.617 -32.440  0.00  0.00    -0.357 N 
HETATM   29  H           1      -4.810  -0.295 -32.756  0.00  0.00     0.162 HD
HETATM   30  O           1      -2.150  -0.059 -31.078  0.00  0.00    -0.274 OA
BRANCH  28  31
HETATM   31  C           1      -3.460  -1.944 -32.906  0.00  0.00     0.076 C 
HETATM   32  C           1      -4.450  -2.472 -33.956  0.00  0.00     0.032 C 
HETATM   33  C           1      -3.157  -3.031 -31.863  0.00  0.00     0.032 C 
ENDBRANCH  28  31
ENDBRANCH  26  27
ENDBRANCH   8  26
BRANCH   4  34
HETATM   34  C           1      -9.768   2.873 -32.101  0.00  0.00     0.176 C 
BRANCH  34  35
HETATM   35  O           1     -11.157   2.734 -32.341  0.00  0.00    -0.400 OA
HETATM   36  H           1     -11.329   1.917 -32.811  0.00  0.00     0.209 HD
ENDBRANCH  34  35
ENDBRANCH   4  34
BRANCH   5  37
HETATM   37  O           1     -10.434   0.129 -32.385  0.00  0.00    -0.395 OA
HETATM   38  H           1     -10.600  -0.069 -31.461  0.00  0.00     0.210 HD
ENDBRANCH   5  37
TORSDOF 7
ENDMDL
MODEL 2
REMARK VINA RESULT:      -8.8      3.625      7.968
REMARK  7 active torsions:
REMARK  status: ('A' for Active; 'I' for Inactive)
REMARK    1  A    between atoms: C_3  and  N_4 
REMARK       I    between atoms: N_4  and  C_5 
REMARK    2  A    between atoms: C_5  and  C_6 
REMARK    3  A    between atoms: C_6  and  C_14 
REMARK    4  A    between atoms: C_8  and  C_9 
REMARK    5  A    between atoms: C_9  and  O_15 
REMARK    6  A    between atoms: C_10  and  O_17 
REMARK    7  A    between atoms: C_22  and  N_23 
REMARK       I    between atoms: N_23  and  C_24 
REMARK       I    between atoms: C_24  and  N_25 
ROOT
HETATM    1  C           1      -5.409   4.122 -34.424  0.00  0.00     0.016 C 
HETATM    2  C           1      -6.389   4.555 -32.060  0.00  0.00     0.012 C 
HETATM    3  C           1      -5.781   3.511 -33.055  0.00  0.00    -0.030 C 
HETATM    4  C           1      -5.428   5.545 -31.316  0.00  0.00     0.008 C 
HETATM    5  C           1      -4.231   4.742 -30.765  0.00  0.00     0.128 C 
HETATM    6  C           1      -4.521   2.875 -32.416  0.00  0.00     0.013 C 
HETATM    7  C           1      -8.167   3.008 -33.684  0.00  0.00     0.056 A 
HETATM    8  C           1      -6.850   2.387 -33.295  0.00  0.00     0.056 C 
HETATM    9  C           1      -6.184   6.147 -30.099  0.00  0.00     0.020 C 
HETATM   10  C           1      -3.542   3.890 -31.822  0.00  0.00     0.033 C 
HETATM   11  C           1      -7.650   5.230 -32.641  0.00  0.00     0.055 C 
HETATM   12  C           1      -8.526   4.259 -33.377  0.00  0.00     0.012 A 
HETATM   13  N           1      -9.055   2.424 -34.368  0.00  0.00    -0.227 NA
HETATM   14  C           1     -10.020   3.226 -34.533  0.00  0.00     0.175 A 
HETATM   15  S           1      -9.855   4.545 -33.923  0.00  0.00    -0.055 SA
ENDROOT
BRANCH  14  16
HETATM   16  N           1     -11.157   3.034 -35.227  0.00  0.00    -0.287 N 
HETATM   17  C           1     -12.363   2.453 -34.962  0.00  0.00     0.324 C 
HETATM   18  O           1     -13.000   2.115 -35.925  0.00  0.00    -0.247 OA
HETATM   19  N           1     -12.841   2.189 -33.701  0.00  0.00    -0.330 N 
HETATM   20  C           1     -12.631   3.057 -32.553  0.00  0.00     0.153 C 
HETATM   21  C           1     -13.771   1.101 -33.420  0.00  0.00     0.153 C 
HETATM   22  C           1     -13.979   3.533 -32.011  0.00  0.00     0.187 C 
HETATM   23  O           1     -14.809   2.439 -31.713  0.00  0.00    -0.388 OA
HETATM   24  C           1     -15.071   1.665 -32.855  0.00  0.00     0.187 C 
HETATM   25  H           1     -11.047   3.322 -36.190  0.00  0.00     0.172 HD
ENDBRANCH  14  16
BRANCH   8  26
HETATM   26  C           1      -6.441   1.245 -34.249  0.00  0.00     0.114 C 
BRANCH  26  27
HETATM   27  C           1      -6.263  -0.127 -33.605  0.00  0.00     0.218 C 
HETATM   28  N           1      -6.106  -1.137 -34.517  0.00  0.00    -0.357 N 
HETATM   29  H           1      -6.189  -0.884 -35.503  0.00  0.00     0.162 HD
HETATM   30  O           1      -6.248  -0.277 -32.409  0.00  0.00    -0.274 OA
BRANCH  28  31
HETATM   31  C           1      -5.889  -2.562 -34.215  0.00  0.00     0.076 C 
HETATM   32  C           1      -4.403  -2.908 -34.394  0.00  0.00     0.032 C 
HETATM   33  C           1      -6.770  -3.609 -34.915  0.00  0.00     0.032 C 
ENDBRANCH  28  31
ENDBRANCH  26  27
ENDBRANCH   8  26
BRANCH   4  34
HETATM   34  C           1      -4.948   6.725 -32.184  0.00  0.00     0.176 C 
BRANCH  34  35
HETATM   35  O           1      -4.612   7.853 -31.394  0.00  0.00    -0.400 OA
HETATM   36  H           1      -5.153   7.873 -30.605  0.00  0.00     0.209 HD
ENDBRANCH  34  35
ENDBRANCH   4  34
BRANCH   5  37
HETATM   37  O           1      -3.267   5.596 -30.195  0.00  0.00    -0.395 OA
HETATM   38  H           1      -2.386   5.257 -30.361  0.00  0.00     0.210 HD
ENDBRANCH   5  37
TORSDOF 7
ENDMDL
MODEL 3
REMARK VINA RESULT:      -8.7      2.089      3.053
REMARK  7 active torsions:
REMARK  status: ('A' for Active; 'I' for Inactive)
REMARK    1  A    between atoms: C_3  and  N_4 
REMARK       I    between atoms: N_4  and  C_5 
REMARK    2  A    between atoms: C_5  and  C_6 
REMARK    3  A    between atoms: C_6  and  C_14 
REMARK    4  A    between atoms: C_8  and  C_9 
REMARK    5  A    between atoms: C_9  and  O_15 
REMARK    6  A    between atoms: C_10  and  O_17 
REMARK    7  A    between atoms: C_22  and  N_23 
REMARK       I    between atoms: N_23  and  C_24 
REMARK       I    between atoms: C_24  and  N_25 
ROOT
HETATM    1  C           1      -8.686   1.128 -31.239  0.00  0.00     0.016 C 
HETATM    2  C           1      -8.879   2.930 -33.096  0.00  0.00     0.012 C 
HETATM    3  C           1      -8.482   1.460 -32.733  0.00  0.00    -0.030 C 
HETATM    4  C           1     -10.397   3.287 -33.262  0.00  0.00     0.008 C 
HETATM    5  C           1     -11.063   2.200 -34.130  0.00  0.00     0.128 C 
HETATM    6  C           1      -9.314   0.481 -33.597  0.00  0.00     0.013 C 
HETATM    7  C           1      -6.152   2.369 -32.435  0.00  0.00     0.056 A 
HETATM    8  C           1      -6.961   1.270 -33.074  0.00  0.00     0.056 C 
HETATM    9  C           1     -10.506   4.632 -34.035  0.00  0.00     0.020 C 
HETATM   10  C           1     -10.814   0.788 -33.619  0.00  0.00     0.033 C 
HETATM   11  C           1      -8.084   3.959 -32.264  0.00  0.00     0.055 C 
HETATM   12  C           1      -6.646   3.564 -32.096  0.00  0.00     0.012 A 
HETATM   13  N           1      -4.931   2.266 -32.125  0.00  0.00    -0.227 NA
HETATM   14  C           1      -4.563   3.354 -31.594  0.00  0.00     0.175 A 
HETATM   15  S           1      -5.598   4.383 -31.485  0.00  0.00    -0.055 SA
ENDROOT
BRANCH  14  16
HETATM   16  N           1      -3.359   3.670 -31.084  0.00  0.00    -0.287 N 
HETATM   17  C           1      -2.259   4.332 -31.547  0.00  0.00     0.324 C 
HETATM   18  O           1      -1.228   4.093 -30.974  0.00  0.00    -0.247 OA
HETATM   19  N           1      -2.256   5.178 -32.630  0.00  0.00    -0.330 N 
HETATM   20  C           1      -3.350   6.078 -32.963  0.00  0.00     0.153 C 
HETATM   21  C           1      -1.075   5.399 -33.458  0.00  0.00     0.153 C 
HETATM   22  C           1      -2.854   7.524 -32.942  0.00  0.00     0.187 C 
HETATM   23  O           1      -1.749   7.683 -33.796  0.00  0.00    -0.388 OA
HETATM   24  C           1      -0.673   6.869 -33.403  0.00  0.00     0.187 C 
HETATM   25  H           1      -3.225   3.243 -30.178  0.00  0.00     0.172 HD
ENDBRANCH  14  16
BRANCH   8  26
HETATM   26  C           1      -6.367  -0.127 -32.794  0.00  0.00     0.114 C 
BRANCH  26  27
HETATM   27  C           1      -6.078  -0.984 -34.024  0.00  0.00     0.218 C 
HETATM   28  N           1      -5.502  -2.190 -33.720  0.00  0.00    -0.357 N 
HETATM   29  H           1      -5.273  -2.356 -32.739  0.00  0.00     0.162 HD
HETATM   30  O           1      -6.354  -0.620 -35.139  0.00  0.00    -0.274 OA
BRANCH  28  31
HETATM   31  C           1      -5.127  -3.245 -34.676  0.00  0.00     0.076 C 
HETATM   32  C           1      -6.377  -4.038 -35.087  0.00  0.00     0.032 C 
HETATM   33  C           1      -3.983  -4.203 -34.309  0.00  0.00     0.032 C 
ENDBRANCH  28  31
ENDBRANCH  26  27
ENDBRANCH   8  26
BRANCH   4  34
HETATM   34  C           1     -11.149   3.466 -31.928  0.00  0.00     0.176 C 
BRANCH  34  35
HETATM   35  O           1     -12.382   4.140 -32.109  0.00  0.00    -0.400 OA
HETATM   36  H           1     -12.581   4.671 -31.337  0.00  0.00     0.209 HD
ENDBRANCH  34  35
ENDBRANCH   4  34
BRANCH   5  37
HETATM   37  O           1     -12.455   2.397 -34.210  0.00  0.00    -0.395 OA
HETATM   38  H           1     -12.778   2.123 -35.070  0.00  0.00     0.210 HD
ENDBRANCH   5  37
TORSDOF 7
ENDMDL
MODEL 4
REMARK VINA RESULT:      -8.6      3.555      5.337
REMARK  7 active torsions:
REMARK  status: ('A' for Active; 'I' for Inactive)
REMARK    1  A    between atoms: C_3  and  N_4 
REMARK       I    between atoms: N_4  and  C_5 
REMARK    2  A    between atoms: C_5  and  C_6 
REMARK    3  A    between atoms: C_6  and  C_14 
REMARK    4  A    between atoms: C_8  and  C_9 
REMARK    5  A    between atoms: C_9  and  O_15 
REMARK    6  A    between atoms: C_10  and  O_17 
REMARK    7  A    between atoms: C_22  and  N_23 
REMARK       I    between atoms: N_23  and  C_24 
REMARK       I    between atoms: C_24  and  N_25 
ROOT
HETATM    1  C           1      -5.883   1.861 -30.995  0.00  0.00     0.016 C 
HETATM    2  C           1      -6.130   1.717 -33.574  0.00  0.00     0.012 C 
HETATM    3  C           1      -5.166   1.935 -32.360  0.00  0.00    -0.030 C 
HETATM    4  C           1      -6.582   0.259 -33.932  0.00  0.00     0.008 C 
HETATM    5  C           1      -5.340  -0.656 -33.915  0.00  0.00     0.128 C 
HETATM    6  C           1      -4.040   0.873 -32.409  0.00  0.00     0.013 C 
HETATM    7  C           1      -5.605   4.392 -32.703  0.00  0.00     0.056 A 
HETATM    8  C           1      -4.524   3.361 -32.500  0.00  0.00     0.056 C 
HETATM    9  C           1      -7.142   0.257 -35.383  0.00  0.00     0.020 C 
HETATM   10  C           1      -4.540  -0.558 -32.624  0.00  0.00     0.033 C 
HETATM   11  C           1      -7.281   2.745 -33.582  0.00  0.00     0.055 C 
HETATM   12  C           1      -6.817   4.120 -33.199  0.00  0.00     0.012 A 
HETATM   13  N           1      -5.492   5.612 -32.395  0.00  0.00    -0.227 NA
HETATM   14  C           1      -6.580   6.194 -32.674  0.00  0.00     0.175 A 
HETATM   15  S           1      -7.623   5.342 -33.244  0.00  0.00    -0.055 SA
ENDROOT
BRANCH  14  16
HETATM   16  N           1      -6.913   7.484 -32.477  0.00  0.00    -0.287 N 
HETATM   17  C           1      -7.633   8.161 -31.536  0.00  0.00     0.324 C 
HETATM   18  O           1      -8.052   9.237 -31.877  0.00  0.00    -0.247 OA
HETATM   19  N           1      -7.942   7.673 -30.289  0.00  0.00    -0.330 N 
HETATM   20  C           1      -7.046   6.849 -29.492  0.00  0.00     0.153 C 
HETATM   21  C           1      -9.132   8.083 -29.552  0.00  0.00     0.153 C 
HETATM   22  C           1      -6.731   7.554 -28.174  0.00  0.00     0.187 C 
HETATM   23  O           1      -7.915   7.878 -27.489  0.00  0.00    -0.388 OA
HETATM   24  C           1      -8.724   8.746 -28.241  0.00  0.00     0.187 C 
HETATM   25  H           1      -6.621   8.056 -33.257  0.00  0.00     0.172 HD
ENDBRANCH  14  16
BRANCH   8  26
HETATM   26  C           1      -3.526   3.774 -31.397  0.00  0.00     0.114 C 
BRANCH  26  27
HETATM   27  C           1      -2.193   4.335 -31.884  0.00  0.00     0.218 C 
HETATM   28  N           1      -1.365   4.724 -30.864  0.00  0.00    -0.357 N 
HETATM   29  H           1      -1.741   4.662 -29.917  0.00  0.00     0.162 HD
HETATM   30  O           1      -1.914   4.402 -33.055  0.00  0.00    -0.274 OA
BRANCH  28  31
HETATM   31  C           1      -0.008   5.279 -31.002  0.00  0.00     0.076 C 
HETATM   32  C           1       0.833   4.899 -29.775  0.00  0.00     0.032 C 
HETATM   33  C           1       0.150   6.775 -31.317  0.00  0.00     0.032 C 
ENDBRANCH  28  31
ENDBRANCH  26  27
ENDBRANCH   8  26
BRANCH   4  34
HETATM   34  C           1      -7.690  -0.297 -33.016  0.00  0.00     0.176 C 
BRANCH  34  35
HETATM   35  O           1      -8.975  -0.140 -33.593  0.00  0.00    -0.400 OA
HETATM   36  H           1      -9.609   0.103 -32.918  0.00  0.00     0.209 HD
ENDBRANCH  34  35
ENDBRANCH   4  34
BRANCH   5  37
HETATM   37  O           1      -5.701  -2.004 -34.104  0.00  0.00    -0.395 OA
HETATM   38  H           1      -4.950  -2.574 -33.930  0.00  0.00     0.210 HD
ENDBRANCH   5  37
TORSDOF 7
ENDMDL
MODEL 5
REMARK VINA RESULT:      -8.5      2.332      3.411
REMARK  7 active torsions:
REMARK  status: ('A' for Active; 'I' for Inactive)
REMARK    1  A    between atoms: C_3  and  N_4 
REMARK       I    between atoms: N_4  and  C_5 
REMARK    2  A    between atoms: C_5  and  C_6 
REMARK    3  A    between atoms: C_6  and  C_14 
REMARK    4  A    between atoms: C_8  and  C_9 
REMARK    5  A    between atoms: C_9  and  O_15 
REMARK    6  A    between atoms: C_10  and  O_17 
REMARK    7  A    between atoms: C_22  and  N_23 
REMARK       I    between atoms: N_23  and  C_24 
REMARK       I    between atoms: C_24  and  N_25 
ROOT
HETATM    1  C           1     -10.290   2.628 -31.278  0.00  0.00     0.016 C 
HETATM    2  C           1     -10.060   3.216 -33.795  0.00  0.00     0.012 C 
HETATM    3  C           1      -9.691   2.223 -32.642  0.00  0.00    -0.030 C 
HETATM    4  C           1     -11.488   3.134 -34.439  0.00  0.00     0.008 C 
HETATM    5  C           1     -11.809   1.653 -34.727  0.00  0.00     0.128 C 
HETATM    6  C           1     -10.180   0.803 -33.019  0.00  0.00     0.013 C 
HETATM    7  C           1      -7.604   3.609 -32.380  0.00  0.00     0.056 A 
HETATM    8  C           1      -8.127   2.201 -32.503  0.00  0.00     0.056 C 
HETATM    9  C           1     -11.457   3.878 -35.803  0.00  0.00     0.020 C 
HETATM   10  C           1     -11.627   0.752 -33.514  0.00  0.00     0.033 C 
HETATM   11  C           1      -9.602   4.656 -33.478  0.00  0.00     0.055 C 
HETATM   12  C           1      -8.249   4.690 -32.829  0.00  0.00     0.012 A 
HETATM   13  N           1      -6.518   3.918 -31.812  0.00  0.00    -0.227 NA
HETATM   14  C           1      -6.386   5.175 -31.865  0.00  0.00     0.175 A 
HETATM   15  S           1      -7.471   5.895 -32.531  0.00  0.00    -0.055 SA
ENDROOT
BRANCH  14  16
HETATM   16  N           1      -5.398   5.934 -31.355  0.00  0.00    -0.287 N 
HETATM   17  C           1      -4.036   5.921 -31.428  0.00  0.00     0.324 C 
HETATM   18  O           1      -3.461   6.501 -30.544  0.00  0.00    -0.247 OA
HETATM   19  N           1      -3.313   5.255 -32.388  0.00  0.00    -0.330 N 
HETATM   20  C           1      -3.722   5.136 -33.780  0.00  0.00     0.153 C 
HETATM   21  C           1      -1.963   4.751 -32.155  0.00  0.00     0.153 C 
HETATM   22  C           1      -2.669   5.777 -34.684  0.00  0.00     0.187 C 
HETATM   23  O           1      -1.402   5.216 -34.447  0.00  0.00    -0.388 OA
HETATM   24  C           1      -0.989   5.420 -33.120  0.00  0.00     0.187 C 
HETATM   25  H           1      -5.765   6.618 -30.707  0.00  0.00     0.172 HD
ENDBRANCH  14  16
BRANCH   8  26
HETATM   26  C           1      -7.550   1.269 -31.416  0.00  0.00     0.114 C 
BRANCH  26  27
HETATM   27  C           1      -6.677   0.122 -31.919  0.00  0.00     0.218 C 
HETATM   28  N           1      -6.570   0.082 -33.285  0.00  0.00    -0.357 N 
HETATM   29  H           1      -7.123   0.762 -33.809  0.00  0.00     0.162 HD
HETATM   30  O           1      -6.133  -0.648 -31.168  0.00  0.00    -0.274 OA
BRANCH  28  31
HETATM   31  C           1      -5.785  -0.883 -34.072  0.00  0.00     0.076 C 
HETATM   32  C           1      -6.630  -2.137 -34.343  0.00  0.00     0.032 C 
HETATM   33  C           1      -4.386  -1.278 -33.576  0.00  0.00     0.032 C 
ENDBRANCH  28  31
ENDBRANCH  26  27
ENDBRANCH   8  26
BRANCH   4  34
HETATM   34  C           1     -12.598   3.785 -33.589  0.00  0.00     0.176 C 
BRANCH  34  35
HETATM   35  O           1     -13.692   4.199 -34.387  0.00  0.00    -0.400 OA
HETATM   36  H           1     -13.554   3.935 -35.297  0.00  0.00     0.209 HD
ENDBRANCH  34  35
ENDBRANCH   4  34
BRANCH   5  37
HETATM   37  O           1     -13.131   1.502 -35.190  0.00  0.00    -0.395 OA
HETATM   38  H           1     -13.296   2.103 -35.918  0.00  0.00     0.210 HD
ENDBRANCH   5  37
TORSDOF 7
ENDMDL
MODEL 6
REMARK VINA RESULT:      -8.3      3.251      4.951
REMARK  7 active torsions:
REMARK  status: ('A' for Active; 'I' for Inactive)
REMARK    1  A    between atoms: C_3  and  N_4 
REMARK       I    between atoms: N_4  and  C_5 
REMARK    2  A    between atoms: C_5  and  C_6 
REMARK    3  A    between atoms: C_6  and  C_14 
REMARK    4  A    between atoms: C_8  and  C_9 
REMARK    5  A    between atoms: C_9  and  O_15 
REMARK    6  A    between atoms: C_10  and  O_17 
REMARK    7  A    between atoms: C_22  and  N_23 
REMARK       I    between atoms: N_23  and  C_24 
REMARK       I    between atoms: C_24  and  N_25 
ROOT
HETATM    1  C           1      -6.176   0.897 -30.984  0.00  0.00     0.016 C 
HETATM    2  C           1      -7.600   2.553 -32.386  0.00  0.00     0.012 C 
HETATM    3  C           1      -6.176   1.975 -32.089  0.00  0.00    -0.030 C 
HETATM    4  C           1      -8.594   1.711 -33.259  0.00  0.00     0.008 C 
HETATM    5  C           1      -7.835   1.186 -34.495  0.00  0.00     0.128 C 
HETATM    6  C           1      -5.589   1.377 -33.392  0.00  0.00     0.013 C 
HETATM    7  C           1      -5.933   3.914 -30.499  0.00  0.00     0.056 A 
HETATM    8  C           1      -5.260   3.160 -31.618  0.00  0.00     0.056 C 
HETATM    9  C           1      -9.722   2.652 -33.770  0.00  0.00     0.020 C 
HETATM   10  C           1      -6.550   0.451 -34.142  0.00  0.00     0.033 C 
HETATM   11  C           1      -8.244   3.163 -31.122  0.00  0.00     0.055 C 
HETATM   12  C           1      -7.254   3.929 -30.294  0.00  0.00     0.012 A 
HETATM   13  N           1      -5.318   4.583 -29.621  0.00  0.00    -0.227 NA
HETATM   14  C           1      -6.172   5.070 -28.824  0.00  0.00     0.175 A 
HETATM   15  S           1      -7.567   4.740 -29.116  0.00  0.00    -0.055 SA
ENDROOT
BRANCH  14  16
HETATM   16  N           1      -5.958   5.815 -27.724  0.00  0.00    -0.287 N 
HETATM   17  C           1      -5.299   6.982 -27.463  0.00  0.00     0.324 C 
HETATM   18  O           1      -4.982   7.153 -26.315  0.00  0.00    -0.247 OA
HETATM   19  N           1      -4.941   7.905 -28.415  0.00  0.00    -0.330 N 
HETATM   20  C           1      -5.754   8.236 -29.575  0.00  0.00     0.153 C 
HETATM   21  C           1      -3.790   8.789 -28.265  0.00  0.00     0.153 C 
HETATM   22  C           1      -6.126   9.718 -29.540  0.00  0.00     0.187 C 
HETATM   23  O           1      -4.974  10.518 -29.446  0.00  0.00    -0.388 OA
HETATM   24  C           1      -4.251  10.243 -28.273  0.00  0.00     0.187 C 
HETATM   25  H           1      -6.305   5.349 -26.897  0.00  0.00     0.172 HD
ENDBRANCH  14  16
BRANCH   8  26
HETATM   26  C           1      -3.797   2.801 -31.279  0.00  0.00     0.114 C 
BRANCH  26  27
HETATM   27  C           1      -2.732   3.701 -31.901  0.00  0.00     0.218 C 
HETATM   28  N           1      -2.030   4.428 -30.975  0.00  0.00    -0.357 N 
HETATM   29  H           1      -2.329   4.344 -30.002  0.00  0.00     0.162 HD
HETATM   30  O           1      -2.536   3.737 -33.090  0.00  0.00    -0.274 OA
BRANCH  28  31
HETATM   31  C           1      -0.927   5.363 -31.252  0.00  0.00     0.076 C 
HETATM   32  C           1       0.129   5.259 -30.141  0.00  0.00     0.032 C 
HETATM   33  C           1      -1.261   6.836 -31.537  0.00  0.00     0.032 C 
ENDBRANCH  28  31
ENDBRANCH  26  27
ENDBRANCH   8  26
BRANCH   4  34
HETATM   34  C           1      -9.275   0.556 -32.497  0.00  0.00     0.176 C 
BRANCH  34  35
HETATM   35  O           1     -10.643   0.434 -32.844  0.00  0.00    -0.400 OA
HETATM   36  H           1     -11.181   0.409 -32.053  0.00  0.00     0.209 HD
ENDBRANCH  34  35
ENDBRANCH   4  34
BRANCH   5  37
HETATM   37  O           1      -8.642   0.316 -35.253  0.00  0.00    -0.395 OA
HETATM   38  H           1      -8.617   0.565 -36.178  0.00  0.00     0.210 HD
ENDBRANCH   5  37
TORSDOF 7
ENDMDL
MODEL 7
REMARK VINA RESULT:      -8.2      2.601      7.577
REMARK  7 active torsions:
REMARK  status: ('A' for Active; 'I' for Inactive)
REMARK    1  A    between atoms: C_3  and  N_4 
REMARK       I    between atoms: N_4  and  C_5 
REMARK    2  A    between atoms: C_5  and  C_6 
REMARK    3  A    between atoms: C_6  and  C_14 
REMARK    4  A    between atoms: C_8  and  C_9 
REMARK    5  A    between atoms: C_9  and  O_15 
REMARK    6  A    between atoms: C_10  and  O_17 
REMARK    7  A    between atoms: C_22  and  N_23 
REMARK       I    between atoms: N_23  and  C_24 
REMARK       I    between atoms: C_24  and  N_25 
ROOT
HETATM    1  C           1      -4.691   5.364 -33.762  0.00  0.00     0.016 C 
HETATM    2  C           1      -3.676   5.588 -31.385  0.00  0.00     0.012 C 
HETATM    3  C           1      -3.977   4.645 -32.598  0.00  0.00    -0.030 C 
HETATM    4  C           1      -2.460   6.574 -31.473  0.00  0.00     0.008 C 
HETATM    5  C           1      -1.241   5.799 -32.013  0.00  0.00     0.128 C 
HETATM    6  C           1      -2.648   4.033 -33.107  0.00  0.00     0.013 C 
HETATM    7  C           1      -6.098   4.064 -31.370  0.00  0.00     0.056 A 
HETATM    8  C           1      -4.908   3.486 -32.092  0.00  0.00     0.056 C 
HETATM    9  C           1      -2.108   7.055 -30.037  0.00  0.00     0.020 C 
HETATM   10  C           1      -1.528   5.056 -33.310  0.00  0.00     0.033 C 
HETATM   11  C           1      -4.964   6.235 -30.830  0.00  0.00     0.055 C 
HETATM   12  C           1      -6.114   5.271 -30.796  0.00  0.00     0.012 A 
HETATM   13  N           1      -7.214   3.481 -31.258  0.00  0.00    -0.227 NA
HETATM   14  C           1      -7.996   4.242 -30.616  0.00  0.00     0.175 A 
HETATM   15  S           1      -7.428   5.525 -30.201  0.00  0.00    -0.055 SA
ENDROOT
BRANCH  14  16
HETATM   16  N           1      -9.289   4.039 -30.302  0.00  0.00    -0.287 N 
HETATM   17  C           1     -10.415   3.727 -31.007  0.00  0.00     0.324 C 
HETATM   18  O           1     -11.457   4.004 -30.472  0.00  0.00    -0.247 OA
HETATM   19  N           1     -10.420   3.189 -32.272  0.00  0.00    -0.330 N 
HETATM   20  C           1      -9.450   2.212 -32.744  0.00  0.00     0.153 C 
HETATM   21  C           1     -11.510   3.401 -33.217  0.00  0.00     0.153 C 
HETATM   22  C           1     -10.168   0.924 -33.144  0.00  0.00     0.187 C 
HETATM   23  O           1     -11.171   1.187 -34.092  0.00  0.00    -0.388 OA
HETATM   24  C           1     -12.144   2.063 -33.583  0.00  0.00     0.187 C 
HETATM   25  H           1      -9.463   4.247 -29.329  0.00  0.00     0.172 HD
ENDBRANCH  14  16
BRANCH   8  26
HETATM   26  C           1      -5.320   2.432 -33.142  0.00  0.00     0.114 C 
BRANCH  26  27
HETATM   27  C           1      -5.294   0.980 -32.672  0.00  0.00     0.218 C 
HETATM   28  N           1      -5.668   0.090 -33.644  0.00  0.00    -0.357 N 
HETATM   29  H           1      -5.979   0.484 -34.533  0.00  0.00     0.162 HD
HETATM   30  O           1      -4.957   0.674 -31.556  0.00  0.00    -0.274 OA
BRANCH  28  31
HETATM   31  C           1      -5.722  -1.375 -33.512  0.00  0.00     0.076 C 
HETATM   32  C           1      -4.337  -1.972 -33.806  0.00  0.00     0.032 C 
HETATM   33  C           1      -6.809  -2.147 -34.277  0.00  0.00     0.032 C 
ENDBRANCH  28  31
ENDBRANCH  26  27
ENDBRANCH   8  26
BRANCH   4  34
HETATM   34  C           1      -2.734   7.833 -32.320  0.00  0.00     0.176 C 
BRANCH  34  35
HETATM   35  O           1      -1.876   8.902 -31.962  0.00  0.00    -0.400 OA
HETATM   36  H           1      -1.180   8.585 -31.385  0.00  0.00     0.209 HD
ENDBRANCH  34  35
ENDBRANCH   4  34
BRANCH   5  37
HETATM   37  O           1      -0.150   6.662 -32.235  0.00  0.00    -0.395 OA
HETATM   38  H           1       0.605   6.164 -32.554  0.00  0.00     0.210 HD
ENDBRANCH   5  37
TORSDOF 7
ENDMDL
MODEL 8
REMARK VINA RESULT:      -8.2      4.454      7.990
REMARK  7 active torsions:
REMARK  status: ('A' for Active; 'I' for Inactive)
REMARK    1  A    between atoms: C_3  and  N_4 
REMARK       I    between atoms: N_4  and  C_5 
REMARK    2  A    between atoms: C_5  and  C_6 
REMARK    3  A    between atoms: C_6  and  C_14 
REMARK    4  A    between atoms: C_8  and  C_9 
REMARK    5  A    between atoms: C_9  and  O_15 
REMARK    6  A    between atoms: C_10  and  O_17 
REMARK    7  A    between atoms: C_22  and  N_23 
REMARK       I    between atoms: N_23  and  C_24 
REMARK       I    between atoms: C_24  and  N_25 
ROOT
HETATM    1  C           1      -7.431   1.947 -34.052  0.00  0.00     0.016 C 
HETATM    2  C           1      -6.898   0.882 -31.746  0.00  0.00     0.012 C 
HETATM    3  C           1      -7.787   0.842 -33.034  0.00  0.00    -0.030 C 
HETATM    4  C           1      -5.442   0.304 -31.809  0.00  0.00     0.008 C 
HETATM    5  C           1      -5.490  -1.062 -32.524  0.00  0.00     0.128 C 
HETATM    6  C           1      -7.641  -0.546 -33.707  0.00  0.00     0.013 C 
HETATM    7  C           1      -9.405   2.263 -31.728  0.00  0.00     0.056 A 
HETATM    8  C           1      -9.283   1.039 -32.599  0.00  0.00     0.056 C 
HETATM    9  C           1      -4.947   0.053 -30.357  0.00  0.00     0.020 C 
HETATM   10  C           1      -6.192  -1.010 -33.873  0.00  0.00     0.033 C 
HETATM   11  C           1      -6.997   2.245 -31.027  0.00  0.00     0.055 C 
HETATM   12  C           1      -8.398   2.783 -31.019  0.00  0.00     0.012 A 
HETATM   13  N           1     -10.462   2.944 -31.602  0.00  0.00    -0.227 NA
HETATM   14  C           1     -10.222   3.910 -30.820  0.00  0.00     0.175 A 
HETATM   15  S           1      -8.855   3.976 -30.303  0.00  0.00    -0.055 SA
ENDROOT
BRANCH  14  16
HETATM   16  N           1     -11.048   4.901 -30.437  0.00  0.00    -0.287 N 
HETATM   17  C           1     -11.262   6.187 -30.840  0.00  0.00     0.324 C 
HETATM   18  O           1     -11.794   6.903 -30.032  0.00  0.00    -0.247 OA
HETATM   19  N           1     -10.864   6.703 -32.050  0.00  0.00    -0.330 N 
HETATM   20  C           1     -10.882   5.956 -33.298  0.00  0.00     0.153 C 
HETATM   21  C           1     -10.554   8.115 -32.244  0.00  0.00     0.153 C 
HETATM   22  C           1     -11.805   6.649 -34.301  0.00  0.00     0.187 C 
HETATM   23  O           1     -11.425   7.990 -34.482  0.00  0.00    -0.388 OA
HETATM   24  C           1     -11.500   8.713 -33.280  0.00  0.00     0.187 C 
HETATM   25  H           1     -11.564   4.642 -29.608  0.00  0.00     0.172 HD
ENDBRANCH  14  16
BRANCH   8  26
HETATM   26  C           1     -10.333   1.022 -33.730  0.00  0.00     0.114 C 
BRANCH  26  27
HETATM   27  C           1     -11.704   0.467 -33.356  0.00  0.00     0.218 C 
HETATM   28  N           1     -12.699   1.407 -33.400  0.00  0.00    -0.357 N 
HETATM   29  H           1     -12.417   2.366 -33.608  0.00  0.00     0.162 HD
HETATM   30  O           1     -11.871  -0.692 -33.069  0.00  0.00    -0.274 OA
BRANCH  28  31
HETATM   31  C           1     -14.127   1.183 -33.119  0.00  0.00     0.076 C 
HETATM   32  C           1     -14.836   0.704 -34.395  0.00  0.00     0.032 C 
HETATM   33  C           1     -14.934   2.306 -32.448  0.00  0.00     0.032 C 
ENDBRANCH  28  31
ENDBRANCH  26  27
ENDBRANCH   8  26
BRANCH   4  34
HETATM   34  C           1      -4.423   1.244 -32.483  0.00  0.00     0.176 C 
BRANCH  34  35
HETATM   35  O           1      -3.170   1.217 -31.822  0.00  0.00    -0.400 OA
HETATM   36  H           1      -2.462   1.152 -32.465  0.00  0.00     0.209 HD
ENDBRANCH  34  35
ENDBRANCH   4  34
BRANCH   5  37
HETATM   37  O           1      -4.193  -1.574 -32.725  0.00  0.00    -0.395 OA
HETATM   38  H           1      -4.212  -2.532 -32.714  0.00  0.00     0.210 HD
ENDBRANCH   5  37
TORSDOF 7
ENDMDL
MODEL 9
REMARK VINA RESULT:      -8.1      2.213      2.640
REMARK  7 active torsions:
REMARK  status: ('A' for Active; 'I' for Inactive)
REMARK    1  A    between atoms: C_3  and  N_4 
REMARK       I    between atoms: N_4  and  C_5 
REMARK    2  A    between atoms: C_5  and  C_6 
REMARK    3  A    between atoms: C_6  and  C_14 
REMARK    4  A    between atoms: C_8  and  C_9 
REMARK    5  A    between atoms: C_9  and  O_15 
REMARK    6  A    between atoms: C_10  and  O_17 
REMARK    7  A    between atoms: C_22  and  N_23 
REMARK       I    between atoms: N_23  and  C_24 
REMARK       I    between atoms: C_24  and  N_25 
ROOT
HETATM    1  C           1      -8.660   1.999 -31.438  0.00  0.00     0.016 C 
HETATM    2  C           1      -9.291   2.585 -33.886  0.00  0.00     0.012 C 
HETATM    3  C           1      -8.586   1.574 -32.921  0.00  0.00    -0.030 C 
HETATM    4  C           1     -10.855   2.564 -33.996  0.00  0.00     0.008 C 
HETATM    5  C           1     -11.316   1.099 -34.139  0.00  0.00     0.128 C 
HETATM    6  C           1      -9.231   0.176 -33.089  0.00  0.00     0.013 C 
HETATM    7  C           1      -6.483   2.872 -33.412  0.00  0.00     0.056 A 
HETATM    8  C           1      -7.073   1.486 -33.331  0.00  0.00     0.056 C 
HETATM    9  C           1     -11.269   3.311 -35.295  0.00  0.00     0.020 C 
HETATM   10  C           1     -10.762   0.187 -33.053  0.00  0.00     0.033 C 
HETATM   11  C           1      -8.694   4.003 -33.764  0.00  0.00     0.055 C 
HETATM   12  C           1      -7.200   3.980 -33.623  0.00  0.00     0.012 A 
HETATM   13  N           1      -5.256   3.133 -33.258  0.00  0.00    -0.227 NA
HETATM   14  C           1      -5.101   4.384 -33.368  0.00  0.00     0.175 A 
HETATM   15  S           1      -6.320   5.151 -33.626  0.00  0.00    -0.055 SA
ENDROOT
BRANCH  14  16
HETATM   16  N           1      -3.969   5.100 -33.239  0.00  0.00    -0.287 N 
HETATM   17  C           1      -3.620   6.242 -32.578  0.00  0.00     0.324 C 
HETATM   18  O           1      -2.640   6.804 -32.993  0.00  0.00    -0.247 OA
HETATM   19  N           1      -4.336   6.794 -31.543  0.00  0.00    -0.330 N 
HETATM   20  C           1      -5.023   6.017 -30.523  0.00  0.00     0.153 C 
HETATM   21  C           1      -4.328   8.223 -31.250  0.00  0.00     0.153 C 
HETATM   22  C           1      -4.452   6.352 -29.146  0.00  0.00     0.187 C 
HETATM   23  O           1      -4.519   7.735 -28.903  0.00  0.00    -0.388 OA
HETATM   24  C           1      -3.775   8.460 -29.849  0.00  0.00     0.187 C 
HETATM   25  H           1      -3.241   4.739 -33.840  0.00  0.00     0.172 HD
ENDBRANCH  14  16
BRANCH   8  26
HETATM   26  C           1      -6.193   0.528 -32.500  0.00  0.00     0.114 C 
BRANCH  26  27
HETATM   27  C           1      -5.316  -0.431 -33.300  0.00  0.00     0.218 C 
HETATM   28  N           1      -5.969  -1.573 -33.680  0.00  0.00    -0.357 N 
HETATM   29  H           1      -6.926  -1.690 -33.342  0.00  0.00     0.162 HD
HETATM   30  O           1      -4.169  -0.176 -33.572  0.00  0.00    -0.274 OA
BRANCH  28  31
HETATM   31  C           1      -5.409  -2.677 -34.478  0.00  0.00     0.076 C 
HETATM   32  C           1      -6.539  -3.619 -34.921  0.00  0.00     0.032 C 
HETATM   33  C           1      -4.234  -3.483 -33.903  0.00  0.00     0.032 C 
ENDBRANCH  28  31
ENDBRANCH  26  27
ENDBRANCH   8  26
BRANCH   4  34
HETATM   34  C           1     -11.576   3.258 -32.823  0.00  0.00     0.176 C 
BRANCH  34  35
HETATM   35  O           1     -12.849   3.747 -33.206  0.00  0.00    -0.400 OA
HETATM   36  H           1     -13.292   4.136 -32.451  0.00  0.00     0.209 HD
ENDBRANCH  34  35
ENDBRANCH   4  34
BRANCH   5  37
HETATM   37  O           1     -12.721   1.004 -34.114  0.00  0.00    -0.395 OA
HETATM   38  H           1     -12.992   0.278 -33.551  0.00  0.00     0.210 HD
ENDBRANCH   5  37
TORSDOF 7
ENDMDL
MODEL 10
REMARK VINA RESULT:      -7.9      2.567      4.719
REMARK  7 active torsions:
REMARK  status: ('A' for Active; 'I' for Inactive)
REMARK    1  A    between atoms: C_3  and  N_4 
REMARK       I    between atoms: N_4  and  C_5 
REMARK    2  A    between atoms: C_5  and  C_6 
REMARK    3  A    between atoms: C_6  and  C_14 
REMARK    4  A    between atoms: C_8  and  C_9 
REMARK    5  A    between atoms: C_9  and  O_15 
REMARK    6  A    between atoms: C_10  and  O_17 
REMARK    7  A    between atoms: C_22  and  N_23 
REMARK       I    between atoms: N_23  and  C_24 
REMARK       I    between atoms: C_24  and  N_25 
ROOT
HETATM    1  C           1      -8.505   4.587 -33.314  0.00  0.00     0.016 C 
HETATM    2  C           1      -7.049   2.529 -32.698  0.00  0.00     0.012 C 
HETATM    3  C           1      -7.891   3.742 -32.177  0.00  0.00    -0.030 C 
HETATM    4  C           1      -7.795   1.246 -33.201  0.00  0.00     0.008 C 
HETATM    5  C           1      -8.890   0.884 -32.176  0.00  0.00     0.128 C 
HETATM    6  C           1      -9.022   3.216 -31.258  0.00  0.00     0.013 C 
HETATM    7  C           1      -5.705   4.992 -32.131  0.00  0.00     0.056 A 
HETATM    8  C           1      -6.943   4.666 -31.334  0.00  0.00     0.056 C 
HETATM    9  C           1      -6.782   0.067 -33.236  0.00  0.00     0.020 C 
HETATM   10  C           1      -9.815   2.048 -31.850  0.00  0.00     0.033 C 
HETATM   11  C           1      -5.903   2.987 -33.626  0.00  0.00     0.055 C 
HETATM   12  C           1      -5.237   4.238 -33.131  0.00  0.00     0.012 A 
HETATM   13  N           1      -5.001   6.027 -31.960  0.00  0.00    -0.227 NA
HETATM   14  C           1      -4.055   6.006 -32.800  0.00  0.00     0.175 A 
HETATM   15  S           1      -4.035   4.852 -33.699  0.00  0.00    -0.055 SA
ENDROOT
BRANCH  14  16
HETATM   16  N           1      -3.092   6.926 -32.997  0.00  0.00    -0.287 N 
HETATM   17  C           1      -2.112   7.477 -32.223  0.00  0.00     0.324 C 
HETATM   18  O           1      -1.688   8.539 -32.600  0.00  0.00    -0.247 OA
HETATM   19  N           1      -1.646   6.934 -31.050  0.00  0.00    -0.330 N 
HETATM   20  C           1      -1.486   5.506 -30.821  0.00  0.00     0.153 C 
HETATM   21  C           1      -1.086   7.742 -29.972  0.00  0.00     0.153 C 
HETATM   22  C           1      -0.020   5.192 -30.524  0.00  0.00     0.187 C 
HETATM   23  O           1       0.446   5.964 -29.446  0.00  0.00    -0.388 OA
HETATM   24  C           1       0.364   7.339 -29.724  0.00  0.00     0.187 C 
HETATM   25  H           1      -3.179   7.353 -33.909  0.00  0.00     0.172 HD
ENDBRANCH  14  16
BRANCH   8  26
HETATM   26  C           1      -7.586   5.926 -30.718  0.00  0.00     0.114 C 
BRANCH  26  27
HETATM   27  C           1      -7.254   6.192 -29.252  0.00  0.00     0.218 C 
HETATM   28  N           1      -6.110   6.927 -29.081  0.00  0.00    -0.357 N 
HETATM   29  H           1      -5.580   7.155 -29.923  0.00  0.00     0.162 HD
HETATM   30  O           1      -7.955   5.798 -28.353  0.00  0.00    -0.274 OA
BRANCH  28  31
HETATM   31  C           1      -5.538   7.367 -27.798  0.00  0.00     0.076 C 
HETATM   32  C           1      -4.668   8.614 -28.021  0.00  0.00     0.032 C 
HETATM   33  C           1      -4.791   6.343 -26.930  0.00  0.00     0.032 C 
ENDBRANCH  28  31
ENDBRANCH  26  27
ENDBRANCH   8  26
BRANCH   4  34
HETATM   34  C           1      -8.388   1.379 -34.618  0.00  0.00     0.176 C 
BRANCH  34  35
HETATM   35  O           1      -8.256   0.178 -35.356  0.00  0.00    -0.400 OA
HETATM   36  H           1      -7.397   0.146 -35.780  0.00  0.00     0.209 HD
ENDBRANCH  34  35
ENDBRANCH   4  34
BRANCH   5  37
HETATM   37  O           1      -9.680  -0.187 -32.636  0.00  0.00    -0.395 OA
HETATM   38  H           1     -10.439   0.146 -33.117  0.00  0.00     0.210 HD
ENDBRANCH   5  37
TORSDOF 7
ENDMDL
