MODEL 1
REMARK VINA RESULT:      -8.4      0.000      0.000
REMARK  11 active torsions:
REMARK  status: ('A' for Active; 'I' for Inactive)
REMARK    1  A    between atoms: O_2  and  C_3 
REMARK    2  A    between atoms: C_3  and  C_4 
REMARK    3  A    between atoms: C_4  and  C_5 
REMARK    4  A    between atoms: C_5  and  O_6 
REMARK    5  A    between atoms: O_6  and  C_7 
REMARK    6  A    between atoms: C_7  and  C_9 
REMARK    7  A    between atoms: C_13  and  C_15 
REMARK    8  A    between atoms: C_17  and  C_23 
REMARK    9  A    between atoms: C_20  and  C_21 
REMARK   10  A    between atoms: C_21  and  N_22 
REMARK       I    between atoms: C_23  and  N_25 
REMARK   11  A    between atoms: N_25  and  C_26 
ROOT
HETATM    1  C   UNL     1      -4.430   3.471 -32.844  1.00  0.00    -0.017 A 
HETATM    2  C   UNL     1      -4.415   2.066 -32.713  1.00  0.00     0.030 A 
HETATM    3  C   UNL     1      -5.598   1.315 -32.747  1.00  0.00     0.033 A 
HETATM    4  C   UNL     1      -6.819   1.966 -32.914  1.00  0.00     0.017 A 
HETATM    5  C   UNL     1      -6.854   3.354 -33.040  1.00  0.00     0.011 A 
HETATM    6  C   UNL     1      -5.671   4.122 -33.023  1.00  0.00    -0.020 A 
ENDROOT
BRANCH   1   7
HETATM    7  C   UNL     1      -3.139   4.178 -32.844  1.00  0.00    -0.024 A 
HETATM    8  C   UNL     1      -2.640   4.801 -33.997  1.00  0.00     0.012 A 
HETATM    9  C   UNL     1      -1.418   5.479 -33.972  1.00  0.00     0.002 A 
HETATM   10  C   UNL     1      -0.684   5.556 -32.787  1.00  0.00     0.017 A 
HETATM   11  C   UNL     1      -1.170   4.957 -31.620  1.00  0.00     0.040 A 
HETATM   12  C   UNL     1      -2.391   4.267 -31.659  1.00  0.00     0.030 A 
BRANCH  11  13
HETATM   13  C   UNL     1      -0.366   5.060 -30.372  1.00  0.00     0.293 C 
HETATM   14  O   UNL     1       0.623   4.382 -30.144  1.00  0.00    -0.259 OA
BRANCH  13  15
HETATM   15  O   UNL     1      -0.899   6.005 -29.561  1.00  0.00    -0.317 OA
BRANCH  15  16
HETATM   16  C   UNL     1      -0.056   6.523 -28.521  1.00  0.00     0.181 C 
BRANCH  16  17
HETATM   17  C   UNL     1       0.596   7.832 -28.954  1.00  0.00     0.053 C 
BRANCH  17  18
HETATM   18  C   UNL     1       1.508   8.389 -27.868  1.00  0.00     0.169 C 
BRANCH  18  19
HETATM   19  O   UNL     1       1.492   7.521 -26.739  1.00  0.00    -0.396 OA
HETATM   20  C   UNL     1       1.909   8.188 -25.555  1.00  0.00     0.201 C 
ENDBRANCH  18  19
ENDBRANCH  17  18
ENDBRANCH  16  17
ENDBRANCH  15  16
ENDBRANCH  13  15
ENDBRANCH  11  13
ENDBRANCH   1   7
BRANCH   6  21
HETATM   21  C   UNL     1      -5.801   5.613 -33.253  1.00  0.00     0.306 C 
BRANCH  21  22
HETATM   22  N   UNL     1      -7.199   6.029 -33.276  1.00  0.00     0.082 N 
HETATM   23  H   UNL     1      -7.474   6.211 -34.239  1.00  0.00     0.313 HD
HETATM   24  H   UNL     1      -7.778   5.256 -32.954  1.00  0.00     0.313 HD
ENDBRANCH  21  22
ENDBRANCH   6  21
BRANCH   3  25
HETATM   25  C   UNL     1      -5.575  -0.173 -32.694  1.00  0.00     0.256 C 
HETATM   26  O   UNL     1      -5.678  -0.718 -31.601  1.00  0.00    -0.267 OA
HETATM   27  N   UNL     1      -5.416  -0.802 -33.916  1.00  0.00    -0.323 N 
HETATM   28  H   UNL     1      -5.158  -0.219 -34.703  1.00  0.00     0.169 HD
BRANCH  27  29
HETATM   29  C   UNL     1      -5.514  -2.187 -34.176  1.00  0.00     0.037 A 
HETATM   30  C   UNL     1      -6.672  -2.811 -34.628  1.00  0.00     0.049 A 
HETATM   31  C   UNL     1      -6.635  -4.174 -34.876  1.00  0.00     0.118 A 
HETATM   32  N   UNL     1      -5.538  -4.943 -34.706  1.00  0.00    -0.273 NA
HETATM   33  C   UNL     1      -4.429  -4.317 -34.266  1.00  0.00     0.118 A 
HETATM   34  C   UNL     1      -4.366  -2.959 -33.994  1.00  0.00     0.049 A 
ENDBRANCH  27  29
ENDBRANCH   3  25
TORSDOF 11
ENDMDL
MODEL 2
REMARK VINA RESULT:      -8.4      1.715      1.996
REMARK  11 active torsions:
REMARK  status: ('A' for Active; 'I' for Inactive)
REMARK    1  A    between atoms: O_2  and  C_3 
REMARK    2  A    between atoms: C_3  and  C_4 
REMARK    3  A    between atoms: C_4  and  C_5 
REMARK    4  A    between atoms: C_5  and  O_6 
REMARK    5  A    between atoms: O_6  and  C_7 
REMARK    6  A    between atoms: C_7  and  C_9 
REMARK    7  A    between atoms: C_13  and  C_15 
REMARK    8  A    between atoms: C_17  and  C_23 
REMARK    9  A    between atoms: C_20  and  C_21 
REMARK   10  A    between atoms: C_21  and  N_22 
REMARK       I    between atoms: C_23  and  N_25 
REMARK   11  A    between atoms: N_25  and  C_26 
ROOT
HETATM    1  C   UNL     1      -3.838   2.641 -31.658  1.00  0.00    -0.017 A 
HETATM    2  C   UNL     1      -3.629   1.323 -32.120  1.00  0.00     0.030 A 
HETATM    3  C   UNL     1      -4.448   0.265 -31.705  1.00  0.00     0.033 A 
HETATM    4  C   UNL     1      -5.493   0.512 -30.817  1.00  0.00     0.017 A 
HETATM    5  C   UNL     1      -5.712   1.807 -30.346  1.00  0.00     0.011 A 
HETATM    6  C   UNL     1      -4.907   2.886 -30.766  1.00  0.00    -0.020 A 
ENDROOT
BRANCH   1   7
HETATM    7  C   UNL     1      -2.962   3.702 -32.180  1.00  0.00    -0.024 A 
HETATM    8  C   UNL     1      -3.245   4.369 -33.381  1.00  0.00     0.012 A 
HETATM    9  C   UNL     1      -2.407   5.383 -33.852  1.00  0.00     0.002 A 
HETATM   10  C   UNL     1      -1.279   5.756 -33.118  1.00  0.00     0.017 A 
HETATM   11  C   UNL     1      -0.986   5.118 -31.909  1.00  0.00     0.040 A 
HETATM   12  C   UNL     1      -1.825   4.091 -31.452  1.00  0.00     0.030 A 
BRANCH  11  13
HETATM   13  C   UNL     1       0.222   5.541 -31.148  1.00  0.00     0.293 C 
HETATM   14  O   UNL     1       1.102   4.775 -30.791  1.00  0.00    -0.259 OA
BRANCH  13  15
HETATM   15  O   UNL     1       0.181   6.877 -30.932  1.00  0.00    -0.317 OA
BRANCH  15  16
HETATM   16  C   UNL     1      -0.426   7.322 -29.709  1.00  0.00     0.181 C 
BRANCH  16  17
HETATM   17  C   UNL     1       0.626   7.512 -28.621  1.00  0.00     0.053 C 
BRANCH  17  18
HETATM   18  C   UNL     1       0.361   6.609 -27.423  1.00  0.00     0.169 C 
BRANCH  18  19
HETATM   19  O   UNL     1       0.705   7.293 -26.222  1.00  0.00    -0.396 OA
HETATM   20  C   UNL     1       0.975   8.669 -26.457  1.00  0.00     0.201 C 
ENDBRANCH  18  19
ENDBRANCH  17  18
ENDBRANCH  16  17
ENDBRANCH  15  16
ENDBRANCH  13  15
ENDBRANCH  11  13
ENDBRANCH   1   7
BRANCH   6  21
HETATM   21  C   UNL     1      -5.272   4.268 -30.269  1.00  0.00     0.306 C 
BRANCH  21  22
HETATM   22  N   UNL     1      -5.382   4.299 -28.815  1.00  0.00     0.082 N 
HETATM   23  H   UNL     1      -6.349   4.120 -28.551  1.00  0.00     0.313 HD
HETATM   24  H   UNL     1      -4.834   3.534 -28.427  1.00  0.00     0.313 HD
ENDBRANCH  21  22
ENDBRANCH   6  21
BRANCH   3  25
HETATM   25  C   UNL     1      -4.280  -1.109 -32.257  1.00  0.00     0.256 C 
HETATM   26  O   UNL     1      -3.430  -1.836 -31.757  1.00  0.00    -0.267 OA
HETATM   27  N   UNL     1      -5.111  -1.421 -33.318  1.00  0.00    -0.323 N 
HETATM   28  H   UNL     1      -5.627  -0.657 -33.738  1.00  0.00     0.169 HD
BRANCH  27  29
HETATM   29  C   UNL     1      -5.273  -2.685 -33.924  1.00  0.00     0.037 A 
HETATM   30  C   UNL     1      -4.291  -3.671 -33.936  1.00  0.00     0.049 A 
HETATM   31  C   UNL     1      -4.580  -4.885 -34.538  1.00  0.00     0.118 A 
HETATM   32  N   UNL     1      -5.764  -5.177 -35.119  1.00  0.00    -0.273 NA
HETATM   33  C   UNL     1      -6.699  -4.207 -35.097  1.00  0.00     0.118 A 
HETATM   34  C   UNL     1      -6.506  -2.963 -34.516  1.00  0.00     0.049 A 
ENDBRANCH  27  29
ENDBRANCH   3  25
TORSDOF 11
ENDMDL
MODEL 3
REMARK VINA RESULT:      -8.2      2.849     10.083
REMARK  11 active torsions:
REMARK  status: ('A' for Active; 'I' for Inactive)
REMARK    1  A    between atoms: O_2  and  C_3 
REMARK    2  A    between atoms: C_3  and  C_4 
REMARK    3  A    between atoms: C_4  and  C_5 
REMARK    4  A    between atoms: C_5  and  O_6 
REMARK    5  A    between atoms: O_6  and  C_7 
REMARK    6  A    between atoms: C_7  and  C_9 
REMARK    7  A    between atoms: C_13  and  C_15 
REMARK    8  A    between atoms: C_17  and  C_23 
REMARK    9  A    between atoms: C_20  and  C_21 
REMARK   10  A    between atoms: C_21  and  N_22 
REMARK       I    between atoms: C_23  and  N_25 
REMARK   11  A    between atoms: N_25  and  C_26 
ROOT
HETATM    1  C   UNL     1      -3.695   3.394 -32.280  1.00  0.00    -0.017 A 
HETATM    2  C   UNL     1      -2.591   3.717 -31.463  1.00  0.00     0.030 A 
HETATM    3  C   UNL     1      -1.858   4.895 -31.656  1.00  0.00     0.033 A 
HETATM    4  C   UNL     1      -2.221   5.771 -32.677  1.00  0.00     0.017 A 
HETATM    5  C   UNL     1      -3.306   5.466 -33.499  1.00  0.00     0.011 A 
HETATM    6  C   UNL     1      -4.064   4.292 -33.307  1.00  0.00    -0.020 A 
ENDROOT
BRANCH   1   7
HETATM    7  C   UNL     1      -4.440   2.160 -31.980  1.00  0.00    -0.024 A 
HETATM    8  C   UNL     1      -5.582   2.168 -31.166  1.00  0.00     0.012 A 
HETATM    9  C   UNL     1      -6.282   0.987 -30.904  1.00  0.00     0.002 A 
HETATM   10  C   UNL     1      -5.857  -0.219 -31.466  1.00  0.00     0.017 A 
HETATM   11  C   UNL     1      -4.731  -0.248 -32.295  1.00  0.00     0.040 A 
HETATM   12  C   UNL     1      -4.026   0.940 -32.541  1.00  0.00     0.030 A 
BRANCH  11  13
HETATM   13  C   UNL     1      -4.305  -1.548 -32.882  1.00  0.00     0.293 C 
HETATM   14  O   UNL     1      -3.767  -2.437 -32.243  1.00  0.00    -0.259 OA
BRANCH  13  15
HETATM   15  O   UNL     1      -4.610  -1.576 -34.201  1.00  0.00    -0.317 OA
BRANCH  15  16
HETATM   16  C   UNL     1      -6.000  -1.680 -34.547  1.00  0.00     0.181 C 
BRANCH  16  17
HETATM   17  C   UNL     1      -6.510  -3.099 -34.316  1.00  0.00     0.053 C 
BRANCH  17  18
HETATM   18  C   UNL     1      -6.194  -4.006 -35.499  1.00  0.00     0.169 C 
BRANCH  18  19
HETATM   19  O   UNL     1      -5.756  -5.275 -35.024  1.00  0.00    -0.396 OA
HETATM   20  C   UNL     1      -4.596  -5.163 -34.209  1.00  0.00     0.201 C 
ENDBRANCH  18  19
ENDBRANCH  17  18
ENDBRANCH  16  17
ENDBRANCH  15  16
ENDBRANCH  13  15
ENDBRANCH  11  13
ENDBRANCH   1   7
BRANCH   6  21
HETATM   21  C   UNL     1      -5.275   4.088 -34.192  1.00  0.00     0.306 C 
BRANCH  21  22
HETATM   22  N   UNL     1      -6.416   4.865 -33.722  1.00  0.00     0.082 N 
HETATM   23  H   UNL     1      -6.819   5.373 -34.507  1.00  0.00     0.313 HD
HETATM   24  H   UNL     1      -7.138   4.225 -33.395  1.00  0.00     0.313 HD
ENDBRANCH  21  22
ENDBRANCH   6  21
BRANCH   3  25
HETATM   25  C   UNL     1      -0.746   5.276 -30.740  1.00  0.00     0.256 C 
HETATM   26  O   UNL     1       0.380   4.860 -30.988  1.00  0.00    -0.267 OA
HETATM   27  N   UNL     1      -1.115   6.066 -29.666  1.00  0.00    -0.323 N 
HETATM   28  H   UNL     1      -2.107   6.173 -29.493  1.00  0.00     0.169 HD
BRANCH  27  29
HETATM   29  C   UNL     1      -0.254   6.695 -28.740  1.00  0.00     0.037 A 
HETATM   30  C   UNL     1       0.598   7.746 -29.064  1.00  0.00     0.049 A 
HETATM   31  C   UNL     1       1.375   8.301 -28.060  1.00  0.00     0.118 A 
HETATM   32  N   UNL     1       1.360   7.884 -26.775  1.00  0.00    -0.273 NA
HETATM   33  C   UNL     1       0.529   6.863 -26.487  1.00  0.00     0.118 A 
HETATM   34  C   UNL     1      -0.290   6.246 -27.420  1.00  0.00     0.049 A 
ENDBRANCH  27  29
ENDBRANCH   3  25
TORSDOF 11
ENDMDL
MODEL 4
REMARK VINA RESULT:      -8.1      1.529      2.254
REMARK  11 active torsions:
REMARK  status: ('A' for Active; 'I' for Inactive)
REMARK    1  A    between atoms: O_2  and  C_3 
REMARK    2  A    between atoms: C_3  and  C_4 
REMARK    3  A    between atoms: C_4  and  C_5 
REMARK    4  A    between atoms: C_5  and  O_6 
REMARK    5  A    between atoms: O_6  and  C_7 
REMARK    6  A    between atoms: C_7  and  C_9 
REMARK    7  A    between atoms: C_13  and  C_15 
REMARK    8  A    between atoms: C_17  and  C_23 
REMARK    9  A    between atoms: C_20  and  C_21 
REMARK   10  A    between atoms: C_21  and  N_22 
REMARK       I    between atoms: C_23  and  N_25 
REMARK   11  A    between atoms: N_25  and  C_26 
ROOT
HETATM    1  C   UNL     1      -4.747   3.432 -32.842  1.00  0.00    -0.017 A 
HETATM    2  C   UNL     1      -4.686   2.025 -32.764  1.00  0.00     0.030 A 
HETATM    3  C   UNL     1      -5.842   1.251 -32.595  1.00  0.00     0.033 A 
HETATM    4  C   UNL     1      -7.082   1.880 -32.500  1.00  0.00     0.017 A 
HETATM    5  C   UNL     1      -7.161   3.271 -32.569  1.00  0.00     0.011 A 
HETATM    6  C   UNL     1      -6.009   4.063 -32.756  1.00  0.00    -0.020 A 
ENDROOT
BRANCH   1   7
HETATM    7  C   UNL     1      -3.492   4.167 -33.068  1.00  0.00    -0.024 A 
HETATM    8  C   UNL     1      -3.192   4.752 -34.307  1.00  0.00     0.012 A 
HETATM    9  C   UNL     1      -1.999   5.456 -34.496  1.00  0.00     0.002 A 
HETATM   10  C   UNL     1      -1.095   5.598 -33.442  1.00  0.00     0.017 A 
HETATM   11  C   UNL     1      -1.380   5.038 -32.192  1.00  0.00     0.040 A 
HETATM   12  C   UNL     1      -2.573   4.320 -32.016  1.00  0.00     0.030 A 
BRANCH  11  13
HETATM   13  C   UNL     1      -0.397   5.209 -31.087  1.00  0.00     0.293 C 
HETATM   14  O   UNL     1       0.746   4.786 -31.125  1.00  0.00    -0.259 OA
BRANCH  13  15
HETATM   15  O   UNL     1      -0.969   5.896 -30.070  1.00  0.00    -0.317 OA
BRANCH  15  16
HETATM   16  C   UNL     1      -0.805   7.323 -30.072  1.00  0.00     0.181 C 
BRANCH  16  17
HETATM   17  C   UNL     1      -2.119   8.019 -29.731  1.00  0.00     0.053 C 
BRANCH  17  18
HETATM   18  C   UNL     1      -2.276   9.324 -30.501  1.00  0.00     0.169 C 
BRANCH  18  19
HETATM   19  O   UNL     1      -3.232   9.154 -31.542  1.00  0.00    -0.396 OA
HETATM   20  C   UNL     1      -4.294   8.294 -31.149  1.00  0.00     0.201 C 
ENDBRANCH  18  19
ENDBRANCH  17  18
ENDBRANCH  16  17
ENDBRANCH  15  16
ENDBRANCH  13  15
ENDBRANCH  11  13
ENDBRANCH   1   7
BRANCH   6  21
HETATM   21  C   UNL     1      -6.203   5.557 -32.905  1.00  0.00     0.306 C 
BRANCH  21  22
HETATM   22  N   UNL     1      -7.482   5.868 -33.533  1.00  0.00     0.082 N 
HETATM   23  H   UNL     1      -7.339   6.587 -34.239  1.00  0.00     0.313 HD
HETATM   24  H   UNL     1      -7.815   5.043 -34.028  1.00  0.00     0.313 HD
ENDBRANCH  21  22
ENDBRANCH   6  21
BRANCH   3  25
HETATM   25  C   UNL     1      -5.787  -0.238 -32.597  1.00  0.00     0.256 C 
HETATM   26  O   UNL     1      -5.930  -0.827 -31.532  1.00  0.00    -0.267 OA
HETATM   27  N   UNL     1      -5.553  -0.814 -33.834  1.00  0.00    -0.323 N 
HETATM   28  H   UNL     1      -5.271  -0.195 -34.583  1.00  0.00     0.169 HD
BRANCH  27  29
HETATM   29  C   UNL     1      -5.606  -2.189 -34.151  1.00  0.00     0.037 A 
HETATM   30  C   UNL     1      -6.751  -2.837 -34.605  1.00  0.00     0.049 A 
HETATM   31  C   UNL     1      -6.669  -4.186 -34.912  1.00  0.00     0.118 A 
HETATM   32  N   UNL     1      -5.541  -4.919 -34.800  1.00  0.00    -0.273 NA
HETATM   33  C   UNL     1      -4.446  -4.271 -34.357  1.00  0.00     0.118 A 
HETATM   34  C   UNL     1      -4.426  -2.924 -34.028  1.00  0.00     0.049 A 
ENDBRANCH  27  29
ENDBRANCH   3  25
TORSDOF 11
ENDMDL
MODEL 5
REMARK VINA RESULT:      -7.7      3.208     10.259
REMARK  11 active torsions:
REMARK  status: ('A' for Active; 'I' for Inactive)
REMARK    1  A    between atoms: O_2  and  C_3 
REMARK    2  A    between atoms: C_3  and  C_4 
REMARK    3  A    between atoms: C_4  and  C_5 
REMARK    4  A    between atoms: C_5  and  O_6 
REMARK    5  A    between atoms: O_6  and  C_7 
REMARK    6  A    between atoms: C_7  and  C_9 
REMARK    7  A    between atoms: C_13  and  C_15 
REMARK    8  A    between atoms: C_17  and  C_23 
REMARK    9  A    between atoms: C_20  and  C_21 
REMARK   10  A    between atoms: C_21  and  N_22 
REMARK       I    between atoms: C_23  and  N_25 
REMARK   11  A    between atoms: N_25  and  C_26 
ROOT
HETATM    1  C   UNL     1      -2.619   5.208 -32.237  1.00  0.00    -0.017 A 
HETATM    2  C   UNL     1      -2.293   5.980 -31.102  1.00  0.00     0.030 A 
HETATM    3  C   UNL     1      -1.436   7.085 -31.191  1.00  0.00     0.033 A 
HETATM    4  C   UNL     1      -0.889   7.432 -32.424  1.00  0.00     0.017 A 
HETATM    5  C   UNL     1      -1.195   6.677 -33.556  1.00  0.00     0.011 A 
HETATM    6  C   UNL     1      -2.069   5.572 -33.486  1.00  0.00    -0.020 A 
ENDROOT
BRANCH   1   7
HETATM    7  C   UNL     1      -3.565   4.093 -32.065  1.00  0.00    -0.024 A 
HETATM    8  C   UNL     1      -4.947   4.268 -32.221  1.00  0.00     0.012 A 
HETATM    9  C   UNL     1      -5.827   3.192 -32.066  1.00  0.00     0.002 A 
HETATM   10  C   UNL     1      -5.333   1.921 -31.769  1.00  0.00     0.017 A 
HETATM   11  C   UNL     1      -3.956   1.718 -31.626  1.00  0.00     0.040 A 
HETATM   12  C   UNL     1      -3.082   2.807 -31.769  1.00  0.00     0.030 A 
BRANCH  11  13
HETATM   13  C   UNL     1      -3.460   0.350 -31.312  1.00  0.00     0.293 C 
HETATM   14  O   UNL     1      -2.326   0.110 -30.935  1.00  0.00    -0.259 OA
BRANCH  13  15
HETATM   15  O   UNL     1      -4.452  -0.551 -31.506  1.00  0.00    -0.317 OA
BRANCH  15  16
HETATM   16  C   UNL     1      -4.161  -1.668 -32.361  1.00  0.00     0.181 C 
BRANCH  16  17
HETATM   17  C   UNL     1      -4.539  -1.357 -33.806  1.00  0.00     0.053 C 
BRANCH  17  18
HETATM   18  C   UNL     1      -5.763  -2.149 -34.246  1.00  0.00     0.169 C 
BRANCH  18  19
HETATM   19  O   UNL     1      -5.359  -3.229 -35.082  1.00  0.00    -0.396 OA
HETATM   20  C   UNL     1      -6.240  -4.339 -34.974  1.00  0.00     0.201 C 
ENDBRANCH  18  19
ENDBRANCH  17  18
ENDBRANCH  16  17
ENDBRANCH  15  16
ENDBRANCH  13  15
ENDBRANCH  11  13
ENDBRANCH   1   7
BRANCH   6  21
HETATM   21  C   UNL     1      -2.409   4.866 -34.781  1.00  0.00     0.306 C 
BRANCH  21  22
HETATM   22  N   UNL     1      -3.601   5.435 -35.401  1.00  0.00     0.082 N 
HETATM   23  H   UNL     1      -3.371   5.737 -36.346  1.00  0.00     0.313 HD
HETATM   24  H   UNL     1      -4.303   4.704 -35.498  1.00  0.00     0.313 HD
ENDBRANCH  21  22
ENDBRANCH   6  21
BRANCH   3  25
HETATM   25  C   UNL     1      -1.159   7.949 -30.009  1.00  0.00     0.256 C 
HETATM   26  O   UNL     1      -1.828   8.966 -29.863  1.00  0.00    -0.267 OA
HETATM   27  N   UNL     1      -0.134   7.511 -29.189  1.00  0.00    -0.323 N 
HETATM   28  H   UNL     1       0.446   6.759 -29.539  1.00  0.00     0.169 HD
BRANCH  27  29
HETATM   29  C   UNL     1       0.232   8.044 -27.933  1.00  0.00     0.037 A 
HETATM   30  C   UNL     1       1.489   8.568 -27.651  1.00  0.00     0.049 A 
HETATM   31  C   UNL     1       1.719   9.090 -26.387  1.00  0.00     0.118 A 
HETATM   32  N   UNL     1       0.794   9.123 -25.404  1.00  0.00    -0.273 NA
HETATM   33  C   UNL     1      -0.415   8.608 -25.701  1.00  0.00     0.118 A 
HETATM   34  C   UNL     1      -0.742   8.068 -26.935  1.00  0.00     0.049 A 
ENDBRANCH  27  29
ENDBRANCH   3  25
TORSDOF 11
ENDMDL
MODEL 6
REMARK VINA RESULT:      -7.6      5.400      9.045
REMARK  11 active torsions:
REMARK  status: ('A' for Active; 'I' for Inactive)
REMARK    1  A    between atoms: O_2  and  C_3 
REMARK    2  A    between atoms: C_3  and  C_4 
REMARK    3  A    between atoms: C_4  and  C_5 
REMARK    4  A    between atoms: C_5  and  O_6 
REMARK    5  A    between atoms: O_6  and  C_7 
REMARK    6  A    between atoms: C_7  and  C_9 
REMARK    7  A    between atoms: C_13  and  C_15 
REMARK    8  A    between atoms: C_17  and  C_23 
REMARK    9  A    between atoms: C_20  and  C_21 
REMARK   10  A    between atoms: C_21  and  N_22 
REMARK       I    between atoms: C_23  and  N_25 
REMARK   11  A    between atoms: N_25  and  C_26 
ROOT
HETATM    1  C   UNL     1      -7.723   2.388 -33.868  1.00  0.00    -0.017 A 
HETATM    2  C   UNL     1      -9.134   2.380 -33.840  1.00  0.00     0.030 A 
HETATM    3  C   UNL     1      -9.871   3.570 -33.780  1.00  0.00     0.033 A 
HETATM    4  C   UNL     1      -9.202   4.791 -33.747  1.00  0.00     0.017 A 
HETATM    5  C   UNL     1      -7.807   4.819 -33.768  1.00  0.00     0.011 A 
HETATM    6  C   UNL     1      -7.052   3.630 -33.844  1.00  0.00    -0.020 A 
ENDROOT
BRANCH   1   7
HETATM    7  C   UNL     1      -7.027   1.095 -33.978  1.00  0.00    -0.024 A 
HETATM    8  C   UNL     1      -7.422   0.122 -34.907  1.00  0.00     0.012 A 
HETATM    9  C   UNL     1      -6.739  -1.094 -35.004  1.00  0.00     0.002 A 
HETATM   10  C   UNL     1      -5.639  -1.347 -34.182  1.00  0.00     0.017 A 
HETATM   11  C   UNL     1      -5.216  -0.384 -33.260  1.00  0.00     0.040 A 
HETATM   12  C   UNL     1      -5.917   0.828 -33.160  1.00  0.00     0.030 A 
BRANCH  11  13
HETATM   13  C   UNL     1      -4.037  -0.682 -32.401  1.00  0.00     0.293 C 
HETATM   14  O   UNL     1      -3.141   0.115 -32.179  1.00  0.00    -0.259 OA
BRANCH  13  15
HETATM   15  O   UNL     1      -4.130  -1.945 -31.921  1.00  0.00    -0.317 OA
BRANCH  15  16
HETATM   16  C   UNL     1      -3.046  -2.838 -32.223  1.00  0.00     0.181 C 
BRANCH  16  17
HETATM   17  C   UNL     1      -3.570  -4.234 -32.543  1.00  0.00     0.053 C 
BRANCH  17  18
HETATM   18  C   UNL     1      -3.809  -4.413 -34.037  1.00  0.00     0.169 C 
BRANCH  18  19
HETATM   19  O   UNL     1      -4.856  -5.356 -34.244  1.00  0.00    -0.396 OA
HETATM   20  C   UNL     1      -5.902  -4.818 -35.043  1.00  0.00     0.201 C 
ENDBRANCH  18  19
ENDBRANCH  17  18
ENDBRANCH  16  17
ENDBRANCH  15  16
ENDBRANCH  13  15
ENDBRANCH  11  13
ENDBRANCH   1   7
BRANCH   6  21
HETATM   21  C   UNL     1      -5.547   3.763 -33.948  1.00  0.00     0.306 C 
BRANCH  21  22
HETATM   22  N   UNL     1      -5.150   5.145 -34.192  1.00  0.00     0.082 N 
HETATM   23  H   UNL     1      -5.592   5.472 -35.048  1.00  0.00     0.313 HD
HETATM   24  H   UNL     1      -5.513   5.730 -33.441  1.00  0.00     0.313 HD
ENDBRANCH  21  22
ENDBRANCH   6  21
BRANCH   3  25
HETATM   25  C   UNL     1     -11.360   3.564 -33.836  1.00  0.00     0.256 C 
HETATM   26  O   UNL     1     -11.925   4.493 -34.402  1.00  0.00    -0.267 OA
HETATM   27  N   UNL     1     -11.967   2.489 -33.210  1.00  0.00    -0.323 N 
HETATM   28  H   UNL     1     -11.379   1.904 -32.629  1.00  0.00     0.169 HD
BRANCH  27  29
HETATM   29  C   UNL     1     -13.337   2.152 -33.243  1.00  0.00     0.037 A 
HETATM   30  C   UNL     1     -13.900   1.283 -34.173  1.00  0.00     0.049 A 
HETATM   31  C   UNL     1     -15.255   1.007 -34.084  1.00  0.00     0.118 A 
HETATM   32  N   UNL     1     -16.073   1.531 -33.145  1.00  0.00    -0.273 NA
HETATM   33  C   UNL     1     -15.505   2.371 -32.257  1.00  0.00     0.118 A 
HETATM   34  C   UNL     1     -14.160   2.705 -32.261  1.00  0.00     0.049 A 
ENDBRANCH  27  29
ENDBRANCH   3  25
TORSDOF 11
ENDMDL
MODEL 7
REMARK VINA RESULT:      -7.4      3.459      9.965
REMARK  11 active torsions:
REMARK  status: ('A' for Active; 'I' for Inactive)
REMARK    1  A    between atoms: O_2  and  C_3 
REMARK    2  A    between atoms: C_3  and  C_4 
REMARK    3  A    between atoms: C_4  and  C_5 
REMARK    4  A    between atoms: C_5  and  O_6 
REMARK    5  A    between atoms: O_6  and  C_7 
REMARK    6  A    between atoms: C_7  and  C_9 
REMARK    7  A    between atoms: C_13  and  C_15 
REMARK    8  A    between atoms: C_17  and  C_23 
REMARK    9  A    between atoms: C_20  and  C_21 
REMARK   10  A    between atoms: C_21  and  N_22 
REMARK       I    between atoms: C_23  and  N_25 
REMARK   11  A    between atoms: N_25  and  C_26 
ROOT
HETATM    1  C   UNL     1      -2.824   5.070 -32.200  1.00  0.00    -0.017 A 
HETATM    2  C   UNL     1      -2.815   5.721 -30.948  1.00  0.00     0.030 A 
HETATM    3  C   UNL     1      -2.083   6.898 -30.742  1.00  0.00     0.033 A 
HETATM    4  C   UNL     1      -1.346   7.442 -31.792  1.00  0.00     0.017 A 
HETATM    5  C   UNL     1      -1.339   6.809 -33.035  1.00  0.00     0.011 A 
HETATM    6  C   UNL     1      -2.083   5.633 -33.263  1.00  0.00    -0.020 A 
ENDROOT
BRANCH   1   7
HETATM    7  C   UNL     1      -3.656   3.864 -32.345  1.00  0.00    -0.024 A 
HETATM    8  C   UNL     1      -4.911   3.905 -32.971  1.00  0.00     0.012 A 
HETATM    9  C   UNL     1      -5.679   2.746 -33.110  1.00  0.00     0.002 A 
HETATM   10  C   UNL     1      -5.196   1.525 -32.638  1.00  0.00     0.017 A 
HETATM   11  C   UNL     1      -3.941   1.456 -32.025  1.00  0.00     0.040 A 
HETATM   12  C   UNL     1      -3.183   2.627 -31.877  1.00  0.00     0.030 A 
BRANCH  11  13
HETATM   13  C   UNL     1      -3.452   0.138 -31.535  1.00  0.00     0.293 C 
HETATM   14  O   UNL     1      -2.350  -0.036 -31.041  1.00  0.00    -0.259 OA
BRANCH  13  15
HETATM   15  O   UNL     1      -4.409  -0.802 -31.721  1.00  0.00    -0.317 OA
BRANCH  15  16
HETATM   16  C   UNL     1      -4.045  -1.961 -32.487  1.00  0.00     0.181 C 
BRANCH  16  17
HETATM   17  C   UNL     1      -4.287  -1.724 -33.974  1.00  0.00     0.053 C 
BRANCH  17  18
HETATM   18  C   UNL     1      -5.655  -2.236 -34.406  1.00  0.00     0.169 C 
BRANCH  18  19
HETATM   19  O   UNL     1      -5.511  -3.493 -35.061  1.00  0.00    -0.396 OA
HETATM   20  C   UNL     1      -6.677  -4.295 -34.925  1.00  0.00     0.201 C 
ENDBRANCH  18  19
ENDBRANCH  17  18
ENDBRANCH  16  17
ENDBRANCH  15  16
ENDBRANCH  13  15
ENDBRANCH  11  13
ENDBRANCH   1   7
BRANCH   6  21
HETATM   21  C   UNL     1      -2.082   5.065 -34.666  1.00  0.00     0.306 C 
BRANCH  21  22
HETATM   22  N   UNL     1      -0.804   5.290 -35.331  1.00  0.00     0.082 N 
HETATM   23  H   UNL     1      -0.490   6.238 -35.135  1.00  0.00     0.313 HD
HETATM   24  H   UNL     1      -0.107   4.668 -34.925  1.00  0.00     0.313 HD
ENDBRANCH  21  22
ENDBRANCH   6  21
BRANCH   3  25
HETATM   25  C   UNL     1      -2.141   7.631 -29.445  1.00  0.00     0.256 C 
HETATM   26  O   UNL     1      -1.677   8.764 -29.396  1.00  0.00    -0.267 OA
HETATM   27  N   UNL     1      -2.712   6.927 -28.399  1.00  0.00    -0.323 N 
HETATM   28  H   UNL     1      -2.879   5.939 -28.546  1.00  0.00     0.169 HD
BRANCH  27  29
HETATM   29  C   UNL     1      -3.034   7.426 -27.118  1.00  0.00     0.037 A 
HETATM   30  C   UNL     1      -2.187   7.342 -26.018  1.00  0.00     0.049 A 
HETATM   31  C   UNL     1      -2.603   7.897 -24.818  1.00  0.00     0.118 A 
HETATM   32  N   UNL     1      -3.789   8.521 -24.646  1.00  0.00    -0.273 NA
HETATM   33  C   UNL     1      -4.593   8.589 -25.726  1.00  0.00     0.118 A 
HETATM   34  C   UNL     1      -4.264   8.068 -26.967  1.00  0.00     0.049 A 
ENDBRANCH  27  29
ENDBRANCH   3  25
TORSDOF 11
ENDMDL
MODEL 8
REMARK VINA RESULT:      -7.4      4.385      7.654
REMARK  11 active torsions:
REMARK  status: ('A' for Active; 'I' for Inactive)
REMARK    1  A    between atoms: O_2  and  C_3 
REMARK    2  A    between atoms: C_3  and  C_4 
REMARK    3  A    between atoms: C_4  and  C_5 
REMARK    4  A    between atoms: C_5  and  O_6 
REMARK    5  A    between atoms: O_6  and  C_7 
REMARK    6  A    between atoms: C_7  and  C_9 
REMARK    7  A    between atoms: C_13  and  C_15 
REMARK    8  A    between atoms: C_17  and  C_23 
REMARK    9  A    between atoms: C_20  and  C_21 
REMARK   10  A    between atoms: C_21  and  N_22 
REMARK       I    between atoms: C_23  and  N_25 
REMARK   11  A    between atoms: N_25  and  C_26 
ROOT
HETATM    1  C   UNL     1      -5.793   2.829 -31.981  1.00  0.00    -0.017 A 
HETATM    2  C   UNL     1      -5.772   1.441 -32.233  1.00  0.00     0.030 A 
HETATM    3  C   UNL     1      -4.566   0.739 -32.360  1.00  0.00     0.033 A 
HETATM    4  C   UNL     1      -3.358   1.421 -32.236  1.00  0.00     0.017 A 
HETATM    5  C   UNL     1      -3.359   2.795 -31.993  1.00  0.00     0.011 A 
HETATM    6  C   UNL     1      -4.564   3.513 -31.846  1.00  0.00    -0.020 A 
ENDROOT
BRANCH   1   7
HETATM    7  C   UNL     1      -7.102   3.482 -31.815  1.00  0.00    -0.024 A 
HETATM    8  C   UNL     1      -7.590   3.845 -30.551  1.00  0.00     0.012 A 
HETATM    9  C   UNL     1      -8.830   4.475 -30.417  1.00  0.00     0.002 A 
HETATM   10  C   UNL     1      -9.594   4.766 -31.548  1.00  0.00     0.017 A 
HETATM   11  C   UNL     1      -9.121   4.428 -32.821  1.00  0.00     0.040 A 
HETATM   12  C   UNL     1      -7.881   3.783 -32.944  1.00  0.00     0.030 A 
BRANCH  11  13
HETATM   13  C   UNL     1      -9.958   4.754 -34.008  1.00  0.00     0.293 C 
HETATM   14  O   UNL     1     -10.398   5.867 -34.243  1.00  0.00    -0.259 OA
BRANCH  13  15
HETATM   15  O   UNL     1     -10.137   3.642 -34.759  1.00  0.00    -0.317 OA
BRANCH  15  16
HETATM   16  C   UNL     1     -11.284   2.831 -34.461  1.00  0.00     0.181 C 
BRANCH  16  17
HETATM   17  C   UNL     1     -10.906   1.354 -34.416  1.00  0.00     0.053 C 
BRANCH  17  18
HETATM   18  C   UNL     1     -10.225   0.991 -33.103  1.00  0.00     0.169 C 
BRANCH  18  19
HETATM   19  O   UNL     1      -9.154   0.086 -33.353  1.00  0.00    -0.396 OA
HETATM   20  C   UNL     1      -8.445   0.422 -34.538  1.00  0.00     0.201 C 
ENDBRANCH  18  19
ENDBRANCH  17  18
ENDBRANCH  16  17
ENDBRANCH  15  16
ENDBRANCH  13  15
ENDBRANCH  11  13
ENDBRANCH   1   7
BRANCH   6  21
HETATM   21  C   UNL     1      -4.465   4.983 -31.498  1.00  0.00     0.306 C 
BRANCH  21  22
HETATM   22  N   UNL     1      -3.360   5.240 -30.582  1.00  0.00     0.082 N 
HETATM   23  H   UNL     1      -2.647   5.782 -31.066  1.00  0.00     0.313 HD
HETATM   24  H   UNL     1      -3.694   5.825 -29.818  1.00  0.00     0.313 HD
ENDBRANCH  21  22
ENDBRANCH   6  21
BRANCH   3  25
HETATM   25  C   UNL     1      -4.545  -0.740 -32.542  1.00  0.00     0.256 C 
HETATM   26  O   UNL     1      -4.157  -1.435 -31.611  1.00  0.00    -0.267 OA
HETATM   27  N   UNL     1      -4.960  -1.184 -33.786  1.00  0.00    -0.323 N 
HETATM   28  H   UNL     1      -5.072  -0.485 -34.509  1.00  0.00     0.169 HD
BRANCH  27  29
HETATM   29  C   UNL     1      -5.186  -2.522 -34.175  1.00  0.00     0.037 A 
HETATM   30  C   UNL     1      -4.241  -3.536 -34.049  1.00  0.00     0.049 A 
HETATM   31  C   UNL     1      -4.592  -4.819 -34.440  1.00  0.00     0.118 A 
HETATM   32  N   UNL     1      -5.803  -5.151 -34.940  1.00  0.00    -0.273 NA
HETATM   33  C   UNL     1      -6.699  -4.152 -35.054  1.00  0.00     0.118 A 
HETATM   34  C   UNL     1      -6.444  -2.840 -34.687  1.00  0.00     0.049 A 
ENDBRANCH  27  29
ENDBRANCH   3  25
TORSDOF 11
ENDMDL
MODEL 9
REMARK VINA RESULT:      -7.4      6.279     10.356
REMARK  11 active torsions:
REMARK  status: ('A' for Active; 'I' for Inactive)
REMARK    1  A    between atoms: O_2  and  C_3 
REMARK    2  A    between atoms: C_3  and  C_4 
REMARK    3  A    between atoms: C_4  and  C_5 
REMARK    4  A    between atoms: C_5  and  O_6 
REMARK    5  A    between atoms: O_6  and  C_7 
REMARK    6  A    between atoms: C_7  and  C_9 
REMARK    7  A    between atoms: C_13  and  C_15 
REMARK    8  A    between atoms: C_17  and  C_23 
REMARK    9  A    between atoms: C_20  and  C_21 
REMARK   10  A    between atoms: C_21  and  N_22 
REMARK       I    between atoms: C_23  and  N_25 
REMARK   11  A    between atoms: N_25  and  C_26 
ROOT
HETATM    1  C   UNL     1      -9.629   2.326 -32.641  1.00  0.00    -0.017 A 
HETATM    2  C   UNL     1      -8.766   1.242 -32.909  1.00  0.00     0.030 A 
HETATM    3  C   UNL     1      -7.679   0.950 -32.075  1.00  0.00     0.033 A 
HETATM    4  C   UNL     1      -7.440   1.743 -30.954  1.00  0.00     0.017 A 
HETATM    5  C   UNL     1      -8.280   2.822 -30.677  1.00  0.00     0.011 A 
HETATM    6  C   UNL     1      -9.387   3.120 -31.498  1.00  0.00    -0.020 A 
ENDROOT
BRANCH   1   7
HETATM    7  C   UNL     1     -10.775   2.536 -33.542  1.00  0.00    -0.024 A 
HETATM    8  C   UNL     1     -10.687   3.371 -34.665  1.00  0.00     0.012 A 
HETATM    9  C   UNL     1     -11.783   3.545 -35.514  1.00  0.00     0.002 A 
HETATM   10  C   UNL     1     -12.980   2.874 -35.260  1.00  0.00     0.017 A 
HETATM   11  C   UNL     1     -13.086   2.022 -34.156  1.00  0.00     0.040 A 
HETATM   12  C   UNL     1     -11.985   1.864 -33.301  1.00  0.00     0.030 A 
BRANCH  11  13
HETATM   13  C   UNL     1     -14.375   1.317 -33.914  1.00  0.00     0.293 C 
HETATM   14  O   UNL     1     -15.015   0.755 -34.786  1.00  0.00    -0.259 OA
BRANCH  13  15
HETATM   15  O   UNL     1     -14.702   1.401 -32.602  1.00  0.00    -0.317 OA
BRANCH  15  16
HETATM   16  C   UNL     1     -14.970   2.712 -32.079  1.00  0.00     0.181 C 
BRANCH  16  17
HETATM   17  C   UNL     1     -16.465   3.012 -32.113  1.00  0.00     0.053 C 
BRANCH  17  18
HETATM   18  C   UNL     1     -16.732   4.506 -32.246  1.00  0.00     0.169 C 
BRANCH  18  19
HETATM   19  O   UNL     1     -17.364   4.987 -31.064  1.00  0.00    -0.396 OA
HETATM   20  C   UNL     1     -18.676   4.460 -30.914  1.00  0.00     0.201 C 
ENDBRANCH  18  19
ENDBRANCH  17  18
ENDBRANCH  16  17
ENDBRANCH  15  16
ENDBRANCH  13  15
ENDBRANCH  11  13
ENDBRANCH   1   7
BRANCH   6  21
HETATM   21  C   UNL     1     -10.291   4.256 -31.069  1.00  0.00     0.306 C 
BRANCH  21  22
HETATM   22  N   UNL     1     -11.319   3.799 -30.141  1.00  0.00     0.082 N 
HETATM   23  H   UNL     1     -10.956   3.852 -29.192  1.00  0.00     0.313 HD
HETATM   24  H   UNL     1     -12.108   4.440 -30.182  1.00  0.00     0.313 HD
ENDBRANCH  21  22
ENDBRANCH   6  21
BRANCH   3  25
HETATM   25  C   UNL     1      -6.819  -0.243 -32.311  1.00  0.00     0.256 C 
HETATM   26  O   UNL     1      -6.092  -0.626 -31.401  1.00  0.00    -0.267 OA
HETATM   27  N   UNL     1      -6.920  -0.798 -33.575  1.00  0.00    -0.323 N 
HETATM   28  H   UNL     1      -7.419  -0.263 -34.273  1.00  0.00     0.169 HD
BRANCH  27  29
HETATM   29  C   UNL     1      -6.345  -2.010 -34.016  1.00  0.00     0.037 A 
HETATM   30  C   UNL     1      -7.084  -3.112 -34.434  1.00  0.00     0.049 A 
HETATM   31  C   UNL     1      -6.404  -4.237 -34.874  1.00  0.00     0.118 A 
HETATM   32  N   UNL     1      -5.058  -4.333 -34.925  1.00  0.00    -0.273 NA
HETATM   33  C   UNL     1      -4.364  -3.254 -34.514  1.00  0.00     0.118 A 
HETATM   34  C   UNL     1      -4.952  -2.084 -34.061  1.00  0.00     0.049 A 
ENDBRANCH  27  29
ENDBRANCH   3  25
TORSDOF 11
ENDMDL
MODEL 10
REMARK VINA RESULT:      -7.3      4.316     10.310
REMARK  11 active torsions:
REMARK  status: ('A' for Active; 'I' for Inactive)
REMARK    1  A    between atoms: O_2  and  C_3 
REMARK    2  A    between atoms: C_3  and  C_4 
REMARK    3  A    between atoms: C_4  and  C_5 
REMARK    4  A    between atoms: C_5  and  O_6 
REMARK    5  A    between atoms: O_6  and  C_7 
REMARK    6  A    between atoms: C_7  and  C_9 
REMARK    7  A    between atoms: C_13  and  C_15 
REMARK    8  A    between atoms: C_17  and  C_23 
REMARK    9  A    between atoms: C_20  and  C_21 
REMARK   10  A    between atoms: C_21  and  N_22 
REMARK       I    between atoms: C_23  and  N_25 
REMARK   11  A    between atoms: N_25  and  C_26 
ROOT
HETATM    1  C   UNL     1      -6.312   0.641 -33.086  1.00  0.00    -0.017 A 
HETATM    2  C   UNL     1      -5.595   1.786 -32.679  1.00  0.00     0.030 A 
HETATM    3  C   UNL     1      -4.196   1.781 -32.593  1.00  0.00     0.033 A 
HETATM    4  C   UNL     1      -3.493   0.623 -32.916  1.00  0.00     0.017 A 
HETATM    5  C   UNL     1      -4.184  -0.520 -33.316  1.00  0.00     0.011 A 
HETATM    6  C   UNL     1      -5.591  -0.527 -33.423  1.00  0.00    -0.020 A 
ENDROOT
BRANCH   1   7
HETATM    7  C   UNL     1      -7.776   0.745 -33.194  1.00  0.00    -0.024 A 
HETATM    8  C   UNL     1      -8.628  -0.213 -32.626  1.00  0.00     0.012 A 
HETATM    9  C   UNL     1     -10.016  -0.088 -32.729  1.00  0.00     0.002 A 
HETATM   10  C   UNL     1     -10.573   1.007 -33.390  1.00  0.00     0.017 A 
HETATM   11  C   UNL     1      -9.744   1.985 -33.951  1.00  0.00     0.040 A 
HETATM   12  C   UNL     1      -8.352   1.843 -33.854  1.00  0.00     0.030 A 
BRANCH  11  13
HETATM   13  C   UNL     1     -10.369   3.143 -34.647  1.00  0.00     0.293 C 
HETATM   14  O   UNL     1      -9.857   4.248 -34.719  1.00  0.00    -0.259 OA
BRANCH  13  15
HETATM   15  O   UNL     1     -11.561   2.772 -35.172  1.00  0.00    -0.317 OA
BRANCH  15  16
HETATM   16  C   UNL     1     -12.719   3.508 -34.747  1.00  0.00     0.181 C 
BRANCH  16  17
HETATM   17  C   UNL     1     -13.574   2.671 -33.802  1.00  0.00     0.053 C 
BRANCH  17  18
HETATM   18  C   UNL     1     -13.725   3.342 -32.442  1.00  0.00     0.169 C 
BRANCH  18  19
HETATM   19  O   UNL     1     -14.614   2.582 -31.629  1.00  0.00    -0.396 OA
HETATM   20  C   UNL     1     -15.772   2.178 -32.347  1.00  0.00     0.201 C 
ENDBRANCH  18  19
ENDBRANCH  17  18
ENDBRANCH  16  17
ENDBRANCH  15  16
ENDBRANCH  13  15
ENDBRANCH  11  13
ENDBRANCH   1   7
BRANCH   6  21
HETATM   21  C   UNL     1      -6.248  -1.786 -33.947  1.00  0.00     0.306 C 
BRANCH  21  22
HETATM   22  N   UNL     1      -5.257  -2.796 -34.301  1.00  0.00     0.082 N 
HETATM   23  H   UNL     1      -4.327  -2.388 -34.229  1.00  0.00     0.313 HD
HETATM   24  H   UNL     1      -5.293  -3.548 -33.615  1.00  0.00     0.313 HD
ENDBRANCH  21  22
ENDBRANCH   6  21
BRANCH   3  25
HETATM   25  C   UNL     1      -3.436   3.014 -32.244  1.00  0.00     0.256 C 
HETATM   26  O   UNL     1      -2.670   2.974 -31.288  1.00  0.00    -0.267 OA
HETATM   27  N   UNL     1      -3.696   4.111 -33.047  1.00  0.00    -0.323 N 
HETATM   28  H   UNL     1      -4.487   4.043 -33.676  1.00  0.00     0.169 HD
BRANCH  27  29
HETATM   29  C   UNL     1      -3.012   5.346 -33.042  1.00  0.00     0.037 A 
HETATM   30  C   UNL     1      -3.345   6.413 -32.213  1.00  0.00     0.049 A 
HETATM   31  C   UNL     1      -2.578   7.565 -32.279  1.00  0.00     0.118 A 
HETATM   32  N   UNL     1      -1.519   7.722 -33.102  1.00  0.00    -0.273 NA
HETATM   33  C   UNL     1      -1.217   6.676 -33.896  1.00  0.00     0.118 A 
HETATM   34  C   UNL     1      -1.921   5.481 -33.900  1.00  0.00     0.049 A 
ENDBRANCH  27  29
ENDBRANCH   3  25
TORSDOF 11
ENDMDL
