MODEL 1
REMARK VINA RESULT:      -8.8      0.000      0.000
REMARK  10 active torsions:
REMARK  status: ('A' for Active; 'I' for Inactive)
REMARK    1  A    between atoms: C_3  and  N_4 
REMARK       I    between atoms: N_4  and  C_5 
REMARK    2  A    between atoms: C_5  and  C_6 
REMARK    3  A    between atoms: C_13  and  C_14 
REMARK    4  A    between atoms: C_14  and  O_15 
REMARK    5  A    between atoms: O_15  and  C_16 
REMARK    6  A    between atoms: C_16  and  C_17 
REMARK       I    between atoms: C_17  and  N_18 
REMARK    7  A    between atoms: N_18  and  C_19 
REMARK    8  A    between atoms: C_19  and  C_20 
REMARK    9  A    between atoms: C_20  and  C_21 
REMARK   10  A    between atoms: C_24  and  O_25 
ROOT
HETATM    1  C   UNL     1      -3.830   2.249 -32.197  1.00  0.00     0.293 C 
HETATM    2  O   UNL     1      -3.401   1.131 -32.446  1.00  0.00    -0.259 OA
ENDROOT
BRANCH   1   3
HETATM    3  C   UNL     1      -3.034   3.490 -32.348  1.00  0.00     0.041 A 
HETATM    4  C   UNL     1      -2.411   4.102 -31.252  1.00  0.00     0.047 A 
HETATM    5  C   UNL     1      -1.677   5.285 -31.408  1.00  0.00     0.042 A 
HETATM    6  C   UNL     1      -1.567   5.858 -32.695  1.00  0.00    -0.035 A 
HETATM    7  C   UNL     1      -0.832   7.145 -32.969  1.00  0.00     0.050 C 
HETATM    8  C   UNL     1      -2.197   5.233 -33.787  1.00  0.00     0.010 A 
HETATM    9  C   UNL     1      -2.915   4.050 -33.620  1.00  0.00     0.018 A 
BRANCH   5  10
HETATM   10  N   UNL     1      -1.061   5.927 -30.311  1.00  0.00    -0.321 N 
HETATM   11  C   UNL     1       0.113   5.579 -29.661  1.00  0.00     0.279 C 
HETATM   12  O   UNL     1       0.850   4.652 -29.976  1.00  0.00    -0.265 OA
HETATM   13  H   UNL     1      -1.483   6.779 -29.963  1.00  0.00     0.169 HD
BRANCH  11  14
HETATM   14  C   UNL     1       0.426   6.463 -28.553  1.00  0.00     0.142 A 
HETATM   15  O   UNL     1       0.132   6.073 -27.271  1.00  0.00    -0.317 OA
HETATM   16  C   UNL     1       0.537   7.075 -26.448  1.00  0.00     0.143 A 
HETATM   17  C   UNL     1       1.077   8.110 -27.173  1.00  0.00     0.027 A 
HETATM   18  C   UNL     1       1.005   7.717 -28.529  1.00  0.00     0.045 A 
ENDBRANCH  11  14
ENDBRANCH   5  10
ENDBRANCH   1   3
BRANCH   1  19
HETATM   19  O   UNL     1      -5.089   2.542 -31.798  1.00  0.00    -0.308 OA
BRANCH  19  20
HETATM   20  C   UNL     1      -5.608   1.738 -30.738  1.00  0.00     0.281 C 
BRANCH  20  21
HETATM   21  C   UNL     1      -6.617   0.681 -31.192  1.00  0.00     0.241 C 
HETATM   22  N   UNL     1      -7.267   0.982 -32.370  1.00  0.00    -0.359 N 
HETATM   23  H   UNL     1      -6.890   1.748 -32.930  1.00  0.00     0.162 HD
HETATM   24  O   UNL     1      -6.845  -0.334 -30.538  1.00  0.00    -0.271 OA
BRANCH  22  25
HETATM   25  C   UNL     1      -8.181   0.039 -32.982  1.00  0.00     0.127 C 
BRANCH  25  26
HETATM   26  C   UNL     1      -7.755  -0.326 -34.402  1.00  0.00     0.058 C 
BRANCH  26  27
HETATM   27  C   UNL     1      -6.743  -1.444 -34.419  1.00  0.00    -0.057 A 
HETATM   28  C   UNL     1      -7.142  -2.753 -34.710  1.00  0.00     0.010 A 
HETATM   29  C   UNL     1      -6.207  -3.790 -34.712  1.00  0.00     0.037 A 
HETATM   30  C   UNL     1      -4.865  -3.542 -34.419  1.00  0.00     0.068 A 
HETATM   31  C   UNL     1      -4.464  -2.241 -34.117  1.00  0.00     0.037 A 
HETATM   32  C   UNL     1      -5.398  -1.198 -34.116  1.00  0.00     0.010 A 
BRANCH  30  33
HETATM   33  O   UNL     1      -4.058  -4.646 -34.460  1.00  0.00    -0.356 OA
HETATM   34  C   UNL     1      -3.279  -4.915 -33.301  1.00  0.00     0.210 C 
ENDBRANCH  30  33
ENDBRANCH  26  27
ENDBRANCH  25  26
ENDBRANCH  22  25
ENDBRANCH  20  21
ENDBRANCH  19  20
ENDBRANCH   1  19
TORSDOF 10
ENDMDL
MODEL 2
REMARK VINA RESULT:      -8.8      2.098     10.027
REMARK  10 active torsions:
REMARK  status: ('A' for Active; 'I' for Inactive)
REMARK    1  A    between atoms: C_3  and  N_4 
REMARK       I    between atoms: N_4  and  C_5 
REMARK    2  A    between atoms: C_5  and  C_6 
REMARK    3  A    between atoms: C_13  and  C_14 
REMARK    4  A    between atoms: C_14  and  O_15 
REMARK    5  A    between atoms: O_15  and  C_16 
REMARK    6  A    between atoms: C_16  and  C_17 
REMARK       I    between atoms: C_17  and  N_18 
REMARK    7  A    between atoms: N_18  and  C_19 
REMARK    8  A    between atoms: C_19  and  C_20 
REMARK    9  A    between atoms: C_20  and  C_21 
REMARK   10  A    between atoms: C_24  and  O_25 
ROOT
HETATM    1  C   UNL     1      -6.080   4.890 -33.798  1.00  0.00     0.293 C 
HETATM    2  O   UNL     1      -7.192   5.135 -34.245  1.00  0.00    -0.259 OA
ENDROOT
BRANCH   1   3
HETATM    3  C   UNL     1      -5.759   3.682 -33.003  1.00  0.00     0.041 A 
HETATM    4  C   UNL     1      -5.947   2.392 -33.516  1.00  0.00     0.047 A 
HETATM    5  C   UNL     1      -5.656   1.259 -32.745  1.00  0.00     0.042 A 
HETATM    6  C   UNL     1      -5.162   1.432 -31.432  1.00  0.00    -0.035 A 
HETATM    7  C   UNL     1      -4.850   0.285 -30.507  1.00  0.00     0.050 C 
HETATM    8  C   UNL     1      -4.977   2.734 -30.929  1.00  0.00     0.010 A 
HETATM    9  C   UNL     1      -5.260   3.851 -31.711  1.00  0.00     0.018 A 
BRANCH   5  10
HETATM   10  N   UNL     1      -5.860  -0.049 -33.239  1.00  0.00    -0.321 N 
HETATM   11  C   UNL     1      -4.912  -0.955 -33.687  1.00  0.00     0.279 C 
HETATM   12  O   UNL     1      -3.699  -0.774 -33.684  1.00  0.00    -0.265 OA
HETATM   13  H   UNL     1      -6.804  -0.415 -33.234  1.00  0.00     0.169 HD
BRANCH  11  14
HETATM   14  C   UNL     1      -5.498  -2.201 -34.147  1.00  0.00     0.142 A 
HETATM   15  O   UNL     1      -4.684  -3.267 -34.435  1.00  0.00    -0.317 OA
HETATM   16  C   UNL     1      -5.490  -4.289 -34.826  1.00  0.00     0.143 A 
HETATM   17  C   UNL     1      -6.808  -3.900 -34.808  1.00  0.00     0.027 A 
HETATM   18  C   UNL     1      -6.815  -2.556 -34.371  1.00  0.00     0.045 A 
ENDBRANCH  11  14
ENDBRANCH   5  10
ENDBRANCH   1   3
BRANCH   1  19
HETATM   19  O   UNL     1      -4.969   5.638 -33.988  1.00  0.00    -0.308 OA
BRANCH  19  20
HETATM   20  C   UNL     1      -4.053   5.153 -34.971  1.00  0.00     0.281 C 
BRANCH  20  21
HETATM   21  C   UNL     1      -2.584   5.436 -34.650  1.00  0.00     0.241 C 
HETATM   22  N   UNL     1      -2.385   6.190 -33.512  1.00  0.00    -0.359 N 
HETATM   23  H   UNL     1      -3.182   6.316 -32.888  1.00  0.00     0.162 HD
HETATM   24  O   UNL     1      -1.668   5.046 -35.368  1.00  0.00    -0.271 OA
BRANCH  22  25
HETATM   25  C   UNL     1      -1.049   6.462 -33.022  1.00  0.00     0.127 C 
BRANCH  25  26
HETATM   26  C   UNL     1      -0.563   5.376 -32.064  1.00  0.00     0.058 C 
BRANCH  26  27
HETATM   27  C   UNL     1      -0.223   5.932 -30.704  1.00  0.00    -0.057 A 
HETATM   28  C   UNL     1      -0.515   7.264 -30.393  1.00  0.00     0.010 A 
HETATM   29  C   UNL     1      -0.188   7.782 -29.138  1.00  0.00     0.037 A 
HETATM   30  C   UNL     1       0.437   6.985 -28.177  1.00  0.00     0.068 A 
HETATM   31  C   UNL     1       0.740   5.659 -28.486  1.00  0.00     0.037 A 
HETATM   32  C   UNL     1       0.413   5.136 -29.743  1.00  0.00     0.010 A 
BRANCH  30  33
HETATM   33  O   UNL     1       0.696   7.617 -26.993  1.00  0.00    -0.356 OA
HETATM   34  C   UNL     1       1.786   8.531 -26.978  1.00  0.00     0.210 C 
ENDBRANCH  30  33
ENDBRANCH  26  27
ENDBRANCH  25  26
ENDBRANCH  22  25
ENDBRANCH  20  21
ENDBRANCH  19  20
ENDBRANCH   1  19
TORSDOF 10
ENDMDL
MODEL 3
REMARK VINA RESULT:      -8.7      1.892      2.331
REMARK  10 active torsions:
REMARK  status: ('A' for Active; 'I' for Inactive)
REMARK    1  A    between atoms: C_3  and  N_4 
REMARK       I    between atoms: N_4  and  C_5 
REMARK    2  A    between atoms: C_5  and  C_6 
REMARK    3  A    between atoms: C_13  and  C_14 
REMARK    4  A    between atoms: C_14  and  O_15 
REMARK    5  A    between atoms: O_15  and  C_16 
REMARK    6  A    between atoms: C_16  and  C_17 
REMARK       I    between atoms: C_17  and  N_18 
REMARK    7  A    between atoms: N_18  and  C_19 
REMARK    8  A    between atoms: C_19  and  C_20 
REMARK    9  A    between atoms: C_20  and  C_21 
REMARK   10  A    between atoms: C_24  and  O_25 
ROOT
HETATM    1  C   UNL     1      -6.523   4.676 -33.414  1.00  0.00     0.293 C 
HETATM    2  O   UNL     1      -7.397   4.899 -34.239  1.00  0.00    -0.259 OA
ENDROOT
BRANCH   1   3
HETATM    3  C   UNL     1      -5.101   5.049 -33.598  1.00  0.00     0.041 A 
HETATM    4  C   UNL     1      -4.317   5.512 -32.533  1.00  0.00     0.047 A 
HETATM    5  C   UNL     1      -2.979   5.879 -32.728  1.00  0.00     0.042 A 
HETATM    6  C   UNL     1      -2.421   5.772 -34.022  1.00  0.00    -0.035 A 
HETATM    7  C   UNL     1      -1.005   6.170 -34.348  1.00  0.00     0.050 C 
HETATM    8  C   UNL     1      -3.219   5.304 -35.082  1.00  0.00     0.010 A 
HETATM    9  C   UNL     1      -4.545   4.932 -34.872  1.00  0.00     0.018 A 
BRANCH   5  10
HETATM   10  N   UNL     1      -2.181   6.368 -31.670  1.00  0.00    -0.321 N 
HETATM   11  C   UNL     1      -1.312   5.663 -30.852  1.00  0.00     0.279 C 
HETATM   12  O   UNL     1      -1.058   4.467 -30.951  1.00  0.00    -0.265 OA
HETATM   13  H   UNL     1      -2.189   7.365 -31.492  1.00  0.00     0.169 HD
BRANCH  11  14
HETATM   14  C   UNL     1      -0.678   6.500 -29.850  1.00  0.00     0.142 A 
HETATM   15  O   UNL     1      -1.353   6.807 -28.696  1.00  0.00    -0.317 OA
HETATM   16  C   UNL     1      -0.528   7.583 -27.947  1.00  0.00     0.143 A 
HETATM   17  C   UNL     1       0.663   7.793 -28.598  1.00  0.00     0.027 A 
HETATM   18  C   UNL     1       0.568   7.097 -29.825  1.00  0.00     0.045 A 
ENDBRANCH  11  14
ENDBRANCH   5  10
ENDBRANCH   1   3
BRANCH   1  19
HETATM   19  O   UNL     1      -6.707   4.107 -32.201  1.00  0.00    -0.308 OA
BRANCH  19  20
HETATM   20  C   UNL     1      -8.016   3.596 -31.946  1.00  0.00     0.281 C 
BRANCH  20  21
HETATM   21  C   UNL     1      -8.203   2.130 -32.342  1.00  0.00     0.241 C 
HETATM   22  N   UNL     1      -8.611   1.940 -33.646  1.00  0.00    -0.359 N 
HETATM   23  H   UNL     1      -8.556   2.741 -34.275  1.00  0.00     0.162 HD
HETATM   24  O   UNL     1      -8.031   1.208 -31.550  1.00  0.00    -0.271 OA
BRANCH  22  25
HETATM   25  C   UNL     1      -8.741   0.608 -34.202  1.00  0.00     0.127 C 
BRANCH  25  26
HETATM   26  C   UNL     1      -7.648   0.312 -35.227  1.00  0.00     0.058 C 
BRANCH  26  27
HETATM   27  C   UNL     1      -6.647  -0.692 -34.713  1.00  0.00    -0.057 A 
HETATM   28  C   UNL     1      -5.533  -0.267 -33.981  1.00  0.00     0.010 A 
HETATM   29  C   UNL     1      -4.599  -1.195 -33.516  1.00  0.00     0.037 A 
HETATM   30  C   UNL     1      -4.757  -2.558 -33.777  1.00  0.00     0.068 A 
HETATM   31  C   UNL     1      -5.860  -2.986 -34.516  1.00  0.00     0.037 A 
HETATM   32  C   UNL     1      -6.798  -2.057 -34.982  1.00  0.00     0.010 A 
BRANCH  30  33
HETATM   33  O   UNL     1      -3.773  -3.355 -33.261  1.00  0.00    -0.356 OA
HETATM   34  C   UNL     1      -3.505  -4.571 -33.949  1.00  0.00     0.210 C 
ENDBRANCH  30  33
ENDBRANCH  26  27
ENDBRANCH  25  26
ENDBRANCH  22  25
ENDBRANCH  20  21
ENDBRANCH  19  20
ENDBRANCH   1  19
TORSDOF 10
ENDMDL
MODEL 4
REMARK VINA RESULT:      -8.6      1.606      3.373
REMARK  10 active torsions:
REMARK  status: ('A' for Active; 'I' for Inactive)
REMARK    1  A    between atoms: C_3  and  N_4 
REMARK       I    between atoms: N_4  and  C_5 
REMARK    2  A    between atoms: C_5  and  C_6 
REMARK    3  A    between atoms: C_13  and  C_14 
REMARK    4  A    between atoms: C_14  and  O_15 
REMARK    5  A    between atoms: O_15  and  C_16 
REMARK    6  A    between atoms: C_16  and  C_17 
REMARK       I    between atoms: C_17  and  N_18 
REMARK    7  A    between atoms: N_18  and  C_19 
REMARK    8  A    between atoms: C_19  and  C_20 
REMARK    9  A    between atoms: C_20  and  C_21 
REMARK   10  A    between atoms: C_24  and  O_25 
ROOT
HETATM    1  C   UNL     1      -3.780   1.988 -32.186  1.00  0.00     0.293 C 
HETATM    2  O   UNL     1      -4.992   1.903 -32.326  1.00  0.00    -0.259 OA
ENDROOT
BRANCH   1   3
HETATM    3  C   UNL     1      -3.017   3.247 -32.355  1.00  0.00     0.041 A 
HETATM    4  C   UNL     1      -2.419   3.896 -31.268  1.00  0.00     0.047 A 
HETATM    5  C   UNL     1      -1.715   5.096 -31.441  1.00  0.00     0.042 A 
HETATM    6  C   UNL     1      -1.611   5.647 -32.738  1.00  0.00    -0.035 A 
HETATM    7  C   UNL     1      -0.908   6.947 -33.031  1.00  0.00     0.050 C 
HETATM    8  C   UNL     1      -2.216   4.983 -33.822  1.00  0.00     0.010 A 
HETATM    9  C   UNL     1      -2.902   3.785 -33.637  1.00  0.00     0.018 A 
BRANCH   5  10
HETATM   10  N   UNL     1      -1.125   5.775 -30.352  1.00  0.00    -0.321 N 
HETATM   11  C   UNL     1       0.057   5.477 -29.693  1.00  0.00     0.279 C 
HETATM   12  O   UNL     1       0.827   4.570 -29.991  1.00  0.00    -0.265 OA
HETATM   13  H   UNL     1      -1.577   6.618 -30.019  1.00  0.00     0.169 HD
BRANCH  11  14
HETATM   14  C   UNL     1       0.336   6.388 -28.598  1.00  0.00     0.142 A 
HETATM   15  O   UNL     1       0.009   6.027 -27.316  1.00  0.00    -0.317 OA
HETATM   16  C   UNL     1       0.388   7.050 -26.506  1.00  0.00     0.143 A 
HETATM   17  C   UNL     1       0.943   8.070 -27.240  1.00  0.00     0.027 A 
HETATM   18  C   UNL     1       0.911   7.645 -28.588  1.00  0.00     0.045 A 
ENDBRANCH  11  14
ENDBRANCH   5  10
ENDBRANCH   1   3
BRANCH   1  19
HETATM   19  O   UNL     1      -2.955   0.982 -31.816  1.00  0.00    -0.308 OA
BRANCH  19  20
HETATM   20  C   UNL     1      -3.582  -0.140 -31.194  1.00  0.00     0.281 C 
BRANCH  20  21
HETATM   21  C   UNL     1      -3.724  -1.361 -32.105  1.00  0.00     0.241 C 
HETATM   22  N   UNL     1      -4.498  -1.149 -33.226  1.00  0.00    -0.359 N 
HETATM   23  H   UNL     1      -4.732  -0.183 -33.457  1.00  0.00     0.162 HD
HETATM   24  O   UNL     1      -3.211  -2.445 -31.836  1.00  0.00    -0.271 OA
BRANCH  22  25
HETATM   25  C   UNL     1      -4.651  -2.178 -34.235  1.00  0.00     0.127 C 
BRANCH  25  26
HETATM   26  C   UNL     1      -6.106  -2.333 -34.672  1.00  0.00     0.058 C 
BRANCH  26  27
HETATM   27  C   UNL     1      -6.923  -1.104 -34.363  1.00  0.00    -0.057 A 
HETATM   28  C   UNL     1      -7.778  -1.085 -33.256  1.00  0.00     0.010 A 
HETATM   29  C   UNL     1      -8.545   0.049 -32.978  1.00  0.00     0.037 A 
HETATM   30  C   UNL     1      -8.476   1.176 -33.799  1.00  0.00     0.068 A 
HETATM   31  C   UNL     1      -7.634   1.158 -34.910  1.00  0.00     0.037 A 
HETATM   32  C   UNL     1      -6.863   0.023 -35.191  1.00  0.00     0.010 A 
BRANCH  30  33
HETATM   33  O   UNL     1      -9.276   2.215 -33.410  1.00  0.00    -0.356 OA
HETATM   34  C   UNL     1      -9.828   3.023 -34.442  1.00  0.00     0.210 C 
ENDBRANCH  30  33
ENDBRANCH  26  27
ENDBRANCH  25  26
ENDBRANCH  22  25
ENDBRANCH  20  21
ENDBRANCH  19  20
ENDBRANCH   1  19
TORSDOF 10
ENDMDL
MODEL 5
REMARK VINA RESULT:      -8.4      2.464      5.393
REMARK  10 active torsions:
REMARK  status: ('A' for Active; 'I' for Inactive)
REMARK    1  A    between atoms: C_3  and  N_4 
REMARK       I    between atoms: N_4  and  C_5 
REMARK    2  A    between atoms: C_5  and  C_6 
REMARK    3  A    between atoms: C_13  and  C_14 
REMARK    4  A    between atoms: C_14  and  O_15 
REMARK    5  A    between atoms: O_15  and  C_16 
REMARK    6  A    between atoms: C_16  and  C_17 
REMARK       I    between atoms: C_17  and  N_18 
REMARK    7  A    between atoms: N_18  and  C_19 
REMARK    8  A    between atoms: C_19  and  C_20 
REMARK    9  A    between atoms: C_20  and  C_21 
REMARK   10  A    between atoms: C_24  and  O_25 
ROOT
HETATM    1  C   UNL     1      -3.223  -0.868 -31.652  1.00  0.00     0.293 C 
HETATM    2  O   UNL     1      -2.010  -0.975 -31.771  1.00  0.00    -0.259 OA
ENDROOT
BRANCH   1   3
HETATM    3  C   UNL     1      -3.902   0.376 -31.219  1.00  0.00     0.041 A 
HETATM    4  C   UNL     1      -3.331   1.638 -31.429  1.00  0.00     0.047 A 
HETATM    5  C   UNL     1      -3.978   2.804 -30.997  1.00  0.00     0.042 A 
HETATM    6  C   UNL     1      -5.226   2.692 -30.345  1.00  0.00    -0.035 A 
HETATM    7  C   UNL     1      -5.990   3.877 -29.811  1.00  0.00     0.050 C 
HETATM    8  C   UNL     1      -5.789   1.419 -30.142  1.00  0.00     0.010 A 
HETATM    9  C   UNL     1      -5.141   0.269 -30.586  1.00  0.00     0.018 A 
BRANCH   5  10
HETATM   10  N   UNL     1      -3.406   4.082 -31.181  1.00  0.00    -0.321 N 
HETATM   11  C   UNL     1      -2.790   4.592 -32.313  1.00  0.00     0.279 C 
HETATM   12  O   UNL     1      -2.680   4.008 -33.385  1.00  0.00    -0.265 OA
HETATM   13  H   UNL     1      -3.481   4.748 -30.422  1.00  0.00     0.169 HD
BRANCH  11  14
HETATM   14  C   UNL     1      -2.297   5.945 -32.124  1.00  0.00     0.142 A 
HETATM   15  O   UNL     1      -1.608   6.261 -30.981  1.00  0.00    -0.317 OA
HETATM   16  C   UNL     1      -1.262   7.571 -31.076  1.00  0.00     0.143 A 
HETATM   17  C   UNL     1      -1.723   8.111 -32.252  1.00  0.00     0.027 A 
HETATM   18  C   UNL     1      -2.391   7.064 -32.928  1.00  0.00     0.045 A 
ENDBRANCH  11  14
ENDBRANCH   5  10
ENDBRANCH   1   3
BRANCH   1  19
HETATM   19  O   UNL     1      -4.133  -1.828 -31.934  1.00  0.00    -0.308 OA
BRANCH  19  20
HETATM   20  C   UNL     1      -4.144  -2.296 -33.284  1.00  0.00     0.281 C 
BRANCH  20  21
HETATM   21  C   UNL     1      -5.436  -1.987 -34.042  1.00  0.00     0.241 C 
HETATM   22  N   UNL     1      -6.379  -1.302 -33.305  1.00  0.00    -0.359 N 
HETATM   23  H   UNL     1      -6.075  -0.891 -32.422  1.00  0.00     0.162 HD
HETATM   24  O   UNL     1      -5.621  -2.348 -35.201  1.00  0.00    -0.271 OA
BRANCH  22  25
HETATM   25  C   UNL     1      -7.617  -0.851 -33.909  1.00  0.00     0.127 C 
BRANCH  25  26
HETATM   26  C   UNL     1      -8.333   0.179 -33.036  1.00  0.00     0.058 C 
BRANCH  26  27
HETATM   27  C   UNL     1      -7.772   1.566 -33.223  1.00  0.00    -0.057 A 
HETATM   28  C   UNL     1      -6.546   1.750 -33.872  1.00  0.00     0.010 A 
HETATM   29  C   UNL     1      -6.021   3.034 -34.034  1.00  0.00     0.037 A 
HETATM   30  C   UNL     1      -6.705   4.151 -33.549  1.00  0.00     0.068 A 
HETATM   31  C   UNL     1      -7.921   3.972 -32.892  1.00  0.00     0.037 A 
HETATM   32  C   UNL     1      -8.451   2.686 -32.729  1.00  0.00     0.010 A 
BRANCH  30  33
HETATM   33  O   UNL     1      -6.080   5.346 -33.779  1.00  0.00    -0.356 OA
HETATM   34  C   UNL     1      -6.085   6.288 -32.713  1.00  0.00     0.210 C 
ENDBRANCH  30  33
ENDBRANCH  26  27
ENDBRANCH  25  26
ENDBRANCH  22  25
ENDBRANCH  20  21
ENDBRANCH  19  20
ENDBRANCH   1  19
TORSDOF 10
ENDMDL
MODEL 6
REMARK VINA RESULT:      -8.4      2.889      4.363
REMARK  10 active torsions:
REMARK  status: ('A' for Active; 'I' for Inactive)
REMARK    1  A    between atoms: C_3  and  N_4 
REMARK       I    between atoms: N_4  and  C_5 
REMARK    2  A    between atoms: C_5  and  C_6 
REMARK    3  A    between atoms: C_13  and  C_14 
REMARK    4  A    between atoms: C_14  and  O_15 
REMARK    5  A    between atoms: O_15  and  C_16 
REMARK    6  A    between atoms: C_16  and  C_17 
REMARK       I    between atoms: C_17  and  N_18 
REMARK    7  A    between atoms: N_18  and  C_19 
REMARK    8  A    between atoms: C_19  and  C_20 
REMARK    9  A    between atoms: C_20  and  C_21 
REMARK   10  A    between atoms: C_24  and  O_25 
ROOT
HETATM    1  C   UNL     1      -1.942   7.193 -32.952  1.00  0.00     0.293 C 
HETATM    2  O   UNL     1      -1.516   7.837 -33.901  1.00  0.00    -0.259 OA
ENDROOT
BRANCH   1   3
HETATM    3  C   UNL     1      -1.281   7.143 -31.627  1.00  0.00     0.041 A 
HETATM    4  C   UNL     1      -1.983   7.410 -30.444  1.00  0.00     0.047 A 
HETATM    5  C   UNL     1      -1.339   7.376 -29.200  1.00  0.00     0.042 A 
HETATM    6  C   UNL     1       0.038   7.063 -29.150  1.00  0.00    -0.035 A 
HETATM    7  C   UNL     1       0.834   7.033 -27.871  1.00  0.00     0.050 C 
HETATM    8  C   UNL     1       0.730   6.796 -30.345  1.00  0.00     0.010 A 
HETATM    9  C   UNL     1       0.075   6.822 -31.575  1.00  0.00     0.018 A 
BRANCH   5  10
HETATM   10  N   UNL     1      -2.026   7.664 -28.000  1.00  0.00    -0.321 N 
HETATM   11  C   UNL     1      -2.307   8.903 -27.447  1.00  0.00     0.279 C 
HETATM   12  O   UNL     1      -2.031   9.985 -27.953  1.00  0.00    -0.265 OA
HETATM   13  H   UNL     1      -2.416   6.887 -27.479  1.00  0.00     0.169 HD
BRANCH  11  14
HETATM   14  C   UNL     1      -3.015   8.808 -26.183  1.00  0.00     0.142 A 
HETATM   15  O   UNL     1      -2.323   8.498 -25.040  1.00  0.00    -0.317 OA
HETATM   16  C   UNL     1      -3.221   8.488 -24.021  1.00  0.00     0.143 A 
HETATM   17  C   UNL     1      -4.483   8.776 -24.485  1.00  0.00     0.027 A 
HETATM   18  C   UNL     1      -4.352   8.982 -25.877  1.00  0.00     0.045 A 
ENDBRANCH  11  14
ENDBRANCH   5  10
ENDBRANCH   1   3
BRANCH   1  19
HETATM   19  O   UNL     1      -3.087   6.474 -32.935  1.00  0.00    -0.308 OA
BRANCH  19  20
HETATM   20  C   UNL     1      -3.053   5.233 -33.642  1.00  0.00     0.281 C 
BRANCH  20  21
HETATM   21  C   UNL     1      -3.127   3.999 -32.741  1.00  0.00     0.241 C 
HETATM   22  N   UNL     1      -4.251   3.222 -32.931  1.00  0.00    -0.359 N 
HETATM   23  H   UNL     1      -4.813   3.408 -33.762  1.00  0.00     0.162 HD
HETATM   24  O   UNL     1      -2.268   3.745 -31.901  1.00  0.00    -0.271 OA
BRANCH  22  25
HETATM   25  C   UNL     1      -4.423   1.970 -32.223  1.00  0.00     0.127 C 
BRANCH  25  26
HETATM   26  C   UNL     1      -5.788   1.342 -32.501  1.00  0.00     0.058 C 
BRANCH  26  27
HETATM   27  C   UNL     1      -5.667   0.025 -33.225  1.00  0.00    -0.057 A 
HETATM   28  C   UNL     1      -6.741  -0.471 -33.971  1.00  0.00     0.010 A 
HETATM   29  C   UNL     1      -6.634  -1.698 -34.630  1.00  0.00     0.037 A 
HETATM   30  C   UNL     1      -5.460  -2.450 -34.552  1.00  0.00     0.068 A 
HETATM   31  C   UNL     1      -4.391  -1.965 -33.800  1.00  0.00     0.037 A 
HETATM   32  C   UNL     1      -4.494  -0.735 -33.139  1.00  0.00     0.010 A 
BRANCH  30  33
HETATM   33  O   UNL     1      -5.490  -3.627 -35.248  1.00  0.00    -0.356 OA
HETATM   34  C   UNL     1      -6.619  -4.467 -35.041  1.00  0.00     0.210 C 
ENDBRANCH  30  33
ENDBRANCH  26  27
ENDBRANCH  25  26
ENDBRANCH  22  25
ENDBRANCH  20  21
ENDBRANCH  19  20
ENDBRANCH   1  19
TORSDOF 10
ENDMDL
MODEL 7
REMARK VINA RESULT:      -8.4      1.857      9.981
REMARK  10 active torsions:
REMARK  status: ('A' for Active; 'I' for Inactive)
REMARK    1  A    between atoms: C_3  and  N_4 
REMARK       I    between atoms: N_4  and  C_5 
REMARK    2  A    between atoms: C_5  and  C_6 
REMARK    3  A    between atoms: C_13  and  C_14 
REMARK    4  A    between atoms: C_14  and  O_15 
REMARK    5  A    between atoms: O_15  and  C_16 
REMARK    6  A    between atoms: C_16  and  C_17 
REMARK       I    between atoms: C_17  and  N_18 
REMARK    7  A    between atoms: N_18  and  C_19 
REMARK    8  A    between atoms: C_19  and  C_20 
REMARK    9  A    between atoms: C_20  and  C_21 
REMARK   10  A    between atoms: C_24  and  O_25 
ROOT
HETATM    1  C   UNL     1      -6.359   3.654 -29.926  1.00  0.00     0.293 C 
HETATM    2  O   UNL     1      -6.785   4.458 -29.108  1.00  0.00    -0.259 OA
ENDROOT
BRANCH   1   3
HETATM    3  C   UNL     1      -7.213   2.682 -30.648  1.00  0.00     0.041 A 
HETATM    4  C   UNL     1      -6.674   1.547 -31.267  1.00  0.00     0.047 A 
HETATM    5  C   UNL     1      -7.492   0.647 -31.962  1.00  0.00     0.042 A 
HETATM    6  C   UNL     1      -8.882   0.896 -32.029  1.00  0.00    -0.035 A 
HETATM    7  C   UNL     1      -9.846   0.013 -32.778  1.00  0.00     0.050 C 
HETATM    8  C   UNL     1      -9.410   2.040 -31.402  1.00  0.00     0.010 A 
HETATM    9  C   UNL     1      -8.586   2.921 -30.705  1.00  0.00     0.018 A 
BRANCH   5  10
HETATM   10  N   UNL     1      -6.963  -0.491 -32.610  1.00  0.00    -0.321 N 
HETATM   11  C   UNL     1      -6.435  -0.583 -33.888  1.00  0.00     0.279 C 
HETATM   12  O   UNL     1      -6.301   0.352 -34.670  1.00  0.00    -0.265 OA
HETATM   13  H   UNL     1      -6.905  -1.353 -32.082  1.00  0.00     0.169 HD
BRANCH  11  14
HETATM   14  C   UNL     1      -6.006  -1.929 -34.224  1.00  0.00     0.142 A 
HETATM   15  O   UNL     1      -4.676  -2.255 -34.146  1.00  0.00    -0.317 OA
HETATM   16  C   UNL     1      -4.566  -3.562 -34.500  1.00  0.00     0.143 A 
HETATM   17  C   UNL     1      -5.798  -4.084 -34.817  1.00  0.00     0.027 A 
HETATM   18  C   UNL     1      -6.726  -3.033 -34.640  1.00  0.00     0.045 A 
ENDBRANCH  11  14
ENDBRANCH   5  10
ENDBRANCH   1   3
BRANCH   1  19
HETATM   19  O   UNL     1      -5.075   3.550 -30.337  1.00  0.00    -0.308 OA
BRANCH  19  20
HETATM   20  C   UNL     1      -4.595   4.617 -31.156  1.00  0.00     0.281 C 
BRANCH  20  21
HETATM   21  C   UNL     1      -3.238   4.344 -31.807  1.00  0.00     0.241 C 
HETATM   22  N   UNL     1      -2.840   5.301 -32.717  1.00  0.00    -0.359 N 
HETATM   23  H   UNL     1      -3.358   6.180 -32.729  1.00  0.00     0.162 HD
HETATM   24  O   UNL     1      -2.579   3.339 -31.556  1.00  0.00    -0.271 OA
BRANCH  22  25
HETATM   25  C   UNL     1      -1.537   5.236 -33.347  1.00  0.00     0.127 C 
BRANCH  25  26
HETATM   26  C   UNL     1      -0.644   6.403 -32.927  1.00  0.00     0.058 C 
BRANCH  26  27
HETATM   27  C   UNL     1      -0.263   6.327 -31.470  1.00  0.00    -0.057 A 
HETATM   28  C   UNL     1      -0.545   7.394 -30.610  1.00  0.00     0.010 A 
HETATM   29  C   UNL     1      -0.180   7.328 -29.264  1.00  0.00     0.037 A 
HETATM   30  C   UNL     1       0.475   6.205 -28.756  1.00  0.00     0.068 A 
HETATM   31  C   UNL     1       0.768   5.143 -29.611  1.00  0.00     0.037 A 
HETATM   32  C   UNL     1       0.403   5.205 -30.962  1.00  0.00     0.010 A 
BRANCH  30  33
HETATM   33  O   UNL     1       0.771   6.271 -27.422  1.00  0.00    -0.356 OA
HETATM   34  C   UNL     1       1.013   7.565 -26.882  1.00  0.00     0.210 C 
ENDBRANCH  30  33
ENDBRANCH  26  27
ENDBRANCH  25  26
ENDBRANCH  22  25
ENDBRANCH  20  21
ENDBRANCH  19  20
ENDBRANCH   1  19
TORSDOF 10
ENDMDL
MODEL 8
REMARK VINA RESULT:      -8.2      2.301     11.760
REMARK  10 active torsions:
REMARK  status: ('A' for Active; 'I' for Inactive)
REMARK    1  A    between atoms: C_3  and  N_4 
REMARK       I    between atoms: N_4  and  C_5 
REMARK    2  A    between atoms: C_5  and  C_6 
REMARK    3  A    between atoms: C_13  and  C_14 
REMARK    4  A    between atoms: C_14  and  O_15 
REMARK    5  A    between atoms: O_15  and  C_16 
REMARK    6  A    between atoms: C_16  and  C_17 
REMARK       I    between atoms: C_17  and  N_18 
REMARK    7  A    between atoms: N_18  and  C_19 
REMARK    8  A    between atoms: C_19  and  C_20 
REMARK    9  A    between atoms: C_20  and  C_21 
REMARK   10  A    between atoms: C_24  and  O_25 
ROOT
HETATM    1  C   UNL     1      -2.764   3.857 -32.414  1.00  0.00     0.293 C 
HETATM    2  O   UNL     1      -2.909   4.464 -33.467  1.00  0.00    -0.259 OA
ENDROOT
BRANCH   1   3
HETATM    3  C   UNL     1      -3.688   2.801 -31.938  1.00  0.00     0.041 A 
HETATM    4  C   UNL     1      -3.675   1.511 -32.483  1.00  0.00     0.047 A 
HETATM    5  C   UNL     1      -4.567   0.528 -32.034  1.00  0.00     0.042 A 
HETATM    6  C   UNL     1      -5.487   0.855 -31.012  1.00  0.00    -0.035 A 
HETATM    7  C   UNL     1      -6.511  -0.114 -30.480  1.00  0.00     0.050 C 
HETATM    8  C   UNL     1      -5.489   2.154 -30.472  1.00  0.00     0.010 A 
HETATM    9  C   UNL     1      -4.588   3.118 -30.921  1.00  0.00     0.018 A 
BRANCH   5  10
HETATM   10  N   UNL     1      -4.582  -0.771 -32.587  1.00  0.00    -0.321 N 
HETATM   11  C   UNL     1      -3.634  -1.774 -32.451  1.00  0.00     0.279 C 
HETATM   12  O   UNL     1      -2.619  -1.702 -31.768  1.00  0.00    -0.265 OA
HETATM   13  H   UNL     1      -5.398  -1.051 -33.118  1.00  0.00     0.169 HD
BRANCH  11  14
HETATM   14  C   UNL     1      -3.977  -2.976 -33.188  1.00  0.00     0.142 A 
HETATM   15  O   UNL     1      -4.976  -2.934 -34.128  1.00  0.00    -0.317 OA
HETATM   16  C   UNL     1      -5.073  -4.179 -34.661  1.00  0.00     0.143 A 
HETATM   17  C   UNL     1      -4.166  -5.029 -34.076  1.00  0.00     0.027 A 
HETATM   18  C   UNL     1      -3.459  -4.256 -33.127  1.00  0.00     0.045 A 
ENDBRANCH  11  14
ENDBRANCH   5  10
ENDBRANCH   1   3
BRANCH   1  19
HETATM   19  O   UNL     1      -1.735   4.009 -31.550  1.00  0.00    -0.308 OA
BRANCH  19  20
HETATM   20  C   UNL     1      -1.264   5.345 -31.372  1.00  0.00     0.281 C 
BRANCH  20  21
HETATM   21  C   UNL     1      -0.216   5.497 -30.267  1.00  0.00     0.241 C 
HETATM   22  N   UNL     1      -0.450   6.544 -29.401  1.00  0.00    -0.359 N 
HETATM   23  H   UNL     1      -1.369   6.985 -29.436  1.00  0.00     0.162 HD
HETATM   24  O   UNL     1       0.763   4.761 -30.185  1.00  0.00    -0.271 OA
BRANCH  22  25
HETATM   25  C   UNL     1       0.398   6.762 -28.246  1.00  0.00     0.127 C 
BRANCH  25  26
HETATM   26  C   UNL     1       1.217   8.045 -28.377  1.00  0.00     0.058 C 
BRANCH  26  27
HETATM   27  C   UNL     1       1.421   8.724 -27.046  1.00  0.00    -0.057 A 
HETATM   28  C   UNL     1       1.002  10.045 -26.857  1.00  0.00     0.010 A 
HETATM   29  C   UNL     1       1.203  10.678 -25.628  1.00  0.00     0.037 A 
HETATM   30  C   UNL     1       1.827  10.009 -24.574  1.00  0.00     0.068 A 
HETATM   31  C   UNL     1       2.256   8.695 -24.762  1.00  0.00     0.037 A 
HETATM   32  C   UNL     1       2.056   8.058 -25.992  1.00  0.00     0.010 A 
BRANCH  30  33
HETATM   33  O   UNL     1       1.956  10.744 -23.428  1.00  0.00    -0.356 OA
HETATM   34  C   UNL     1       3.280  11.007 -22.979  1.00  0.00     0.210 C 
ENDBRANCH  30  33
ENDBRANCH  26  27
ENDBRANCH  25  26
ENDBRANCH  22  25
ENDBRANCH  20  21
ENDBRANCH  19  20
ENDBRANCH   1  19
TORSDOF 10
ENDMDL
MODEL 9
REMARK VINA RESULT:      -8.1      2.539     10.251
REMARK  10 active torsions:
REMARK  status: ('A' for Active; 'I' for Inactive)
REMARK    1  A    between atoms: C_3  and  N_4 
REMARK       I    between atoms: N_4  and  C_5 
REMARK    2  A    between atoms: C_5  and  C_6 
REMARK    3  A    between atoms: C_13  and  C_14 
REMARK    4  A    between atoms: C_14  and  O_15 
REMARK    5  A    between atoms: O_15  and  C_16 
REMARK    6  A    between atoms: C_16  and  C_17 
REMARK       I    between atoms: C_17  and  N_18 
REMARK    7  A    between atoms: N_18  and  C_19 
REMARK    8  A    between atoms: C_19  and  C_20 
REMARK    9  A    between atoms: C_20  and  C_21 
REMARK   10  A    between atoms: C_24  and  O_25 
ROOT
HETATM    1  C   UNL     1      -7.795   4.877 -33.785  1.00  0.00     0.293 C 
HETATM    2  O   UNL     1      -8.408   5.924 -33.629  1.00  0.00    -0.259 OA
ENDROOT
BRANCH   1   3
HETATM    3  C   UNL     1      -8.374   3.537 -33.528  1.00  0.00     0.041 A 
HETATM    4  C   UNL     1      -7.675   2.362 -33.832  1.00  0.00     0.047 A 
HETATM    5  C   UNL     1      -8.244   1.103 -33.600  1.00  0.00     0.042 A 
HETATM    6  C   UNL     1      -9.542   1.030 -33.046  1.00  0.00    -0.035 A 
HETATM    7  C   UNL     1     -10.260  -0.270 -32.788  1.00  0.00     0.050 C 
HETATM    8  C   UNL     1     -10.233   2.218 -32.744  1.00  0.00     0.010 A 
HETATM    9  C   UNL     1      -9.651   3.463 -32.970  1.00  0.00     0.018 A 
BRANCH   5  10
HETATM   10  N   UNL     1      -7.561  -0.091 -33.921  1.00  0.00    -0.321 N 
HETATM   11  C   UNL     1      -6.430  -0.622 -33.321  1.00  0.00     0.279 C 
HETATM   12  O   UNL     1      -5.849  -0.143 -32.353  1.00  0.00    -0.265 OA
HETATM   13  H   UNL     1      -7.951  -0.679 -34.648  1.00  0.00     0.169 HD
BRANCH  11  14
HETATM   14  C   UNL     1      -5.995  -1.862 -33.938  1.00  0.00     0.142 A 
HETATM   15  O   UNL     1      -4.681  -2.244 -33.838  1.00  0.00    -0.317 OA
HETATM   16  C   UNL     1      -4.561  -3.430 -34.489  1.00  0.00     0.143 A 
HETATM   17  C   UNL     1      -5.769  -3.817 -35.017  1.00  0.00     0.027 A 
HETATM   18  C   UNL     1      -6.694  -2.808 -34.664  1.00  0.00     0.045 A 
ENDBRANCH  11  14
ENDBRANCH   5  10
ENDBRANCH   1   3
BRANCH   1  19
HETATM   19  O   UNL     1      -6.531   4.762 -34.252  1.00  0.00    -0.308 OA
BRANCH  19  20
HETATM   20  C   UNL     1      -5.510   5.330 -33.430  1.00  0.00     0.281 C 
BRANCH  20  21
HETATM   21  C   UNL     1      -4.149   5.449 -34.118  1.00  0.00     0.241 C 
HETATM   22  N   UNL     1      -3.092   5.661 -33.256  1.00  0.00    -0.359 N 
HETATM   23  H   UNL     1      -3.265   5.519 -32.261  1.00  0.00     0.162 HD
HETATM   24  O   UNL     1      -4.020   5.389 -35.338  1.00  0.00    -0.271 OA
BRANCH  22  25
HETATM   25  C   UNL     1      -1.728   5.700 -33.742  1.00  0.00     0.127 C 
BRANCH  25  26
HETATM   26  C   UNL     1      -1.063   7.046 -33.460  1.00  0.00     0.058 C 
BRANCH  26  27
HETATM   27  C   UNL     1      -0.847   7.271 -31.984  1.00  0.00    -0.057 A 
HETATM   28  C   UNL     1       0.262   6.712 -31.341  1.00  0.00     0.010 A 
HETATM   29  C   UNL     1       0.454   6.909 -29.971  1.00  0.00     0.037 A 
HETATM   30  C   UNL     1      -0.454   7.660 -29.223  1.00  0.00     0.068 A 
HETATM   31  C   UNL     1      -1.567   8.211 -29.859  1.00  0.00     0.037 A 
HETATM   32  C   UNL     1      -1.763   8.016 -31.231  1.00  0.00     0.010 A 
BRANCH  30  33
HETATM   33  O   UNL     1      -0.143   7.777 -27.897  1.00  0.00    -0.356 OA
HETATM   34  C   UNL     1      -0.146   6.580 -27.129  1.00  0.00     0.210 C 
ENDBRANCH  30  33
ENDBRANCH  26  27
ENDBRANCH  25  26
ENDBRANCH  22  25
ENDBRANCH  20  21
ENDBRANCH  19  20
ENDBRANCH   1  19
TORSDOF 10
ENDMDL
MODEL 10
REMARK VINA RESULT:      -8.1      2.044      2.718
REMARK  10 active torsions:
REMARK  status: ('A' for Active; 'I' for Inactive)
REMARK    1  A    between atoms: C_3  and  N_4 
REMARK       I    between atoms: N_4  and  C_5 
REMARK    2  A    between atoms: C_5  and  C_6 
REMARK    3  A    between atoms: C_13  and  C_14 
REMARK    4  A    between atoms: C_14  and  O_15 
REMARK    5  A    between atoms: O_15  and  C_16 
REMARK    6  A    between atoms: C_16  and  C_17 
REMARK       I    between atoms: C_17  and  N_18 
REMARK    7  A    between atoms: N_18  and  C_19 
REMARK    8  A    between atoms: C_19  and  C_20 
REMARK    9  A    between atoms: C_20  and  C_21 
REMARK   10  A    between atoms: C_24  and  O_25 
ROOT
HETATM    1  C   UNL     1      -6.610   5.252 -33.526  1.00  0.00     0.293 C 
HETATM    2  O   UNL     1      -7.331   6.111 -33.037  1.00  0.00    -0.259 OA
ENDROOT
BRANCH   1   3
HETATM    3  C   UNL     1      -5.142   5.390 -33.667  1.00  0.00     0.041 A 
HETATM    4  C   UNL     1      -4.338   5.825 -32.606  1.00  0.00     0.047 A 
HETATM    5  C   UNL     1      -2.952   5.968 -32.761  1.00  0.00     0.042 A 
HETATM    6  C   UNL     1      -2.368   5.662 -34.011  1.00  0.00    -0.035 A 
HETATM    7  C   UNL     1      -0.896   5.813 -34.296  1.00  0.00     0.050 C 
HETATM    8  C   UNL     1      -3.188   5.225 -35.068  1.00  0.00     0.010 A 
HETATM    9  C   UNL     1      -4.562   5.076 -34.896  1.00  0.00     0.018 A 
BRANCH   5  10
HETATM   10  N   UNL     1      -2.130   6.426 -31.708  1.00  0.00    -0.321 N 
HETATM   11  C   UNL     1      -1.337   5.680 -30.851  1.00  0.00     0.279 C 
HETATM   12  O   UNL     1      -1.185   4.464 -30.902  1.00  0.00    -0.265 OA
HETATM   13  H   UNL     1      -2.054   7.426 -31.566  1.00  0.00     0.169 HD
BRANCH  11  14
HETATM   14  C   UNL     1      -0.646   6.496 -29.869  1.00  0.00     0.142 A 
HETATM   15  O   UNL     1      -1.230   6.729 -28.649  1.00  0.00    -0.317 OA
HETATM   16  C   UNL     1      -0.369   7.502 -27.938  1.00  0.00     0.143 A 
HETATM   17  C   UNL     1       0.755   7.783 -28.677  1.00  0.00     0.027 A 
HETATM   18  C   UNL     1       0.578   7.136 -29.921  1.00  0.00     0.045 A 
ENDBRANCH  11  14
ENDBRANCH   5  10
ENDBRANCH   1   3
BRANCH   1  19
HETATM   19  O   UNL     1      -7.014   4.038 -33.966  1.00  0.00    -0.308 OA
BRANCH  19  20
HETATM   20  C   UNL     1      -7.821   3.285 -33.059  1.00  0.00     0.281 C 
BRANCH  20  21
HETATM   21  C   UNL     1      -7.030   2.583 -31.953  1.00  0.00     0.241 C 
HETATM   22  N   UNL     1      -5.819   2.063 -32.361  1.00  0.00    -0.359 N 
HETATM   23  H   UNL     1      -5.467   2.356 -33.272  1.00  0.00     0.162 HD
HETATM   24  O   UNL     1      -7.459   2.472 -30.808  1.00  0.00    -0.271 OA
BRANCH  22  25
HETATM   25  C   UNL     1      -4.910   1.453 -31.411  1.00  0.00     0.127 C 
BRANCH  25  26
HETATM   26  C   UNL     1      -5.347   0.038 -31.036  1.00  0.00     0.058 C 
BRANCH  26  27
HETATM   27  C   UNL     1      -5.346  -0.888 -32.226  1.00  0.00    -0.057 A 
HETATM   28  C   UNL     1      -6.508  -1.064 -32.985  1.00  0.00     0.010 A 
HETATM   29  C   UNL     1      -6.510  -1.932 -34.079  1.00  0.00     0.037 A 
HETATM   30  C   UNL     1      -5.359  -2.640 -34.431  1.00  0.00     0.068 A 
HETATM   31  C   UNL     1      -4.201  -2.476 -33.671  1.00  0.00     0.037 A 
HETATM   32  C   UNL     1      -4.195  -1.606 -32.574  1.00  0.00     0.010 A 
BRANCH  30  33
HETATM   33  O   UNL     1      -5.500  -3.450 -35.524  1.00  0.00    -0.356 OA
HETATM   34  C   UNL     1      -6.476  -4.481 -35.437  1.00  0.00     0.210 C 
ENDBRANCH  30  33
ENDBRANCH  26  27
ENDBRANCH  25  26
ENDBRANCH  22  25
ENDBRANCH  20  21
ENDBRANCH  19  20
ENDBRANCH   1  19
TORSDOF 10
ENDMDL
