MODEL 1
REMARK VINA RESULT:      -9.1      0.000      0.000
REMARK  6 active torsions:
REMARK  status: ('A' for Active; 'I' for Inactive)
REMARK    1  A    between atoms: O_2  and  C_3 
REMARK    2  A    between atoms: C_6  and  C_7 
REMARK    3  A    between atoms: C_11  and  C_12 
REMARK       I    between atoms: C_12  and  N_13 
REMARK    4  A    between atoms: N_13  and  N_14 
REMARK       I    between atoms: N_14  and  C_15 
REMARK    5  A    between atoms: C_15  and  C_16 
REMARK    6  A    between atoms: C_17  and  C_18 
ROOT
HETATM    1  C   UNL     1      -4.018   3.695 -31.226  1.00  0.00     0.288 C 
HETATM    2  N   UNL     1      -2.655   3.700 -31.445  1.00  0.00    -0.262 N 
HETATM    3  O   UNL     1      -4.564   4.545 -30.523  1.00  0.00    -0.264 OA
HETATM    4  H   UNL     1      -2.163   2.914 -31.863  1.00  0.00     0.190 HD
ENDROOT
BRANCH   1   5
HETATM    5  C   UNL     1      -4.745   2.632 -31.860  1.00  0.00     0.121 A 
HETATM    6  N   UNL     1      -6.086   2.728 -32.104  1.00  0.00    -0.272 N 
HETATM    7  N   UNL     1      -6.620   1.647 -32.689  1.00  0.00    -0.174 NA
HETATM    8  H   UNL     1      -6.690   3.515 -31.885  1.00  0.00     0.189 HD
HETATM    9  C   UNL     1      -5.586   0.806 -32.860  1.00  0.00     0.089 A 
HETATM   10  C   UNL     1      -4.392   1.389 -32.347  1.00  0.00     0.071 A 
BRANCH   9  11
HETATM   11  C   UNL     1      -5.762  -0.509 -33.489  1.00  0.00    -0.005 A 
HETATM   12  C   UNL     1      -4.672  -1.355 -33.727  1.00  0.00     0.016 A 
HETATM   13  C   UNL     1      -4.861  -2.609 -34.319  1.00  0.00     0.037 A 
HETATM   14  C   UNL     1      -6.137  -3.045 -34.682  1.00  0.00     0.068 A 
HETATM   15  C   UNL     1      -7.227  -2.208 -34.457  1.00  0.00     0.037 A 
HETATM   16  C   UNL     1      -7.039  -0.952 -33.866  1.00  0.00     0.016 A 
BRANCH  14  17
HETATM   17  O   UNL     1      -6.178  -4.290 -35.244  1.00  0.00    -0.356 OA
HETATM   18  C   UNL     1      -5.213  -5.231 -34.791  1.00  0.00     0.210 C 
ENDBRANCH  14  17
ENDBRANCH   9  11
ENDBRANCH   1   5
BRANCH   2  19
HETATM   19  N   UNL     1      -1.865   4.599 -30.714  1.00  0.00    -0.267 N 
HETATM   20  C   UNL     1      -0.817   5.212 -31.363  1.00  0.00     0.240 C 
HETATM   21  O   UNL     1      -0.619   5.110 -32.570  1.00  0.00    -0.271 OA
HETATM   22  H   UNL     1      -1.944   4.557 -29.701  1.00  0.00     0.190 HD
BRANCH  20  23
HETATM   23  C   UNL     1       0.089   5.991 -30.478  1.00  0.00     0.089 A 
HETATM   24  C   UNL     1      -0.343   7.363 -29.983  1.00  0.00     0.034 A 
HETATM   25  C   UNL     1       0.769   7.229 -30.999  1.00  0.00     0.025 A 
BRANCH  24  26
HETATM   26  C   UNL     1      -0.042   7.779 -28.555  1.00  0.00    -0.031 A 
HETATM   27  C   UNL     1      -1.013   7.776 -27.532  1.00  0.00     0.040 A 
HETATM   28 CL   UNL     1      -2.639   7.278 -27.851  1.00  0.00    -0.084 Cl
HETATM   29  C   UNL     1      -0.706   8.181 -26.228  1.00  0.00     0.024 A 
HETATM   30  C   UNL     1       0.582   8.609 -25.914  1.00  0.00     0.002 A 
HETATM   31  C   UNL     1       1.557   8.639 -26.905  1.00  0.00     0.001 A 
HETATM   32  C   UNL     1       1.245   8.235 -28.205  1.00  0.00     0.009 A 
ENDBRANCH  24  26
ENDBRANCH  20  23
ENDBRANCH   2  19
TORSDOF 6
ENDMDL
MODEL 2
REMARK VINA RESULT:      -9.0      2.741     11.302
REMARK  6 active torsions:
REMARK  status: ('A' for Active; 'I' for Inactive)
REMARK    1  A    between atoms: O_2  and  C_3 
REMARK    2  A    between atoms: C_6  and  C_7 
REMARK    3  A    between atoms: C_11  and  C_12 
REMARK       I    between atoms: C_12  and  N_13 
REMARK    4  A    between atoms: N_13  and  N_14 
REMARK       I    between atoms: N_14  and  C_15 
REMARK    5  A    between atoms: C_15  and  C_16 
REMARK    6  A    between atoms: C_17  and  C_18 
ROOT
HETATM    1  C   UNL     1      -2.363   4.317 -31.896  1.00  0.00     0.288 C 
HETATM    2  N   UNL     1      -3.255   3.662 -31.071  1.00  0.00    -0.262 N 
HETATM    3  O   UNL     1      -2.265   4.044 -33.091  1.00  0.00    -0.264 OA
HETATM    4  H   UNL     1      -3.225   3.739 -30.057  1.00  0.00     0.190 HD
ENDROOT
BRANCH   1   5
HETATM    5  C   UNL     1      -1.556   5.322 -31.263  1.00  0.00     0.121 A 
HETATM    6  N   UNL     1      -0.367   5.727 -31.801  1.00  0.00    -0.272 N 
HETATM    7  N   UNL     1       0.273   6.662 -31.084  1.00  0.00    -0.174 NA
HETATM    8  H   UNL     1       0.059   5.392 -32.660  1.00  0.00     0.189 HD
HETATM    9  C   UNL     1      -0.535   6.903 -30.038  1.00  0.00     0.089 A 
HETATM   10  C   UNL     1      -1.693   6.075 -30.114  1.00  0.00     0.071 A 
BRANCH   9  11
HETATM   11  C   UNL     1      -0.186   7.890 -29.009  1.00  0.00    -0.005 A 
HETATM   12  C   UNL     1       1.076   7.892 -28.401  1.00  0.00     0.016 A 
HETATM   13  C   UNL     1       1.394   8.848 -27.428  1.00  0.00     0.037 A 
HETATM   14  C   UNL     1       0.465   9.817 -27.045  1.00  0.00     0.068 A 
HETATM   15  C   UNL     1      -0.796   9.818 -27.637  1.00  0.00     0.037 A 
HETATM   16  C   UNL     1      -1.116   8.862 -28.610  1.00  0.00     0.016 A 
BRANCH  14  17
HETATM   17  O   UNL     1       0.908  10.689 -26.090  1.00  0.00    -0.356 OA
HETATM   18  C   UNL     1       1.757  10.158 -25.081  1.00  0.00     0.210 C 
ENDBRANCH  14  17
ENDBRANCH   9  11
ENDBRANCH   1   5
BRANCH   2  19
HETATM   19  N   UNL     1      -3.943   2.552 -31.581  1.00  0.00    -0.267 N 
HETATM   20  C   UNL     1      -5.300   2.671 -31.783  1.00  0.00     0.240 C 
HETATM   21  O   UNL     1      -5.910   3.729 -31.663  1.00  0.00    -0.271 OA
HETATM   22  H   UNL     1      -3.464   1.655 -31.532  1.00  0.00     0.190 HD
BRANCH  20  23
HETATM   23  C   UNL     1      -5.988   1.399 -32.133  1.00  0.00     0.089 A 
HETATM   24  C   UNL     1      -5.998   0.925 -33.578  1.00  0.00     0.034 A 
HETATM   25  C   UNL     1      -7.266   1.429 -32.927  1.00  0.00     0.025 A 
BRANCH  24  26
HETATM   26  C   UNL     1      -5.821  -0.550 -33.889  1.00  0.00    -0.031 A 
HETATM   27  C   UNL     1      -4.590  -1.224 -33.745  1.00  0.00     0.040 A 
HETATM   28 CL   UNL     1      -3.181  -0.390 -33.184  1.00  0.00    -0.084 Cl
HETATM   29  C   UNL     1      -4.457  -2.582 -34.055  1.00  0.00     0.024 A 
HETATM   30  C   UNL     1      -5.551  -3.302 -34.527  1.00  0.00     0.002 A 
HETATM   31  C   UNL     1      -6.774  -2.662 -34.696  1.00  0.00     0.001 A 
HETATM   32  C   UNL     1      -6.902  -1.306 -34.386  1.00  0.00     0.009 A 
ENDBRANCH  24  26
ENDBRANCH  20  23
ENDBRANCH   2  19
TORSDOF 6
ENDMDL
MODEL 3
REMARK VINA RESULT:      -8.9      2.983     11.641
REMARK  6 active torsions:
REMARK  status: ('A' for Active; 'I' for Inactive)
REMARK    1  A    between atoms: O_2  and  C_3 
REMARK    2  A    between atoms: C_6  and  C_7 
REMARK    3  A    between atoms: C_11  and  C_12 
REMARK       I    between atoms: C_12  and  N_13 
REMARK    4  A    between atoms: N_13  and  N_14 
REMARK       I    between atoms: N_14  and  C_15 
REMARK    5  A    between atoms: C_15  and  C_16 
REMARK    6  A    between atoms: C_17  and  C_18 
ROOT
HETATM    1  C   UNL     1      -1.126   5.196 -31.061  1.00  0.00     0.288 C 
HETATM    2  N   UNL     1      -2.385   4.631 -31.041  1.00  0.00    -0.262 N 
HETATM    3  O   UNL     1      -0.260   4.821 -31.850  1.00  0.00    -0.264 OA
HETATM    4  H   UNL     1      -3.049   4.793 -30.287  1.00  0.00     0.190 HD
ENDROOT
BRANCH   1   5
HETATM    5  C   UNL     1      -0.895   6.234 -30.096  1.00  0.00     0.121 A 
HETATM    6  N   UNL     1      -1.772   7.269 -29.935  1.00  0.00    -0.272 N 
HETATM    7  N   UNL     1      -1.408   8.162 -29.004  1.00  0.00    -0.174 NA
HETATM    8  H   UNL     1      -2.640   7.417 -30.442  1.00  0.00     0.189 HD
HETATM    9  C   UNL     1      -0.250   7.689 -28.512  1.00  0.00     0.089 A 
HETATM   10  C   UNL     1       0.106   6.480 -29.177  1.00  0.00     0.071 A 
BRANCH   9  11
HETATM   11  C   UNL     1       0.476   8.392 -27.447  1.00  0.00    -0.005 A 
HETATM   12  C   UNL     1       1.518   7.774 -26.745  1.00  0.00     0.016 A 
HETATM   13  C   UNL     1       2.205   8.464 -25.739  1.00  0.00     0.037 A 
HETATM   14  C   UNL     1       1.869   9.780 -25.416  1.00  0.00     0.068 A 
HETATM   15  C   UNL     1       0.828  10.402 -26.102  1.00  0.00     0.037 A 
HETATM   16  C   UNL     1       0.139   9.711 -27.108  1.00  0.00     0.016 A 
BRANCH  14  17
HETATM   17  O   UNL     1       2.622  10.336 -24.419  1.00  0.00    -0.356 OA
HETATM   18  C   UNL     1       3.834   9.670 -24.085  1.00  0.00     0.210 C 
ENDBRANCH  14  17
ENDBRANCH   9  11
ENDBRANCH   1   5
BRANCH   2  19
HETATM   19  N   UNL     1      -2.620   3.497 -31.830  1.00  0.00    -0.267 N 
HETATM   20  C   UNL     1      -3.625   2.639 -31.445  1.00  0.00     0.240 C 
HETATM   21  O   UNL     1      -4.404   2.880 -30.528  1.00  0.00    -0.271 OA
HETATM   22  H   UNL     1      -1.885   3.235 -32.484  1.00  0.00     0.190 HD
BRANCH  20  23
HETATM   23  C   UNL     1      -3.681   1.365 -32.212  1.00  0.00     0.089 A 
HETATM   24  C   UNL     1      -4.570   0.233 -31.720  1.00  0.00     0.034 A 
HETATM   25  C   UNL     1      -3.064   0.116 -31.641  1.00  0.00     0.025 A 
BRANCH  24  26
HETATM   26  C   UNL     1      -5.359  -0.594 -32.718  1.00  0.00    -0.031 A 
HETATM   27  C   UNL     1      -6.747  -0.440 -32.916  1.00  0.00     0.040 A 
HETATM   28 CL   UNL     1      -7.649   0.733 -32.018  1.00  0.00    -0.084 Cl
HETATM   29  C   UNL     1      -7.449  -1.230 -33.834  1.00  0.00     0.024 A 
HETATM   30  C   UNL     1      -6.781  -2.203 -34.574  1.00  0.00     0.002 A 
HETATM   31  C   UNL     1      -5.416  -2.389 -34.389  1.00  0.00     0.001 A 
HETATM   32  C   UNL     1      -4.720  -1.600 -33.470  1.00  0.00     0.009 A 
ENDBRANCH  24  26
ENDBRANCH  20  23
ENDBRANCH   2  19
TORSDOF 6
ENDMDL
MODEL 4
REMARK VINA RESULT:      -8.6      2.923     11.018
REMARK  6 active torsions:
REMARK  status: ('A' for Active; 'I' for Inactive)
REMARK    1  A    between atoms: O_2  and  C_3 
REMARK    2  A    between atoms: C_6  and  C_7 
REMARK    3  A    between atoms: C_11  and  C_12 
REMARK       I    between atoms: C_12  and  N_13 
REMARK    4  A    between atoms: N_13  and  N_14 
REMARK       I    between atoms: N_14  and  C_15 
REMARK    5  A    between atoms: C_15  and  C_16 
REMARK    6  A    between atoms: C_17  and  C_18 
ROOT
HETATM    1  C   UNL     1      -4.740   4.081 -32.749  1.00  0.00     0.288 C 
HETATM    2  N   UNL     1      -5.044   3.035 -31.902  1.00  0.00    -0.262 N 
HETATM    3  O   UNL     1      -5.141   4.112 -33.911  1.00  0.00    -0.264 OA
HETATM    4  H   UNL     1      -4.578   2.897 -31.008  1.00  0.00     0.190 HD
ENDROOT
BRANCH   1   5
HETATM    5  C   UNL     1      -3.919   5.117 -32.187  1.00  0.00     0.121 A 
HETATM    6  N   UNL     1      -3.979   6.403 -32.641  1.00  0.00    -0.272 N 
HETATM    7  N   UNL     1      -3.141   7.247 -32.022  1.00  0.00    -0.174 NA
HETATM    8  H   UNL     1      -4.577   6.761 -33.380  1.00  0.00     0.189 HD
HETATM    9  C   UNL     1      -2.512   6.492 -31.105  1.00  0.00     0.089 A 
HETATM   10  C   UNL     1      -2.973   5.146 -31.182  1.00  0.00     0.071 A 
BRANCH   9  11
HETATM   11  C   UNL     1      -1.504   7.062 -30.203  1.00  0.00    -0.005 A 
HETATM   12  C   UNL     1      -0.171   6.633 -30.237  1.00  0.00     0.016 A 
HETATM   13  C   UNL     1       0.779   7.195 -29.375  1.00  0.00     0.037 A 
HETATM   14  C   UNL     1       0.420   8.193 -28.467  1.00  0.00     0.068 A 
HETATM   15  C   UNL     1      -0.905   8.621 -28.419  1.00  0.00     0.037 A 
HETATM   16  C   UNL     1      -1.856   8.058 -29.280  1.00  0.00     0.016 A 
BRANCH  14  17
HETATM   17  O   UNL     1       1.445   8.657 -27.690  1.00  0.00    -0.356 OA
HETATM   18  C   UNL     1       1.704   7.950 -26.484  1.00  0.00     0.210 C 
ENDBRANCH  14  17
ENDBRANCH   9  11
ENDBRANCH   1   5
BRANCH   2  19
HETATM   19  N   UNL     1      -5.688   1.910 -32.437  1.00  0.00    -0.267 N 
HETATM   20  C   UNL     1      -5.424   0.684 -31.869  1.00  0.00     0.240 C 
HETATM   21  O   UNL     1      -4.760   0.543 -30.847  1.00  0.00    -0.271 OA
HETATM   22  H   UNL     1      -6.106   2.018 -33.359  1.00  0.00     0.190 HD
BRANCH  20  23
HETATM   23  C   UNL     1      -5.984  -0.477 -32.613  1.00  0.00     0.089 A 
HETATM   24  C   UNL     1      -5.262  -0.994 -33.848  1.00  0.00     0.034 A 
HETATM   25  C   UNL     1      -6.587  -0.277 -33.977  1.00  0.00     0.025 A 
BRANCH  24  26
HETATM   26  C   UNL     1      -5.163  -2.488 -34.093  1.00  0.00    -0.031 A 
HETATM   27  C   UNL     1      -4.218  -3.312 -33.449  1.00  0.00     0.040 A 
HETATM   28 CL   UNL     1      -3.095  -2.653 -32.307  1.00  0.00    -0.084 Cl
HETATM   29  C   UNL     1      -4.142  -4.686 -33.709  1.00  0.00     0.024 A 
HETATM   30  C   UNL     1      -5.007  -5.271 -34.630  1.00  0.00     0.002 A 
HETATM   31  C   UNL     1      -5.940  -4.482 -35.295  1.00  0.00     0.001 A 
HETATM   32  C   UNL     1      -6.010  -3.111 -35.033  1.00  0.00     0.009 A 
ENDBRANCH  24  26
ENDBRANCH  20  23
ENDBRANCH   2  19
TORSDOF 6
ENDMDL
MODEL 5
REMARK VINA RESULT:      -8.1      3.070     11.229
REMARK  6 active torsions:
REMARK  status: ('A' for Active; 'I' for Inactive)
REMARK    1  A    between atoms: O_2  and  C_3 
REMARK    2  A    between atoms: C_6  and  C_7 
REMARK    3  A    between atoms: C_11  and  C_12 
REMARK       I    between atoms: C_12  and  N_13 
REMARK    4  A    between atoms: N_13  and  N_14 
REMARK       I    between atoms: N_14  and  C_15 
REMARK    5  A    between atoms: C_15  and  C_16 
REMARK    6  A    between atoms: C_17  and  C_18 
ROOT
HETATM    1  C   UNL     1      -4.013   3.372 -32.481  1.00  0.00     0.288 C 
HETATM    2  N   UNL     1      -5.272   3.160 -33.006  1.00  0.00    -0.262 N 
HETATM    3  O   UNL     1      -3.189   2.464 -32.386  1.00  0.00    -0.264 OA
HETATM    4  H   UNL     1      -6.023   3.841 -32.925  1.00  0.00     0.190 HD
ENDROOT
BRANCH   1   5
HETATM    5  C   UNL     1      -3.740   4.713 -32.045  1.00  0.00     0.121 A 
HETATM    6  N   UNL     1      -4.182   5.798 -32.747  1.00  0.00    -0.272 N 
HETATM    7  N   UNL     1      -3.833   6.978 -32.217  1.00  0.00    -0.174 NA
HETATM    8  H   UNL     1      -4.726   5.788 -33.605  1.00  0.00     0.189 HD
HETATM    9  C   UNL     1      -3.148   6.664 -31.105  1.00  0.00     0.089 A 
HETATM   10  C   UNL     1      -3.065   5.248 -30.966  1.00  0.00     0.071 A 
BRANCH   9  11
HETATM   11  C   UNL     1      -2.594   7.701 -30.225  1.00  0.00    -0.005 A 
HETATM   12  C   UNL     1      -1.841   7.369 -29.093  1.00  0.00     0.016 A 
HETATM   13  C   UNL     1      -1.313   8.373 -28.270  1.00  0.00     0.037 A 
HETATM   14  C   UNL     1      -1.524   9.722 -28.562  1.00  0.00     0.068 A 
HETATM   15  C   UNL     1      -2.279  10.063 -29.681  1.00  0.00     0.037 A 
HETATM   16  C   UNL     1      -2.809   9.059 -30.504  1.00  0.00     0.016 A 
BRANCH  14  17
HETATM   17  O   UNL     1      -0.949  10.595 -27.681  1.00  0.00    -0.356 OA
HETATM   18  C   UNL     1      -1.283  10.433 -26.309  1.00  0.00     0.210 C 
ENDBRANCH  14  17
ENDBRANCH   9  11
ENDBRANCH   1   5
BRANCH   2  19
HETATM   19  N   UNL     1      -5.666   1.844 -33.283  1.00  0.00    -0.267 N 
HETATM   20  C   UNL     1      -6.791   1.360 -32.655  1.00  0.00     0.240 C 
HETATM   21  O   UNL     1      -7.533   2.057 -31.970  1.00  0.00    -0.271 OA
HETATM   22  H   UNL     1      -4.972   1.242 -33.722  1.00  0.00     0.190 HD
BRANCH  20  23
HETATM   23  C   UNL     1      -7.028  -0.096 -32.843  1.00  0.00     0.089 A 
HETATM   24  C   UNL     1      -6.789  -0.725 -34.207  1.00  0.00     0.034 A 
HETATM   25  C   UNL     1      -8.194  -0.568 -33.670  1.00  0.00     0.025 A 
BRANCH  24  26
HETATM   26  C   UNL     1      -6.145  -2.096 -34.303  1.00  0.00    -0.031 A 
HETATM   27  C   UNL     1      -4.778  -2.323 -34.045  1.00  0.00     0.040 A 
HETATM   28 CL   UNL     1      -3.732  -1.023 -33.583  1.00  0.00    -0.084 Cl
HETATM   29  C   UNL     1      -4.211  -3.598 -34.157  1.00  0.00     0.024 A 
HETATM   30  C   UNL     1      -4.998  -4.681 -34.541  1.00  0.00     0.002 A 
HETATM   31  C   UNL     1      -6.347  -4.486 -34.819  1.00  0.00     0.001 A 
HETATM   32  C   UNL     1      -6.907  -3.211 -34.707  1.00  0.00     0.009 A 
ENDBRANCH  24  26
ENDBRANCH  20  23
ENDBRANCH   2  19
TORSDOF 6
ENDMDL
MODEL 6
REMARK VINA RESULT:      -8.0      4.071     11.319
REMARK  6 active torsions:
REMARK  status: ('A' for Active; 'I' for Inactive)
REMARK    1  A    between atoms: O_2  and  C_3 
REMARK    2  A    between atoms: C_6  and  C_7 
REMARK    3  A    between atoms: C_11  and  C_12 
REMARK       I    between atoms: C_12  and  N_13 
REMARK    4  A    between atoms: N_13  and  N_14 
REMARK       I    between atoms: N_14  and  C_15 
REMARK    5  A    between atoms: C_15  and  C_16 
REMARK    6  A    between atoms: C_17  and  C_18 
ROOT
HETATM    1  C   UNL     1      -7.131   4.202 -29.775  1.00  0.00     0.288 C 
HETATM    2  N   UNL     1      -7.085   2.930 -29.241  1.00  0.00    -0.262 N 
HETATM    3  O   UNL     1      -7.626   4.424 -30.878  1.00  0.00    -0.264 OA
HETATM    4  H   UNL     1      -6.524   2.695 -28.426  1.00  0.00     0.190 HD
ENDROOT
BRANCH   1   5
HETATM    5  C   UNL     1      -6.552   5.236 -28.964  1.00  0.00     0.121 A 
HETATM    6  N   UNL     1      -7.325   6.058 -28.193  1.00  0.00    -0.272 N 
HETATM    7  N   UNL     1      -6.636   6.980 -27.507  1.00  0.00    -0.174 NA
HETATM    8  H   UNL     1      -8.337   6.035 -28.103  1.00  0.00     0.189 HD
HETATM    9  C   UNL     1      -5.350   6.747 -27.818  1.00  0.00     0.089 A 
HETATM   10  C   UNL     1      -5.258   5.661 -28.735  1.00  0.00     0.071 A 
BRANCH   9  11
HETATM   11  C   UNL     1      -4.264   7.556 -27.250  1.00  0.00    -0.005 A 
HETATM   12  C   UNL     1      -4.128   8.914 -27.561  1.00  0.00     0.016 A 
HETATM   13  C   UNL     1      -3.091   9.671 -27.002  1.00  0.00     0.037 A 
HETATM   14  C   UNL     1      -2.174   9.091 -26.124  1.00  0.00     0.068 A 
HETATM   15  C   UNL     1      -2.295   7.739 -25.814  1.00  0.00     0.037 A 
HETATM   16  C   UNL     1      -3.331   6.980 -26.374  1.00  0.00     0.016 A 
BRANCH  14  17
HETATM   17  O   UNL     1      -1.218   9.945 -25.649  1.00  0.00    -0.356 OA
HETATM   18  C   UNL     1      -0.769   9.727 -24.317  1.00  0.00     0.210 C 
ENDBRANCH  14  17
ENDBRANCH   9  11
ENDBRANCH   1   5
BRANCH   2  19
HETATM   19  N   UNL     1      -7.468   1.852 -30.053  1.00  0.00    -0.267 N 
HETATM   20  C   UNL     1      -6.517   0.907 -30.362  1.00  0.00     0.240 C 
HETATM   21  O   UNL     1      -5.395   0.890 -29.863  1.00  0.00    -0.271 OA
HETATM   22  H   UNL     1      -8.337   1.958 -30.572  1.00  0.00     0.190 HD
BRANCH  20  23
HETATM   23  C   UNL     1      -6.941  -0.089 -31.382  1.00  0.00     0.089 A 
HETATM   24  C   UNL     1      -6.343  -0.031 -32.780  1.00  0.00     0.034 A 
HETATM   25  C   UNL     1      -7.790   0.342 -32.548  1.00  0.00     0.025 A 
BRANCH  24  26
HETATM   26  C   UNL     1      -5.981  -1.317 -33.499  1.00  0.00    -0.031 A 
HETATM   27  C   UNL     1      -4.666  -1.822 -33.556  1.00  0.00     0.040 A 
HETATM   28 CL   UNL     1      -3.359  -0.990 -32.783  1.00  0.00    -0.084 Cl
HETATM   29  C   UNL     1      -4.362  -3.004 -34.242  1.00  0.00     0.024 A 
HETATM   30  C   UNL     1      -5.368  -3.709 -34.898  1.00  0.00     0.002 A 
HETATM   31  C   UNL     1      -6.673  -3.228 -34.874  1.00  0.00     0.001 A 
HETATM   32  C   UNL     1      -6.970  -2.047 -34.190  1.00  0.00     0.009 A 
ENDBRANCH  24  26
ENDBRANCH  20  23
ENDBRANCH   2  19
TORSDOF 6
ENDMDL
MODEL 7
REMARK VINA RESULT:      -7.8      8.174     12.288
REMARK  6 active torsions:
REMARK  status: ('A' for Active; 'I' for Inactive)
REMARK    1  A    between atoms: O_2  and  C_3 
REMARK    2  A    between atoms: C_6  and  C_7 
REMARK    3  A    between atoms: C_11  and  C_12 
REMARK       I    between atoms: C_12  and  N_13 
REMARK    4  A    between atoms: N_13  and  N_14 
REMARK       I    between atoms: N_14  and  C_15 
REMARK    5  A    between atoms: C_15  and  C_16 
REMARK    6  A    between atoms: C_17  and  C_18 
ROOT
HETATM    1  C   UNL     1     -12.213   1.410 -33.663  1.00  0.00     0.288 C 
HETATM    2  N   UNL     1     -11.210   0.956 -32.831  1.00  0.00    -0.262 N 
HETATM    3  O   UNL     1     -12.274   1.079 -34.846  1.00  0.00    -0.264 OA
HETATM    4  H   UNL     1     -11.034   1.356 -31.912  1.00  0.00     0.190 HD
ENDROOT
BRANCH   1   5
HETATM    5  C   UNL     1     -13.165   2.301 -33.060  1.00  0.00     0.121 A 
HETATM    6  N   UNL     1     -14.298   1.835 -32.457  1.00  0.00    -0.272 N 
HETATM    7  N   UNL     1     -15.090   2.792 -31.955  1.00  0.00    -0.174 NA
HETATM    8  H   UNL     1     -14.584   0.864 -32.365  1.00  0.00     0.189 HD
HETATM    9  C   UNL     1     -14.445   3.941 -32.217  1.00  0.00     0.089 A 
HETATM   10  C   UNL     1     -13.232   3.672 -32.915  1.00  0.00     0.071 A 
BRANCH   9  11
HETATM   11  C   UNL     1     -14.994   5.241 -31.810  1.00  0.00    -0.005 A 
HETATM   12  C   UNL     1     -14.783   5.750 -30.523  1.00  0.00     0.016 A 
HETATM   13  C   UNL     1     -15.307   6.996 -30.157  1.00  0.00     0.037 A 
HETATM   14  C   UNL     1     -16.048   7.756 -31.064  1.00  0.00     0.068 A 
HETATM   15  C   UNL     1     -16.272   7.254 -32.343  1.00  0.00     0.037 A 
HETATM   16  C   UNL     1     -15.749   6.007 -32.711  1.00  0.00     0.016 A 
BRANCH  14  17
HETATM   17  O   UNL     1     -16.496   8.952 -30.577  1.00  0.00    -0.356 OA
HETATM   18  C   UNL     1     -15.779   9.507 -29.482  1.00  0.00     0.210 C 
ENDBRANCH  14  17
ENDBRANCH   9  11
ENDBRANCH   1   5
BRANCH   2  19
HETATM   19  N   UNL     1     -10.152   0.230 -33.396  1.00  0.00    -0.267 N 
HETATM   20  C   UNL     1      -9.061   0.933 -33.855  1.00  0.00     0.240 C 
HETATM   21  O   UNL     1      -8.911   2.138 -33.679  1.00  0.00    -0.271 OA
HETATM   22  H   UNL     1     -10.350  -0.730 -33.669  1.00  0.00     0.190 HD
BRANCH  20  23
HETATM   23  C   UNL     1      -8.076   0.120 -34.617  1.00  0.00     0.089 A 
HETATM   24  C   UNL     1      -6.790  -0.331 -33.939  1.00  0.00     0.034 A 
HETATM   25  C   UNL     1      -6.757   0.721 -35.025  1.00  0.00     0.025 A 
BRANCH  24  26
HETATM   26  C   UNL     1      -6.251  -1.725 -34.196  1.00  0.00    -0.031 A 
HETATM   27  C   UNL     1      -4.889  -2.062 -34.049  1.00  0.00     0.040 A 
HETATM   28 CL   UNL     1      -3.730  -0.879 -33.548  1.00  0.00    -0.084 Cl
HETATM   29  C   UNL     1      -4.421  -3.355 -34.309  1.00  0.00     0.024 A 
HETATM   30  C   UNL     1      -5.303  -4.346 -34.733  1.00  0.00     0.002 A 
HETATM   31  C   UNL     1      -6.649  -4.041 -34.903  1.00  0.00     0.001 A 
HETATM   32  C   UNL     1      -7.111  -2.748 -34.643  1.00  0.00     0.009 A 
ENDBRANCH  24  26
ENDBRANCH  20  23
ENDBRANCH   2  19
TORSDOF 6
ENDMDL
MODEL 8
REMARK VINA RESULT:      -7.7      6.048     13.224
REMARK  6 active torsions:
REMARK  status: ('A' for Active; 'I' for Inactive)
REMARK    1  A    between atoms: O_2  and  C_3 
REMARK    2  A    between atoms: C_6  and  C_7 
REMARK    3  A    between atoms: C_11  and  C_12 
REMARK       I    between atoms: C_12  and  N_13 
REMARK    4  A    between atoms: N_13  and  N_14 
REMARK       I    between atoms: N_14  and  C_15 
REMARK    5  A    between atoms: C_15  and  C_16 
REMARK    6  A    between atoms: C_17  and  C_18 
ROOT
HETATM    1  C   UNL     1       1.041   9.268 -26.896  1.00  0.00     0.288 C 
HETATM    2  N   UNL     1       1.424   8.122 -27.563  1.00  0.00    -0.262 N 
HETATM    3  O   UNL     1       0.126   9.981 -27.305  1.00  0.00    -0.264 OA
HETATM    4  H   UNL     1       2.285   7.624 -27.350  1.00  0.00     0.190 HD
ENDROOT
BRANCH   1   5
HETATM    5  C   UNL     1       1.788   9.574 -25.707  1.00  0.00     0.121 A 
HETATM    6  N   UNL     1       1.936  10.858 -25.267  1.00  0.00    -0.272 N 
HETATM    7  N   UNL     1       2.671  10.978 -24.152  1.00  0.00    -0.174 NA
HETATM    8  H   UNL     1       1.557  11.697 -25.696  1.00  0.00     0.189 HD
HETATM    9  C   UNL     1       3.007   9.718 -23.828  1.00  0.00     0.089 A 
HETATM   10  C   UNL     1       2.473   8.808 -24.785  1.00  0.00     0.071 A 
BRANCH   9  11
HETATM   11  C   UNL     1       3.819   9.421 -22.641  1.00  0.00    -0.005 A 
HETATM   12  C   UNL     1       3.865   8.134 -22.093  1.00  0.00     0.016 A 
HETATM   13  C   UNL     1       4.652   7.868 -20.966  1.00  0.00     0.037 A 
HETATM   14  C   UNL     1       5.409   8.877 -20.367  1.00  0.00     0.068 A 
HETATM   15  C   UNL     1       5.364  10.163 -20.899  1.00  0.00     0.037 A 
HETATM   16  C   UNL     1       4.575  10.430 -22.026  1.00  0.00     0.016 A 
BRANCH  14  17
HETATM   17  O   UNL     1       6.135   8.479 -19.279  1.00  0.00    -0.356 OA
HETATM   18  C   UNL     1       7.379   9.134 -19.066  1.00  0.00     0.210 C 
ENDBRANCH  14  17
ENDBRANCH   9  11
ENDBRANCH   1   5
BRANCH   2  19
HETATM   19  N   UNL     1       0.860   7.862 -28.820  1.00  0.00    -0.267 N 
HETATM   20  C   UNL     1       0.542   6.559 -29.127  1.00  0.00     0.240 C 
HETATM   21  O   UNL     1       0.607   5.639 -28.317  1.00  0.00    -0.271 OA
HETATM   22  H   UNL     1       0.952   8.593 -29.522  1.00  0.00     0.190 HD
BRANCH  20  23
HETATM   23  C   UNL     1       0.139   6.336 -30.542  1.00  0.00     0.089 A 
HETATM   24  C   UNL     1      -0.788   5.179 -30.884  1.00  0.00     0.034 A 
HETATM   25  C   UNL     1       0.667   5.145 -31.297  1.00  0.00     0.025 A 
BRANCH  24  26
HETATM   26  C   UNL     1      -1.882   5.369 -31.918  1.00  0.00    -0.031 A 
HETATM   27  C   UNL     1      -3.133   5.945 -31.616  1.00  0.00     0.040 A 
HETATM   28 CL   UNL     1      -3.498   6.489 -30.014  1.00  0.00    -0.084 Cl
HETATM   29  C   UNL     1      -4.128   6.093 -32.590  1.00  0.00     0.024 A 
HETATM   30  C   UNL     1      -3.899   5.658 -33.893  1.00  0.00     0.002 A 
HETATM   31  C   UNL     1      -2.681   5.071 -34.218  1.00  0.00     0.001 A 
HETATM   32  C   UNL     1      -1.692   4.925 -33.242  1.00  0.00     0.009 A 
ENDBRANCH  24  26
ENDBRANCH  20  23
ENDBRANCH   2  19
TORSDOF 6
ENDMDL
MODEL 9
REMARK VINA RESULT:      -7.6      3.139     11.294
REMARK  6 active torsions:
REMARK  status: ('A' for Active; 'I' for Inactive)
REMARK    1  A    between atoms: O_2  and  C_3 
REMARK    2  A    between atoms: C_6  and  C_7 
REMARK    3  A    between atoms: C_11  and  C_12 
REMARK       I    between atoms: C_12  and  N_13 
REMARK    4  A    between atoms: N_13  and  N_14 
REMARK       I    between atoms: N_14  and  C_15 
REMARK    5  A    between atoms: C_15  and  C_16 
REMARK    6  A    between atoms: C_17  and  C_18 
ROOT
HETATM    1  C   UNL     1      -4.028   6.478 -30.753  1.00  0.00     0.288 C 
HETATM    2  N   UNL     1      -5.228   5.932 -30.347  1.00  0.00    -0.262 N 
HETATM    3  O   UNL     1      -3.648   6.413 -31.921  1.00  0.00    -0.264 OA
HETATM    4  H   UNL     1      -5.475   5.811 -29.367  1.00  0.00     0.190 HD
ENDROOT
BRANCH   1   5
HETATM    5  C   UNL     1      -3.253   7.111 -29.722  1.00  0.00     0.121 A 
HETATM    6  N   UNL     1      -3.828   7.942 -28.803  1.00  0.00    -0.272 N 
HETATM    7  N   UNL     1      -2.969   8.463 -27.917  1.00  0.00    -0.174 NA
HETATM    8  H   UNL     1      -4.810   8.193 -28.739  1.00  0.00     0.189 HD
HETATM    9  C   UNL     1      -1.776   7.939 -28.248  1.00  0.00     0.089 A 
HETATM   10  C   UNL     1      -1.915   7.087 -29.381  1.00  0.00     0.071 A 
BRANCH   9  11
HETATM   11  C   UNL     1      -0.559   8.265 -27.495  1.00  0.00    -0.005 A 
HETATM   12  C   UNL     1      -0.601   8.530 -26.121  1.00  0.00     0.016 A 
HETATM   13  C   UNL     1       0.572   8.830 -25.417  1.00  0.00     0.037 A 
HETATM   14  C   UNL     1       1.806   8.868 -26.068  1.00  0.00     0.068 A 
HETATM   15  C   UNL     1       1.859   8.615 -27.437  1.00  0.00     0.037 A 
HETATM   16  C   UNL     1       0.685   8.316 -28.141  1.00  0.00     0.016 A 
BRANCH  14  17
HETATM   17  O   UNL     1       2.870   9.168 -25.263  1.00  0.00    -0.356 OA
HETATM   18  C   UNL     1       2.780   8.756 -23.904  1.00  0.00     0.210 C 
ENDBRANCH  14  17
ENDBRANCH   9  11
ENDBRANCH   1   5
BRANCH   2  19
HETATM   19  N   UNL     1      -5.947   5.147 -31.260  1.00  0.00    -0.267 N 
HETATM   20  C   UNL     1      -5.929   3.781 -31.092  1.00  0.00     0.240 C 
HETATM   21  O   UNL     1      -5.428   3.228 -30.117  1.00  0.00    -0.271 OA
HETATM   22  H   UNL     1      -6.223   5.597 -32.130  1.00  0.00     0.190 HD
BRANCH  20  23
HETATM   23  C   UNL     1      -6.542   3.011 -32.207  1.00  0.00     0.089 A 
HETATM   24  C   UNL     1      -5.645   2.279 -33.194  1.00  0.00     0.034 A 
HETATM   25  C   UNL     1      -6.417   3.507 -33.622  1.00  0.00     0.025 A 
BRANCH  24  26
HETATM   26  C   UNL     1      -6.041   0.902 -33.695  1.00  0.00    -0.031 A 
HETATM   27  C   UNL     1      -5.429  -0.285 -33.243  1.00  0.00     0.040 A 
HETATM   28 CL   UNL     1      -4.168  -0.241 -32.057  1.00  0.00    -0.084 Cl
HETATM   29  C   UNL     1      -5.807  -1.540 -33.736  1.00  0.00     0.024 A 
HETATM   30  C   UNL     1      -6.803  -1.638 -34.704  1.00  0.00     0.002 A 
HETATM   31  C   UNL     1      -7.414  -0.484 -35.182  1.00  0.00     0.001 A 
HETATM   32  C   UNL     1      -7.032   0.766 -34.687  1.00  0.00     0.009 A 
ENDBRANCH  24  26
ENDBRANCH  20  23
ENDBRANCH   2  19
TORSDOF 6
ENDMDL
MODEL 10
REMARK VINA RESULT:      -7.6      3.376      4.165
REMARK  6 active torsions:
REMARK  status: ('A' for Active; 'I' for Inactive)
REMARK    1  A    between atoms: O_2  and  C_3 
REMARK    2  A    between atoms: C_6  and  C_7 
REMARK    3  A    between atoms: C_11  and  C_12 
REMARK       I    between atoms: C_12  and  N_13 
REMARK    4  A    between atoms: N_13  and  N_14 
REMARK       I    between atoms: N_14  and  C_15 
REMARK    5  A    between atoms: C_15  and  C_16 
REMARK    6  A    between atoms: C_17  and  C_18 
ROOT
HETATM    1  C   UNL     1      -5.079   4.888 -30.919  1.00  0.00     0.288 C 
HETATM    2  N   UNL     1      -3.813   4.782 -31.458  1.00  0.00    -0.262 N 
HETATM    3  O   UNL     1      -5.326   5.656 -29.990  1.00  0.00    -0.264 OA
HETATM    4  H   UNL     1      -3.546   4.032 -32.091  1.00  0.00     0.190 HD
ENDROOT
BRANCH   1   5
HETATM    5  C   UNL     1      -6.077   4.037 -31.505  1.00  0.00     0.121 A 
HETATM    6  N   UNL     1      -5.781   2.772 -31.926  1.00  0.00    -0.272 N 
HETATM    7  N   UNL     1      -6.817   2.112 -32.462  1.00  0.00    -0.174 NA
HETATM    8  H   UNL     1      -4.879   2.308 -31.874  1.00  0.00     0.189 HD
HETATM    9  C   UNL     1      -7.850   2.968 -32.374  1.00  0.00     0.089 A 
HETATM   10  C   UNL     1      -7.421   4.191 -31.781  1.00  0.00     0.071 A 
BRANCH   9  11
HETATM   11  C   UNL     1      -9.189   2.607 -32.855  1.00  0.00    -0.005 A 
HETATM   12  C   UNL     1     -10.318   3.352 -32.493  1.00  0.00     0.016 A 
HETATM   13  C   UNL     1     -11.587   2.998 -32.969  1.00  0.00     0.037 A 
HETATM   14  C   UNL     1     -11.753   1.900 -33.815  1.00  0.00     0.068 A 
HETATM   15  C   UNL     1     -10.638   1.147 -34.175  1.00  0.00     0.037 A 
HETATM   16  C   UNL     1      -9.368   1.500 -33.697  1.00  0.00     0.016 A 
BRANCH  14  17
HETATM   17  O   UNL     1     -13.041   1.670 -34.209  1.00  0.00    -0.356 OA
HETATM   18  C   UNL     1     -14.047   1.780 -33.209  1.00  0.00     0.210 C 
ENDBRANCH  14  17
ENDBRANCH   9  11
ENDBRANCH   1   5
BRANCH   2  19
HETATM   19  N   UNL     1      -2.758   5.448 -30.818  1.00  0.00    -0.267 N 
HETATM   20  C   UNL     1      -1.476   5.186 -31.244  1.00  0.00     0.240 C 
HETATM   21  O   UNL     1      -1.220   4.502 -32.232  1.00  0.00    -0.271 OA
HETATM   22  H   UNL     1      -2.969   5.883 -29.922  1.00  0.00     0.190 HD
BRANCH  20  23
HETATM   23  C   UNL     1      -0.407   5.771 -30.392  1.00  0.00     0.089 A 
HETATM   24  C   UNL     1      -0.444   7.255 -30.058  1.00  0.00     0.034 A 
HETATM   25  C   UNL     1       0.609   6.705 -30.994  1.00  0.00     0.025 A 
BRANCH  24  26
HETATM   26  C   UNL     1      -0.071   7.724 -28.664  1.00  0.00    -0.031 A 
HETATM   27  C   UNL     1      -1.003   7.821 -27.611  1.00  0.00     0.040 A 
HETATM   28 CL   UNL     1      -2.664   7.394 -27.851  1.00  0.00    -0.084 Cl
HETATM   29  C   UNL     1      -0.630   8.272 -26.339  1.00  0.00     0.024 A 
HETATM   30  C   UNL     1       0.688   8.647 -26.090  1.00  0.00     0.002 A 
HETATM   31  C   UNL     1       1.627   8.578 -27.112  1.00  0.00     0.001 A 
HETATM   32  C   UNL     1       1.249   8.129 -28.380  1.00  0.00     0.009 A 
ENDBRANCH  24  26
ENDBRANCH  20  23
ENDBRANCH   2  19
TORSDOF 6
ENDMDL
