MODEL 1
REMARK VINA RESULT:      -9.1      0.000      0.000
REMARK  6 active torsions:
REMARK  status: ('A' for Active; 'I' for Inactive)
REMARK    1  A    between atoms: C_3  and  C_4 
REMARK    2  A    between atoms: C_4  and  N_5 
REMARK    3  A    between atoms: C_4  and  C_9 
REMARK       I    between atoms: N_5  and  C_6 
REMARK       I    between atoms: C_6  and  N_7 
REMARK    4  A    between atoms: C_9  and  C_10 
REMARK       I    between atoms: C_10  and  N_11 
REMARK    5  A    between atoms: N_11  and  N_12 
REMARK       I    between atoms: N_12  and  C_13 
REMARK    6  A    between atoms: C_13  and  C_14 
ROOT
HETATM    1  C   UNL     1      -3.825   3.682 -32.111  1.00  0.00     0.238 C 
HETATM    2  N   UNL     1      -3.470   2.495 -31.514  1.00  0.00    -0.267 N 
HETATM    3  O   UNL     1      -4.330   3.720 -33.232  1.00  0.00    -0.272 OA
HETATM    4  H   UNL     1      -3.004   2.401 -30.613  1.00  0.00     0.190 HD
ENDROOT
BRANCH   1   5
HETATM    5  C   UNL     1      -3.526   4.922 -31.303  1.00  0.00     0.134 C 
BRANCH   5   6
HETATM    6  C   UNL     1      -2.383   5.759 -31.897  1.00  0.00     0.129 C 
BRANCH   6   7
HETATM    7  C   UNL     1      -1.315   6.097 -30.863  1.00  0.00    -0.013 A 
HETATM    8  C   UNL     1      -0.450   5.100 -30.368  1.00  0.00     0.011 A 
HETATM    9  C   UNL     1       0.514   5.390 -29.398  1.00  0.00     0.001 A 
HETATM   10  C   UNL     1       0.636   6.682 -28.898  1.00  0.00     0.002 A 
HETATM   11  C   UNL     1      -0.214   7.682 -29.361  1.00  0.00     0.024 A 
HETATM   12  C   UNL     1      -1.186   7.395 -30.327  1.00  0.00     0.042 A 
HETATM   13 CL   UNL     1      -2.219   8.700 -30.798  1.00  0.00    -0.084 Cl
ENDBRANCH   6   7
BRANCH   6  14
HETATM   14  N   UNL     1      -1.819   5.173 -33.115  1.00  0.00    -0.339 N 
HETATM   15  C   UNL     1      -1.674   5.768 -34.320  1.00  0.00     0.292 C 
HETATM   16  N   UNL     1      -1.724   7.114 -34.354  1.00  0.00    -0.254 NA
HETATM   17  O   UNL     1      -1.508   5.117 -35.343  1.00  0.00    -0.254 OA
HETATM   18  H   UNL     1      -1.214   7.598 -33.631  1.00  0.00     0.128 HD
HETATM   19  H   UNL     1      -1.534   7.474 -35.282  1.00  0.00     0.128 HD
HETATM   20  H   UNL     1      -1.907   4.172 -33.237  1.00  0.00     0.164 HD
ENDBRANCH   6  14
ENDBRANCH   5   6
ENDBRANCH   1   5
BRANCH   2  21
HETATM   21  N   UNL     1      -3.766   1.314 -32.198  1.00  0.00    -0.263 N 
HETATM   22  C   UNL     1      -3.177   0.140 -31.778  1.00  0.00     0.270 C 
HETATM   23  O   UNL     1      -2.341   0.113 -30.877  1.00  0.00    -0.266 OA
HETATM   24  H   UNL     1      -4.418   1.402 -32.975  1.00  0.00     0.190 HD
BRANCH  22  25
HETATM   25  C   UNL     1      -3.592  -1.113 -32.474  1.00  0.00     0.036 A 
HETATM   26  C   UNL     1      -4.515  -1.115 -33.531  1.00  0.00     0.057 A 
HETATM   27  C   UNL     1      -4.847  -2.333 -34.090  1.00  0.00     0.106 A 
HETATM   28  C   UNL     1      -4.311  -3.517 -33.640  1.00  0.00     0.105 A 
HETATM   29  O   UNL     1      -5.724  -2.518 -35.113  1.00  0.00    -0.323 OA
HETATM   30  O   UNL     1      -4.781  -4.593 -34.325  1.00  0.00    -0.323 OA
HETATM   31  C   UNL     1      -3.409  -3.553 -32.600  1.00  0.00     0.041 A 
HETATM   32  C   UNL     1      -5.682  -3.954 -35.254  1.00  0.00     0.352 A 
HETATM   33  C   UNL     1      -3.049  -2.335 -32.012  1.00  0.00     0.020 A 
ENDBRANCH  22  25
ENDBRANCH   2  21
TORSDOF 6
ENDMDL
MODEL 2
REMARK VINA RESULT:      -9.0      1.292      1.936
REMARK  6 active torsions:
REMARK  status: ('A' for Active; 'I' for Inactive)
REMARK    1  A    between atoms: C_3  and  C_4 
REMARK    2  A    between atoms: C_4  and  N_5 
REMARK    3  A    between atoms: C_4  and  C_9 
REMARK       I    between atoms: N_5  and  C_6 
REMARK       I    between atoms: C_6  and  N_7 
REMARK    4  A    between atoms: C_9  and  C_10 
REMARK       I    between atoms: C_10  and  N_11 
REMARK    5  A    between atoms: N_11  and  N_12 
REMARK       I    between atoms: N_12  and  C_13 
REMARK    6  A    between atoms: C_13  and  C_14 
ROOT
HETATM    1  C   UNL     1      -3.502   3.585 -31.621  1.00  0.00     0.238 C 
HETATM    2  N   UNL     1      -4.540   3.071 -32.363  1.00  0.00    -0.267 N 
HETATM    3  O   UNL     1      -2.577   2.878 -31.223  1.00  0.00    -0.272 OA
HETATM    4  H   UNL     1      -5.356   3.593 -32.679  1.00  0.00     0.190 HD
ENDROOT
BRANCH   1   5
HETATM    5  C   UNL     1      -3.597   5.061 -31.317  1.00  0.00     0.134 C 
BRANCH   5   6
HETATM    6  C   UNL     1      -2.412   5.862 -31.876  1.00  0.00     0.129 C 
BRANCH   6   7
HETATM    7  C   UNL     1      -1.379   6.192 -30.804  1.00  0.00    -0.013 A 
HETATM    8  C   UNL     1      -0.304   5.317 -30.546  1.00  0.00     0.011 A 
HETATM    9  C   UNL     1       0.634   5.592 -29.547  1.00  0.00     0.001 A 
HETATM   10  C   UNL     1       0.519   6.746 -28.779  1.00  0.00     0.002 A 
HETATM   11  C   UNL     1      -0.540   7.621 -29.006  1.00  0.00     0.024 A 
HETATM   12  C   UNL     1      -1.485   7.345 -30.001  1.00  0.00     0.042 A 
HETATM   13 CL   UNL     1      -2.786   8.474 -30.167  1.00  0.00    -0.084 Cl
ENDBRANCH   6   7
BRANCH   6  14
HETATM   14  N   UNL     1      -1.813   5.245 -33.061  1.00  0.00    -0.339 N 
HETATM   15  C   UNL     1      -1.657   5.799 -34.284  1.00  0.00     0.292 C 
HETATM   16  N   UNL     1      -1.735   7.142 -34.368  1.00  0.00    -0.254 NA
HETATM   17  O   UNL     1      -1.459   5.116 -35.280  1.00  0.00    -0.254 OA
HETATM   18  H   UNL     1      -1.249   7.662 -33.654  1.00  0.00     0.128 HD
HETATM   19  H   UNL     1      -1.535   7.472 -35.305  1.00  0.00     0.128 HD
HETATM   20  H   UNL     1      -1.878   4.238 -33.148  1.00  0.00     0.164 HD
ENDBRANCH   6  14
ENDBRANCH   5   6
ENDBRANCH   1   5
BRANCH   2  21
HETATM   21  N   UNL     1      -4.478   1.721 -32.713  1.00  0.00    -0.263 N 
HETATM   22  C   UNL     1      -5.654   1.048 -32.967  1.00  0.00     0.270 C 
HETATM   23  O   UNL     1      -6.755   1.575 -32.817  1.00  0.00    -0.266 OA
HETATM   24  H   UNL     1      -3.545   1.318 -32.764  1.00  0.00     0.190 HD
BRANCH  22  25
HETATM   25  C   UNL     1      -5.541  -0.366 -33.429  1.00  0.00     0.036 A 
HETATM   26  C   UNL     1      -4.497  -1.210 -33.016  1.00  0.00     0.057 A 
HETATM   27  C   UNL     1      -4.473  -2.494 -33.522  1.00  0.00     0.106 A 
HETATM   28  C   UNL     1      -5.422  -2.952 -34.405  1.00  0.00     0.105 A 
HETATM   29  O   UNL     1      -3.536  -3.437 -33.234  1.00  0.00    -0.323 OA
HETATM   30  O   UNL     1      -5.203  -4.240 -34.781  1.00  0.00    -0.323 OA
HETATM   31  C   UNL     1      -6.454  -2.150 -34.838  1.00  0.00     0.041 A 
HETATM   32  C   UNL     1      -4.001  -4.540 -34.039  1.00  0.00     0.352 A 
HETATM   33  C   UNL     1      -6.509  -0.842 -34.343  1.00  0.00     0.020 A 
ENDBRANCH  22  25
ENDBRANCH   2  21
TORSDOF 6
ENDMDL
MODEL 3
REMARK VINA RESULT:      -8.5      6.781      9.069
REMARK  6 active torsions:
REMARK  status: ('A' for Active; 'I' for Inactive)
REMARK    1  A    between atoms: C_3  and  C_4 
REMARK    2  A    between atoms: C_4  and  N_5 
REMARK    3  A    between atoms: C_4  and  C_9 
REMARK       I    between atoms: N_5  and  C_6 
REMARK       I    between atoms: C_6  and  N_7 
REMARK    4  A    between atoms: C_9  and  C_10 
REMARK       I    between atoms: C_10  and  N_11 
REMARK    5  A    between atoms: N_11  and  N_12 
REMARK       I    between atoms: N_12  and  C_13 
REMARK    6  A    between atoms: C_13  and  C_14 
ROOT
HETATM    1  C   UNL     1     -10.293   1.348 -34.187  1.00  0.00     0.238 C 
HETATM    2  N   UNL     1      -9.155   1.338 -34.959  1.00  0.00    -0.267 N 
HETATM    3  O   UNL     1     -10.594   0.401 -33.461  1.00  0.00    -0.272 OA
HETATM    4  H   UNL     1      -8.878   2.066 -35.615  1.00  0.00     0.190 HD
ENDROOT
BRANCH   1   5
HETATM    5  C   UNL     1     -11.146   2.587 -34.316  1.00  0.00     0.134 C 
BRANCH   5   6
HETATM    6  C   UNL     1     -11.706   3.068 -32.969  1.00  0.00     0.129 C 
BRANCH   6   7
HETATM    7  C   UNL     1     -13.178   2.709 -32.792  1.00  0.00    -0.013 A 
HETATM    8  C   UNL     1     -13.762   1.674 -33.549  1.00  0.00     0.011 A 
HETATM    9  C   UNL     1     -15.117   1.354 -33.419  1.00  0.00     0.001 A 
HETATM   10  C   UNL     1     -15.920   2.061 -32.531  1.00  0.00     0.002 A 
HETATM   11  C   UNL     1     -15.369   3.096 -31.780  1.00  0.00     0.024 A 
HETATM   12  C   UNL     1     -14.015   3.425 -31.912  1.00  0.00     0.042 A 
HETATM   13 CL   UNL     1     -13.445   4.757 -30.967  1.00  0.00    -0.084 Cl
ENDBRANCH   6   7
BRANCH   6  14
HETATM   14  N   UNL     1     -10.886   2.653 -31.829  1.00  0.00    -0.339 N 
HETATM   15  C   UNL     1      -9.939   3.378 -31.193  1.00  0.00     0.292 C 
HETATM   16  N   UNL     1      -9.960   4.714 -31.372  1.00  0.00    -0.254 NA
HETATM   17  O   UNL     1      -9.092   2.850 -30.485  1.00  0.00    -0.254 OA
HETATM   18  H   UNL     1     -10.865   5.156 -31.330  1.00  0.00     0.128 HD
HETATM   19  H   UNL     1      -9.262   5.180 -30.804  1.00  0.00     0.128 HD
HETATM   20  H   UNL     1     -10.682   1.666 -31.733  1.00  0.00     0.164 HD
ENDBRANCH   6  14
ENDBRANCH   5   6
ENDBRANCH   1   5
BRANCH   2  21
HETATM   21  N   UNL     1      -8.305   0.236 -34.842  1.00  0.00    -0.263 N 
HETATM   22  C   UNL     1      -6.976   0.454 -34.547  1.00  0.00     0.270 C 
HETATM   23  O   UNL     1      -6.500   1.585 -34.464  1.00  0.00    -0.266 OA
HETATM   24  H   UNL     1      -8.737  -0.675 -34.981  1.00  0.00     0.190 HD
BRANCH  22  25
HETATM   25  C   UNL     1      -6.121  -0.752 -34.338  1.00  0.00     0.036 A 
HETATM   26  C   UNL     1      -6.502  -2.029 -34.782  1.00  0.00     0.057 A 
HETATM   27  C   UNL     1      -5.648  -3.080 -34.516  1.00  0.00     0.106 A 
HETATM   28  C   UNL     1      -4.465  -2.910 -33.837  1.00  0.00     0.105 A 
HETATM   29  O   UNL     1      -5.862  -4.377 -34.867  1.00  0.00    -0.323 OA
HETATM   30  O   UNL     1      -3.785  -4.077 -33.678  1.00  0.00    -0.323 OA
HETATM   31  C   UNL     1      -4.064  -1.674 -33.380  1.00  0.00     0.041 A 
HETATM   32  C   UNL     1      -4.680  -5.005 -34.328  1.00  0.00     0.352 A 
HETATM   33  C   UNL     1      -4.906  -0.586 -33.634  1.00  0.00     0.020 A 
ENDBRANCH  22  25
ENDBRANCH   2  21
TORSDOF 6
ENDMDL
MODEL 4
REMARK VINA RESULT:      -8.4      1.408      2.194
REMARK  6 active torsions:
REMARK  status: ('A' for Active; 'I' for Inactive)
REMARK    1  A    between atoms: C_3  and  C_4 
REMARK    2  A    between atoms: C_4  and  N_5 
REMARK    3  A    between atoms: C_4  and  C_9 
REMARK       I    between atoms: N_5  and  C_6 
REMARK       I    between atoms: C_6  and  N_7 
REMARK    4  A    between atoms: C_9  and  C_10 
REMARK       I    between atoms: C_10  and  N_11 
REMARK    5  A    between atoms: N_11  and  N_12 
REMARK       I    between atoms: N_12  and  C_13 
REMARK    6  A    between atoms: C_13  and  C_14 
ROOT
HETATM    1  C   UNL     1      -3.601   3.337 -32.228  1.00  0.00     0.238 C 
HETATM    2  N   UNL     1      -3.587   2.036 -31.781  1.00  0.00    -0.267 N 
HETATM    3  O   UNL     1      -4.205   3.666 -33.248  1.00  0.00    -0.272 OA
HETATM    4  H   UNL     1      -3.068   1.693 -30.975  1.00  0.00     0.190 HD
ENDROOT
BRANCH   1   5
HETATM    5  C   UNL     1      -2.807   4.312 -31.393  1.00  0.00     0.134 C 
BRANCH   5   6
HETATM    6  C   UNL     1      -2.569   5.651 -32.107  1.00  0.00     0.129 C 
BRANCH   6   7
HETATM    7  C   UNL     1      -2.208   6.769 -31.135  1.00  0.00    -0.013 A 
HETATM    8  C   UNL     1      -2.998   7.934 -31.052  1.00  0.00     0.011 A 
HETATM    9  C   UNL     1      -2.662   8.980 -30.188  1.00  0.00     0.001 A 
HETATM   10  C   UNL     1      -1.529   8.889 -29.387  1.00  0.00     0.002 A 
HETATM   11  C   UNL     1      -0.725   7.754 -29.459  1.00  0.00     0.024 A 
HETATM   12  C   UNL     1      -1.054   6.708 -30.328  1.00  0.00     0.042 A 
HETATM   13 CL   UNL     1       0.038   5.365 -30.372  1.00  0.00    -0.084 Cl
ENDBRANCH   6   7
BRANCH   6  14
HETATM   14  N   UNL     1      -1.622   5.546 -33.219  1.00  0.00    -0.339 N 
HETATM   15  C   UNL     1      -1.903   5.574 -34.541  1.00  0.00     0.292 C 
HETATM   16  N   UNL     1      -3.097   6.080 -34.908  1.00  0.00    -0.254 NA
HETATM   17  O   UNL     1      -1.113   5.153 -35.376  1.00  0.00    -0.254 OA
HETATM   18  H   UNL     1      -3.384   6.928 -34.444  1.00  0.00     0.128 HD
HETATM   19  H   UNL     1      -3.192   6.127 -35.916  1.00  0.00     0.128 HD
HETATM   20  H   UNL     1      -0.772   5.020 -33.062  1.00  0.00     0.164 HD
ENDBRANCH   6  14
ENDBRANCH   5   6
ENDBRANCH   1   5
BRANCH   2  21
HETATM   21  N   UNL     1      -4.345   1.101 -32.490  1.00  0.00    -0.263 N 
HETATM   22  C   UNL     1      -3.791  -0.134 -32.756  1.00  0.00     0.270 C 
HETATM   23  O   UNL     1      -2.630  -0.408 -32.461  1.00  0.00    -0.266 OA
HETATM   24  H   UNL     1      -5.278   1.401 -32.764  1.00  0.00     0.190 HD
BRANCH  22  25
HETATM   25  C   UNL     1      -4.666  -1.137 -33.432  1.00  0.00     0.036 A 
HETATM   26  C   UNL     1      -4.258  -2.462 -33.651  1.00  0.00     0.057 A 
HETATM   27  C   UNL     1      -5.136  -3.303 -34.307  1.00  0.00     0.106 A 
HETATM   28  C   UNL     1      -6.367  -2.878 -34.746  1.00  0.00     0.105 A 
HETATM   29  O   UNL     1      -4.902  -4.609 -34.605  1.00  0.00    -0.323 OA
HETATM   30  O   UNL     1      -7.063  -3.863 -35.372  1.00  0.00    -0.323 OA
HETATM   31  C   UNL     1      -6.796  -1.583 -34.556  1.00  0.00     0.041 A 
HETATM   32  C   UNL     1      -6.125  -4.957 -35.285  1.00  0.00     0.352 A 
HETATM   33  C   UNL     1      -5.931  -0.705 -33.893  1.00  0.00     0.020 A 
ENDBRANCH  22  25
ENDBRANCH   2  21
TORSDOF 6
ENDMDL
MODEL 5
REMARK VINA RESULT:      -8.4      8.103     10.566
REMARK  6 active torsions:
REMARK  status: ('A' for Active; 'I' for Inactive)
REMARK    1  A    between atoms: C_3  and  C_4 
REMARK    2  A    between atoms: C_4  and  N_5 
REMARK    3  A    between atoms: C_4  and  C_9 
REMARK       I    between atoms: N_5  and  C_6 
REMARK       I    between atoms: C_6  and  N_7 
REMARK    4  A    between atoms: C_9  and  C_10 
REMARK       I    between atoms: C_10  and  N_11 
REMARK    5  A    between atoms: N_11  and  N_12 
REMARK       I    between atoms: N_12  and  C_13 
REMARK    6  A    between atoms: C_13  and  C_14 
ROOT
HETATM    1  C   UNL     1      -9.746   0.594 -32.860  1.00  0.00     0.238 C 
HETATM    2  N   UNL     1     -10.946   0.565 -33.532  1.00  0.00    -0.267 N 
HETATM    3  O   UNL     1      -9.532   1.391 -31.948  1.00  0.00    -0.272 OA
HETATM    4  H   UNL     1     -11.166  -0.035 -34.325  1.00  0.00     0.190 HD
ENDROOT
BRANCH   1   5
HETATM    5  C   UNL     1      -8.717  -0.401 -33.340  1.00  0.00     0.134 C 
BRANCH   5   6
HETATM    6  C   UNL     1      -7.276   0.105 -33.171  1.00  0.00     0.129 C 
BRANCH   6   7
HETATM    7  C   UNL     1      -6.243  -0.953 -33.544  1.00  0.00    -0.013 A 
HETATM    8  C   UNL     1      -6.486  -1.856 -34.599  1.00  0.00     0.011 A 
HETATM    9  C   UNL     1      -5.561  -2.850 -34.932  1.00  0.00     0.001 A 
HETATM   10  C   UNL     1      -4.373  -2.966 -34.219  1.00  0.00     0.002 A 
HETATM   11  C   UNL     1      -4.114  -2.094 -33.165  1.00  0.00     0.024 A 
HETATM   12  C   UNL     1      -5.041  -1.102 -32.823  1.00  0.00     0.042 A 
HETATM   13 CL   UNL     1      -4.641  -0.102 -31.469  1.00  0.00    -0.084 Cl
ENDBRANCH   6   7
BRANCH   6  14
HETATM   14  N   UNL     1      -7.038   1.384 -33.844  1.00  0.00    -0.339 N 
HETATM   15  C   UNL     1      -6.896   2.599 -33.269  1.00  0.00     0.292 C 
HETATM   16  N   UNL     1      -6.603   2.630 -31.953  1.00  0.00    -0.254 NA
HETATM   17  O   UNL     1      -7.031   3.634 -33.908  1.00  0.00    -0.254 OA
HETATM   18  H   UNL     1      -5.900   1.979 -31.638  1.00  0.00     0.128 HD
HETATM   19  H   UNL     1      -6.444   3.575 -31.625  1.00  0.00     0.128 HD
HETATM   20  H   UNL     1      -7.393   1.491 -34.785  1.00  0.00     0.164 HD
ENDBRANCH   6  14
ENDBRANCH   5   6
ENDBRANCH   1   5
BRANCH   2  21
HETATM   21  N   UNL     1     -11.951   1.433 -33.097  1.00  0.00    -0.263 N 
HETATM   22  C   UNL     1     -13.251   1.187 -33.485  1.00  0.00     0.270 C 
HETATM   23  O   UNL     1     -13.542   0.280 -34.262  1.00  0.00    -0.266 OA
HETATM   24  H   UNL     1     -11.647   2.203 -32.506  1.00  0.00     0.190 HD
BRANCH  22  25
HETATM   25  C   UNL     1     -14.306   2.081 -32.924  1.00  0.00     0.036 A 
HETATM   26  C   UNL     1     -15.647   1.681 -32.810  1.00  0.00     0.057 A 
HETATM   27  C   UNL     1     -16.547   2.594 -32.299  1.00  0.00     0.106 A 
HETATM   28  C   UNL     1     -16.169   3.859 -31.914  1.00  0.00     0.105 A 
HETATM   29  O   UNL     1     -17.878   2.376 -32.126  1.00  0.00    -0.323 OA
HETATM   30  O   UNL     1     -17.214   4.593 -31.448  1.00  0.00    -0.323 OA
HETATM   31  C   UNL     1     -14.865   4.287 -32.019  1.00  0.00     0.041 A 
HETATM   32  C   UNL     1     -18.297   3.649 -31.592  1.00  0.00     0.352 A 
HETATM   33  C   UNL     1     -13.926   3.385 -32.532  1.00  0.00     0.020 A 
ENDBRANCH  22  25
ENDBRANCH   2  21
TORSDOF 6
ENDMDL
MODEL 6
REMARK VINA RESULT:      -8.3      5.389      9.781
REMARK  6 active torsions:
REMARK  status: ('A' for Active; 'I' for Inactive)
REMARK    1  A    between atoms: C_3  and  C_4 
REMARK    2  A    between atoms: C_4  and  N_5 
REMARK    3  A    between atoms: C_4  and  C_9 
REMARK       I    between atoms: N_5  and  C_6 
REMARK       I    between atoms: C_6  and  N_7 
REMARK    4  A    between atoms: C_9  and  C_10 
REMARK       I    between atoms: C_10  and  N_11 
REMARK    5  A    between atoms: N_11  and  N_12 
REMARK       I    between atoms: N_12  and  C_13 
REMARK    6  A    between atoms: C_13  and  C_14 
ROOT
HETATM    1  C   UNL     1      -7.305   3.556 -33.471  1.00  0.00     0.238 C 
HETATM    2  N   UNL     1      -6.617   4.679 -33.868  1.00  0.00    -0.267 N 
HETATM    3  O   UNL     1      -6.833   2.758 -32.663  1.00  0.00    -0.272 OA
HETATM    4  H   UNL     1      -6.932   5.349 -34.568  1.00  0.00     0.190 HD
ENDROOT
BRANCH   1   5
HETATM    5  C   UNL     1      -8.658   3.369 -34.115  1.00  0.00     0.134 C 
BRANCH   5   6
HETATM    6  C   UNL     1      -9.157   1.919 -34.041  1.00  0.00     0.129 C 
BRANCH   6   7
HETATM    7  C   UNL     1     -10.667   1.816 -34.223  1.00  0.00    -0.013 A 
HETATM    8  C   UNL     1     -11.378   2.812 -34.923  1.00  0.00     0.011 A 
HETATM    9  C   UNL     1     -12.766   2.746 -35.072  1.00  0.00     0.001 A 
HETATM   10  C   UNL     1     -13.478   1.684 -34.525  1.00  0.00     0.002 A 
HETATM   11  C   UNL     1     -12.802   0.693 -33.819  1.00  0.00     0.024 A 
HETATM   12  C   UNL     1     -11.412   0.759 -33.661  1.00  0.00     0.042 A 
HETATM   13 CL   UNL     1     -10.678  -0.499 -32.728  1.00  0.00    -0.084 Cl
ENDBRANCH   6   7
BRANCH   6  14
HETATM   14  N   UNL     1      -8.422   1.015 -34.928  1.00  0.00    -0.339 N 
HETATM   15  C   UNL     1      -7.465   0.125 -34.583  1.00  0.00     0.292 C 
HETATM   16  N   UNL     1      -7.395  -0.235 -33.286  1.00  0.00    -0.254 NA
HETATM   17  O   UNL     1      -6.688  -0.337 -35.407  1.00  0.00    -0.254 OA
HETATM   18  H   UNL     1      -8.273  -0.428 -32.828  1.00  0.00     0.128 HD
HETATM   19  H   UNL     1      -6.700  -0.956 -33.132  1.00  0.00     0.128 HD
HETATM   20  H   UNL     1      -8.283   1.311 -35.886  1.00  0.00     0.164 HD
ENDBRANCH   6  14
ENDBRANCH   5   6
ENDBRANCH   1   5
BRANCH   2  21
HETATM   21  N   UNL     1      -5.380   4.925 -33.268  1.00  0.00    -0.263 N 
HETATM   22  C   UNL     1      -4.299   5.211 -34.074  1.00  0.00     0.270 C 
HETATM   23  O   UNL     1      -4.370   5.177 -35.302  1.00  0.00    -0.266 OA
HETATM   24  H   UNL     1      -5.363   4.881 -32.252  1.00  0.00     0.190 HD
BRANCH  22  25
HETATM   25  C   UNL     1      -3.018   5.560 -33.392  1.00  0.00     0.036 A 
HETATM   26  C   UNL     1      -2.457   4.754 -32.389  1.00  0.00     0.057 A 
HETATM   27  C   UNL     1      -1.281   5.182 -31.806  1.00  0.00     0.106 A 
HETATM   28  C   UNL     1      -0.665   6.354 -32.174  1.00  0.00     0.105 A 
HETATM   29  O   UNL     1      -0.608   4.530 -30.821  1.00  0.00    -0.323 OA
HETATM   30  O   UNL     1       0.474   6.586 -31.469  1.00  0.00    -0.323 OA
HETATM   31  C   UNL     1      -1.191   7.173 -33.149  1.00  0.00     0.041 A 
HETATM   32  C   UNL     1       0.501   5.428 -30.607  1.00  0.00     0.352 A 
HETATM   33  C   UNL     1      -2.382   6.768 -33.761  1.00  0.00     0.020 A 
ENDBRANCH  22  25
ENDBRANCH   2  21
TORSDOF 6
ENDMDL
MODEL 7
REMARK VINA RESULT:      -8.3      3.089      4.204
REMARK  6 active torsions:
REMARK  status: ('A' for Active; 'I' for Inactive)
REMARK    1  A    between atoms: C_3  and  C_4 
REMARK    2  A    between atoms: C_4  and  N_5 
REMARK    3  A    between atoms: C_4  and  C_9 
REMARK       I    between atoms: N_5  and  C_6 
REMARK       I    between atoms: C_6  and  N_7 
REMARK    4  A    between atoms: C_9  and  C_10 
REMARK       I    between atoms: C_10  and  N_11 
REMARK    5  A    between atoms: N_11  and  N_12 
REMARK       I    between atoms: N_12  and  C_13 
REMARK    6  A    between atoms: C_13  and  C_14 
ROOT
HETATM    1  C   UNL     1      -5.809   2.891 -31.938  1.00  0.00     0.238 C 
HETATM    2  N   UNL     1      -5.832   2.272 -33.166  1.00  0.00    -0.267 N 
HETATM    3  O   UNL     1      -5.692   2.253 -30.893  1.00  0.00    -0.272 OA
HETATM    4  H   UNL     1      -5.976   2.738 -34.061  1.00  0.00     0.190 HD
ENDROOT
BRANCH   1   5
HETATM    5  C   UNL     1      -5.962   4.392 -31.971  1.00  0.00     0.134 C 
BRANCH   5   6
HETATM    6  C   UNL     1      -4.667   5.131 -31.601  1.00  0.00     0.129 C 
BRANCH   6   7
HETATM    7  C   UNL     1      -3.675   5.174 -32.758  1.00  0.00    -0.013 A 
HETATM    8  C   UNL     1      -4.123   5.325 -34.086  1.00  0.00     0.011 A 
HETATM    9  C   UNL     1      -3.227   5.336 -35.158  1.00  0.00     0.001 A 
HETATM   10  C   UNL     1      -1.862   5.196 -34.930  1.00  0.00     0.002 A 
HETATM   11  C   UNL     1      -1.394   5.034 -33.629  1.00  0.00     0.024 A 
HETATM   12  C   UNL     1      -2.289   5.015 -32.553  1.00  0.00     0.042 A 
HETATM   13 CL   UNL     1      -1.607   4.762 -30.983  1.00  0.00    -0.084 Cl
ENDBRANCH   6   7
BRANCH   6  14
HETATM   14  N   UNL     1      -4.909   6.452 -31.019  1.00  0.00    -0.339 N 
HETATM   15  C   UNL     1      -5.004   6.767 -29.707  1.00  0.00     0.292 C 
HETATM   16  N   UNL     1      -4.501   5.883 -28.823  1.00  0.00    -0.254 NA
HETATM   17  O   UNL     1      -5.527   7.807 -29.331  1.00  0.00    -0.254 OA
HETATM   18  H   UNL     1      -3.603   5.484 -29.052  1.00  0.00     0.128 HD
HETATM   19  H   UNL     1      -4.550   6.232 -27.873  1.00  0.00     0.128 HD
HETATM   20  H   UNL     1      -5.442   7.115 -31.568  1.00  0.00     0.164 HD
ENDBRANCH   6  14
ENDBRANCH   5   6
ENDBRANCH   1   5
BRANCH   2  21
HETATM   21  N   UNL     1      -5.647   0.889 -33.197  1.00  0.00    -0.263 N 
HETATM   22  C   UNL     1      -6.250   0.163 -34.202  1.00  0.00     0.270 C 
HETATM   23  O   UNL     1      -7.007   0.681 -35.021  1.00  0.00    -0.266 OA
HETATM   24  H   UNL     1      -5.061   0.502 -32.460  1.00  0.00     0.190 HD
BRANCH  22  25
HETATM   25  C   UNL     1      -5.952  -1.299 -34.255  1.00  0.00     0.036 A 
HETATM   26  C   UNL     1      -4.718  -1.829 -33.849  1.00  0.00     0.057 A 
HETATM   27  C   UNL     1      -4.537  -3.193 -33.961  1.00  0.00     0.106 A 
HETATM   28  C   UNL     1      -5.515  -4.023 -34.456  1.00  0.00     0.105 A 
HETATM   29  O   UNL     1      -3.408  -3.869 -33.620  1.00  0.00    -0.323 OA
HETATM   30  O   UNL     1      -5.125  -5.325 -34.486  1.00  0.00    -0.323 OA
HETATM   31  C   UNL     1      -6.735  -3.537 -34.871  1.00  0.00     0.041 A 
HETATM   32  C   UNL     1      -3.784  -5.220 -33.961  1.00  0.00     0.352 A 
HETATM   33  C   UNL     1      -6.951  -2.158 -34.769  1.00  0.00     0.020 A 
ENDBRANCH  22  25
ENDBRANCH   2  21
TORSDOF 6
ENDMDL
MODEL 8
REMARK VINA RESULT:      -8.2      1.749      2.219
REMARK  6 active torsions:
REMARK  status: ('A' for Active; 'I' for Inactive)
REMARK    1  A    between atoms: C_3  and  C_4 
REMARK    2  A    between atoms: C_4  and  N_5 
REMARK    3  A    between atoms: C_4  and  C_9 
REMARK       I    between atoms: N_5  and  C_6 
REMARK       I    between atoms: C_6  and  N_7 
REMARK    4  A    between atoms: C_9  and  C_10 
REMARK       I    between atoms: C_10  and  N_11 
REMARK    5  A    between atoms: N_11  and  N_12 
REMARK       I    between atoms: N_12  and  C_13 
REMARK    6  A    between atoms: C_13  and  C_14 
ROOT
HETATM    1  C   UNL     1      -4.142   3.291 -31.158  1.00  0.00     0.238 C 
HETATM    2  N   UNL     1      -5.308   2.578 -31.314  1.00  0.00    -0.267 N 
HETATM    3  O   UNL     1      -3.039   2.779 -31.343  1.00  0.00    -0.272 OA
HETATM    4  H   UNL     1      -6.246   2.929 -31.129  1.00  0.00     0.190 HD
ENDROOT
BRANCH   1   5
HETATM    5  C   UNL     1      -4.319   4.725 -30.722  1.00  0.00     0.134 C 
BRANCH   5   6
HETATM    6  C   UNL     1      -3.702   5.727 -31.709  1.00  0.00     0.129 C 
BRANCH   6   7
HETATM    7  C   UNL     1      -2.284   6.129 -31.317  1.00  0.00    -0.013 A 
HETATM    8  C   UNL     1      -1.168   5.498 -31.904  1.00  0.00     0.011 A 
HETATM    9  C   UNL     1       0.136   5.835 -31.533  1.00  0.00     0.001 A 
HETATM   10  C   UNL     1       0.358   6.808 -30.565  1.00  0.00     0.002 A 
HETATM   11  C   UNL     1      -0.727   7.439 -29.961  1.00  0.00     0.024 A 
HETATM   12  C   UNL     1      -2.035   7.099 -30.325  1.00  0.00     0.042 A 
HETATM   13 CL   UNL     1      -3.309   7.910 -29.480  1.00  0.00    -0.084 Cl
ENDBRANCH   6   7
BRANCH   6  14
HETATM   14  N   UNL     1      -3.796   5.288 -33.103  1.00  0.00    -0.339 N 
HETATM   15  C   UNL     1      -4.890   5.304 -33.896  1.00  0.00     0.292 C 
HETATM   16  N   UNL     1      -5.913   6.097 -33.521  1.00  0.00    -0.254 NA
HETATM   17  O   UNL     1      -4.958   4.625 -34.912  1.00  0.00    -0.254 OA
HETATM   18  H   UNL     1      -5.668   7.021 -33.199  1.00  0.00     0.128 HD
HETATM   19  H   UNL     1      -6.658   6.101 -34.208  1.00  0.00     0.128 HD
HETATM   20  H   UNL     1      -3.164   4.558 -33.407  1.00  0.00     0.164 HD
ENDBRANCH   6  14
ENDBRANCH   5   6
ENDBRANCH   1   5
BRANCH   2  21
HETATM   21  N   UNL     1      -5.204   1.259 -31.762  1.00  0.00    -0.263 N 
HETATM   22  C   UNL     1      -5.706   0.941 -33.005  1.00  0.00     0.270 C 
HETATM   23  O   UNL     1      -6.312   1.758 -33.696  1.00  0.00    -0.266 OA
HETATM   24  H   UNL     1      -4.749   0.609 -31.125  1.00  0.00     0.190 HD
BRANCH  22  25
HETATM   25  C   UNL     1      -5.492  -0.456 -33.486  1.00  0.00     0.036 A 
HETATM   26  C   UNL     1      -6.524  -1.224 -34.048  1.00  0.00     0.057 A 
HETATM   27  C   UNL     1      -6.224  -2.514 -34.439  1.00  0.00     0.106 A 
HETATM   28  C   UNL     1      -4.968  -3.052 -34.287  1.00  0.00     0.105 A 
HETATM   29  O   UNL     1      -7.101  -3.393 -34.994  1.00  0.00    -0.323 OA
HETATM   30  O   UNL     1      -4.896  -4.335 -34.730  1.00  0.00    -0.323 OA
HETATM   31  C   UNL     1      -3.934  -2.330 -33.732  1.00  0.00     0.041 A 
HETATM   32  C   UNL     1      -6.254  -4.548 -35.171  1.00  0.00     0.352 A 
HETATM   33  C   UNL     1      -4.204  -1.019 -33.327  1.00  0.00     0.020 A 
ENDBRANCH  22  25
ENDBRANCH   2  21
TORSDOF 6
ENDMDL
MODEL 9
REMARK VINA RESULT:      -8.2      2.787      3.772
REMARK  6 active torsions:
REMARK  status: ('A' for Active; 'I' for Inactive)
REMARK    1  A    between atoms: C_3  and  C_4 
REMARK    2  A    between atoms: C_4  and  N_5 
REMARK    3  A    between atoms: C_4  and  C_9 
REMARK       I    between atoms: N_5  and  C_6 
REMARK       I    between atoms: C_6  and  N_7 
REMARK    4  A    between atoms: C_9  and  C_10 
REMARK       I    between atoms: C_10  and  N_11 
REMARK    5  A    between atoms: N_11  and  N_12 
REMARK       I    between atoms: N_12  and  C_13 
REMARK    6  A    between atoms: C_13  and  C_14 
ROOT
HETATM    1  C   UNL     1      -4.786   3.350 -31.668  1.00  0.00     0.238 C 
HETATM    2  N   UNL     1      -5.952   2.637 -31.832  1.00  0.00    -0.267 N 
HETATM    3  O   UNL     1      -3.682   2.811 -31.731  1.00  0.00    -0.272 OA
HETATM    4  H   UNL     1      -6.894   3.015 -31.743  1.00  0.00     0.190 HD
ENDROOT
BRANCH   1   5
HETATM    5  C   UNL     1      -4.967   4.821 -31.385  1.00  0.00     0.134 C 
BRANCH   5   6
HETATM    6  C   UNL     1      -5.029   5.670 -32.664  1.00  0.00     0.129 C 
BRANCH   6   7
HETATM    7  C   UNL     1      -3.654   5.873 -33.292  1.00  0.00    -0.013 A 
HETATM    8  C   UNL     1      -3.191   5.011 -34.307  1.00  0.00     0.011 A 
HETATM    9  C   UNL     1      -1.922   5.167 -34.870  1.00  0.00     0.001 A 
HETATM   10  C   UNL     1      -1.083   6.186 -34.432  1.00  0.00     0.002 A 
HETATM   11  C   UNL     1      -1.511   7.044 -33.423  1.00  0.00     0.024 A 
HETATM   12  C   UNL     1      -2.779   6.887 -32.851  1.00  0.00     0.042 A 
HETATM   13 CL   UNL     1      -3.193   7.978 -31.573  1.00  0.00    -0.084 Cl
ENDBRANCH   6   7
BRANCH   6  14
HETATM   14  N   UNL     1      -6.018   5.183 -33.626  1.00  0.00    -0.339 N 
HETATM   15  C   UNL     1      -7.342   5.457 -33.653  1.00  0.00     0.292 C 
HETATM   16  N   UNL     1      -7.763   6.534 -32.960  1.00  0.00    -0.254 NA
HETATM   17  O   UNL     1      -8.132   4.759 -34.274  1.00  0.00    -0.254 OA
HETATM   18  H   UNL     1      -7.203   7.368 -33.048  1.00  0.00     0.128 HD
HETATM   19  H   UNL     1      -8.753   6.704 -33.095  1.00  0.00     0.128 HD
HETATM   20  H   UNL     1      -5.848   4.283 -34.058  1.00  0.00     0.164 HD
ENDBRANCH   6  14
ENDBRANCH   5   6
ENDBRANCH   1   5
BRANCH   2  21
HETATM   21  N   UNL     1      -5.841   1.280 -32.143  1.00  0.00    -0.263 N 
HETATM   22  C   UNL     1      -6.065   0.879 -33.442  1.00  0.00     0.270 C 
HETATM   23  O   UNL     1      -6.435   1.661 -34.315  1.00  0.00    -0.266 OA
HETATM   24  H   UNL     1      -5.592   0.666 -31.370  1.00  0.00     0.190 HD
BRANCH  22  25
HETATM   25  C   UNL     1      -5.845  -0.565 -33.753  1.00  0.00     0.036 A 
HETATM   26  C   UNL     1      -4.703  -1.260 -33.325  1.00  0.00     0.057 A 
HETATM   27  C   UNL     1      -4.588  -2.588 -33.687  1.00  0.00     0.106 A 
HETATM   28  C   UNL     1      -5.541  -3.226 -34.445  1.00  0.00     0.105 A 
HETATM   29  O   UNL     1      -3.550  -3.405 -33.364  1.00  0.00    -0.323 OA
HETATM   30  O   UNL     1      -5.223  -4.524 -34.692  1.00  0.00    -0.323 OA
HETATM   31  C   UNL     1      -6.669  -2.572 -34.889  1.00  0.00     0.041 A 
HETATM   32  C   UNL     1      -3.956  -4.630 -34.009  1.00  0.00     0.352 A 
HETATM   33  C   UNL     1      -6.817  -1.226 -34.539  1.00  0.00     0.020 A 
ENDBRANCH  22  25
ENDBRANCH   2  21
TORSDOF 6
ENDMDL
MODEL 10
REMARK VINA RESULT:      -7.9      3.742      9.165
REMARK  6 active torsions:
REMARK  status: ('A' for Active; 'I' for Inactive)
REMARK    1  A    between atoms: C_3  and  C_4 
REMARK    2  A    between atoms: C_4  and  N_5 
REMARK    3  A    between atoms: C_4  and  C_9 
REMARK       I    between atoms: N_5  and  C_6 
REMARK       I    between atoms: C_6  and  N_7 
REMARK    4  A    between atoms: C_9  and  C_10 
REMARK       I    between atoms: C_10  and  N_11 
REMARK    5  A    between atoms: N_11  and  N_12 
REMARK       I    between atoms: N_12  and  C_13 
REMARK    6  A    between atoms: C_13  and  C_14 
ROOT
HETATM    1  C   UNL     1      -4.795   3.696 -32.546  1.00  0.00     0.238 C 
HETATM    2  N   UNL     1      -3.505   3.269 -32.333  1.00  0.00    -0.267 N 
HETATM    3  O   UNL     1      -5.307   4.580 -31.861  1.00  0.00    -0.272 OA
HETATM    4  H   UNL     1      -3.043   2.510 -32.832  1.00  0.00     0.190 HD
ENDROOT
BRANCH   1   5
HETATM    5  C   UNL     1      -5.532   2.987 -33.657  1.00  0.00     0.134 C 
BRANCH   5   6
HETATM    6  C   UNL     1      -6.484   1.899 -33.138  1.00  0.00     0.129 C 
BRANCH   6   7
HETATM    7  C   UNL     1      -5.974   0.493 -33.437  1.00  0.00    -0.013 A 
HETATM    8  C   UNL     1      -4.805   0.005 -32.820  1.00  0.00     0.011 A 
HETATM    9  C   UNL     1      -4.310  -1.270 -33.107  1.00  0.00     0.001 A 
HETATM   10  C   UNL     1      -4.969  -2.088 -34.018  1.00  0.00     0.002 A 
HETATM   11  C   UNL     1      -6.120  -1.625 -34.650  1.00  0.00     0.024 A 
HETATM   12  C   UNL     1      -6.616  -0.346 -34.371  1.00  0.00     0.042 A 
HETATM   13 CL   UNL     1      -8.025   0.146 -35.246  1.00  0.00    -0.084 Cl
ENDBRANCH   6   7
BRANCH   6  14
HETATM   14  N   UNL     1      -6.845   2.078 -31.731  1.00  0.00    -0.339 N 
HETATM   15  C   UNL     1      -8.056   2.411 -31.230  1.00  0.00     0.292 C 
HETATM   16  N   UNL     1      -9.124   2.239 -32.033  1.00  0.00    -0.254 NA
HETATM   17  O   UNL     1      -8.183   2.856 -30.097  1.00  0.00    -0.254 OA
HETATM   18  H   UNL     1      -9.157   1.376 -32.554  1.00  0.00     0.128 HD
HETATM   19  H   UNL     1      -9.993   2.445 -31.552  1.00  0.00     0.128 HD
HETATM   20  H   UNL     1      -6.118   2.382 -31.096  1.00  0.00     0.164 HD
ENDBRANCH   6  14
ENDBRANCH   5   6
ENDBRANCH   1   5
BRANCH   2  21
HETATM   21  N   UNL     1      -2.762   3.923 -31.348  1.00  0.00    -0.263 N 
HETATM   22  C   UNL     1      -1.748   4.772 -31.739  1.00  0.00     0.270 C 
HETATM   23  O   UNL     1      -1.425   4.908 -32.918  1.00  0.00    -0.266 OA
HETATM   24  H   UNL     1      -3.030   3.728 -30.386  1.00  0.00     0.190 HD
BRANCH  22  25
HETATM   25  C   UNL     1      -1.040   5.524 -30.661  1.00  0.00     0.036 A 
HETATM   26  C   UNL     1      -1.430   6.812 -30.264  1.00  0.00     0.057 A 
HETATM   27  C   UNL     1      -0.692   7.428 -29.273  1.00  0.00     0.106 A 
HETATM   28  C   UNL     1       0.395   6.824 -28.686  1.00  0.00     0.105 A 
HETATM   29  O   UNL     1      -0.925   8.672 -28.774  1.00  0.00    -0.323 OA
HETATM   30  O   UNL     1       0.979   7.610 -27.743  1.00  0.00    -0.323 OA
HETATM   31  C   UNL     1       0.810   5.565 -29.057  1.00  0.00     0.041 A 
HETATM   32  C   UNL     1       0.140   8.783 -27.808  1.00  0.00     0.352 A 
HETATM   33  C   UNL     1       0.083   4.911 -30.058  1.00  0.00     0.020 A 
ENDBRANCH  22  25
ENDBRANCH   2  21
TORSDOF 6
ENDMDL
