MODEL 1
REMARK VINA RESULT:      -9.4      0.000      0.000
REMARK  6 active torsions:
REMARK  status: ('A' for Active; 'I' for Inactive)
REMARK    1  A    between atoms: C_2  and  O_3 
REMARK    2  A    between atoms: O_3  and  C_4 
REMARK    3  A    between atoms: C_5  and  N_6 
REMARK    4  A    between atoms: N_6  and  C_7 
REMARK    5  A    between atoms: C_8  and  C_9 
REMARK    6  A    between atoms: C_12  and  C_13 
ROOT
HETATM    1  C   UNL     1      -8.121  -0.543 -33.783  1.00  0.00     0.087 C 
HETATM    2  C   UNL     1      -8.782   0.516 -33.285  1.00  0.00     0.077 C 
HETATM    3  C   UNL     1     -10.292   0.620 -33.414  1.00  0.00     0.023 C 
HETATM    4  N   UNL     1     -11.546   0.706 -33.521  1.00  0.00    -0.096 N 
ENDROOT
BRANCH   2   5
HETATM    5  C   UNL     1      -8.080   1.593 -32.640  1.00  0.00     0.118 A 
HETATM    6  S   UNL     1      -8.560   2.103 -31.045  1.00  0.00    -0.078 SA
HETATM    7  C   UNL     1      -7.306   3.256 -31.017  1.00  0.00     0.084 A 
HETATM    8  C   UNL     1      -6.598   3.220 -32.198  1.00  0.00     0.081 A 
HETATM    9  N   UNL     1      -7.027   2.251 -33.102  1.00  0.00    -0.239 NA
BRANCH   8  10
HETATM   10  C   UNL     1      -5.460   4.036 -32.537  1.00  0.00     0.070 A 
HETATM   11  C   UNL     1      -5.569   5.033 -33.654  1.00  0.00     0.301 A 
HETATM   12  O   UNL     1      -6.578   5.162 -34.342  1.00  0.00    -0.259 OA
HETATM   13  O   UNL     1      -4.463   5.843 -33.901  1.00  0.00    -0.274 OA
HETATM   14  C   UNL     1      -3.263   5.703 -33.189  1.00  0.00     0.089 A 
HETATM   15  C   UNL     1      -3.145   4.749 -32.188  1.00  0.00     0.000 A 
HETATM   16  C   UNL     1      -2.209   6.547 -33.532  1.00  0.00     0.039 A 
HETATM   17  C   UNL     1      -1.932   4.631 -31.506  1.00  0.00     0.033 A 
HETATM   18  C   UNL     1      -4.293   3.917 -31.877  1.00  0.00     0.034 A 
HETATM   19  C   UNL     1      -0.868   5.471 -31.841  1.00  0.00     0.012 A 
HETATM   20  C   UNL     1      -1.000   6.430 -32.850  1.00  0.00     0.022 A 
HETATM   21 BR   UNL     1       0.775   5.311 -30.918  1.00  0.00    -0.051 Br
ENDBRANCH   8  10
ENDBRANCH   2   5
BRANCH   1  22
HETATM   22  N   UNL     1      -6.756  -0.735 -33.911  1.00  0.00    -0.266 NA
HETATM   23  H   UNL     1      -6.228  -0.298 -33.144  1.00  0.00     0.133 HD
BRANCH  22  24
HETATM   24  C   UNL     1      -6.134  -1.992 -34.158  1.00  0.00     0.045 A 
HETATM   25  C   UNL     1      -4.765  -2.151 -33.844  1.00  0.00     0.090 A 
HETATM   26  C   UNL     1      -4.146  -3.396 -34.001  1.00  0.00     0.038 A 
HETATM   27  C   UNL     1      -4.869  -4.479 -34.498  1.00  0.00     0.003 A 
HETATM   28  C   UNL     1      -6.209  -4.324 -34.842  1.00  0.00     0.002 A 
HETATM   29  C   UNL     1      -6.837  -3.087 -34.681  1.00  0.00     0.026 A 
BRANCH  25  30
HETATM   30  O   UNL     1      -4.112  -1.049 -33.341  1.00  0.00    -0.350 OA
BRANCH  30  31
HETATM   31  C   UNL     1      -3.733  -1.154 -31.965  1.00  0.00     0.171 C 
HETATM   32  C   UNL     1      -4.222   0.086 -31.236  1.00  0.00     0.034 C 
ENDBRANCH  30  31
ENDBRANCH  25  30
ENDBRANCH  22  24
ENDBRANCH   1  22
TORSDOF 6
ENDMDL
MODEL 2
REMARK VINA RESULT:      -9.1      0.761      2.023
REMARK  6 active torsions:
REMARK  status: ('A' for Active; 'I' for Inactive)
REMARK    1  A    between atoms: C_2  and  O_3 
REMARK    2  A    between atoms: O_3  and  C_4 
REMARK    3  A    between atoms: C_5  and  N_6 
REMARK    4  A    between atoms: N_6  and  C_7 
REMARK    5  A    between atoms: C_8  and  C_9 
REMARK    6  A    between atoms: C_12  and  C_13 
ROOT
HETATM    1  C   UNL     1      -7.729  -0.469 -33.999  1.00  0.00     0.087 C 
HETATM    2  C   UNL     1      -8.455   0.453 -33.344  1.00  0.00     0.077 C 
HETATM    3  C   UNL     1      -9.971   0.361 -33.301  1.00  0.00     0.023 C 
HETATM    4  N   UNL     1     -11.229   0.284 -33.265  1.00  0.00    -0.096 N 
ENDROOT
BRANCH   2   5
HETATM    5  C   UNL     1      -7.824   1.566 -32.687  1.00  0.00     0.118 A 
HETATM    6  S   UNL     1      -8.377   2.065 -31.112  1.00  0.00    -0.078 SA
HETATM    7  C   UNL     1      -7.178   3.275 -31.056  1.00  0.00     0.084 A 
HETATM    8  C   UNL     1      -6.433   3.262 -32.214  1.00  0.00     0.081 A 
HETATM    9  N   UNL     1      -6.788   2.269 -33.122  1.00  0.00    -0.239 NA
BRANCH   8  10
HETATM   10  C   UNL     1      -5.324   4.128 -32.525  1.00  0.00     0.070 A 
HETATM   11  C   UNL     1      -5.472   5.168 -33.598  1.00  0.00     0.301 A 
HETATM   12  O   UNL     1      -6.490   5.293 -34.273  1.00  0.00    -0.259 OA
HETATM   13  O   UNL     1      -4.394   6.022 -33.816  1.00  0.00    -0.274 OA
HETATM   14  C   UNL     1      -3.185   5.889 -33.119  1.00  0.00     0.089 A 
HETATM   15  C   UNL     1      -3.029   4.898 -32.161  1.00  0.00     0.000 A 
HETATM   16  C   UNL     1      -2.160   6.780 -33.432  1.00  0.00     0.039 A 
HETATM   17  C   UNL     1      -1.808   4.789 -31.492  1.00  0.00     0.033 A 
HETATM   18  C   UNL     1      -4.149   4.018 -31.878  1.00  0.00     0.034 A 
HETATM   19  C   UNL     1      -0.773   5.676 -31.798  1.00  0.00     0.012 A 
HETATM   20  C   UNL     1      -0.943   6.672 -32.763  1.00  0.00     0.022 A 
HETATM   21 BR   UNL     1       0.881   5.528 -30.892  1.00  0.00    -0.051 Br
ENDBRANCH   8  10
ENDBRANCH   2   5
BRANCH   1  22
HETATM   22  N   UNL     1      -6.376  -0.465 -34.288  1.00  0.00    -0.266 NA
HETATM   23  H   UNL     1      -6.017   0.483 -34.462  1.00  0.00     0.133 HD
BRANCH  22  24
HETATM   24  C   UNL     1      -5.381  -1.132 -33.519  1.00  0.00     0.045 A 
HETATM   25  C   UNL     1      -4.825  -2.334 -34.014  1.00  0.00     0.090 A 
HETATM   26  C   UNL     1      -3.790  -2.970 -33.319  1.00  0.00     0.038 A 
HETATM   27  C   UNL     1      -3.323  -2.439 -32.118  1.00  0.00     0.003 A 
HETATM   28  C   UNL     1      -3.888  -1.274 -31.604  1.00  0.00     0.002 A 
HETATM   29  C   UNL     1      -4.916  -0.629 -32.295  1.00  0.00     0.026 A 
BRANCH  25  30
HETATM   30  O   UNL     1      -5.316  -2.796 -35.213  1.00  0.00    -0.350 OA
BRANCH  30  31
HETATM   31  C   UNL     1      -5.732  -4.166 -35.201  1.00  0.00     0.171 C 
HETATM   32  C   UNL     1      -7.103  -4.246 -34.552  1.00  0.00     0.034 C 
ENDBRANCH  30  31
ENDBRANCH  25  30
ENDBRANCH  22  24
ENDBRANCH   1  22
TORSDOF 6
ENDMDL
MODEL 3
REMARK VINA RESULT:      -9.1      3.704      7.496
REMARK  6 active torsions:
REMARK  status: ('A' for Active; 'I' for Inactive)
REMARK    1  A    between atoms: C_2  and  O_3 
REMARK    2  A    between atoms: O_3  and  C_4 
REMARK    3  A    between atoms: C_5  and  N_6 
REMARK    4  A    between atoms: N_6  and  C_7 
REMARK    5  A    between atoms: C_8  and  C_9 
REMARK    6  A    between atoms: C_12  and  C_13 
ROOT
HETATM    1  C   UNL     1      -7.533   3.625 -29.566  1.00  0.00     0.087 C 
HETATM    2  C   UNL     1      -6.272   4.056 -29.742  1.00  0.00     0.077 C 
HETATM    3  C   UNL     1      -5.771   5.304 -29.035  1.00  0.00     0.023 C 
HETATM    4  N   UNL     1      -5.356   6.340 -28.449  1.00  0.00    -0.096 N 
ENDROOT
BRANCH   2   5
HETATM    5  C   UNL     1      -5.368   3.366 -30.622  1.00  0.00     0.118 A 
HETATM    6  S   UNL     1      -4.138   4.262 -31.471  1.00  0.00    -0.078 SA
HETATM    7  C   UNL     1      -3.545   2.822 -32.166  1.00  0.00     0.084 A 
HETATM    8  C   UNL     1      -4.296   1.747 -31.748  1.00  0.00     0.081 A 
HETATM    9  N   UNL     1      -5.311   2.061 -30.848  1.00  0.00    -0.239 NA
BRANCH   8  10
HETATM   10  C   UNL     1      -4.089   0.368 -32.112  1.00  0.00     0.070 A 
HETATM   11  C   UNL     1      -2.922  -0.384 -31.540  1.00  0.00     0.301 A 
HETATM   12  O   UNL     1      -2.088   0.134 -30.802  1.00  0.00    -0.259 OA
HETATM   13  O   UNL     1      -2.802  -1.731 -31.872  1.00  0.00    -0.274 OA
HETATM   14  C   UNL     1      -3.688  -2.362 -32.757  1.00  0.00     0.089 A 
HETATM   15  C   UNL     1      -4.740  -1.657 -33.324  1.00  0.00     0.000 A 
HETATM   16  C   UNL     1      -3.464  -3.708 -33.041  1.00  0.00     0.039 A 
HETATM   17  C   UNL     1      -5.597  -2.315 -34.208  1.00  0.00     0.033 A 
HETATM   18  C   UNL     1      -4.918  -0.261 -32.966  1.00  0.00     0.034 A 
HETATM   19  C   UNL     1      -5.382  -3.663 -34.502  1.00  0.00     0.012 A 
HETATM   20  C   UNL     1      -4.321  -4.364 -33.922  1.00  0.00     0.022 A 
HETATM   21 BR   UNL     1      -6.543  -4.554 -35.700  1.00  0.00    -0.051 Br
ENDBRANCH   8  10
ENDBRANCH   2   5
BRANCH   1  22
HETATM   22  N   UNL     1      -8.212   2.625 -30.239  1.00  0.00    -0.266 NA
HETATM   23  H   UNL     1      -8.471   1.845 -29.620  1.00  0.00     0.133 HD
BRANCH  22  24
HETATM   24  C   UNL     1      -9.328   2.840 -31.098  1.00  0.00     0.045 A 
HETATM   25  C   UNL     1      -9.421   2.096 -32.296  1.00  0.00     0.090 A 
HETATM   26  C   UNL     1     -10.544   2.228 -33.121  1.00  0.00     0.038 A 
HETATM   27  C   UNL     1     -11.562   3.117 -32.781  1.00  0.00     0.003 A 
HETATM   28  C   UNL     1     -11.463   3.879 -31.620  1.00  0.00     0.002 A 
HETATM   29  C   UNL     1     -10.349   3.749 -30.787  1.00  0.00     0.026 A 
BRANCH  25  30
HETATM   30  O   UNL     1      -8.392   1.223 -32.566  1.00  0.00    -0.350 OA
BRANCH  30  31
HETATM   31  C   UNL     1      -8.700   0.219 -33.538  1.00  0.00     0.171 C 
HETATM   32  C   UNL     1      -7.928   0.528 -34.809  1.00  0.00     0.034 C 
ENDBRANCH  30  31
ENDBRANCH  25  30
ENDBRANCH  22  24
ENDBRANCH   1  22
TORSDOF 6
ENDMDL
MODEL 4
REMARK VINA RESULT:      -8.9      2.178      2.896
REMARK  6 active torsions:
REMARK  status: ('A' for Active; 'I' for Inactive)
REMARK    1  A    between atoms: C_2  and  O_3 
REMARK    2  A    between atoms: O_3  and  C_4 
REMARK    3  A    between atoms: C_5  and  N_6 
REMARK    4  A    between atoms: N_6  and  C_7 
REMARK    5  A    between atoms: C_8  and  C_9 
REMARK    6  A    between atoms: C_12  and  C_13 
ROOT
HETATM    1  C   UNL     1      -7.050   0.995 -32.716  1.00  0.00     0.087 C 
HETATM    2  C   UNL     1      -7.229   2.227 -32.209  1.00  0.00     0.077 C 
HETATM    3  C   UNL     1      -8.390   2.521 -31.274  1.00  0.00     0.023 C 
HETATM    4  N   UNL     1      -9.354   2.765 -30.498  1.00  0.00    -0.096 N 
ENDROOT
BRANCH   2   5
HETATM    5  C   UNL     1      -6.345   3.307 -32.555  1.00  0.00     0.118 A 
HETATM    6  S   UNL     1      -6.813   4.444 -33.790  1.00  0.00    -0.078 SA
HETATM    7  C   UNL     1      -5.375   5.326 -33.548  1.00  0.00     0.084 A 
HETATM    8  C   UNL     1      -4.608   4.729 -32.572  1.00  0.00     0.081 A 
HETATM    9  N   UNL     1      -5.181   3.600 -31.993  1.00  0.00    -0.239 NA
BRANCH   8  10
HETATM   10  C   UNL     1      -3.334   5.193 -32.085  1.00  0.00     0.070 A 
HETATM   11  C   UNL     1      -2.083   4.863 -32.846  1.00  0.00     0.301 A 
HETATM   12  O   UNL     1      -2.079   4.163 -33.855  1.00  0.00    -0.259 OA
HETATM   13  O   UNL     1      -0.885   5.388 -32.370  1.00  0.00    -0.274 OA
HETATM   14  C   UNL     1      -0.818   6.143 -31.190  1.00  0.00     0.089 A 
HETATM   15  C   UNL     1      -1.967   6.410 -30.459  1.00  0.00     0.000 A 
HETATM   16  C   UNL     1       0.435   6.601 -30.788  1.00  0.00     0.039 A 
HETATM   17  C   UNL     1      -1.863   7.157 -29.284  1.00  0.00     0.033 A 
HETATM   18  C   UNL     1      -3.240   5.913 -30.951  1.00  0.00     0.034 A 
HETATM   19  C   UNL     1      -0.612   7.621 -28.870  1.00  0.00     0.012 A 
HETATM   20  C   UNL     1       0.538   7.348 -29.617  1.00  0.00     0.022 A 
HETATM   21 BR   UNL     1      -0.471   8.633 -27.279  1.00  0.00    -0.051 Br
ENDBRANCH   8  10
ENDBRANCH   2   5
BRANCH   1  22
HETATM   22  N   UNL     1      -6.167   0.578 -33.697  1.00  0.00    -0.266 NA
HETATM   23  H   UNL     1      -5.249   1.034 -33.614  1.00  0.00     0.133 HD
BRANCH  22  24
HETATM   24  C   UNL     1      -5.910  -0.782 -34.030  1.00  0.00     0.045 A 
HETATM   25  C   UNL     1      -4.614  -1.305 -33.814  1.00  0.00     0.090 A 
HETATM   26  C   UNL     1      -4.351  -2.658 -34.057  1.00  0.00     0.038 A 
HETATM   27  C   UNL     1      -5.358  -3.490 -34.544  1.00  0.00     0.003 A 
HETATM   28  C   UNL     1      -6.628  -2.976 -34.793  1.00  0.00     0.002 A 
HETATM   29  C   UNL     1      -6.901  -1.628 -34.546  1.00  0.00     0.026 A 
BRANCH  25  30
HETATM   30  O   UNL     1      -3.670  -0.437 -33.315  1.00  0.00    -0.350 OA
BRANCH  30  31
HETATM   31  C   UNL     1      -3.129  -0.808 -32.043  1.00  0.00     0.171 C 
HETATM   32  C   UNL     1      -3.791   0.040 -30.972  1.00  0.00     0.034 C 
ENDBRANCH  30  31
ENDBRANCH  25  30
ENDBRANCH  22  24
ENDBRANCH   1  22
TORSDOF 6
ENDMDL
MODEL 5
REMARK VINA RESULT:      -8.8      1.605      2.651
REMARK  6 active torsions:
REMARK  status: ('A' for Active; 'I' for Inactive)
REMARK    1  A    between atoms: C_2  and  O_3 
REMARK    2  A    between atoms: O_3  and  C_4 
REMARK    3  A    between atoms: C_5  and  N_6 
REMARK    4  A    between atoms: N_6  and  C_7 
REMARK    5  A    between atoms: C_8  and  C_9 
REMARK    6  A    between atoms: C_12  and  C_13 
ROOT
HETATM    1  C   UNL     1      -7.399   0.440 -33.991  1.00  0.00     0.087 C 
HETATM    2  C   UNL     1      -8.161   1.539 -33.853  1.00  0.00     0.077 C 
HETATM    3  C   UNL     1      -9.676   1.431 -33.801  1.00  0.00     0.023 C 
HETATM    4  N   UNL     1     -10.933   1.341 -33.756  1.00  0.00    -0.096 N 
ENDROOT
BRANCH   2   5
HETATM    5  C   UNL     1      -7.571   2.847 -33.778  1.00  0.00     0.118 A 
HETATM    6  S   UNL     1      -8.593   4.258 -33.813  1.00  0.00    -0.078 SA
HETATM    7  C   UNL     1      -7.232   5.269 -33.637  1.00  0.00     0.084 A 
HETATM    8  C   UNL     1      -6.082   4.515 -33.575  1.00  0.00     0.081 A 
HETATM    9  N   UNL     1      -6.287   3.138 -33.627  1.00  0.00    -0.239 NA
BRANCH   8  10
HETATM   10  C   UNL     1      -4.740   5.015 -33.415  1.00  0.00     0.070 A 
HETATM   11  C   UNL     1      -3.880   5.237 -34.625  1.00  0.00     0.301 A 
HETATM   12  O   UNL     1      -4.246   4.964 -35.765  1.00  0.00    -0.259 OA
HETATM   13  O   UNL     1      -2.615   5.782 -34.422  1.00  0.00    -0.274 OA
HETATM   14  C   UNL     1      -2.119   6.057 -33.140  1.00  0.00     0.089 A 
HETATM   15  C   UNL     1      -2.894   5.808 -32.017  1.00  0.00     0.000 A 
HETATM   16  C   UNL     1      -0.830   6.578 -33.047  1.00  0.00     0.039 A 
HETATM   17  C   UNL     1      -2.365   6.086 -30.755  1.00  0.00     0.033 A 
HETATM   18  C   UNL     1      -4.235   5.280 -32.195  1.00  0.00     0.034 A 
HETATM   19  C   UNL     1      -1.073   6.608 -30.648  1.00  0.00     0.012 A 
HETATM   20  C   UNL     1      -0.304   6.858 -31.788  1.00  0.00     0.022 A 
HETATM   21 BR   UNL     1      -0.357   6.984 -28.939  1.00  0.00    -0.051 Br
ENDBRANCH   8  10
ENDBRANCH   2   5
BRANCH   1  22
HETATM   22  N   UNL     1      -6.037   0.350 -34.224  1.00  0.00    -0.266 NA
HETATM   23  H   UNL     1      -5.596   1.275 -34.314  1.00  0.00     0.133 HD
BRANCH  22  24
HETATM   24  C   UNL     1      -5.136  -0.449 -33.464  1.00  0.00     0.045 A 
HETATM   25  C   UNL     1      -4.927  -1.794 -33.846  1.00  0.00     0.090 A 
HETATM   26  C   UNL     1      -3.989  -2.581 -33.168  1.00  0.00     0.038 A 
HETATM   27  C   UNL     1      -3.279  -2.052 -32.092  1.00  0.00     0.003 A 
HETATM   28  C   UNL     1      -3.503  -0.739 -31.687  1.00  0.00     0.002 A 
HETATM   29  C   UNL     1      -4.432   0.056 -32.363  1.00  0.00     0.026 A 
BRANCH  25  30
HETATM   30  O   UNL     1      -5.646  -2.250 -34.927  1.00  0.00    -0.350 OA
BRANCH  30  31
HETATM   31  C   UNL     1      -6.693  -3.171 -34.604  1.00  0.00     0.171 C 
HETATM   32  C   UNL     1      -6.435  -4.472 -35.344  1.00  0.00     0.034 C 
ENDBRANCH  30  31
ENDBRANCH  25  30
ENDBRANCH  22  24
ENDBRANCH   1  22
TORSDOF 6
ENDMDL
MODEL 6
REMARK VINA RESULT:      -8.8      3.656      6.686
REMARK  6 active torsions:
REMARK  status: ('A' for Active; 'I' for Inactive)
REMARK    1  A    between atoms: C_2  and  O_3 
REMARK    2  A    between atoms: O_3  and  C_4 
REMARK    3  A    between atoms: C_5  and  N_6 
REMARK    4  A    between atoms: N_6  and  C_7 
REMARK    5  A    between atoms: C_8  and  C_9 
REMARK    6  A    between atoms: C_12  and  C_13 
ROOT
HETATM    1  C   UNL     1      -3.367   1.166 -32.134  1.00  0.00     0.087 C 
HETATM    2  C   UNL     1      -3.730   2.459 -32.175  1.00  0.00     0.077 C 
HETATM    3  C   UNL     1      -2.703   3.545 -32.451  1.00  0.00     0.023 C 
HETATM    4  N   UNL     1      -1.850   4.446 -32.679  1.00  0.00    -0.096 N 
ENDROOT
BRANCH   2   5
HETATM    5  C   UNL     1      -5.090   2.857 -31.936  1.00  0.00     0.118 A 
HETATM    6  S   UNL     1      -5.519   3.597 -30.417  1.00  0.00    -0.078 SA
HETATM    7  C   UNL     1      -7.129   3.783 -30.943  1.00  0.00     0.084 A 
HETATM    8  C   UNL     1      -7.278   3.275 -32.214  1.00  0.00     0.081 A 
HETATM    9  N   UNL     1      -6.108   2.778 -32.782  1.00  0.00    -0.239 NA
BRANCH   8  10
HETATM   10  C   UNL     1      -8.490   3.266 -32.994  1.00  0.00     0.070 A 
HETATM   11  C   UNL     1      -8.714   4.328 -34.031  1.00  0.00     0.301 A 
HETATM   12  O   UNL     1      -7.928   5.252 -34.224  1.00  0.00    -0.259 OA
HETATM   13  O   UNL     1      -9.870   4.238 -34.802  1.00  0.00    -0.274 OA
HETATM   14  C   UNL     1     -10.832   3.241 -34.589  1.00  0.00     0.089 A 
HETATM   15  C   UNL     1     -10.650   2.287 -33.598  1.00  0.00     0.000 A 
HETATM   16  C   UNL     1     -11.965   3.256 -35.399  1.00  0.00     0.039 A 
HETATM   17  C   UNL     1     -11.634   1.314 -33.407  1.00  0.00     0.033 A 
HETATM   18  C   UNL     1      -9.435   2.326 -32.805  1.00  0.00     0.034 A 
HETATM   19  C   UNL     1     -12.774   1.319 -34.213  1.00  0.00     0.012 A 
HETATM   20  C   UNL     1     -12.945   2.284 -35.210  1.00  0.00     0.022 A 
HETATM   21 BR   UNL     1     -14.106   0.001 -33.954  1.00  0.00    -0.051 Br
ENDBRANCH   8  10
ENDBRANCH   2   5
BRANCH   1  22
HETATM   22  N   UNL     1      -4.111   0.067 -31.739  1.00  0.00    -0.266 NA
HETATM   23  H   UNL     1      -5.092   0.309 -31.549  1.00  0.00     0.133 HD
BRANCH  22  24
HETATM   24  C   UNL     1      -4.132  -1.183 -32.420  1.00  0.00     0.045 A 
HETATM   25  C   UNL     1      -4.930  -1.317 -33.579  1.00  0.00     0.090 A 
HETATM   26  C   UNL     1      -4.911  -2.507 -34.315  1.00  0.00     0.038 A 
HETATM   27  C   UNL     1      -4.129  -3.580 -33.889  1.00  0.00     0.003 A 
HETATM   28  C   UNL     1      -3.366  -3.470 -32.730  1.00  0.00     0.002 A 
HETATM   29  C   UNL     1      -3.373  -2.283 -31.994  1.00  0.00     0.026 A 
BRANCH  25  30
HETATM   30  O   UNL     1      -5.665  -0.216 -33.956  1.00  0.00    -0.350 OA
BRANCH  30  31
HETATM   31  C   UNL     1      -7.081  -0.419 -33.972  1.00  0.00     0.171 C 
HETATM   32  C   UNL     1      -7.621   0.056 -35.310  1.00  0.00     0.034 C 
ENDBRANCH  30  31
ENDBRANCH  25  30
ENDBRANCH  22  24
ENDBRANCH   1  22
TORSDOF 6
ENDMDL
MODEL 7
REMARK VINA RESULT:      -8.8      3.106      8.075
REMARK  6 active torsions:
REMARK  status: ('A' for Active; 'I' for Inactive)
REMARK    1  A    between atoms: C_2  and  O_3 
REMARK    2  A    between atoms: O_3  and  C_4 
REMARK    3  A    between atoms: C_5  and  N_6 
REMARK    4  A    between atoms: N_6  and  C_7 
REMARK    5  A    between atoms: C_8  and  C_9 
REMARK    6  A    between atoms: C_12  and  C_13 
ROOT
HETATM    1  C   UNL     1      -4.012   4.911 -30.503  1.00  0.00     0.087 C 
HETATM    2  C   UNL     1      -5.293   4.596 -30.758  1.00  0.00     0.077 C 
HETATM    3  C   UNL     1      -6.388   4.930 -29.758  1.00  0.00     0.023 C 
HETATM    4  N   UNL     1      -7.297   5.208 -28.929  1.00  0.00    -0.096 N 
ENDROOT
BRANCH   2   5
HETATM    5  C   UNL     1      -5.664   3.912 -31.967  1.00  0.00     0.118 A 
HETATM    6  S   UNL     1      -5.950   4.826 -33.423  1.00  0.00    -0.078 SA
HETATM    7  C   UNL     1      -6.247   3.388 -34.288  1.00  0.00     0.084 A 
HETATM    8  C   UNL     1      -6.134   2.298 -33.454  1.00  0.00     0.081 A 
HETATM    9  N   UNL     1      -5.774   2.603 -32.144  1.00  0.00    -0.239 NA
BRANCH   8  10
HETATM   10  C   UNL     1      -6.302   0.917 -33.828  1.00  0.00     0.070 A 
HETATM   11  C   UNL     1      -7.574   0.476 -34.493  1.00  0.00     0.301 A 
HETATM   12  O   UNL     1      -8.520   1.233 -34.697  1.00  0.00    -0.259 OA
HETATM   13  O   UNL     1      -7.661  -0.855 -34.893  1.00  0.00    -0.274 OA
HETATM   14  C   UNL     1      -6.640  -1.779 -34.634  1.00  0.00     0.089 A 
HETATM   15  C   UNL     1      -5.483  -1.385 -33.977  1.00  0.00     0.000 A 
HETATM   16  C   UNL     1      -6.838  -3.093 -35.054  1.00  0.00     0.039 A 
HETATM   17  C   UNL     1      -4.490  -2.335 -33.728  1.00  0.00     0.033 A 
HETATM   18  C   UNL     1      -5.341   0.006 -33.585  1.00  0.00     0.034 A 
HETATM   19  C   UNL     1      -4.678  -3.655 -34.144  1.00  0.00     0.012 A 
HETATM   20  C   UNL     1      -5.846  -4.039 -34.807  1.00  0.00     0.022 A 
HETATM   21 BR   UNL     1      -3.332  -4.940 -33.806  1.00  0.00    -0.051 Br
ENDBRANCH   8  10
ENDBRANCH   2   5
BRANCH   1  22
HETATM   22  N   UNL     1      -2.872   4.546 -31.199  1.00  0.00    -0.266 NA
HETATM   23  H   UNL     1      -3.078   4.282 -32.172  1.00  0.00     0.133 HD
BRANCH  22  24
HETATM   24  C   UNL     1      -1.669   5.306 -31.238  1.00  0.00     0.045 A 
HETATM   25  C   UNL     1      -1.557   6.362 -32.171  1.00  0.00     0.090 A 
HETATM   26  C   UNL     1      -0.420   7.177 -32.180  1.00  0.00     0.038 A 
HETATM   27  C   UNL     1       0.625   6.930 -31.290  1.00  0.00     0.003 A 
HETATM   28  C   UNL     1       0.539   5.871 -30.391  1.00  0.00     0.002 A 
HETATM   29  C   UNL     1      -0.596   5.057 -30.370  1.00  0.00     0.026 A 
BRANCH  25  30
HETATM   30  O   UNL     1      -2.630   6.565 -33.009  1.00  0.00    -0.350 OA
BRANCH  30  31
HETATM   31  C   UNL     1      -2.320   6.491 -34.404  1.00  0.00     0.171 C 
HETATM   32  C   UNL     1      -2.095   5.034 -34.770  1.00  0.00     0.034 C 
ENDBRANCH  30  31
ENDBRANCH  25  30
ENDBRANCH  22  24
ENDBRANCH   1  22
TORSDOF 6
ENDMDL
MODEL 8
REMARK VINA RESULT:      -8.6      3.507      8.071
REMARK  6 active torsions:
REMARK  status: ('A' for Active; 'I' for Inactive)
REMARK    1  A    between atoms: C_2  and  O_3 
REMARK    2  A    between atoms: O_3  and  C_4 
REMARK    3  A    between atoms: C_5  and  N_6 
REMARK    4  A    between atoms: N_6  and  C_7 
REMARK    5  A    between atoms: C_8  and  C_9 
REMARK    6  A    between atoms: C_12  and  C_13 
ROOT
HETATM    1  C   UNL     1      -4.413   6.342 -30.343  1.00  0.00     0.087 C 
HETATM    2  C   UNL     1      -5.589   6.144 -30.963  1.00  0.00     0.077 C 
HETATM    3  C   UNL     1      -6.775   7.053 -30.685  1.00  0.00     0.023 C 
HETATM    4  N   UNL     1      -7.760   7.807 -30.455  1.00  0.00    -0.096 N 
ENDROOT
BRANCH   2   5
HETATM    5  C   UNL     1      -5.769   5.056 -31.886  1.00  0.00     0.118 A 
HETATM    6  S   UNL     1      -6.735   5.289 -33.317  1.00  0.00    -0.078 SA
HETATM    7  C   UNL     1      -6.407   3.693 -33.818  1.00  0.00     0.084 A 
HETATM    8  C   UNL     1      -5.609   3.057 -32.894  1.00  0.00     0.081 A 
HETATM    9  N   UNL     1      -5.227   3.849 -31.814  1.00  0.00    -0.239 NA
BRANCH   8  10
HETATM   10  C   UNL     1      -5.113   1.707 -32.979  1.00  0.00     0.070 A 
HETATM   11  C   UNL     1      -3.787   1.363 -32.366  1.00  0.00     0.301 A 
HETATM   12  O   UNL     1      -3.062   2.195 -31.827  1.00  0.00    -0.259 OA
HETATM   13  O   UNL     1      -3.382   0.032 -32.418  1.00  0.00    -0.274 OA
HETATM   14  C   UNL     1      -4.138  -0.952 -33.072  1.00  0.00     0.089 A 
HETATM   15  C   UNL     1      -5.341  -0.627 -33.681  1.00  0.00     0.000 A 
HETATM   16  C   UNL     1      -3.630  -2.249 -33.088  1.00  0.00     0.039 A 
HETATM   17  C   UNL     1      -6.063  -1.630 -34.331  1.00  0.00     0.033 A 
HETATM   18  C   UNL     1      -5.814   0.744 -33.608  1.00  0.00     0.034 A 
HETATM   19  C   UNL     1      -5.564  -2.934 -34.354  1.00  0.00     0.012 A 
HETATM   20  C   UNL     1      -4.352  -3.250 -33.735  1.00  0.00     0.022 A 
HETATM   21 BR   UNL     1      -6.542  -4.293 -35.235  1.00  0.00    -0.051 Br
ENDBRANCH   8  10
ENDBRANCH   2   5
BRANCH   1  22
HETATM   22  N   UNL     1      -3.288   5.536 -30.337  1.00  0.00    -0.266 NA
HETATM   23  H   UNL     1      -3.415   4.685 -30.901  1.00  0.00     0.133 HD
BRANCH  22  24
HETATM   24  C   UNL     1      -1.964   5.991 -30.595  1.00  0.00     0.045 A 
HETATM   25  C   UNL     1      -1.444   5.874 -31.904  1.00  0.00     0.090 A 
HETATM   26  C   UNL     1      -0.176   6.384 -32.207  1.00  0.00     0.038 A 
HETATM   27  C   UNL     1       0.594   6.983 -31.211  1.00  0.00     0.003 A 
HETATM   28  C   UNL     1       0.104   7.072 -29.910  1.00  0.00     0.002 A 
HETATM   29  C   UNL     1      -1.163   6.572 -29.601  1.00  0.00     0.026 A 
BRANCH  25  30
HETATM   30  O   UNL     1      -2.260   5.290 -32.846  1.00  0.00    -0.350 OA
BRANCH  30  31
HETATM   31  C   UNL     1      -2.101   5.799 -34.174  1.00  0.00     0.171 C 
HETATM   32  C   UNL     1      -3.282   5.339 -35.010  1.00  0.00     0.034 C 
ENDBRANCH  30  31
ENDBRANCH  25  30
ENDBRANCH  22  24
ENDBRANCH   1  22
TORSDOF 6
ENDMDL
MODEL 9
REMARK VINA RESULT:      -8.5      2.418      3.704
REMARK  6 active torsions:
REMARK  status: ('A' for Active; 'I' for Inactive)
REMARK    1  A    between atoms: C_2  and  O_3 
REMARK    2  A    between atoms: O_3  and  C_4 
REMARK    3  A    between atoms: C_5  and  N_6 
REMARK    4  A    between atoms: N_6  and  C_7 
REMARK    5  A    between atoms: C_8  and  C_9 
REMARK    6  A    between atoms: C_12  and  C_13 
ROOT
HETATM    1  C   UNL     1      -7.230   1.373 -32.732  1.00  0.00     0.087 C 
HETATM    2  C   UNL     1      -7.517   2.630 -32.350  1.00  0.00     0.077 C 
HETATM    3  C   UNL     1      -8.882   2.975 -31.778  1.00  0.00     0.023 C 
HETATM    4  N   UNL     1     -10.014   3.262 -31.304  1.00  0.00    -0.096 N 
ENDROOT
BRANCH   2   5
HETATM    5  C   UNL     1      -6.554   3.687 -32.494  1.00  0.00     0.118 A 
HETATM    6  S   UNL     1      -6.896   5.028 -33.554  1.00  0.00    -0.078 SA
HETATM    7  C   UNL     1      -5.418   5.763 -33.129  1.00  0.00     0.084 A 
HETATM    8  C   UNL     1      -4.733   4.974 -32.232  1.00  0.00     0.081 A 
HETATM    9  N   UNL     1      -5.399   3.811 -31.855  1.00  0.00    -0.239 NA
BRANCH   8  10
HETATM   10  C   UNL     1      -3.455   5.270 -31.636  1.00  0.00     0.070 A 
HETATM   11  C   UNL     1      -2.262   4.427 -31.981  1.00  0.00     0.301 A 
HETATM   12  O   UNL     1      -2.324   3.448 -32.720  1.00  0.00    -0.259 OA
HETATM   13  O   UNL     1      -1.036   4.793 -31.430  1.00  0.00    -0.274 OA
HETATM   14  C   UNL     1      -0.913   5.864 -30.533  1.00  0.00     0.089 A 
HETATM   15  C   UNL     1      -2.024   6.615 -30.176  1.00  0.00     0.000 A 
HETATM   16  C   UNL     1       0.354   6.131 -30.019  1.00  0.00     0.039 A 
HETATM   17  C   UNL     1      -1.866   7.669 -29.273  1.00  0.00     0.033 A 
HETATM   18  C   UNL     1      -3.309   6.287 -30.766  1.00  0.00     0.034 A 
HETATM   19  C   UNL     1      -0.600   7.946 -28.750  1.00  0.00     0.012 A 
HETATM   20  C   UNL     1       0.511   7.184 -29.120  1.00  0.00     0.022 A 
HETATM   21 BR   UNL     1      -0.387   9.372 -27.527  1.00  0.00    -0.051 Br
ENDBRANCH   8  10
ENDBRANCH   2   5
BRANCH   1  22
HETATM   22  N   UNL     1      -6.124   0.904 -33.419  1.00  0.00    -0.266 NA
HETATM   23  H   UNL     1      -5.620   1.657 -33.907  1.00  0.00     0.133 HD
BRANCH  22  24
HETATM   24  C   UNL     1      -5.126   0.053 -32.863  1.00  0.00     0.045 A 
HETATM   25  C   UNL     1      -4.942  -1.235 -33.415  1.00  0.00     0.090 A 
HETATM   26  C   UNL     1      -3.918  -2.064 -32.943  1.00  0.00     0.038 A 
HETATM   27  C   UNL     1      -3.094  -1.635 -31.903  1.00  0.00     0.003 A 
HETATM   28  C   UNL     1      -3.290  -0.382 -31.330  1.00  0.00     0.002 A 
HETATM   29  C   UNL     1      -4.305   0.455 -31.800  1.00  0.00     0.026 A 
BRANCH  25  30
HETATM   30  O   UNL     1      -5.775  -1.591 -34.451  1.00  0.00    -0.350 OA
BRANCH  30  31
HETATM   31  C   UNL     1      -5.507  -2.877 -35.019  1.00  0.00     0.171 C 
HETATM   32  C   UNL     1      -6.730  -3.755 -34.818  1.00  0.00     0.034 C 
ENDBRANCH  30  31
ENDBRANCH  25  30
ENDBRANCH  22  24
ENDBRANCH   1  22
TORSDOF 6
ENDMDL
MODEL 10
REMARK VINA RESULT:      -8.5      4.056      9.446
REMARK  6 active torsions:
REMARK  status: ('A' for Active; 'I' for Inactive)
REMARK    1  A    between atoms: C_2  and  O_3 
REMARK    2  A    between atoms: O_3  and  C_4 
REMARK    3  A    between atoms: C_5  and  N_6 
REMARK    4  A    between atoms: N_6  and  C_7 
REMARK    5  A    between atoms: C_8  and  C_9 
REMARK    6  A    between atoms: C_12  and  C_13 
ROOT
HETATM    1  C   UNL     1      -1.899   5.725 -31.523  1.00  0.00     0.087 C 
HETATM    2  C   UNL     1      -2.633   5.016 -32.398  1.00  0.00     0.077 C 
HETATM    3  C   UNL     1      -2.786   5.479 -33.838  1.00  0.00     0.023 C 
HETATM    4  N   UNL     1      -2.913   5.862 -35.032  1.00  0.00    -0.096 N 
ENDROOT
BRANCH   2   5
HETATM    5  C   UNL     1      -3.314   3.816 -31.995  1.00  0.00     0.118 A 
HETATM    6  S   UNL     1      -4.675   3.919 -30.912  1.00  0.00    -0.078 SA
HETATM    7  C   UNL     1      -4.893   2.231 -30.997  1.00  0.00     0.084 A 
HETATM    8  C   UNL     1      -3.938   1.667 -31.813  1.00  0.00     0.081 A 
HETATM    9  N   UNL     1      -3.063   2.579 -32.398  1.00  0.00    -0.239 NA
BRANCH   8  10
HETATM   10  C   UNL     1      -3.809   0.269 -32.137  1.00  0.00     0.070 A 
HETATM   11  C   UNL     1      -2.707  -0.539 -31.516  1.00  0.00     0.301 A 
HETATM   12  O   UNL     1      -1.861  -0.055 -30.768  1.00  0.00    -0.259 OA
HETATM   13  O   UNL     1      -2.664  -1.899 -31.810  1.00  0.00    -0.274 OA
HETATM   14  C   UNL     1      -3.564  -2.497 -32.703  1.00  0.00     0.089 A 
HETATM   15  C   UNL     1      -4.555  -1.742 -33.316  1.00  0.00     0.000 A 
HETATM   16  C   UNL     1      -3.419  -3.860 -32.949  1.00  0.00     0.039 A 
HETATM   17  C   UNL     1      -5.429  -2.368 -34.207  1.00  0.00     0.033 A 
HETATM   18  C   UNL     1      -4.654  -0.329 -32.997  1.00  0.00     0.034 A 
HETATM   19  C   UNL     1      -5.292  -3.735 -34.461  1.00  0.00     0.012 A 
HETATM   20  C   UNL     1      -4.293  -4.485 -33.835  1.00  0.00     0.022 A 
HETATM   21 BR   UNL     1      -6.476  -4.583 -35.668  1.00  0.00    -0.051 Br
ENDBRANCH   8  10
ENDBRANCH   2   5
BRANCH   1  22
HETATM   22  N   UNL     1      -1.780   5.560 -30.154  1.00  0.00    -0.266 NA
HETATM   23  H   UNL     1      -1.524   4.598 -29.899  1.00  0.00     0.133 HD
BRANCH  22  24
HETATM   24  C   UNL     1      -1.027   6.414 -29.298  1.00  0.00     0.045 A 
HETATM   25  C   UNL     1      -1.621   7.608 -28.829  1.00  0.00     0.090 A 
HETATM   26  C   UNL     1      -0.937   8.427 -27.924  1.00  0.00     0.038 A 
HETATM   27  C   UNL     1       0.348   8.086 -27.505  1.00  0.00     0.003 A 
HETATM   28  C   UNL     1       0.955   6.929 -27.988  1.00  0.00     0.002 A 
HETATM   29  C   UNL     1       0.276   6.102 -28.886  1.00  0.00     0.026 A 
BRANCH  25  30
HETATM   30  O   UNL     1      -2.898   7.879 -29.266  1.00  0.00    -0.350 OA
BRANCH  30  31
HETATM   31  C   UNL     1      -3.105   9.223 -29.711  1.00  0.00     0.171 C 
HETATM   32  C   UNL     1      -2.439   9.389 -31.066  1.00  0.00     0.034 C 
ENDBRANCH  30  31
ENDBRANCH  25  30
ENDBRANCH  22  24
ENDBRANCH   1  22
TORSDOF 6
ENDMDL
