MODEL 1
REMARK VINA RESULT:      -8.6      0.000      0.000
REMARK  7 active torsions:
REMARK  status: ('A' for Active; 'I' for Inactive)
REMARK    1  A    between atoms: C_3  and  C_4 
REMARK       I    between atoms: C_4  and  N_5 
REMARK    2  A    between atoms: N_8  and  C_9 
REMARK    3  A    between atoms: C_12  and  N_13 
REMARK    4  A    between atoms: N_13  and  C_14 
REMARK    5  A    between atoms: C_14  and  N_15 
REMARK       I    between atoms: N_15  and  C_16 
REMARK    6  A    between atoms: C_16  and  C_17 
REMARK    7  A    between atoms: C_19  and  O_20 
ROOT
HETATM    1  C   UNL     1      -6.605   4.597 -32.622  1.00  0.00     0.030 A 
HETATM    2  C   UNL     1      -7.506   4.587 -31.548  1.00  0.00     0.031 A 
HETATM    3  C   UNL     1      -8.830   4.161 -31.705  1.00  0.00     0.026 A 
HETATM    4  C   UNL     1      -9.286   3.727 -32.952  1.00  0.00     0.014 A 
HETATM    5  C   UNL     1      -8.382   3.643 -34.009  1.00  0.00     0.026 A 
HETATM    6  C   UNL     1      -7.059   4.086 -33.844  1.00  0.00     0.031 A 
ENDROOT
BRANCH   4   7
HETATM    7  N   UNL     1     -10.690   3.495 -33.098  1.00  0.00    -0.236 NA
HETATM    8  H   UNL     1     -11.069   4.192 -33.735  1.00  0.00     0.136 HD
BRANCH   7   9
HETATM    9  C   UNL     1     -11.160   2.245 -33.386  1.00  0.00     0.157 C 
HETATM   10  S   UNL     1     -12.224   1.983 -34.648  1.00  0.00    -0.047 SA
BRANCH   9  11
HETATM   11  N   UNL     1     -10.814   1.199 -32.566  1.00  0.00    -0.304 N 
HETATM   12  C   UNL     1     -10.141   0.028 -32.863  1.00  0.00     0.257 C 
HETATM   13  O   UNL     1     -10.699  -1.057 -32.721  1.00  0.00    -0.267 OA
HETATM   14  H   UNL     1     -11.533   1.053 -31.868  1.00  0.00     0.171 HD
BRANCH  12  15
HETATM   15  C   UNL     1      -8.670   0.107 -33.154  1.00  0.00     0.035 A 
HETATM   16  C   UNL     1      -7.821   0.472 -32.094  1.00  0.00     0.053 A 
HETATM   17  C   UNL     1      -6.457   0.684 -32.316  1.00  0.00     0.069 A 
HETATM   18  C   UNL     1      -5.922   0.468 -33.586  1.00  0.00     0.037 A 
HETATM   19  C   UNL     1      -6.753   0.107 -34.644  1.00  0.00     0.004 A 
HETATM   20  C   UNL     1      -8.124  -0.049 -34.435  1.00  0.00     0.017 A 
BRANCH  17  21
HETATM   21  O   UNL     1      -5.557   1.091 -31.369  1.00  0.00    -0.356 OA
HETATM   22  C   UNL     1      -6.111   1.410 -30.097  1.00  0.00     0.210 C 
ENDBRANCH  17  21
ENDBRANCH  12  15
ENDBRANCH   9  11
ENDBRANCH   7   9
ENDBRANCH   4   7
BRANCH   1  23
HETATM   23  N   UNL     1      -5.344   5.169 -32.435  1.00  0.00    -0.378 N 
HETATM   24  C   UNL     1      -4.463   5.322 -33.610  1.00  0.00     0.143 C 
HETATM   25  C   UNL     1      -3.346   6.330 -33.292  1.00  0.00     0.146 C 
HETATM   26  N   UNL     1      -2.621   6.019 -32.053  1.00  0.00    -0.345 N 
HETATM   27  C   UNL     1      -1.327   6.528 -31.938  1.00  0.00     0.254 C 
HETATM   28  C   UNL     1      -3.464   5.664 -30.899  1.00  0.00     0.146 C 
HETATM   29  O   UNL     1      -0.710   7.044 -32.867  1.00  0.00    -0.267 OA
HETATM   30  C   UNL     1      -4.614   4.692 -31.243  1.00  0.00     0.143 C 
BRANCH  27  31
HETATM   31  C   UNL     1      -0.634   6.413 -30.638  1.00  0.00     0.038 A 
HETATM   32  C   UNL     1      -0.701   7.424 -29.664  1.00  0.00    -0.046 A 
HETATM   33  C   UNL     1      -1.507   8.678 -29.846  1.00  0.00     0.049 C 
HETATM   34  C   UNL     1      -0.011   7.228 -28.458  1.00  0.00     0.007 A 
HETATM   35  C   UNL     1       0.758   6.079 -28.252  1.00  0.00     0.001 A 
HETATM   36  C   UNL     1       0.846   5.104 -29.244  1.00  0.00     0.001 A 
HETATM   37  C   UNL     1       0.149   5.269 -30.439  1.00  0.00     0.017 A 
ENDBRANCH  27  31
ENDBRANCH   1  23
TORSDOF 7
ENDMDL
MODEL 2
REMARK VINA RESULT:      -8.3      1.738      2.710
REMARK  7 active torsions:
REMARK  status: ('A' for Active; 'I' for Inactive)
REMARK    1  A    between atoms: C_3  and  C_4 
REMARK       I    between atoms: C_4  and  N_5 
REMARK    2  A    between atoms: N_8  and  C_9 
REMARK    3  A    between atoms: C_12  and  N_13 
REMARK    4  A    between atoms: N_13  and  C_14 
REMARK    5  A    between atoms: C_14  and  N_15 
REMARK       I    between atoms: N_15  and  C_16 
REMARK    6  A    between atoms: C_16  and  C_17 
REMARK    7  A    between atoms: C_19  and  O_20 
ROOT
HETATM    1  C   UNL     1      -6.878   4.907 -30.964  1.00  0.00     0.030 A 
HETATM    2  C   UNL     1      -7.753   4.906 -32.059  1.00  0.00     0.031 A 
HETATM    3  C   UNL     1      -8.762   3.944 -32.191  1.00  0.00     0.026 A 
HETATM    4  C   UNL     1      -8.923   2.955 -31.219  1.00  0.00     0.014 A 
HETATM    5  C   UNL     1      -8.123   2.995 -30.078  1.00  0.00     0.026 A 
HETATM    6  C   UNL     1      -7.104   3.955 -29.962  1.00  0.00     0.031 A 
ENDROOT
BRANCH   4   7
HETATM    7  N   UNL     1      -9.833   1.889 -31.504  1.00  0.00    -0.236 NA
HETATM    8  H   UNL     1     -10.783   2.230 -31.375  1.00  0.00     0.136 HD
BRANCH   7   9
HETATM    9  C   UNL     1      -9.713   1.163 -32.655  1.00  0.00     0.157 C 
HETATM   10  S   UNL     1     -10.625   1.519 -34.009  1.00  0.00    -0.047 SA
BRANCH   9  11
HETATM   11  N   UNL     1      -8.885   0.067 -32.667  1.00  0.00    -0.304 N 
HETATM   12  C   UNL     1      -7.601  -0.065 -33.164  1.00  0.00     0.257 C 
HETATM   13  O   UNL     1      -7.374  -0.849 -34.083  1.00  0.00    -0.267 OA
HETATM   14  H   UNL     1      -9.429  -0.777 -32.799  1.00  0.00     0.171 HD
BRANCH  12  15
HETATM   15  C   UNL     1      -6.479   0.604 -32.425  1.00  0.00     0.035 A 
HETATM   16  C   UNL     1      -5.864   1.707 -33.044  1.00  0.00     0.053 A 
HETATM   17  C   UNL     1      -4.736   2.304 -32.475  1.00  0.00     0.069 A 
HETATM   18  C   UNL     1      -4.255   1.845 -31.249  1.00  0.00     0.037 A 
HETATM   19  C   UNL     1      -4.855   0.753 -30.626  1.00  0.00     0.004 A 
HETATM   20  C   UNL     1      -5.946   0.120 -31.223  1.00  0.00     0.017 A 
BRANCH  17  21
HETATM   21  O   UNL     1      -4.033   3.344 -33.020  1.00  0.00    -0.356 OA
HETATM   22  C   UNL     1      -2.764   3.601 -32.427  1.00  0.00     0.210 C 
ENDBRANCH  17  21
ENDBRANCH  12  15
ENDBRANCH   9  11
ENDBRANCH   7   9
ENDBRANCH   4   7
BRANCH   1  23
HETATM   23  N   UNL     1      -5.804   5.800 -30.964  1.00  0.00    -0.378 N 
HETATM   24  C   UNL     1      -5.329   6.325 -32.260  1.00  0.00     0.143 C 
HETATM   25  C   UNL     1      -4.467   7.578 -32.027  1.00  0.00     0.146 C 
HETATM   26  N   UNL     1      -3.391   7.366 -31.051  1.00  0.00    -0.345 N 
HETATM   27  C   UNL     1      -2.289   8.217 -31.138  1.00  0.00     0.254 C 
HETATM   28  C   UNL     1      -3.784   6.662 -29.818  1.00  0.00     0.146 C 
HETATM   29  O   UNL     1      -2.088   8.984 -32.077  1.00  0.00    -0.267 OA
HETATM   30  C   UNL     1      -4.692   5.438 -30.062  1.00  0.00     0.143 C 
BRANCH  27  31
HETATM   31  C   UNL     1      -1.276   8.176 -30.062  1.00  0.00     0.038 A 
HETATM   32  C   UNL     1      -0.197   7.277 -30.085  1.00  0.00    -0.046 A 
HETATM   33  C   UNL     1       0.038   6.316 -31.216  1.00  0.00     0.049 C 
HETATM   34  C   UNL     1       0.717   7.310 -29.020  1.00  0.00     0.007 A 
HETATM   35  C   UNL     1       0.530   8.183 -27.945  1.00  0.00     0.001 A 
HETATM   36  C   UNL     1      -0.567   9.041 -27.918  1.00  0.00     0.001 A 
HETATM   37  C   UNL     1      -1.473   9.040 -28.977  1.00  0.00     0.017 A 
ENDBRANCH  27  31
ENDBRANCH   1  23
TORSDOF 7
ENDMDL
MODEL 3
REMARK VINA RESULT:      -8.1      1.972      2.814
REMARK  7 active torsions:
REMARK  status: ('A' for Active; 'I' for Inactive)
REMARK    1  A    between atoms: C_3  and  C_4 
REMARK       I    between atoms: C_4  and  N_5 
REMARK    2  A    between atoms: N_8  and  C_9 
REMARK    3  A    between atoms: C_12  and  N_13 
REMARK    4  A    between atoms: N_13  and  C_14 
REMARK    5  A    between atoms: C_14  and  N_15 
REMARK       I    between atoms: N_15  and  C_16 
REMARK    6  A    between atoms: C_16  and  C_17 
REMARK    7  A    between atoms: C_19  and  O_20 
ROOT
HETATM    1  C   UNL     1      -6.024   3.898 -31.578  1.00  0.00     0.030 A 
HETATM    2  C   UNL     1      -7.105   3.983 -32.467  1.00  0.00     0.031 A 
HETATM    3  C   UNL     1      -7.956   2.895 -32.693  1.00  0.00     0.026 A 
HETATM    4  C   UNL     1      -7.746   1.687 -32.027  1.00  0.00     0.014 A 
HETATM    5  C   UNL     1      -6.733   1.611 -31.072  1.00  0.00     0.026 A 
HETATM    6  C   UNL     1      -5.876   2.704 -30.862  1.00  0.00     0.031 A 
ENDROOT
BRANCH   4   7
HETATM    7  N   UNL     1      -8.518   0.558 -32.444  1.00  0.00    -0.236 NA
HETATM    8  H   UNL     1      -9.080   0.240 -31.657  1.00  0.00     0.136 HD
BRANCH   7   9
HETATM    9  C   UNL     1      -9.252   0.606 -33.596  1.00  0.00     0.157 C 
HETATM   10  S   UNL     1     -10.902   0.864 -33.568  1.00  0.00    -0.047 SA
BRANCH   9  11
HETATM   11  N   UNL     1      -8.627   0.353 -34.792  1.00  0.00    -0.304 N 
HETATM   12  C   UNL     1      -7.280   0.361 -35.105  1.00  0.00     0.257 C 
HETATM   13  O   UNL     1      -6.844   1.161 -35.930  1.00  0.00    -0.267 OA
HETATM   14  H   UNL     1      -9.194   0.696 -35.558  1.00  0.00     0.171 HD
BRANCH  12  15
HETATM   15  C   UNL     1      -6.420  -0.750 -34.578  1.00  0.00     0.035 A 
HETATM   16  C   UNL     1      -5.315  -0.392 -33.786  1.00  0.00     0.053 A 
HETATM   17  C   UNL     1      -4.400  -1.361 -33.361  1.00  0.00     0.069 A 
HETATM   18  C   UNL     1      -4.622  -2.702 -33.670  1.00  0.00     0.037 A 
HETATM   19  C   UNL     1      -5.712  -3.070 -34.454  1.00  0.00     0.004 A 
HETATM   20  C   UNL     1      -6.594  -2.096 -34.927  1.00  0.00     0.017 A 
BRANCH  17  21
HETATM   21  O   UNL     1      -3.267  -1.112 -32.635  1.00  0.00    -0.356 OA
HETATM   22  C   UNL     1      -3.471  -0.442 -31.395  1.00  0.00     0.210 C 
ENDBRANCH  17  21
ENDBRANCH  12  15
ENDBRANCH   9  11
ENDBRANCH   7   9
ENDBRANCH   4   7
BRANCH   1  23
HETATM   23  N   UNL     1      -5.128   4.967 -31.506  1.00  0.00    -0.378 N 
HETATM   24  C   UNL     1      -4.582   5.511 -32.766  1.00  0.00     0.143 C 
HETATM   25  C   UNL     1      -3.986   6.906 -32.514  1.00  0.00     0.146 C 
HETATM   26  N   UNL     1      -3.028   6.933 -31.402  1.00  0.00    -0.345 N 
HETATM   27  C   UNL     1      -2.086   7.962 -31.410  1.00  0.00     0.254 C 
HETATM   28  C   UNL     1      -3.455   6.226 -30.182  1.00  0.00     0.146 C 
HETATM   29  O   UNL     1      -1.898   8.710 -32.366  1.00  0.00    -0.267 OA
HETATM   30  C   UNL     1      -4.099   4.850 -30.453  1.00  0.00     0.143 C 
BRANCH  27  31
HETATM   31  C   UNL     1      -1.233   8.150 -30.218  1.00  0.00     0.038 A 
HETATM   32  C   UNL     1      -0.045   7.423 -30.027  1.00  0.00    -0.046 A 
HETATM   33  C   UNL     1       0.472   6.431 -31.029  1.00  0.00     0.049 C 
HETATM   34  C   UNL     1       0.702   7.668 -28.864  1.00  0.00     0.007 A 
HETATM   35  C   UNL     1       0.252   8.578 -27.903  1.00  0.00     0.001 A 
HETATM   36  C   UNL     1      -0.948   9.261 -28.088  1.00  0.00     0.001 A 
HETATM   37  C   UNL     1      -1.693   9.049 -29.247  1.00  0.00     0.017 A 
ENDBRANCH  27  31
ENDBRANCH   1  23
TORSDOF 7
ENDMDL
MODEL 4
REMARK VINA RESULT:      -8.1      2.413      3.727
REMARK  7 active torsions:
REMARK  status: ('A' for Active; 'I' for Inactive)
REMARK    1  A    between atoms: C_3  and  C_4 
REMARK       I    between atoms: C_4  and  N_5 
REMARK    2  A    between atoms: N_8  and  C_9 
REMARK    3  A    between atoms: C_12  and  N_13 
REMARK    4  A    between atoms: N_13  and  C_14 
REMARK    5  A    between atoms: C_14  and  N_15 
REMARK       I    between atoms: N_15  and  C_16 
REMARK    6  A    between atoms: C_16  and  C_17 
REMARK    7  A    between atoms: C_19  and  O_20 
ROOT
HETATM    1  C   UNL     1      -8.959   4.319 -32.559  1.00  0.00     0.030 A 
HETATM    2  C   UNL     1      -9.523   5.040 -33.621  1.00  0.00     0.031 A 
HETATM    3  C   UNL     1     -10.910   5.121 -33.798  1.00  0.00     0.026 A 
HETATM    4  C   UNL     1     -11.772   4.480 -32.906  1.00  0.00     0.014 A 
HETATM    5  C   UNL     1     -11.233   3.837 -31.793  1.00  0.00     0.026 A 
HETATM    6  C   UNL     1      -9.840   3.749 -31.632  1.00  0.00     0.031 A 
ENDROOT
BRANCH   4   7
HETATM    7  N   UNL     1     -13.160   4.431 -33.247  1.00  0.00    -0.236 NA
HETATM    8  H   UNL     1     -13.288   4.876 -34.152  1.00  0.00     0.136 HD
BRANCH   7   9
HETATM    9  C   UNL     1     -13.853   3.256 -33.164  1.00  0.00     0.157 C 
HETATM   10  S   UNL     1     -14.817   2.904 -31.846  1.00  0.00    -0.047 SA
BRANCH   9  11
HETATM   11  N   UNL     1     -13.684   2.314 -34.149  1.00  0.00    -0.304 N 
HETATM   12  C   UNL     1     -12.573   2.038 -34.926  1.00  0.00     0.257 C 
HETATM   13  O   UNL     1     -12.623   2.181 -36.146  1.00  0.00    -0.267 OA
HETATM   14  H   UNL     1     -14.546   2.197 -34.669  1.00  0.00     0.171 HD
BRANCH  12  15
HETATM   15  C   UNL     1     -11.399   1.368 -34.275  1.00  0.00     0.035 A 
HETATM   16  C   UNL     1     -10.118   1.702 -34.752  1.00  0.00     0.053 A 
HETATM   17  C   UNL     1      -8.986   1.032 -34.280  1.00  0.00     0.069 A 
HETATM   18  C   UNL     1      -9.120   0.069 -33.281  1.00  0.00     0.037 A 
HETATM   19  C   UNL     1     -10.382  -0.272 -32.801  1.00  0.00     0.004 A 
HETATM   20  C   UNL     1     -11.518   0.357 -33.313  1.00  0.00     0.017 A 
BRANCH  17  21
HETATM   21  O   UNL     1      -7.705   1.242 -34.715  1.00  0.00    -0.356 OA
HETATM   22  C   UNL     1      -7.050   0.101 -35.259  1.00  0.00     0.210 C 
ENDBRANCH  17  21
ENDBRANCH  12  15
ENDBRANCH   9  11
ENDBRANCH   7   9
ENDBRANCH   4   7
BRANCH   1  23
HETATM   23  N   UNL     1      -7.573   4.155 -32.521  1.00  0.00    -0.378 N 
HETATM   24  C   UNL     1      -6.991   3.358 -31.422  1.00  0.00     0.143 C 
HETATM   25  C   UNL     1      -5.556   2.942 -31.787  1.00  0.00     0.146 C 
HETATM   26  N   UNL     1      -4.714   4.072 -32.200  1.00  0.00    -0.345 N 
HETATM   27  C   UNL     1      -3.335   3.910 -32.062  1.00  0.00     0.254 C 
HETATM   28  C   UNL     1      -5.334   5.009 -33.153  1.00  0.00     0.146 C 
HETATM   29  O   UNL     1      -2.813   2.979 -31.453  1.00  0.00    -0.267 OA
HETATM   30  C   UNL     1      -6.792   5.377 -32.804  1.00  0.00     0.143 C 
BRANCH  27  31
HETATM   31  C   UNL     1      -2.440   4.931 -32.645  1.00  0.00     0.038 A 
HETATM   32  C   UNL     1      -2.062   6.085 -31.938  1.00  0.00    -0.046 A 
HETATM   33  C   UNL     1      -2.501   6.355 -30.528  1.00  0.00     0.049 C 
HETATM   34  C   UNL     1      -1.208   7.001 -32.572  1.00  0.00     0.007 A 
HETATM   35  C   UNL     1      -0.783   6.791 -33.887  1.00  0.00     0.001 A 
HETATM   36  C   UNL     1      -1.198   5.661 -34.589  1.00  0.00     0.001 A 
HETATM   37  C   UNL     1      -2.028   4.728 -33.969  1.00  0.00     0.017 A 
ENDBRANCH  27  31
ENDBRANCH   1  23
TORSDOF 7
ENDMDL
MODEL 5
REMARK VINA RESULT:      -7.9      3.445      9.745
REMARK  7 active torsions:
REMARK  status: ('A' for Active; 'I' for Inactive)
REMARK    1  A    between atoms: C_3  and  C_4 
REMARK       I    between atoms: C_4  and  N_5 
REMARK    2  A    between atoms: N_8  and  C_9 
REMARK    3  A    between atoms: C_12  and  N_13 
REMARK    4  A    between atoms: N_13  and  C_14 
REMARK    5  A    between atoms: C_14  and  N_15 
REMARK       I    between atoms: N_15  and  C_16 
REMARK    6  A    between atoms: C_16  and  C_17 
REMARK    7  A    between atoms: C_19  and  O_20 
ROOT
HETATM    1  C   UNL     1      -5.103   5.714 -29.545  1.00  0.00     0.030 A 
HETATM    2  C   UNL     1      -5.335   6.016 -28.195  1.00  0.00     0.031 A 
HETATM    3  C   UNL     1      -4.472   6.846 -27.470  1.00  0.00     0.026 A 
HETATM    4  C   UNL     1      -3.349   7.402 -28.085  1.00  0.00     0.014 A 
HETATM    5  C   UNL     1      -3.152   7.189 -29.449  1.00  0.00     0.026 A 
HETATM    6  C   UNL     1      -4.015   6.342 -30.164  1.00  0.00     0.031 A 
ENDROOT
BRANCH   4   7
HETATM    7  N   UNL     1      -2.402   8.074 -27.250  1.00  0.00    -0.236 NA
HETATM    8  H   UNL     1      -1.720   7.395 -26.921  1.00  0.00     0.136 HD
BRANCH   7   9
HETATM    9  C   UNL     1      -1.798   9.225 -27.672  1.00  0.00     0.157 C 
HETATM   10  S   UNL     1      -2.690  10.577 -28.081  1.00  0.00    -0.047 SA
BRANCH   9  11
HETATM   11  N   UNL     1      -0.436   9.237 -27.841  1.00  0.00    -0.304 N 
HETATM   12  C   UNL     1       0.474   8.198 -27.759  1.00  0.00     0.257 C 
HETATM   13  O   UNL     1       1.356   8.218 -26.904  1.00  0.00    -0.267 OA
HETATM   14  H   UNL     1      -0.050  10.104 -27.488  1.00  0.00     0.171 HD
BRANCH  12  15
HETATM   15  C   UNL     1       0.485   7.173 -28.855  1.00  0.00     0.035 A 
HETATM   16  C   UNL     1       0.203   7.619 -30.159  1.00  0.00     0.053 A 
HETATM   17  C   UNL     1       0.075   6.707 -31.211  1.00  0.00     0.069 A 
HETATM   18  C   UNL     1       0.295   5.350 -30.978  1.00  0.00     0.037 A 
HETATM   19  C   UNL     1       0.575   4.895 -29.692  1.00  0.00     0.004 A 
HETATM   20  C   UNL     1       0.646   5.800 -28.631  1.00  0.00     0.017 A 
BRANCH  17  21
HETATM   21  O   UNL     1      -0.249   7.029 -32.501  1.00  0.00    -0.356 OA
HETATM   22  C   UNL     1      -1.493   7.702 -32.667  1.00  0.00     0.210 C 
ENDBRANCH  17  21
ENDBRANCH  12  15
ENDBRANCH   9  11
ENDBRANCH   7   9
ENDBRANCH   4   7
BRANCH   1  23
HETATM   23  N   UNL     1      -5.917   4.767 -30.170  1.00  0.00    -0.378 N 
HETATM   24  C   UNL     1      -7.041   4.193 -29.404  1.00  0.00     0.143 C 
HETATM   25  C   UNL     1      -8.039   3.528 -30.367  1.00  0.00     0.146 C 
HETATM   26  N   UNL     1      -7.408   2.571 -31.284  1.00  0.00    -0.345 N 
HETATM   27  C   UNL     1      -8.230   1.579 -31.820  1.00  0.00     0.254 C 
HETATM   28  C   UNL     1      -6.164   3.034 -31.924  1.00  0.00     0.146 C 
HETATM   29  O   UNL     1      -9.372   1.353 -31.429  1.00  0.00    -0.267 OA
HETATM   30  C   UNL     1      -5.194   3.746 -30.957  1.00  0.00     0.143 C 
BRANCH  27  31
HETATM   31  C   UNL     1      -7.693   0.720 -32.895  1.00  0.00     0.038 A 
HETATM   32  C   UNL     1      -6.713  -0.257 -32.652  1.00  0.00    -0.046 A 
HETATM   33  C   UNL     1      -6.161  -0.533 -31.283  1.00  0.00     0.049 C 
HETATM   34  C   UNL     1      -6.262  -1.028 -33.735  1.00  0.00     0.007 A 
HETATM   35  C   UNL     1      -6.744  -0.798 -35.026  1.00  0.00     0.001 A 
HETATM   36  C   UNL     1      -7.688   0.201 -35.258  1.00  0.00     0.001 A 
HETATM   37  C   UNL     1      -8.165   0.962 -34.192  1.00  0.00     0.017 A 
ENDBRANCH  27  31
ENDBRANCH   1  23
TORSDOF 7
ENDMDL
MODEL 6
REMARK VINA RESULT:      -7.8      1.884      2.624
REMARK  7 active torsions:
REMARK  status: ('A' for Active; 'I' for Inactive)
REMARK    1  A    between atoms: C_3  and  C_4 
REMARK       I    between atoms: C_4  and  N_5 
REMARK    2  A    between atoms: N_8  and  C_9 
REMARK    3  A    between atoms: C_12  and  N_13 
REMARK    4  A    between atoms: N_13  and  C_14 
REMARK    5  A    between atoms: C_14  and  N_15 
REMARK       I    between atoms: N_15  and  C_16 
REMARK    6  A    between atoms: C_16  and  C_17 
REMARK    7  A    between atoms: C_19  and  O_20 
ROOT
HETATM    1  C   UNL     1      -7.281   5.032 -30.900  1.00  0.00     0.030 A 
HETATM    2  C   UNL     1      -8.251   5.215 -31.896  1.00  0.00     0.031 A 
HETATM    3  C   UNL     1      -9.232   4.250 -32.151  1.00  0.00     0.026 A 
HETATM    4  C   UNL     1      -9.269   3.070 -31.405  1.00  0.00     0.014 A 
HETATM    5  C   UNL     1      -8.371   2.911 -30.350  1.00  0.00     0.026 A 
HETATM    6  C   UNL     1      -7.381   3.879 -30.112  1.00  0.00     0.031 A 
ENDROOT
BRANCH   4   7
HETATM    7  N   UNL     1     -10.161   2.041 -31.839  1.00  0.00    -0.236 NA
HETATM    8  H   UNL     1     -11.098   2.262 -31.509  1.00  0.00     0.136 HD
BRANCH   7   9
HETATM    9  C   UNL     1     -10.173   1.637 -33.145  1.00  0.00     0.157 C 
HETATM   10  S   UNL     1     -11.262   2.270 -34.243  1.00  0.00    -0.047 SA
BRANCH   9  11
HETATM   11  N   UNL     1      -9.326   0.630 -33.537  1.00  0.00    -0.304 N 
HETATM   12  C   UNL     1      -8.084   0.704 -34.141  1.00  0.00     0.257 C 
HETATM   13  O   UNL     1      -7.915   0.233 -35.263  1.00  0.00    -0.267 OA
HETATM   14  H   UNL     1      -9.861  -0.162 -33.872  1.00  0.00     0.171 HD
BRANCH  12  15
HETATM   15  C   UNL     1      -6.920   1.176 -33.319  1.00  0.00     0.035 A 
HETATM   16  C   UNL     1      -6.316   2.390 -33.692  1.00  0.00     0.053 A 
HETATM   17  C   UNL     1      -5.155   2.833 -33.052  1.00  0.00     0.069 A 
HETATM   18  C   UNL     1      -4.628   2.097 -31.991  1.00  0.00     0.037 A 
HETATM   19  C   UNL     1      -5.216   0.893 -31.613  1.00  0.00     0.004 A 
HETATM   20  C   UNL     1      -6.342   0.422 -32.290  1.00  0.00     0.017 A 
BRANCH  17  21
HETATM   21  O   UNL     1      -4.461   3.968 -33.372  1.00  0.00    -0.356 OA
HETATM   22  C   UNL     1      -4.993   4.724 -34.456  1.00  0.00     0.210 C 
ENDBRANCH  17  21
ENDBRANCH  12  15
ENDBRANCH   9  11
ENDBRANCH   7   9
ENDBRANCH   4   7
BRANCH   1  23
HETATM   23  N   UNL     1      -6.245   5.963 -30.793  1.00  0.00    -0.378 N 
HETATM   24  C   UNL     1      -6.078   6.954 -31.875  1.00  0.00     0.143 C 
HETATM   25  C   UNL     1      -5.200   8.116 -31.382  1.00  0.00     0.146 C 
HETATM   26  N   UNL     1      -3.930   7.673 -30.794  1.00  0.00    -0.345 N 
HETATM   27  C   UNL     1      -2.885   8.598 -30.788  1.00  0.00     0.254 C 
HETATM   28  C   UNL     1      -4.029   6.546 -29.851  1.00  0.00     0.146 C 
HETATM   29  O   UNL     1      -2.909   9.662 -31.401  1.00  0.00    -0.267 OA
HETATM   30  C   UNL     1      -4.954   5.409 -30.334  1.00  0.00     0.143 C 
BRANCH  27  31
HETATM   31  C   UNL     1      -1.657   8.272 -30.033  1.00  0.00     0.038 A 
HETATM   32  C   UNL     1      -1.366   8.860 -28.790  1.00  0.00    -0.046 A 
HETATM   33  C   UNL     1      -2.290   9.831 -28.113  1.00  0.00     0.049 C 
HETATM   34  C   UNL     1      -0.175   8.491 -28.145  1.00  0.00     0.007 A 
HETATM   35  C   UNL     1       0.716   7.597 -28.745  1.00  0.00     0.001 A 
HETATM   36  C   UNL     1       0.431   7.053 -29.996  1.00  0.00     0.001 A 
HETATM   37  C   UNL     1      -0.756   7.389 -30.642  1.00  0.00     0.017 A 
ENDBRANCH  27  31
ENDBRANCH   1  23
TORSDOF 7
ENDMDL
MODEL 7
REMARK VINA RESULT:      -7.6      3.528      8.978
REMARK  7 active torsions:
REMARK  status: ('A' for Active; 'I' for Inactive)
REMARK    1  A    between atoms: C_3  and  C_4 
REMARK       I    between atoms: C_4  and  N_5 
REMARK    2  A    between atoms: N_8  and  C_9 
REMARK    3  A    between atoms: C_12  and  N_13 
REMARK    4  A    between atoms: N_13  and  C_14 
REMARK    5  A    between atoms: C_14  and  N_15 
REMARK       I    between atoms: N_15  and  C_16 
REMARK    6  A    between atoms: C_16  and  C_17 
REMARK    7  A    between atoms: C_19  and  O_20 
ROOT
HETATM    1  C   UNL     1      -6.201   5.777 -29.510  1.00  0.00     0.030 A 
HETATM    2  C   UNL     1      -5.639   5.677 -28.229  1.00  0.00     0.031 A 
HETATM    3  C   UNL     1      -5.052   6.779 -27.597  1.00  0.00     0.026 A 
HETATM    4  C   UNL     1      -5.017   8.020 -28.237  1.00  0.00     0.014 A 
HETATM    5  C   UNL     1      -5.651   8.162 -29.470  1.00  0.00     0.026 A 
HETATM    6  C   UNL     1      -6.224   7.046 -30.102  1.00  0.00     0.031 A 
ENDROOT
BRANCH   4   7
HETATM    7  N   UNL     1      -4.234   9.054 -27.633  1.00  0.00    -0.236 NA
HETATM    8  H   UNL     1      -4.137   8.851 -26.641  1.00  0.00     0.136 HD
BRANCH   7   9
HETATM    9  C   UNL     1      -3.042   9.434 -28.184  1.00  0.00     0.157 C 
HETATM   10  S   UNL     1      -2.966  10.608 -29.370  1.00  0.00    -0.047 SA
BRANCH   9  11
HETATM   11  N   UNL     1      -1.897   8.774 -27.811  1.00  0.00    -0.304 N 
HETATM   12  C   UNL     1      -1.520   7.462 -28.036  1.00  0.00     0.257 C 
HETATM   13  O   UNL     1      -1.344   6.700 -27.088  1.00  0.00    -0.267 OA
HETATM   14  H   UNL     1      -1.585   9.106 -26.906  1.00  0.00     0.171 HD
BRANCH  12  15
HETATM   15  C   UNL     1      -1.131   7.063 -29.429  1.00  0.00     0.035 A 
HETATM   16  C   UNL     1      -2.144   6.555 -30.263  1.00  0.00     0.053 A 
HETATM   17  C   UNL     1      -1.838   6.050 -31.529  1.00  0.00     0.069 A 
HETATM   18  C   UNL     1      -0.525   6.110 -31.997  1.00  0.00     0.037 A 
HETATM   19  C   UNL     1       0.487   6.610 -31.182  1.00  0.00     0.004 A 
HETATM   20  C   UNL     1       0.190   7.061 -29.895  1.00  0.00     0.017 A 
BRANCH  17  21
HETATM   21  O   UNL     1      -2.737   5.487 -32.394  1.00  0.00    -0.356 OA
HETATM   22  C   UNL     1      -2.480   4.131 -32.744  1.00  0.00     0.210 C 
ENDBRANCH  17  21
ENDBRANCH  12  15
ENDBRANCH   9  11
ENDBRANCH   7   9
ENDBRANCH   4   7
BRANCH   1  23
HETATM   23  N   UNL     1      -6.638   4.612 -30.143  1.00  0.00    -0.378 N 
HETATM   24  C   UNL     1      -7.774   3.876 -29.552  1.00  0.00     0.143 C 
HETATM   25  C   UNL     1      -8.364   2.909 -30.593  1.00  0.00     0.146 C 
HETATM   26  N   UNL     1      -7.356   2.035 -31.206  1.00  0.00    -0.345 N 
HETATM   27  C   UNL     1      -7.814   0.834 -31.748  1.00  0.00     0.254 C 
HETATM   28  C   UNL     1      -6.115   2.702 -31.633  1.00  0.00     0.146 C 
HETATM   29  O   UNL     1      -8.948   0.393 -31.575  1.00  0.00    -0.267 OA
HETATM   30  C   UNL     1      -5.562   3.709 -30.602  1.00  0.00     0.143 C 
BRANCH  27  31
HETATM   31  C   UNL     1      -6.879   0.016 -32.548  1.00  0.00     0.038 A 
HETATM   32  C   UNL     1      -7.065  -0.200 -33.924  1.00  0.00    -0.046 A 
HETATM   33  C   UNL     1      -8.199   0.409 -34.698  1.00  0.00     0.049 C 
HETATM   34  C   UNL     1      -6.125  -0.991 -34.604  1.00  0.00     0.007 A 
HETATM   35  C   UNL     1      -5.060  -1.583 -33.919  1.00  0.00     0.001 A 
HETATM   36  C   UNL     1      -4.912  -1.391 -32.547  1.00  0.00     0.001 A 
HETATM   37  C   UNL     1      -5.821  -0.591 -31.859  1.00  0.00     0.017 A 
ENDBRANCH  27  31
ENDBRANCH   1  23
TORSDOF 7
ENDMDL
MODEL 8
REMARK VINA RESULT:      -7.6      2.311      3.403
REMARK  7 active torsions:
REMARK  status: ('A' for Active; 'I' for Inactive)
REMARK    1  A    between atoms: C_3  and  C_4 
REMARK       I    between atoms: C_4  and  N_5 
REMARK    2  A    between atoms: N_8  and  C_9 
REMARK    3  A    between atoms: C_12  and  N_13 
REMARK    4  A    between atoms: N_13  and  C_14 
REMARK    5  A    between atoms: C_14  and  N_15 
REMARK       I    between atoms: N_15  and  C_16 
REMARK    6  A    between atoms: C_16  and  C_17 
REMARK    7  A    between atoms: C_19  and  O_20 
ROOT
HETATM    1  C   UNL     1      -6.848   4.224 -33.728  1.00  0.00     0.030 A 
HETATM    2  C   UNL     1      -7.962   5.050 -33.927  1.00  0.00     0.031 A 
HETATM    3  C   UNL     1      -9.229   4.520 -34.201  1.00  0.00     0.026 A 
HETATM    4  C   UNL     1      -9.412   3.138 -34.278  1.00  0.00     0.014 A 
HETATM    5  C   UNL     1      -8.337   2.299 -33.991  1.00  0.00     0.026 A 
HETATM    6  C   UNL     1      -7.067   2.840 -33.732  1.00  0.00     0.031 A 
ENDROOT
BRANCH   4   7
HETATM    7  N   UNL     1     -10.674   2.664 -34.754  1.00  0.00    -0.236 NA
HETATM    8  H   UNL     1     -10.513   1.859 -35.355  1.00  0.00     0.136 HD
BRANCH   7   9
HETATM    9  C   UNL     1     -11.705   2.440 -33.884  1.00  0.00     0.157 C 
HETATM   10  S   UNL     1     -12.421   0.937 -33.750  1.00  0.00    -0.047 SA
BRANCH   9  11
HETATM   11  N   UNL     1     -12.212   3.498 -33.170  1.00  0.00    -0.304 N 
HETATM   12  C   UNL     1     -12.223   3.718 -31.805  1.00  0.00     0.257 C 
HETATM   13  O   UNL     1     -13.291   3.798 -31.202  1.00  0.00    -0.267 OA
HETATM   14  H   UNL     1     -13.055   3.843 -33.614  1.00  0.00     0.171 HD
BRANCH  12  15
HETATM   15  C   UNL     1     -10.928   4.062 -31.129  1.00  0.00     0.035 A 
HETATM   16  C   UNL     1     -10.640   5.426 -30.939  1.00  0.00     0.053 A 
HETATM   17  C   UNL     1      -9.403   5.828 -30.428  1.00  0.00     0.069 A 
HETATM   18  C   UNL     1      -8.470   4.866 -30.043  1.00  0.00     0.037 A 
HETATM   19  C   UNL     1      -8.742   3.512 -30.226  1.00  0.00     0.004 A 
HETATM   20  C   UNL     1      -9.955   3.113 -30.789  1.00  0.00     0.017 A 
BRANCH  17  21
HETATM   21  O   UNL     1      -9.004   7.125 -30.255  1.00  0.00    -0.356 OA
HETATM   22  C   UNL     1      -8.388   7.731 -31.387  1.00  0.00     0.210 C 
ENDBRANCH  17  21
ENDBRANCH  12  15
ENDBRANCH   9  11
ENDBRANCH   7   9
ENDBRANCH   4   7
BRANCH   1  23
HETATM   23  N   UNL     1      -5.588   4.814 -33.604  1.00  0.00    -0.378 N 
HETATM   24  C   UNL     1      -4.667   4.749 -34.757  1.00  0.00     0.143 C 
HETATM   25  C   UNL     1      -3.551   5.793 -34.587  1.00  0.00     0.146 C 
HETATM   26  N   UNL     1      -2.870   5.707 -33.289  1.00  0.00    -0.345 N 
HETATM   27  C   UNL     1      -1.575   6.223 -33.224  1.00  0.00     0.254 C 
HETATM   28  C   UNL     1      -3.754   5.569 -32.119  1.00  0.00     0.146 C 
HETATM   29  O   UNL     1      -0.923   6.560 -34.209  1.00  0.00    -0.267 OA
HETATM   30  C   UNL     1      -4.901   4.557 -32.322  1.00  0.00     0.143 C 
BRANCH  27  31
HETATM   31  C   UNL     1      -0.926   6.340 -31.902  1.00  0.00     0.038 A 
HETATM   32  C   UNL     1      -1.062   7.488 -31.102  1.00  0.00    -0.046 A 
HETATM   33  C   UNL     1      -1.903   8.665 -31.505  1.00  0.00     0.049 C 
HETATM   34  C   UNL     1      -0.409   7.511 -29.860  1.00  0.00     0.007 A 
HETATM   35  C   UNL     1       0.390   6.439 -29.451  1.00  0.00     0.001 A 
HETATM   36  C   UNL     1       0.546   5.325 -30.273  1.00  0.00     0.001 A 
HETATM   37  C   UNL     1      -0.112   5.273 -31.500  1.00  0.00     0.017 A 
ENDBRANCH  27  31
ENDBRANCH   1  23
TORSDOF 7
ENDMDL
MODEL 9
REMARK VINA RESULT:      -7.2      1.960      2.594
REMARK  7 active torsions:
REMARK  status: ('A' for Active; 'I' for Inactive)
REMARK    1  A    between atoms: C_3  and  C_4 
REMARK       I    between atoms: C_4  and  N_5 
REMARK    2  A    between atoms: N_8  and  C_9 
REMARK    3  A    between atoms: C_12  and  N_13 
REMARK    4  A    between atoms: N_13  and  C_14 
REMARK    5  A    between atoms: C_14  and  N_15 
REMARK       I    between atoms: N_15  and  C_16 
REMARK    6  A    between atoms: C_16  and  C_17 
REMARK    7  A    between atoms: C_19  and  O_20 
ROOT
HETATM    1  C   UNL     1      -5.574   5.691 -31.731  1.00  0.00     0.030 A 
HETATM    2  C   UNL     1      -5.758   4.391 -31.238  1.00  0.00     0.031 A 
HETATM    3  C   UNL     1      -6.694   3.518 -31.805  1.00  0.00     0.026 A 
HETATM    4  C   UNL     1      -7.471   3.926 -32.890  1.00  0.00     0.014 A 
HETATM    5  C   UNL     1      -7.238   5.181 -33.452  1.00  0.00     0.026 A 
HETATM    6  C   UNL     1      -6.307   6.055 -32.867  1.00  0.00     0.031 A 
ENDROOT
BRANCH   4   7
HETATM    7  N   UNL     1      -8.541   3.070 -33.297  1.00  0.00    -0.236 NA
HETATM    8  H   UNL     1      -8.146   2.233 -33.718  1.00  0.00     0.136 HD
BRANCH   7   9
HETATM    9  C   UNL     1      -9.554   2.765 -32.432  1.00  0.00     0.157 C 
HETATM   10  S   UNL     1     -10.595   3.939 -31.859  1.00  0.00    -0.047 SA
BRANCH   9  11
HETATM   11  N   UNL     1      -9.660   1.479 -31.961  1.00  0.00    -0.304 N 
HETATM   12  C   UNL     1      -9.522   0.278 -32.633  1.00  0.00     0.257 C 
HETATM   13  O   UNL     1     -10.473  -0.496 -32.715  1.00  0.00    -0.267 OA
HETATM   14  H   UNL     1     -10.375   1.430 -31.245  1.00  0.00     0.171 HD
BRANCH  12  15
HETATM   15  C   UNL     1      -8.147  -0.141 -33.065  1.00  0.00     0.035 A 
HETATM   16  C   UNL     1      -7.141  -0.169 -32.083  1.00  0.00     0.053 A 
HETATM   17  C   UNL     1      -5.812  -0.431 -32.432  1.00  0.00     0.069 A 
HETATM   18  C   UNL     1      -5.493  -0.731 -33.755  1.00  0.00     0.037 A 
HETATM   19  C   UNL     1      -6.479  -0.707 -34.738  1.00  0.00     0.004 A 
HETATM   20  C   UNL     1      -7.795  -0.389 -34.399  1.00  0.00     0.017 A 
BRANCH  17  21
HETATM   21  O   UNL     1      -4.753  -0.428 -31.565  1.00  0.00    -0.356 OA
HETATM   22  C   UNL     1      -3.638  -1.220 -31.962  1.00  0.00     0.210 C 
ENDBRANCH  17  21
ENDBRANCH  12  15
ENDBRANCH   9  11
ENDBRANCH   7   9
ENDBRANCH   4   7
BRANCH   1  23
HETATM   23  N   UNL     1      -4.733   6.560 -31.033  1.00  0.00    -0.378 N 
HETATM   24  C   UNL     1      -4.388   7.854 -31.656  1.00  0.00     0.143 C 
HETATM   25  C   UNL     1      -3.837   8.813 -30.589  1.00  0.00     0.146 C 
HETATM   26  N   UNL     1      -2.741   8.234 -29.801  1.00  0.00    -0.345 N 
HETATM   27  C   UNL     1      -1.863   9.130 -29.192  1.00  0.00     0.254 C 
HETATM   28  C   UNL     1      -2.964   6.858 -29.324  1.00  0.00     0.146 C 
HETATM   29  O   UNL     1      -1.842  10.336 -29.429  1.00  0.00    -0.267 OA
HETATM   30  C   UNL     1      -3.568   5.919 -30.390  1.00  0.00     0.143 C 
BRANCH  27  31
HETATM   31  C   UNL     1      -0.869   8.607 -28.232  1.00  0.00     0.038 A 
HETATM   32  C   UNL     1       0.211   7.805 -28.638  1.00  0.00    -0.046 A 
HETATM   33  C   UNL     1       0.466   7.448 -30.074  1.00  0.00     0.049 C 
HETATM   34  C   UNL     1       1.106   7.352 -27.655  1.00  0.00     0.007 A 
HETATM   35  C   UNL     1       0.901   7.655 -26.306  1.00  0.00     0.001 A 
HETATM   36  C   UNL     1      -0.197   8.419 -25.916  1.00  0.00     0.001 A 
HETATM   37  C   UNL     1      -1.085   8.897 -26.879  1.00  0.00     0.017 A 
ENDBRANCH  27  31
ENDBRANCH   1  23
TORSDOF 7
ENDMDL
MODEL 10
REMARK VINA RESULT:      -7.2      2.593      4.236
REMARK  7 active torsions:
REMARK  status: ('A' for Active; 'I' for Inactive)
REMARK    1  A    between atoms: C_3  and  C_4 
REMARK       I    between atoms: C_4  and  N_5 
REMARK    2  A    between atoms: N_8  and  C_9 
REMARK    3  A    between atoms: C_12  and  N_13 
REMARK    4  A    between atoms: N_13  and  C_14 
REMARK    5  A    between atoms: C_14  and  N_15 
REMARK       I    between atoms: N_15  and  C_16 
REMARK    6  A    between atoms: C_16  and  C_17 
REMARK    7  A    between atoms: C_19  and  O_20 
ROOT
HETATM    1  C   UNL     1      -6.306   3.787 -33.640  1.00  0.00     0.030 A 
HETATM    2  C   UNL     1      -7.599   4.325 -33.581  1.00  0.00     0.031 A 
HETATM    3  C   UNL     1      -8.727   3.563 -33.907  1.00  0.00     0.026 A 
HETATM    4  C   UNL     1      -8.586   2.230 -34.299  1.00  0.00     0.014 A 
HETATM    5  C   UNL     1      -7.318   1.650 -34.275  1.00  0.00     0.026 A 
HETATM    6  C   UNL     1      -6.191   2.428 -33.960  1.00  0.00     0.031 A 
ENDROOT
BRANCH   4   7
HETATM    7  N   UNL     1      -9.744   1.564 -34.809  1.00  0.00    -0.236 NA
HETATM    8  H   UNL     1      -9.446   0.869 -35.489  1.00  0.00     0.136 HD
BRANCH   7   9
HETATM    9  C   UNL     1     -10.686   1.060 -33.957  1.00  0.00     0.157 C 
HETATM   10  S   UNL     1     -10.288  -0.057 -32.780  1.00  0.00    -0.047 SA
BRANCH   9  11
HETATM   11  N   UNL     1     -12.000   1.419 -34.131  1.00  0.00    -0.304 N 
HETATM   12  C   UNL     1     -12.797   2.253 -33.369  1.00  0.00     0.257 C 
HETATM   13  O   UNL     1     -13.797   1.809 -32.810  1.00  0.00    -0.267 OA
HETATM   14  H   UNL     1     -12.525   0.639 -34.510  1.00  0.00     0.171 HD
BRANCH  12  15
HETATM   15  C   UNL     1     -12.531   3.730 -33.416  1.00  0.00     0.035 A 
HETATM   16  C   UNL     1     -12.740   4.385 -34.643  1.00  0.00     0.053 A 
HETATM   17  C   UNL     1     -12.399   5.732 -34.797  1.00  0.00     0.069 A 
HETATM   18  C   UNL     1     -11.908   6.449 -33.707  1.00  0.00     0.037 A 
HETATM   19  C   UNL     1     -11.695   5.812 -32.487  1.00  0.00     0.004 A 
HETATM   20  C   UNL     1     -11.982   4.453 -32.349  1.00  0.00     0.017 A 
BRANCH  17  21
HETATM   21  O   UNL     1     -12.512   6.447 -35.959  1.00  0.00    -0.356 OA
HETATM   22  C   UNL     1     -12.473   7.863 -35.811  1.00  0.00     0.210 C 
ENDBRANCH  17  21
ENDBRANCH  12  15
ENDBRANCH   9  11
ENDBRANCH   7   9
ENDBRANCH   4   7
BRANCH   1  23
HETATM   23  N   UNL     1      -5.215   4.637 -33.444  1.00  0.00    -0.378 N 
HETATM   24  C   UNL     1      -4.305   4.883 -34.582  1.00  0.00     0.143 C 
HETATM   25  C   UNL     1      -3.459   6.137 -34.306  1.00  0.00     0.146 C 
HETATM   26  N   UNL     1      -2.774   6.098 -33.007  1.00  0.00    -0.345 N 
HETATM   27  C   UNL     1      -1.633   6.889 -32.875  1.00  0.00     0.254 C 
HETATM   28  C   UNL     1      -3.601   5.663 -31.869  1.00  0.00     0.146 C 
HETATM   29  O   UNL     1      -1.076   7.450 -33.816  1.00  0.00    -0.267 OA
HETATM   30  C   UNL     1      -4.486   4.435 -32.175  1.00  0.00     0.143 C 
BRANCH  27  31
HETATM   31  C   UNL     1      -1.026   7.040 -31.536  1.00  0.00     0.038 A 
HETATM   32  C   UNL     1      -1.386   8.082 -30.665  1.00  0.00    -0.046 A 
HETATM   33  C   UNL     1      -2.437   9.100 -31.005  1.00  0.00     0.049 C 
HETATM   34  C   UNL     1      -0.758   8.146 -29.412  1.00  0.00     0.007 A 
HETATM   35  C   UNL     1       0.232   7.223 -29.060  1.00  0.00     0.001 A 
HETATM   36  C   UNL     1       0.606   6.219 -29.951  1.00  0.00     0.001 A 
HETATM   37  C   UNL     1      -0.023   6.125 -31.191  1.00  0.00     0.017 A 
ENDBRANCH  27  31
ENDBRANCH   1  23
TORSDOF 7
ENDMDL
