MODEL 1
REMARK VINA RESULT:      -9.0      0.000      0.000
REMARK  3 active torsions:
REMARK  status: ('A' for Active; 'I' for Inactive)
REMARK    1  A    between atoms: C_7  and  C_8 
REMARK       I    between atoms: C_8  and  N_9 
REMARK    2  A    between atoms: N_9  and  C_10 
REMARK    3  A    between atoms: C_11  and  O_12 
ROOT
HETATM    1  C   UNL     1      -4.649   2.443 -32.280  1.00  0.00     0.252 C 
HETATM    2  N   UNL     1      -3.718   3.336 -32.754  1.00  0.00    -0.346 N 
HETATM    3  O   UNL     1      -5.744   2.795 -31.851  1.00  0.00    -0.268 OA
HETATM    4  H   UNL     1      -2.798   3.017 -33.024  1.00  0.00     0.163 HD
ENDROOT
BRANCH   1   5
HETATM    5  C   UNL     1      -4.251   1.013 -32.279  1.00  0.00     0.033 A 
HETATM    6  C   UNL     1      -3.271   0.603 -31.372  1.00  0.00     0.019 A 
HETATM    7  C   UNL     1      -2.830  -0.722 -31.342  1.00  0.00     0.031 A 
HETATM    8  C   UNL     1      -3.417  -1.620 -32.241  1.00  0.00     0.043 A 
HETATM    9  C   UNL     1      -4.415  -1.252 -33.142  1.00  0.00    -0.001 A 
HETATM   10  N   UNL     1      -3.179  -2.961 -32.428  1.00  0.00    -0.359 N 
HETATM   11  C   UNL     1      -4.789  -2.427 -33.872  1.00  0.00    -0.027 A 
HETATM   12  C   UNL     1      -4.842   0.093 -33.160  1.00  0.00     0.031 A 
HETATM   13  C   UNL     1      -5.830  -2.529 -34.932  1.00  0.00     0.051 C 
HETATM   14  C   UNL     1      -3.995  -3.464 -33.410  1.00  0.00     0.012 A 
HETATM   15  C   UNL     1      -3.942  -4.894 -33.811  1.00  0.00     0.068 C 
HETATM   16  H   UNL     1      -2.499  -3.496 -31.907  1.00  0.00     0.166 HD
ENDBRANCH   1   5
BRANCH   2  17
HETATM   17  C   UNL     1      -3.938   4.767 -32.653  1.00  0.00     0.147 C 
HETATM   18  C   UNL     1      -4.264   5.477 -34.007  1.00  0.00     0.149 C 
HETATM   19  C   UNL     1      -2.921   5.989 -34.565  1.00  0.00     0.073 C 
HETATM   20  C   UNL     1      -2.105   6.156 -33.321  1.00  0.00    -0.047 A 
HETATM   21  C   UNL     1      -2.674   5.467 -32.245  1.00  0.00    -0.027 A 
HETATM   22  C   UNL     1      -0.911   6.843 -33.176  1.00  0.00     0.008 A 
HETATM   23  C   UNL     1      -2.061   5.454 -31.001  1.00  0.00     0.010 A 
HETATM   24  C   UNL     1      -0.862   6.151 -30.844  1.00  0.00     0.001 A 
HETATM   25  C   UNL     1      -0.292   6.842 -31.924  1.00  0.00     0.001 A 
BRANCH  18  26
HETATM   26  O   UNL     1      -4.921   4.658 -34.968  1.00  0.00    -0.393 OA
HETATM   27  H   UNL     1      -5.769   5.103 -35.181  1.00  0.00     0.210 HD
ENDBRANCH  18  26
ENDBRANCH   2  17
TORSDOF 3
ENDMDL
MODEL 2
REMARK VINA RESULT:      -8.8      1.591      2.100
REMARK  3 active torsions:
REMARK  status: ('A' for Active; 'I' for Inactive)
REMARK    1  A    between atoms: C_7  and  C_8 
REMARK       I    between atoms: C_8  and  N_9 
REMARK    2  A    between atoms: N_9  and  C_10 
REMARK    3  A    between atoms: C_11  and  O_12 
ROOT
HETATM    1  C   UNL     1      -4.515   4.051 -32.328  1.00  0.00     0.252 C 
HETATM    2  N   UNL     1      -3.373   4.648 -32.807  1.00  0.00    -0.346 N 
HETATM    3  O   UNL     1      -5.398   4.681 -31.753  1.00  0.00    -0.268 OA
HETATM    4  H   UNL     1      -2.633   4.085 -33.203  1.00  0.00     0.163 HD
ENDROOT
BRANCH   1   5
HETATM    5  C   UNL     1      -4.618   2.582 -32.511  1.00  0.00     0.033 A 
HETATM    6  C   UNL     1      -3.719   1.767 -31.819  1.00  0.00     0.019 A 
HETATM    7  C   UNL     1      -3.744   0.379 -31.972  1.00  0.00     0.031 A 
HETATM    8  C   UNL     1      -4.710  -0.161 -32.829  1.00  0.00     0.043 A 
HETATM    9  C   UNL     1      -5.640   0.620 -33.514  1.00  0.00    -0.001 A 
HETATM   10  N   UNL     1      -4.959  -1.471 -33.162  1.00  0.00    -0.359 N 
HETATM   11  C   UNL     1      -6.476  -0.270 -34.264  1.00  0.00    -0.027 A 
HETATM   12  C   UNL     1      -5.594   2.021 -33.351  1.00  0.00     0.031 A 
HETATM   13  C   UNL     1      -7.624   0.103 -35.137  1.00  0.00     0.051 C 
HETATM   14  C   UNL     1      -6.019  -1.556 -34.029  1.00  0.00     0.012 A 
HETATM   15  C   UNL     1      -6.498  -2.863 -34.548  1.00  0.00     0.068 C 
HETATM   16  H   UNL     1      -4.432  -2.257 -32.808  1.00  0.00     0.166 HD
ENDBRANCH   1   5
BRANCH   2  17
HETATM   17  C   UNL     1      -3.095   6.047 -32.542  1.00  0.00     0.147 C 
HETATM   18  C   UNL     1      -2.566   6.855 -33.771  1.00  0.00     0.149 C 
HETATM   19  C   UNL     1      -1.027   6.806 -33.696  1.00  0.00     0.073 C 
HETATM   20  C   UNL     1      -0.789   6.614 -32.231  1.00  0.00    -0.047 A 
HETATM   21  C   UNL     1      -1.950   6.184 -31.580  1.00  0.00    -0.027 A 
HETATM   22  C   UNL     1       0.400   6.772 -31.537  1.00  0.00     0.008 A 
HETATM   23  C   UNL     1      -1.946   5.906 -30.221  1.00  0.00     0.010 A 
HETATM   24  C   UNL     1      -0.755   6.071 -29.513  1.00  0.00     0.001 A 
HETATM   25  C   UNL     1       0.409   6.502 -30.167  1.00  0.00     0.001 A 
BRANCH  18  26
HETATM   26  O   UNL     1      -3.016   6.379 -35.036  1.00  0.00    -0.393 OA
HETATM   27  H   UNL     1      -3.995   6.439 -35.024  1.00  0.00     0.210 HD
ENDBRANCH  18  26
ENDBRANCH   2  17
TORSDOF 3
ENDMDL
MODEL 3
REMARK VINA RESULT:      -8.4      1.384      2.145
REMARK  3 active torsions:
REMARK  status: ('A' for Active; 'I' for Inactive)
REMARK    1  A    between atoms: C_7  and  C_8 
REMARK       I    between atoms: C_8  and  N_9 
REMARK    2  A    between atoms: N_9  and  C_10 
REMARK    3  A    between atoms: C_11  and  O_12 
ROOT
HETATM    1  C   UNL     1      -5.811   1.913 -32.664  1.00  0.00     0.252 C 
HETATM    2  N   UNL     1      -4.897   2.842 -33.101  1.00  0.00    -0.346 N 
HETATM    3  O   UNL     1      -6.673   2.175 -31.830  1.00  0.00    -0.268 OA
HETATM    4  H   UNL     1      -4.153   2.567 -33.728  1.00  0.00     0.163 HD
ENDROOT
BRANCH   1   5
HETATM    5  C   UNL     1      -5.686   0.546 -33.231  1.00  0.00     0.033 A 
HETATM    6  C   UNL     1      -6.484   0.213 -34.327  1.00  0.00     0.019 A 
HETATM    7  C   UNL     1      -6.436  -1.065 -34.888  1.00  0.00     0.031 A 
HETATM    8  C   UNL     1      -5.549  -1.988 -34.320  1.00  0.00     0.043 A 
HETATM    9  C   UNL     1      -4.720  -1.682 -33.243  1.00  0.00    -0.001 A 
HETATM   10  N   UNL     1      -5.300  -3.296 -34.663  1.00  0.00    -0.359 N 
HETATM   11  C   UNL     1      -3.942  -2.850 -32.955  1.00  0.00    -0.027 A 
HETATM   12  C   UNL     1      -4.788  -0.386 -32.687  1.00  0.00     0.031 A 
HETATM   13  C   UNL     1      -2.903  -2.997 -31.898  1.00  0.00     0.051 C 
HETATM   14  C   UNL     1      -4.335  -3.833 -33.849  1.00  0.00     0.012 A 
HETATM   15  C   UNL     1      -3.876  -5.237 -34.007  1.00  0.00     0.068 C 
HETATM   16  H   UNL     1      -5.764  -3.785 -35.415  1.00  0.00     0.166 HD
ENDBRANCH   1   5
BRANCH   2  17
HETATM   17  C   UNL     1      -4.826   4.160 -32.498  1.00  0.00     0.147 C 
HETATM   18  C   UNL     1      -5.335   5.325 -33.407  1.00  0.00     0.149 C 
HETATM   19  C   UNL     1      -4.097   5.881 -34.138  1.00  0.00     0.073 C 
HETATM   20  C   UNL     1      -2.990   5.530 -33.194  1.00  0.00    -0.047 A 
HETATM   21  C   UNL     1      -3.397   4.560 -32.273  1.00  0.00    -0.027 A 
HETATM   22  C   UNL     1      -1.693   6.017 -33.190  1.00  0.00     0.008 A 
HETATM   23  C   UNL     1      -2.515   4.059 -31.327  1.00  0.00     0.010 A 
HETATM   24  C   UNL     1      -1.209   4.550 -31.310  1.00  0.00     0.001 A 
HETATM   25  C   UNL     1      -0.801   5.523 -32.235  1.00  0.00     0.001 A 
BRANCH  18  26
HETATM   26  O   UNL     1      -6.341   4.954 -34.346  1.00  0.00    -0.393 OA
HETATM   27  H   UNL     1      -6.920   5.738 -34.457  1.00  0.00     0.210 HD
ENDBRANCH  18  26
ENDBRANCH   2  17
TORSDOF 3
ENDMDL
MODEL 4
REMARK VINA RESULT:      -8.3      2.814      4.799
REMARK  3 active torsions:
REMARK  status: ('A' for Active; 'I' for Inactive)
REMARK    1  A    between atoms: C_7  and  C_8 
REMARK       I    between atoms: C_8  and  N_9 
REMARK    2  A    between atoms: N_9  and  C_10 
REMARK    3  A    between atoms: C_11  and  O_12 
ROOT
HETATM    1  C   UNL     1      -1.930   4.613 -31.856  1.00  0.00     0.252 C 
HETATM    2  N   UNL     1      -1.565   5.077 -30.614  1.00  0.00    -0.346 N 
HETATM    3  O   UNL     1      -1.254   4.812 -32.860  1.00  0.00    -0.268 OA
HETATM    4  H   UNL     1      -2.186   4.962 -29.825  1.00  0.00     0.163 HD
ENDROOT
BRANCH   1   5
HETATM    5  C   UNL     1      -3.217   3.877 -31.933  1.00  0.00     0.033 A 
HETATM    6  C   UNL     1      -4.384   4.551 -31.564  1.00  0.00     0.019 A 
HETATM    7  C   UNL     1      -5.622   3.905 -31.585  1.00  0.00     0.031 A 
HETATM    8  C   UNL     1      -5.649   2.569 -32.002  1.00  0.00     0.043 A 
HETATM    9  C   UNL     1      -4.509   1.874 -32.402  1.00  0.00    -0.001 A 
HETATM   10  N   UNL     1      -6.710   1.704 -32.117  1.00  0.00    -0.359 N 
HETATM   11  C   UNL     1      -4.921   0.556 -32.782  1.00  0.00    -0.027 A 
HETATM   12  C   UNL     1      -3.266   2.543 -32.368  1.00  0.00     0.031 A 
HETATM   13  C   UNL     1      -4.054  -0.541 -33.295  1.00  0.00     0.051 C 
HETATM   14  C   UNL     1      -6.290   0.483 -32.584  1.00  0.00     0.012 A 
HETATM   15  C   UNL     1      -7.241  -0.637 -32.801  1.00  0.00     0.068 C 
HETATM   16  H   UNL     1      -7.666   1.942 -31.893  1.00  0.00     0.166 HD
ENDBRANCH   1   5
BRANCH   2  17
HETATM   17  C   UNL     1      -0.412   5.943 -30.451  1.00  0.00     0.147 C 
HETATM   18  C   UNL     1       0.719   5.363 -29.542  1.00  0.00     0.149 C 
HETATM   19  C   UNL     1       0.450   5.892 -28.119  1.00  0.00     0.073 C 
HETATM   20  C   UNL     1      -0.301   7.158 -28.390  1.00  0.00    -0.047 A 
HETATM   21  C   UNL     1      -0.790   7.187 -29.701  1.00  0.00    -0.027 A 
HETATM   22  C   UNL     1      -0.565   8.193 -27.508  1.00  0.00     0.008 A 
HETATM   23  C   UNL     1      -1.550   8.254 -30.156  1.00  0.00     0.010 A 
HETATM   24  C   UNL     1      -1.813   9.305 -29.276  1.00  0.00     0.001 A 
HETATM   25  C   UNL     1      -1.323   9.275 -27.961  1.00  0.00     0.001 A 
BRANCH  18  26
HETATM   26  O   UNL     1       0.810   3.942 -29.533  1.00  0.00    -0.393 OA
HETATM   27  H   UNL     1       0.414   3.642 -28.687  1.00  0.00     0.210 HD
ENDBRANCH  18  26
ENDBRANCH   2  17
TORSDOF 3
ENDMDL
MODEL 5
REMARK VINA RESULT:      -8.3      4.093      6.118
REMARK  3 active torsions:
REMARK  status: ('A' for Active; 'I' for Inactive)
REMARK    1  A    between atoms: C_7  and  C_8 
REMARK       I    between atoms: C_8  and  N_9 
REMARK    2  A    between atoms: N_9  and  C_10 
REMARK    3  A    between atoms: C_11  and  O_12 
ROOT
HETATM    1  C   UNL     1      -6.635   2.041 -33.364  1.00  0.00     0.252 C 
HETATM    2  N   UNL     1      -7.636   2.186 -32.432  1.00  0.00    -0.346 N 
HETATM    3  O   UNL     1      -6.082   2.999 -33.894  1.00  0.00    -0.268 OA
HETATM    4  H   UNL     1      -8.121   1.374 -32.077  1.00  0.00     0.163 HD
ENDROOT
BRANCH   1   5
HETATM    5  C   UNL     1      -6.271   0.649 -33.729  1.00  0.00     0.033 A 
HETATM    6  C   UNL     1      -6.997   0.023 -34.746  1.00  0.00     0.019 A 
HETATM    7  C   UNL     1      -6.723  -1.296 -35.116  1.00  0.00     0.031 A 
HETATM    8  C   UNL     1      -5.689  -1.956 -34.442  1.00  0.00     0.043 A 
HETATM    9  C   UNL     1      -4.928  -1.355 -33.441  1.00  0.00    -0.001 A 
HETATM   10  N   UNL     1      -5.214  -3.236 -34.598  1.00  0.00    -0.359 N 
HETATM   11  C   UNL     1      -3.956  -2.314 -33.007  1.00  0.00    -0.027 A 
HETATM   12  C   UNL     1      -5.224  -0.023 -33.078  1.00  0.00     0.031 A 
HETATM   13  C   UNL     1      -2.909  -2.120 -31.965  1.00  0.00     0.051 C 
HETATM   14  C   UNL     1      -4.170  -3.471 -33.738  1.00  0.00     0.012 A 
HETATM   15  C   UNL     1      -3.471  -4.782 -33.702  1.00  0.00     0.068 C 
HETATM   16  H   UNL     1      -5.583  -3.904 -35.259  1.00  0.00     0.166 HD
ENDBRANCH   1   5
BRANCH   2  17
HETATM   17  C   UNL     1      -8.179   3.494 -32.120  1.00  0.00     0.147 C 
HETATM   18  C   UNL     1      -8.589   3.694 -30.625  1.00  0.00     0.149 C 
HETATM   19  C   UNL     1     -10.087   3.339 -30.532  1.00  0.00     0.073 C 
HETATM   20  C   UNL     1     -10.563   3.615 -31.924  1.00  0.00    -0.047 A 
HETATM   21  C   UNL     1      -9.492   3.699 -32.819  1.00  0.00    -0.027 A 
HETATM   22  C   UNL     1     -11.871   3.738 -32.363  1.00  0.00     0.008 A 
HETATM   23  C   UNL     1      -9.708   3.912 -34.173  1.00  0.00     0.010 A 
HETATM   24  C   UNL     1     -11.022   4.046 -34.623  1.00  0.00     0.001 A 
HETATM   25  C   UNL     1     -12.096   3.960 -33.723  1.00  0.00     0.001 A 
BRANCH  18  26
HETATM   26  O   UNL     1      -7.838   2.923 -29.691  1.00  0.00    -0.393 OA
HETATM   27  H   UNL     1      -8.404   2.163 -29.439  1.00  0.00     0.210 HD
ENDBRANCH  18  26
ENDBRANCH   2  17
TORSDOF 3
ENDMDL
MODEL 6
REMARK VINA RESULT:      -8.2      2.378      7.809
REMARK  3 active torsions:
REMARK  status: ('A' for Active; 'I' for Inactive)
REMARK    1  A    between atoms: C_7  and  C_8 
REMARK       I    between atoms: C_8  and  N_9 
REMARK    2  A    between atoms: N_9  and  C_10 
REMARK    3  A    between atoms: C_11  and  O_12 
ROOT
HETATM    1  C   UNL     1      -5.261   1.764 -30.479  1.00  0.00     0.252 C 
HETATM    2  N   UNL     1      -4.590   0.894 -31.305  1.00  0.00    -0.346 N 
HETATM    3  O   UNL     1      -6.176   1.404 -29.744  1.00  0.00    -0.268 OA
HETATM    4  H   UNL     1      -3.896   1.241 -31.953  1.00  0.00     0.163 HD
ENDROOT
BRANCH   1   5
HETATM    5  C   UNL     1      -4.843   3.187 -30.540  1.00  0.00     0.033 A 
HETATM    6  C   UNL     1      -5.555   4.116 -29.777  1.00  0.00     0.019 A 
HETATM    7  C   UNL     1      -5.232   5.474 -29.814  1.00  0.00     0.031 A 
HETATM    8  C   UNL     1      -4.162   5.863 -30.630  1.00  0.00     0.043 A 
HETATM    9  C   UNL     1      -3.414   4.960 -31.384  1.00  0.00    -0.001 A 
HETATM   10  N   UNL     1      -3.635   7.112 -30.854  1.00  0.00    -0.359 N 
HETATM   11  C   UNL     1      -2.398   5.708 -32.063  1.00  0.00    -0.027 A 
HETATM   12  C   UNL     1      -3.761   3.593 -31.337  1.00  0.00     0.031 A 
HETATM   13  C   UNL     1      -1.346   5.172 -32.971  1.00  0.00     0.051 C 
HETATM   14  C   UNL     1      -2.572   7.039 -31.718  1.00  0.00     0.012 A 
HETATM   15  C   UNL     1      -1.817   8.251 -32.130  1.00  0.00     0.068 C 
HETATM   16  H   UNL     1      -3.985   7.961 -30.434  1.00  0.00     0.166 HD
ENDBRANCH   1   5
BRANCH   2  17
HETATM   17  C   UNL     1      -5.020  -0.485 -31.444  1.00  0.00     0.147 C 
HETATM   18  C   UNL     1      -3.897  -1.482 -31.876  1.00  0.00     0.149 C 
HETATM   19  C   UNL     1      -3.968  -1.581 -33.413  1.00  0.00     0.073 C 
HETATM   20  C   UNL     1      -5.401  -1.241 -33.684  1.00  0.00    -0.047 A 
HETATM   21  C   UNL     1      -5.993  -0.621 -32.579  1.00  0.00    -0.027 A 
HETATM   22  C   UNL     1      -6.110  -1.435 -34.858  1.00  0.00     0.008 A 
HETATM   23  C   UNL     1      -7.310  -0.186 -32.625  1.00  0.00     0.010 A 
HETATM   24  C   UNL     1      -8.035  -0.385 -33.801  1.00  0.00     0.001 A 
HETATM   25  C   UNL     1      -7.438  -1.007 -34.910  1.00  0.00     0.001 A 
BRANCH  18  26
HETATM   26  O   UNL     1      -2.584  -1.117 -31.463  1.00  0.00    -0.393 OA
HETATM   27  H   UNL     1      -2.671  -0.273 -30.971  1.00  0.00     0.210 HD
ENDBRANCH  18  26
ENDBRANCH   2  17
TORSDOF 3
ENDMDL
MODEL 7
REMARK VINA RESULT:      -8.1      4.758      8.581
REMARK  3 active torsions:
REMARK  status: ('A' for Active; 'I' for Inactive)
REMARK    1  A    between atoms: C_7  and  C_8 
REMARK       I    between atoms: C_8  and  N_9 
REMARK    2  A    between atoms: N_9  and  C_10 
REMARK    3  A    between atoms: C_11  and  O_12 
ROOT
HETATM    1  C   UNL     1      -8.864   1.672 -32.626  1.00  0.00     0.252 C 
HETATM    2  N   UNL     1      -7.653   1.454 -32.012  1.00  0.00    -0.346 N 
HETATM    3  O   UNL     1      -9.742   0.816 -32.677  1.00  0.00    -0.268 OA
HETATM    4  H   UNL     1      -6.926   2.155 -32.060  1.00  0.00     0.163 HD
ENDROOT
BRANCH   1   5
HETATM    5  C   UNL     1      -9.052   3.000 -33.262  1.00  0.00     0.033 A 
HETATM    6  C   UNL     1      -7.978   3.894 -33.250  1.00  0.00     0.019 A 
HETATM    7  C   UNL     1      -8.101   5.170 -33.805  1.00  0.00     0.031 A 
HETATM    8  C   UNL     1      -9.330   5.509 -34.384  1.00  0.00     0.043 A 
HETATM    9  C   UNL     1     -10.413   4.634 -34.437  1.00  0.00    -0.001 A 
HETATM   10  N   UNL     1      -9.724   6.677 -34.992  1.00  0.00    -0.359 N 
HETATM   11  C   UNL     1     -11.477   5.309 -35.118  1.00  0.00    -0.027 A 
HETATM   12  C   UNL     1     -10.270   3.351 -33.865  1.00  0.00     0.031 A 
HETATM   13  C   UNL     1     -12.828   4.766 -35.429  1.00  0.00     0.051 C 
HETATM   14  C   UNL     1     -11.017   6.576 -35.439  1.00  0.00     0.012 A 
HETATM   15  C   UNL     1     -11.691   7.702 -36.136  1.00  0.00     0.068 C 
HETATM   16  H   UNL     1      -9.135   7.491 -35.096  1.00  0.00     0.166 HD
ENDBRANCH   1   5
BRANCH   2  17
HETATM   17  C   UNL     1      -7.302   0.144 -31.499  1.00  0.00     0.147 C 
HETATM   18  C   UNL     1      -6.333   0.158 -30.272  1.00  0.00     0.149 C 
HETATM   19  C   UNL     1      -4.906   0.028 -30.841  1.00  0.00     0.073 C 
HETATM   20  C   UNL     1      -5.147  -0.685 -32.135  1.00  0.00    -0.047 A 
HETATM   21  C   UNL     1      -6.493  -0.618 -32.509  1.00  0.00    -0.027 A 
HETATM   22  C   UNL     1      -4.213  -1.312 -32.944  1.00  0.00     0.008 A 
HETATM   23  C   UNL     1      -6.932  -1.180 -33.698  1.00  0.00     0.010 A 
HETATM   24  C   UNL     1      -6.000  -1.822 -34.514  1.00  0.00     0.001 A 
HETATM   25  C   UNL     1      -4.649  -1.888 -34.139  1.00  0.00     0.001 A 
BRANCH  18  26
HETATM   26  O   UNL     1      -6.434   1.313 -29.445  1.00  0.00    -0.393 OA
HETATM   27  H   UNL     1      -5.794   1.966 -29.799  1.00  0.00     0.210 HD
ENDBRANCH  18  26
ENDBRANCH   2  17
TORSDOF 3
ENDMDL
MODEL 8
REMARK VINA RESULT:      -8.1      7.232      9.233
REMARK  3 active torsions:
REMARK  status: ('A' for Active; 'I' for Inactive)
REMARK    1  A    between atoms: C_7  and  C_8 
REMARK       I    between atoms: C_8  and  N_9 
REMARK    2  A    between atoms: N_9  and  C_10 
REMARK    3  A    between atoms: C_11  and  O_12 
ROOT
HETATM    1  C   UNL     1     -10.246   2.326 -33.979  1.00  0.00     0.252 C 
HETATM    2  N   UNL     1      -9.352   1.348 -33.613  1.00  0.00    -0.346 N 
HETATM    3  O   UNL     1      -9.896   3.380 -34.499  1.00  0.00    -0.268 OA
HETATM    4  H   UNL     1      -9.671   0.528 -33.116  1.00  0.00     0.163 HD
ENDROOT
BRANCH   1   5
HETATM    5  C   UNL     1     -11.676   2.057 -33.681  1.00  0.00     0.033 A 
HETATM    6  C   UNL     1     -12.213   0.831 -34.083  1.00  0.00     0.019 A 
HETATM    7  C   UNL     1     -13.558   0.530 -33.860  1.00  0.00     0.031 A 
HETATM    8  C   UNL     1     -14.338   1.493 -33.209  1.00  0.00     0.043 A 
HETATM    9  C   UNL     1     -13.830   2.715 -32.772  1.00  0.00    -0.001 A 
HETATM   10  N   UNL     1     -15.669   1.463 -32.867  1.00  0.00    -0.359 N 
HETATM   11  C   UNL     1     -14.901   3.421 -32.133  1.00  0.00    -0.027 A 
HETATM   12  C   UNL     1     -12.469   3.002 -33.012  1.00  0.00     0.031 A 
HETATM   13  C   UNL     1     -14.832   4.764 -31.493  1.00  0.00     0.051 C 
HETATM   14  C   UNL     1     -16.027   2.619 -32.219  1.00  0.00     0.012 A 
HETATM   15  C   UNL     1     -17.415   2.845 -31.739  1.00  0.00     0.068 C 
HETATM   16  H   UNL     1     -16.290   0.691 -33.064  1.00  0.00     0.166 HD
ENDBRANCH   1   5
BRANCH   2  17
HETATM   17  C   UNL     1      -7.922   1.571 -33.710  1.00  0.00     0.147 C 
HETATM   18  C   UNL     1      -7.159   0.548 -34.612  1.00  0.00     0.149 C 
HETATM   19  C   UNL     1      -6.655  -0.569 -33.676  1.00  0.00     0.073 C 
HETATM   20  C   UNL     1      -6.548   0.144 -32.364  1.00  0.00    -0.047 A 
HETATM   21  C   UNL     1      -7.262   1.346 -32.380  1.00  0.00    -0.027 A 
HETATM   22  C   UNL     1      -5.890  -0.279 -31.221  1.00  0.00     0.008 A 
HETATM   23  C   UNL     1      -7.330   2.151 -31.253  1.00  0.00     0.010 A 
HETATM   24  C   UNL     1      -6.663   1.737 -30.099  1.00  0.00     0.001 A 
HETATM   25  C   UNL     1      -5.947   0.530 -30.084  1.00  0.00     0.001 A 
BRANCH  18  26
HETATM   26  O   UNL     1      -7.931  -0.005 -35.674  1.00  0.00    -0.393 OA
HETATM   27  H   UNL     1      -8.045   0.708 -36.337  1.00  0.00     0.210 HD
ENDBRANCH  18  26
ENDBRANCH   2  17
TORSDOF 3
ENDMDL
MODEL 9
REMARK VINA RESULT:      -8.0      5.880      7.469
REMARK  3 active torsions:
REMARK  status: ('A' for Active; 'I' for Inactive)
REMARK    1  A    between atoms: C_7  and  C_8 
REMARK       I    between atoms: C_8  and  N_9 
REMARK    2  A    between atoms: N_9  and  C_10 
REMARK    3  A    between atoms: C_11  and  O_12 
ROOT
HETATM    1  C   UNL     1     -10.285   0.705 -33.562  1.00  0.00     0.252 C 
HETATM    2  N   UNL     1     -10.640   1.930 -34.076  1.00  0.00    -0.346 N 
HETATM    3  O   UNL     1     -11.106  -0.079 -33.096  1.00  0.00    -0.268 OA
HETATM    4  H   UNL     1      -9.928   2.580 -34.378  1.00  0.00     0.163 HD
ENDROOT
BRANCH   1   5
HETATM    5  C   UNL     1      -8.835   0.382 -33.568  1.00  0.00     0.033 A 
HETATM    6  C   UNL     1      -8.241   0.045 -34.786  1.00  0.00     0.019 A 
HETATM    7  C   UNL     1      -6.889  -0.299 -34.853  1.00  0.00     0.031 A 
HETATM    8  C   UNL     1      -6.155  -0.276 -33.661  1.00  0.00     0.043 A 
HETATM    9  C   UNL     1      -6.709   0.081 -32.434  1.00  0.00    -0.001 A 
HETATM   10  N   UNL     1      -4.830  -0.564 -33.438  1.00  0.00    -0.359 N 
HETATM   11  C   UNL     1      -5.663   0.017 -31.456  1.00  0.00    -0.027 A 
HETATM   12  C   UNL     1      -8.078   0.419 -32.386  1.00  0.00     0.031 A 
HETATM   13  C   UNL     1      -5.774   0.330 -30.004  1.00  0.00     0.051 C 
HETATM   14  C   UNL     1      -4.515  -0.396 -32.113  1.00  0.00     0.012 A 
HETATM   15  C   UNL     1      -3.143  -0.642 -31.600  1.00  0.00     0.068 C 
HETATM   16  H   UNL     1      -4.181  -0.854 -34.157  1.00  0.00     0.166 HD
ENDBRANCH   1   5
BRANCH   2  17
HETATM   17  C   UNL     1     -12.004   2.413 -33.976  1.00  0.00     0.147 C 
HETATM   18  C   UNL     1     -12.714   2.660 -35.346  1.00  0.00     0.149 C 
HETATM   19  C   UNL     1     -12.491   4.146 -35.692  1.00  0.00     0.073 C 
HETATM   20  C   UNL     1     -12.310   4.760 -34.339  1.00  0.00    -0.047 A 
HETATM   21  C   UNL     1     -12.033   3.788 -33.373  1.00  0.00    -0.027 A 
HETATM   22  C   UNL     1     -12.348   6.105 -34.006  1.00  0.00     0.008 A 
HETATM   23  C   UNL     1     -11.791   4.141 -32.053  1.00  0.00     0.010 A 
HETATM   24  C   UNL     1     -11.836   5.492 -31.708  1.00  0.00     0.001 A 
HETATM   25  C   UNL     1     -12.114   6.467 -32.678  1.00  0.00     0.001 A 
BRANCH  18  26
HETATM   26  O   UNL     1     -12.262   1.830 -36.411  1.00  0.00    -0.393 OA
HETATM   27  H   UNL     1     -12.956   1.864 -37.104  1.00  0.00     0.210 HD
ENDBRANCH  18  26
ENDBRANCH   2  17
TORSDOF 3
ENDMDL
MODEL 10
REMARK VINA RESULT:      -7.8      4.752      6.841
REMARK  3 active torsions:
REMARK  status: ('A' for Active; 'I' for Inactive)
REMARK    1  A    between atoms: C_7  and  C_8 
REMARK       I    between atoms: C_8  and  N_9 
REMARK    2  A    between atoms: N_9  and  C_10 
REMARK    3  A    between atoms: C_11  and  O_12 
ROOT
HETATM    1  C   UNL     1      -7.363   2.693 -33.713  1.00  0.00     0.252 C 
HETATM    2  N   UNL     1      -8.696   2.414 -33.522  1.00  0.00    -0.346 N 
HETATM    3  O   UNL     1      -6.962   3.800 -34.060  1.00  0.00    -0.268 OA
HETATM    4  H   UNL     1      -8.993   1.471 -33.315  1.00  0.00     0.163 HD
ENDROOT
BRANCH   1   5
HETATM    5  C   UNL     1      -6.418   1.566 -33.510  1.00  0.00     0.033 A 
HETATM    6  C   UNL     1      -5.246   1.811 -32.790  1.00  0.00     0.019 A 
HETATM    7  C   UNL     1      -4.302   0.801 -32.591  1.00  0.00     0.031 A 
HETATM    8  C   UNL     1      -4.582  -0.462 -33.124  1.00  0.00     0.043 A 
HETATM    9  C   UNL     1      -5.753  -0.749 -33.825  1.00  0.00    -0.001 A 
HETATM   10  N   UNL     1      -3.843  -1.620 -33.081  1.00  0.00    -0.359 N 
HETATM   11  C   UNL     1      -5.705  -2.133 -34.191  1.00  0.00    -0.027 A 
HETATM   12  C   UNL     1      -6.691   0.287 -34.021  1.00  0.00     0.031 A 
HETATM   13  C   UNL     1      -6.742  -2.899 -34.936  1.00  0.00     0.051 C 
HETATM   14  C   UNL     1      -4.503  -2.638 -33.722  1.00  0.00     0.012 A 
HETATM   15  C   UNL     1      -3.923  -4.002 -33.820  1.00  0.00     0.068 C 
HETATM   16  H   UNL     1      -2.942  -1.703 -32.633  1.00  0.00     0.166 HD
ENDBRANCH   1   5
BRANCH   2  17
HETATM   17  C   UNL     1      -9.716   3.393 -33.846  1.00  0.00     0.147 C 
HETATM   18  C   UNL     1     -10.037   4.409 -32.702  1.00  0.00     0.149 C 
HETATM   19  C   UNL     1     -11.225   3.819 -31.915  1.00  0.00     0.073 C 
HETATM   20  C   UNL     1     -11.895   2.967 -32.948  1.00  0.00    -0.047 A 
HETATM   21  C   UNL     1     -11.047   2.724 -34.034  1.00  0.00    -0.027 A 
HETATM   22  C   UNL     1     -13.164   2.413 -32.897  1.00  0.00     0.008 A 
HETATM   23  C   UNL     1     -11.453   1.923 -35.091  1.00  0.00     0.010 A 
HETATM   24  C   UNL     1     -12.732   1.368 -35.052  1.00  0.00     0.001 A 
HETATM   25  C   UNL     1     -13.582   1.613 -33.962  1.00  0.00     0.001 A 
BRANCH  18  26
HETATM   26  O   UNL     1      -8.949   4.684 -31.825  1.00  0.00    -0.393 OA
HETATM   27  H   UNL     1      -8.132   4.436 -32.308  1.00  0.00     0.210 HD
ENDBRANCH  18  26
ENDBRANCH   2  17
TORSDOF 3
ENDMDL
