MODEL 1
REMARK VINA RESULT:      -9.0      0.000      0.000
REMARK  10 active torsions:
REMARK  status: ('A' for Active; 'I' for Inactive)
REMARK    1  A    between atoms: C_2  and  C_3 
REMARK    2  A    between atoms: C_3  and  O_4 
REMARK    3  A    between atoms: O_4  and  C_5 
REMARK    4  A    between atoms: C_8  and  C_9 
REMARK       I    between atoms: C_9  and  N_10 
REMARK    5  A    between atoms: N_10  and  C_11 
REMARK    6  A    between atoms: C_11  and  N_12 
REMARK    7  A    between atoms: N_12  and  C_13 
REMARK    8  A    between atoms: C_16  and  N_17 
REMARK    9  A    between atoms: N_20  and  C_22 
REMARK   10  A    between atoms: C_22  and  C_23 
ROOT
HETATM    1  C   UNL     1      -6.550   4.833 -33.519  1.00  0.00     0.034 A 
HETATM    2  C   UNL     1      -6.404   5.842 -32.566  1.00  0.00     0.032 A 
HETATM    3  C   UNL     1      -5.174   6.492 -32.394  1.00  0.00     0.031 A 
HETATM    4  C   UNL     1      -4.042   6.140 -33.142  1.00  0.00     0.030 A 
HETATM    5  C   UNL     1      -4.204   5.115 -34.080  1.00  0.00     0.031 A 
HETATM    6  C   UNL     1      -5.440   4.477 -34.276  1.00  0.00     0.032 A 
ENDROOT
BRANCH   1   7
HETATM    7  N   UNL     1      -7.789   4.166 -33.560  1.00  0.00    -0.333 N 
HETATM    8  H   UNL     1      -8.415   4.471 -34.308  1.00  0.00     0.168 HD
BRANCH   7   9
HETATM    9  C   UNL     1      -8.355   3.225 -32.734  1.00  0.00     0.179 C 
HETATM   10  S   UNL     1      -9.448   3.455 -31.490  1.00  0.00    -0.040 SA
BRANCH   9  11
HETATM   11  N   UNL     1      -7.952   1.921 -32.978  1.00  0.00    -0.299 N 
HETATM   12  C   UNL     1      -6.894   1.248 -32.384  1.00  0.00     0.257 C 
HETATM   13  O   UNL     1      -6.373   1.584 -31.325  1.00  0.00    -0.267 OA
HETATM   14  H   UNL     1      -8.342   1.541 -33.830  1.00  0.00     0.171 HD
BRANCH  12  15
HETATM   15  C   UNL     1      -6.380   0.075 -33.130  1.00  0.00     0.032 A 
HETATM   16  C   UNL     1      -7.313  -0.820 -33.661  1.00  0.00     0.020 A 
HETATM   17  C   UNL     1      -6.885  -1.977 -34.318  1.00  0.00     0.038 A 
HETATM   18  C   UNL     1      -5.520  -2.235 -34.460  1.00  0.00     0.068 A 
HETATM   19  C   UNL     1      -4.592  -1.317 -33.956  1.00  0.00     0.038 A 
HETATM   20  C   UNL     1      -5.013  -0.164 -33.288  1.00  0.00     0.020 A 
BRANCH  18  21
HETATM   21  O   UNL     1      -4.972  -3.328 -35.071  1.00  0.00    -0.351 OA
BRANCH  21  22
HETATM   22  C   UNL     1      -4.973  -4.552 -34.333  1.00  0.00     0.175 C 
BRANCH  22  23
HETATM   23  C   UNL     1      -3.544  -4.828 -33.875  1.00  0.00     0.022 C 
HETATM   24  C   UNL     1      -3.262  -4.215 -32.515  1.00  0.00     0.007 C 
ENDBRANCH  22  23
ENDBRANCH  21  22
ENDBRANCH  18  21
ENDBRANCH  12  15
ENDBRANCH   9  11
ENDBRANCH   7   9
ENDBRANCH   1   7
BRANCH   4  25
HETATM   25  N   UNL     1      -2.823   6.764 -32.890  1.00  0.00    -0.378 N 
HETATM   26  C   UNL     1      -1.603   6.064 -33.335  1.00  0.00     0.150 C 
HETATM   27  C   UNL     1      -0.964   5.283 -32.167  1.00  0.00     0.255 C 
HETATM   28  N   UNL     1      -0.717   6.213 -30.974  1.00  0.00    -0.064 N 
HETATM   29  H   UNL     1      -0.083   6.950 -31.305  1.00  0.00     0.280 HD
HETATM   30  C   UNL     1      -2.014   6.888 -30.537  1.00  0.00     0.255 C 
HETATM   31  C   UNL     1      -2.657   7.639 -31.720  1.00  0.00     0.150 C 
BRANCH  28  32
HETATM   32  C   UNL     1      -0.034   5.526 -29.819  1.00  0.00     0.273 C 
BRANCH  32  33
HETATM   33  C   UNL     1       0.333   6.473 -28.711  1.00  0.00    -0.033 A 
HETATM   34  C   UNL     1       0.991   7.680 -28.994  1.00  0.00     0.009 A 
HETATM   35  C   UNL     1       1.353   8.548 -27.962  1.00  0.00     0.001 A 
HETATM   36  C   UNL     1       1.058   8.219 -26.640  1.00  0.00     0.000 A 
HETATM   37  C   UNL     1       0.399   7.027 -26.348  1.00  0.00     0.001 A 
HETATM   38  C   UNL     1       0.036   6.157 -27.376  1.00  0.00     0.009 A 
ENDBRANCH  32  33
ENDBRANCH  28  32
ENDBRANCH   4  25
TORSDOF 10
ENDMDL
MODEL 2
REMARK VINA RESULT:      -8.8      3.547     11.431
REMARK  10 active torsions:
REMARK  status: ('A' for Active; 'I' for Inactive)
REMARK    1  A    between atoms: C_2  and  C_3 
REMARK    2  A    between atoms: C_3  and  O_4 
REMARK    3  A    between atoms: O_4  and  C_5 
REMARK    4  A    between atoms: C_8  and  C_9 
REMARK       I    between atoms: C_9  and  N_10 
REMARK    5  A    between atoms: N_10  and  C_11 
REMARK    6  A    between atoms: C_11  and  N_12 
REMARK    7  A    between atoms: N_12  and  C_13 
REMARK    8  A    between atoms: C_16  and  N_17 
REMARK    9  A    between atoms: N_20  and  C_22 
REMARK   10  A    between atoms: C_22  and  C_23 
ROOT
HETATM    1  C   UNL     1      -3.415   5.230 -31.085  1.00  0.00     0.034 A 
HETATM    2  C   UNL     1      -4.687   5.133 -30.521  1.00  0.00     0.032 A 
HETATM    3  C   UNL     1      -5.348   3.898 -30.450  1.00  0.00     0.031 A 
HETATM    4  C   UNL     1      -4.777   2.726 -30.965  1.00  0.00     0.030 A 
HETATM    5  C   UNL     1      -3.509   2.847 -31.543  1.00  0.00     0.031 A 
HETATM    6  C   UNL     1      -2.830   4.076 -31.593  1.00  0.00     0.032 A 
ENDROOT
BRANCH   1   7
HETATM    7  N   UNL     1      -2.865   6.521 -31.204  1.00  0.00    -0.333 N 
HETATM    8  H   UNL     1      -3.509   7.283 -30.982  1.00  0.00     0.168 HD
BRANCH   7   9
HETATM    9  C   UNL     1      -1.637   6.960 -31.637  1.00  0.00     0.179 C 
HETATM   10  S   UNL     1      -1.094   7.146 -33.208  1.00  0.00    -0.040 SA
BRANCH   9  11
HETATM   11  N   UNL     1      -0.746   7.284 -30.626  1.00  0.00    -0.299 N 
HETATM   12  C   UNL     1      -0.159   6.414 -29.719  1.00  0.00     0.257 C 
HETATM   13  O   UNL     1      -0.076   5.201 -29.884  1.00  0.00    -0.267 OA
HETATM   14  H   UNL     1      -0.727   8.274 -30.421  1.00  0.00     0.171 HD
BRANCH  12  15
HETATM   15  C   UNL     1       0.358   7.035 -28.477  1.00  0.00     0.032 A 
HETATM   16  C   UNL     1       1.171   8.166 -28.602  1.00  0.00     0.020 A 
HETATM   17  C   UNL     1       1.739   8.754 -27.469  1.00  0.00     0.038 A 
HETATM   18  C   UNL     1       1.483   8.224 -26.204  1.00  0.00     0.068 A 
HETATM   19  C   UNL     1       0.640   7.114 -26.083  1.00  0.00     0.038 A 
HETATM   20  C   UNL     1       0.077   6.513 -27.212  1.00  0.00     0.020 A 
BRANCH  18  21
HETATM   21  O   UNL     1       1.980   8.697 -25.022  1.00  0.00    -0.351 OA
BRANCH  21  22
HETATM   22  C   UNL     1       1.258   9.758 -24.393  1.00  0.00     0.175 C 
BRANCH  22  23
HETATM   23  C   UNL     1       1.687   9.818 -22.931  1.00  0.00     0.022 C 
HETATM   24  C   UNL     1       2.621  10.985 -22.667  1.00  0.00     0.007 C 
ENDBRANCH  22  23
ENDBRANCH  21  22
ENDBRANCH  18  21
ENDBRANCH  12  15
ENDBRANCH   9  11
ENDBRANCH   7   9
ENDBRANCH   1   7
BRANCH   4  25
HETATM   25  N   UNL     1      -5.497   1.534 -30.937  1.00  0.00    -0.378 N 
HETATM   26  C   UNL     1      -4.728   0.280 -31.043  1.00  0.00     0.150 C 
HETATM   27  C   UNL     1      -4.734  -0.243 -32.496  1.00  0.00     0.255 C 
HETATM   28  N   UNL     1      -6.172  -0.378 -33.010  1.00  0.00    -0.064 N 
HETATM   29  H   UNL     1      -6.643  -1.043 -32.385  1.00  0.00     0.280 HD
HETATM   30  C   UNL     1      -6.911   0.952 -32.903  1.00  0.00     0.255 C 
HETATM   31  C   UNL     1      -6.872   1.478 -31.455  1.00  0.00     0.150 C 
BRANCH  28  32
HETATM   32  C   UNL     1      -6.251  -0.947 -34.403  1.00  0.00     0.273 C 
BRANCH  32  33
HETATM   33  C   UNL     1      -5.825  -2.387 -34.470  1.00  0.00    -0.033 A 
HETATM   34  C   UNL     1      -6.744  -3.386 -34.829  1.00  0.00     0.009 A 
HETATM   35  C   UNL     1      -6.354  -4.726 -34.868  1.00  0.00     0.001 A 
HETATM   36  C   UNL     1      -5.043  -5.079 -34.550  1.00  0.00     0.000 A 
HETATM   37  C   UNL     1      -4.121  -4.096 -34.199  1.00  0.00     0.001 A 
HETATM   38  C   UNL     1      -4.508  -2.756 -34.159  1.00  0.00     0.009 A 
ENDBRANCH  32  33
ENDBRANCH  28  32
ENDBRANCH   4  25
TORSDOF 10
ENDMDL
MODEL 3
REMARK VINA RESULT:      -8.8      3.655     11.546
REMARK  10 active torsions:
REMARK  status: ('A' for Active; 'I' for Inactive)
REMARK    1  A    between atoms: C_2  and  C_3 
REMARK    2  A    between atoms: C_3  and  O_4 
REMARK    3  A    between atoms: O_4  and  C_5 
REMARK    4  A    between atoms: C_8  and  C_9 
REMARK       I    between atoms: C_9  and  N_10 
REMARK    5  A    between atoms: N_10  and  C_11 
REMARK    6  A    between atoms: C_11  and  N_12 
REMARK    7  A    between atoms: N_12  and  C_13 
REMARK    8  A    between atoms: C_16  and  N_17 
REMARK    9  A    between atoms: N_20  and  C_22 
REMARK   10  A    between atoms: C_22  and  C_23 
ROOT
HETATM    1  C   UNL     1      -3.581   5.373 -31.025  1.00  0.00     0.034 A 
HETATM    2  C   UNL     1      -4.834   5.164 -30.449  1.00  0.00     0.032 A 
HETATM    3  C   UNL     1      -5.378   3.875 -30.364  1.00  0.00     0.031 A 
HETATM    4  C   UNL     1      -4.706   2.755 -30.875  1.00  0.00     0.030 A 
HETATM    5  C   UNL     1      -3.459   2.988 -31.465  1.00  0.00     0.031 A 
HETATM    6  C   UNL     1      -2.897   4.274 -31.530  1.00  0.00     0.032 A 
ENDROOT
BRANCH   1   7
HETATM    7  N   UNL     1      -3.153   6.708 -31.160  1.00  0.00    -0.333 N 
HETATM    8  H   UNL     1      -3.827   7.408 -30.844  1.00  0.00     0.168 HD
BRANCH   7   9
HETATM    9  C   UNL     1      -2.019   7.259 -31.707  1.00  0.00     0.179 C 
HETATM   10  S   UNL     1      -1.551   7.295 -33.312  1.00  0.00    -0.040 SA
BRANCH   9  11
HETATM   11  N   UNL     1      -1.165   7.857 -30.794  1.00  0.00    -0.299 N 
HETATM   12  C   UNL     1      -0.617   7.277 -29.659  1.00  0.00     0.257 C 
HETATM   13  O   UNL     1      -0.535   6.067 -29.476  1.00  0.00    -0.267 OA
HETATM   14  H   UNL     1      -1.148   8.865 -30.872  1.00  0.00     0.171 HD
BRANCH  12  15
HETATM   15  C   UNL     1      -0.143   8.223 -28.621  1.00  0.00     0.032 A 
HETATM   16  C   UNL     1       1.172   8.086 -28.166  1.00  0.00     0.020 A 
HETATM   17  C   UNL     1       1.652   8.908 -27.142  1.00  0.00     0.038 A 
HETATM   18  C   UNL     1       0.824   9.880 -26.580  1.00  0.00     0.068 A 
HETATM   19  C   UNL     1      -0.480  10.034 -27.064  1.00  0.00     0.038 A 
HETATM   20  C   UNL     1      -0.971   9.209 -28.080  1.00  0.00     0.020 A 
BRANCH  18  21
HETATM   21  O   UNL     1       1.166  10.738 -25.572  1.00  0.00    -0.351 OA
BRANCH  21  22
HETATM   22  C   UNL     1       2.187  10.305 -24.671  1.00  0.00     0.175 C 
BRANCH  22  23
HETATM   23  C   UNL     1       1.513   9.605 -23.496  1.00  0.00     0.022 C 
HETATM   24  C   UNL     1       0.865  10.597 -22.547  1.00  0.00     0.007 C 
ENDBRANCH  22  23
ENDBRANCH  21  22
ENDBRANCH  18  21
ENDBRANCH  12  15
ENDBRANCH   9  11
ENDBRANCH   7   9
ENDBRANCH   1   7
BRANCH   4  25
HETATM   25  N   UNL     1      -5.314   1.503 -30.831  1.00  0.00    -0.378 N 
HETATM   26  C   UNL     1      -4.445   0.327 -31.027  1.00  0.00     0.150 C 
HETATM   27  C   UNL     1      -4.507  -0.162 -32.490  1.00  0.00     0.255 C 
HETATM   28  N   UNL     1      -5.961  -0.416 -32.907  1.00  0.00    -0.064 N 
HETATM   29  H   UNL     1      -6.325  -1.135 -32.270  1.00  0.00     0.280 HD
HETATM   30  C   UNL     1      -6.806   0.839 -32.712  1.00  0.00     0.255 C 
HETATM   31  C   UNL     1      -6.711   1.334 -31.255  1.00  0.00     0.150 C 
BRANCH  28  32
HETATM   32  C   UNL     1      -6.088  -0.958 -34.307  1.00  0.00     0.273 C 
BRANCH  32  33
HETATM   33  C   UNL     1      -5.752  -2.421 -34.399  1.00  0.00    -0.033 A 
HETATM   34  C   UNL     1      -4.457  -2.875 -34.106  1.00  0.00     0.009 A 
HETATM   35  C   UNL     1      -4.140  -4.229 -34.215  1.00  0.00     0.001 A 
HETATM   36  C   UNL     1      -5.114  -5.143 -34.615  1.00  0.00     0.000 A 
HETATM   37  C   UNL     1      -6.405  -4.705 -34.902  1.00  0.00     0.001 A 
HETATM   38  C   UNL     1      -6.725  -3.352 -34.795  1.00  0.00     0.009 A 
ENDBRANCH  32  33
ENDBRANCH  28  32
ENDBRANCH   4  25
TORSDOF 10
ENDMDL
MODEL 4
REMARK VINA RESULT:      -8.6      3.145      4.418
REMARK  10 active torsions:
REMARK  status: ('A' for Active; 'I' for Inactive)
REMARK    1  A    between atoms: C_2  and  C_3 
REMARK    2  A    between atoms: C_3  and  O_4 
REMARK    3  A    between atoms: O_4  and  C_5 
REMARK    4  A    between atoms: C_8  and  C_9 
REMARK       I    between atoms: C_9  and  N_10 
REMARK    5  A    between atoms: N_10  and  C_11 
REMARK    6  A    between atoms: C_11  and  N_12 
REMARK    7  A    between atoms: N_12  and  C_13 
REMARK    8  A    between atoms: C_16  and  N_17 
REMARK    9  A    between atoms: N_20  and  C_22 
REMARK   10  A    between atoms: C_22  and  C_23 
ROOT
HETATM    1  C   UNL     1     -10.011   4.277 -33.066  1.00  0.00     0.034 A 
HETATM    2  C   UNL     1     -10.033   3.884 -31.728  1.00  0.00     0.032 A 
HETATM    3  C   UNL     1      -8.948   4.154 -30.883  1.00  0.00     0.031 A 
HETATM    4  C   UNL     1      -7.792   4.797 -31.349  1.00  0.00     0.030 A 
HETATM    5  C   UNL     1      -7.781   5.167 -32.698  1.00  0.00     0.031 A 
HETATM    6  C   UNL     1      -8.876   4.923 -33.543  1.00  0.00     0.032 A 
ENDROOT
BRANCH   1   7
HETATM    7  N   UNL     1     -11.099   3.881 -33.867  1.00  0.00    -0.333 N 
HETATM    8  H   UNL     1     -11.886   4.533 -33.872  1.00  0.00     0.168 HD
BRANCH   7   9
HETATM    9  C   UNL     1     -11.338   2.741 -34.595  1.00  0.00     0.179 C 
HETATM   10  S   UNL     1     -12.746   2.278 -35.371  1.00  0.00    -0.040 SA
BRANCH   9  11
HETATM   11  N   UNL     1     -10.262   1.872 -34.683  1.00  0.00    -0.299 N 
HETATM   12  C   UNL     1      -9.987   0.795 -33.853  1.00  0.00     0.257 C 
HETATM   13  O   UNL     1     -10.819   0.251 -33.132  1.00  0.00    -0.267 OA
HETATM   14  H   UNL     1      -9.520   2.223 -35.272  1.00  0.00     0.171 HD
BRANCH  12  15
HETATM   15  C   UNL     1      -8.580   0.330 -33.849  1.00  0.00     0.032 A 
HETATM   16  C   UNL     1      -7.983   0.050 -35.083  1.00  0.00     0.020 A 
HETATM   17  C   UNL     1      -6.680  -0.453 -35.136  1.00  0.00     0.038 A 
HETATM   18  C   UNL     1      -5.963  -0.663 -33.958  1.00  0.00     0.068 A 
HETATM   19  C   UNL     1      -6.554  -0.348 -32.729  1.00  0.00     0.038 A 
HETATM   20  C   UNL     1      -7.861   0.145 -32.667  1.00  0.00     0.020 A 
BRANCH  18  21
HETATM   21  O   UNL     1      -4.691  -1.155 -33.872  1.00  0.00    -0.351 OA
BRANCH  21  22
HETATM   22  C   UNL     1      -4.237  -1.557 -32.578  1.00  0.00     0.175 C 
BRANCH  22  23
HETATM   23  C   UNL     1      -2.933  -0.821 -32.286  1.00  0.00     0.022 C 
HETATM   24  C   UNL     1      -3.063   0.100 -31.087  1.00  0.00     0.007 C 
ENDBRANCH  22  23
ENDBRANCH  21  22
ENDBRANCH  18  21
ENDBRANCH  12  15
ENDBRANCH   9  11
ENDBRANCH   7   9
ENDBRANCH   1   7
BRANCH   4  25
HETATM   25  N   UNL     1      -6.709   4.983 -30.493  1.00  0.00    -0.378 N 
HETATM   26  C   UNL     1      -5.758   6.057 -30.835  1.00  0.00     0.150 C 
HETATM   27  C   UNL     1      -4.531   5.485 -31.578  1.00  0.00     0.255 C 
HETATM   28  N   UNL     1      -3.891   4.356 -30.761  1.00  0.00    -0.064 N 
HETATM   29  H   UNL     1      -3.609   4.769 -29.864  1.00  0.00     0.280 HD
HETATM   30  C   UNL     1      -4.910   3.261 -30.460  1.00  0.00     0.255 C 
HETATM   31  C   UNL     1      -6.142   3.850 -29.747  1.00  0.00     0.150 C 
BRANCH  28  32
HETATM   32  C   UNL     1      -2.646   3.795 -31.401  1.00  0.00     0.273 C 
BRANCH  32  33
HETATM   33  C   UNL     1      -2.032   4.734 -32.401  1.00  0.00    -0.033 A 
HETATM   34  C   UNL     1      -1.353   5.887 -31.974  1.00  0.00     0.009 A 
HETATM   35  C   UNL     1      -0.804   6.770 -32.905  1.00  0.00     0.001 A 
HETATM   36  C   UNL     1      -0.925   6.510 -34.269  1.00  0.00     0.000 A 
HETATM   37  C   UNL     1      -1.590   5.366 -34.704  1.00  0.00     0.001 A 
HETATM   38  C   UNL     1      -2.141   4.481 -33.777  1.00  0.00     0.009 A 
ENDBRANCH  32  33
ENDBRANCH  28  32
ENDBRANCH   4  25
TORSDOF 10
ENDMDL
MODEL 5
REMARK VINA RESULT:      -8.5      3.898     11.576
REMARK  10 active torsions:
REMARK  status: ('A' for Active; 'I' for Inactive)
REMARK    1  A    between atoms: C_2  and  C_3 
REMARK    2  A    between atoms: C_3  and  O_4 
REMARK    3  A    between atoms: O_4  and  C_5 
REMARK    4  A    between atoms: C_8  and  C_9 
REMARK       I    between atoms: C_9  and  N_10 
REMARK    5  A    between atoms: N_10  and  C_11 
REMARK    6  A    between atoms: C_11  and  N_12 
REMARK    7  A    between atoms: N_12  and  C_13 
REMARK    8  A    between atoms: C_16  and  N_17 
REMARK    9  A    between atoms: N_20  and  C_22 
REMARK   10  A    between atoms: C_22  and  C_23 
ROOT
HETATM    1  C   UNL     1      -3.718   2.575 -31.431  1.00  0.00     0.034 A 
HETATM    2  C   UNL     1      -4.904   2.835 -30.745  1.00  0.00     0.032 A 
HETATM    3  C   UNL     1      -6.051   2.063 -30.978  1.00  0.00     0.031 A 
HETATM    4  C   UNL     1      -6.063   1.026 -31.922  1.00  0.00     0.030 A 
HETATM    5  C   UNL     1      -4.869   0.792 -32.612  1.00  0.00     0.031 A 
HETATM    6  C   UNL     1      -3.709   1.545 -32.365  1.00  0.00     0.032 A 
ENDROOT
BRANCH   1   7
HETATM    7  N   UNL     1      -2.643   3.458 -31.209  1.00  0.00    -0.333 N 
HETATM    8  H   UNL     1      -2.189   3.359 -30.298  1.00  0.00     0.168 HD
BRANCH   7   9
HETATM    9  C   UNL     1      -2.128   4.487 -31.960  1.00  0.00     0.179 C 
HETATM   10  S   UNL     1      -2.190   4.697 -33.618  1.00  0.00    -0.040 SA
BRANCH   9  11
HETATM   11  N   UNL     1      -1.475   5.467 -31.231  1.00  0.00    -0.299 N 
HETATM   12  C   UNL     1      -0.425   5.287 -30.341  1.00  0.00     0.257 C 
HETATM   13  O   UNL     1       0.296   4.294 -30.319  1.00  0.00    -0.267 OA
HETATM   14  H   UNL     1      -1.984   6.340 -31.198  1.00  0.00     0.171 HD
BRANCH  12  15
HETATM   15  C   UNL     1      -0.224   6.377 -29.357  1.00  0.00     0.032 A 
HETATM   16  C   UNL     1      -0.938   7.565 -29.545  1.00  0.00     0.020 A 
HETATM   17  C   UNL     1      -0.740   8.649 -28.685  1.00  0.00     0.038 A 
HETATM   18  C   UNL     1       0.162   8.544 -27.626  1.00  0.00     0.068 A 
HETATM   19  C   UNL     1       0.847   7.341 -27.423  1.00  0.00     0.038 A 
HETATM   20  C   UNL     1       0.662   6.256 -28.284  1.00  0.00     0.020 A 
BRANCH  18  21
HETATM   21  O   UNL     1       0.453   9.529 -26.722  1.00  0.00    -0.351 OA
BRANCH  21  22
HETATM   22  C   UNL     1       0.470   9.157 -25.342  1.00  0.00     0.175 C 
BRANCH  22  23
HETATM   23  C   UNL     1       1.679   9.820 -24.690  1.00  0.00     0.022 C 
HETATM   24  C   UNL     1       2.876   8.887 -24.645  1.00  0.00     0.007 C 
ENDBRANCH  22  23
ENDBRANCH  21  22
ENDBRANCH  18  21
ENDBRANCH  12  15
ENDBRANCH   9  11
ENDBRANCH   7   9
ENDBRANCH   1   7
BRANCH   4  25
HETATM   25  N   UNL     1      -7.243   0.330 -32.172  1.00  0.00    -0.378 N 
HETATM   26  C   UNL     1      -7.470  -0.137 -33.553  1.00  0.00     0.150 C 
HETATM   27  C   UNL     1      -8.383   0.845 -34.319  1.00  0.00     0.255 C 
HETATM   28  N   UNL     1      -9.686   1.077 -33.545  1.00  0.00    -0.064 N 
HETATM   29  H   UNL     1     -10.138   0.159 -33.453  1.00  0.00     0.280 HD
HETATM   30  C   UNL     1      -9.394   1.585 -32.136  1.00  0.00     0.255 C 
HETATM   31  C   UNL     1      -8.458   0.612 -31.394  1.00  0.00     0.150 C 
BRANCH  28  32
HETATM   32  C   UNL     1     -10.653   1.978 -34.270  1.00  0.00     0.273 C 
BRANCH  32  33
HETATM   33  C   UNL     1     -12.075   1.787 -33.823  1.00  0.00    -0.033 A 
HETATM   34  C   UNL     1     -12.767   0.605 -34.133  1.00  0.00     0.009 A 
HETATM   35  C   UNL     1     -14.096   0.439 -33.739  1.00  0.00     0.001 A 
HETATM   36  C   UNL     1     -14.743   1.449 -33.030  1.00  0.00     0.000 A 
HETATM   37  C   UNL     1     -14.065   2.623 -32.711  1.00  0.00     0.001 A 
HETATM   38  C   UNL     1     -12.737   2.793 -33.104  1.00  0.00     0.009 A 
ENDBRANCH  32  33
ENDBRANCH  28  32
ENDBRANCH   4  25
TORSDOF 10
ENDMDL
MODEL 6
REMARK VINA RESULT:      -8.4      3.410     11.376
REMARK  10 active torsions:
REMARK  status: ('A' for Active; 'I' for Inactive)
REMARK    1  A    between atoms: C_2  and  C_3 
REMARK    2  A    between atoms: C_3  and  O_4 
REMARK    3  A    between atoms: O_4  and  C_5 
REMARK    4  A    between atoms: C_8  and  C_9 
REMARK       I    between atoms: C_9  and  N_10 
REMARK    5  A    between atoms: N_10  and  C_11 
REMARK    6  A    between atoms: C_11  and  N_12 
REMARK    7  A    between atoms: N_12  and  C_13 
REMARK    8  A    between atoms: C_16  and  N_17 
REMARK    9  A    between atoms: N_20  and  C_22 
REMARK   10  A    between atoms: C_22  and  C_23 
ROOT
HETATM    1  C   UNL     1      -3.230   4.043 -31.330  1.00  0.00     0.034 A 
HETATM    2  C   UNL     1      -3.213   2.885 -32.107  1.00  0.00     0.032 A 
HETATM    3  C   UNL     1      -4.382   2.137 -32.306  1.00  0.00     0.031 A 
HETATM    4  C   UNL     1      -5.600   2.499 -31.713  1.00  0.00     0.030 A 
HETATM    5  C   UNL     1      -5.593   3.654 -30.922  1.00  0.00     0.031 A 
HETATM    6  C   UNL     1      -4.431   4.422 -30.741  1.00  0.00     0.032 A 
ENDROOT
BRANCH   1   7
HETATM    7  N   UNL     1      -1.995   4.679 -31.101  1.00  0.00    -0.333 N 
HETATM    8  H   UNL     1      -1.361   4.173 -30.480  1.00  0.00     0.168 HD
BRANCH   7   9
HETATM    9  C   UNL     1      -1.502   5.899 -31.498  1.00  0.00     0.179 C 
HETATM   10  S   UNL     1      -1.721   6.684 -32.958  1.00  0.00    -0.040 SA
BRANCH   9  11
HETATM   11  N   UNL     1      -0.722   6.545 -30.552  1.00  0.00    -0.299 N 
HETATM   12  C   UNL     1       0.126   5.957 -29.625  1.00  0.00     0.257 C 
HETATM   13  O   UNL     1       0.566   4.815 -29.722  1.00  0.00    -0.267 OA
HETATM   14  H   UNL     1      -0.996   7.507 -30.406  1.00  0.00     0.171 HD
BRANCH  12  15
HETATM   15  C   UNL     1       0.467   6.790 -28.448  1.00  0.00     0.032 A 
HETATM   16  C   UNL     1       0.066   6.334 -27.188  1.00  0.00     0.020 A 
HETATM   17  C   UNL     1       0.303   7.110 -26.050  1.00  0.00     0.038 A 
HETATM   18  C   UNL     1       0.955   8.338 -26.165  1.00  0.00     0.068 A 
HETATM   19  C   UNL     1       1.385   8.772 -27.424  1.00  0.00     0.038 A 
HETATM   20  C   UNL     1       1.142   8.007 -28.568  1.00  0.00     0.020 A 
BRANCH  18  21
HETATM   21  O   UNL     1       1.240   9.193 -25.137  1.00  0.00    -0.351 OA
BRANCH  21  22
HETATM   22  C   UNL     1       2.619   9.389 -24.819  1.00  0.00     0.175 C 
BRANCH  22  23
HETATM   23  C   UNL     1       2.877   8.786 -23.442  1.00  0.00     0.022 C 
HETATM   24  C   UNL     1       4.356   8.543 -23.202  1.00  0.00     0.007 C 
ENDBRANCH  22  23
ENDBRANCH  21  22
ENDBRANCH  18  21
ENDBRANCH  12  15
ENDBRANCH   9  11
ENDBRANCH   7   9
ENDBRANCH   1   7
BRANCH   4  25
HETATM   25  N   UNL     1      -6.720   1.690 -31.880  1.00  0.00    -0.378 N 
HETATM   26  C   UNL     1      -6.589   0.272 -31.495  1.00  0.00     0.150 C 
HETATM   27  C   UNL     1      -6.294  -0.605 -32.732  1.00  0.00     0.255 C 
HETATM   28  N   UNL     1      -7.354  -0.375 -33.815  1.00  0.00    -0.064 N 
HETATM   29  H   UNL     1      -8.257  -0.631 -33.398  1.00  0.00     0.280 HD
HETATM   30  C   UNL     1      -7.427   1.101 -34.195  1.00  0.00     0.255 C 
HETATM   31  C   UNL     1      -7.692   1.967 -32.948  1.00  0.00     0.150 C 
BRANCH  28  32
HETATM   32  C   UNL     1      -7.161  -1.250 -35.027  1.00  0.00     0.273 C 
BRANCH  32  33
HETATM   33  C   UNL     1      -6.302  -2.452 -34.747  1.00  0.00    -0.033 A 
HETATM   34  C   UNL     1      -4.967  -2.296 -34.342  1.00  0.00     0.009 A 
HETATM   35  C   UNL     1      -4.164  -3.412 -34.106  1.00  0.00     0.001 A 
HETATM   36  C   UNL     1      -4.687  -4.694 -34.270  1.00  0.00     0.000 A 
HETATM   37  C   UNL     1      -6.012  -4.862 -34.664  1.00  0.00     0.001 A 
HETATM   38  C   UNL     1      -6.818  -3.748 -34.902  1.00  0.00     0.009 A 
ENDBRANCH  32  33
ENDBRANCH  28  32
ENDBRANCH   4  25
TORSDOF 10
ENDMDL
MODEL 7
REMARK VINA RESULT:      -8.3      1.575      2.471
REMARK  10 active torsions:
REMARK  status: ('A' for Active; 'I' for Inactive)
REMARK    1  A    between atoms: C_2  and  C_3 
REMARK    2  A    between atoms: C_3  and  O_4 
REMARK    3  A    between atoms: O_4  and  C_5 
REMARK    4  A    between atoms: C_8  and  C_9 
REMARK       I    between atoms: C_9  and  N_10 
REMARK    5  A    between atoms: N_10  and  C_11 
REMARK    6  A    between atoms: C_11  and  N_12 
REMARK    7  A    between atoms: N_12  and  C_13 
REMARK    8  A    between atoms: C_16  and  N_17 
REMARK    9  A    between atoms: N_20  and  C_22 
REMARK   10  A    between atoms: C_22  and  C_23 
ROOT
HETATM    1  C   UNL     1      -4.188   5.379 -33.533  1.00  0.00     0.034 A 
HETATM    2  C   UNL     1      -3.102   5.937 -34.206  1.00  0.00     0.032 A 
HETATM    3  C   UNL     1      -2.021   6.479 -33.497  1.00  0.00     0.031 A 
HETATM    4  C   UNL     1      -1.998   6.510 -32.095  1.00  0.00     0.030 A 
HETATM    5  C   UNL     1      -3.105   5.961 -31.438  1.00  0.00     0.031 A 
HETATM    6  C   UNL     1      -4.180   5.393 -32.143  1.00  0.00     0.032 A 
ENDROOT
BRANCH   1   7
HETATM    7  N   UNL     1      -5.274   4.946 -34.318  1.00  0.00    -0.333 N 
HETATM    8  H   UNL     1      -5.225   5.217 -35.302  1.00  0.00     0.168 HD
BRANCH   7   9
HETATM    9  C   UNL     1      -6.436   4.286 -33.997  1.00  0.00     0.179 C 
HETATM   10  S   UNL     1      -7.957   4.928 -33.729  1.00  0.00    -0.040 SA
BRANCH   9  11
HETATM   11  N   UNL     1      -6.310   2.911 -33.883  1.00  0.00    -0.299 N 
HETATM   12  C   UNL     1      -6.016   2.191 -32.733  1.00  0.00     0.257 C 
HETATM   13  O   UNL     1      -6.155   2.626 -31.594  1.00  0.00    -0.267 OA
HETATM   14  H   UNL     1      -6.203   2.449 -34.776  1.00  0.00     0.171 HD
BRANCH  12  15
HETATM   15  C   UNL     1      -5.475   0.828 -32.950  1.00  0.00     0.032 A 
HETATM   16  C   UNL     1      -6.342  -0.143 -33.461  1.00  0.00     0.020 A 
HETATM   17  C   UNL     1      -5.905  -1.461 -33.625  1.00  0.00     0.038 A 
HETATM   18  C   UNL     1      -4.595  -1.808 -33.293  1.00  0.00     0.068 A 
HETATM   19  C   UNL     1      -3.723  -0.824 -32.816  1.00  0.00     0.038 A 
HETATM   20  C   UNL     1      -4.156   0.493 -32.639  1.00  0.00     0.020 A 
BRANCH  18  21
HETATM   21  O   UNL     1      -4.047  -3.057 -33.398  1.00  0.00    -0.351 OA
BRANCH  21  22
HETATM   22  C   UNL     1      -4.174  -3.716 -34.659  1.00  0.00     0.175 C 
BRANCH  22  23
HETATM   23  C   UNL     1      -5.159  -4.869 -34.492  1.00  0.00     0.022 C 
HETATM   24  C   UNL     1      -6.444  -4.626 -35.263  1.00  0.00     0.007 C 
ENDBRANCH  22  23
ENDBRANCH  21  22
ENDBRANCH  18  21
ENDBRANCH  12  15
ENDBRANCH   9  11
ENDBRANCH   7   9
ENDBRANCH   1   7
BRANCH   4  25
HETATM   25  N   UNL     1      -0.937   7.120 -31.432  1.00  0.00    -0.378 N 
HETATM   26  C   UNL     1       0.196   6.260 -31.042  1.00  0.00     0.150 C 
HETATM   27  C   UNL     1       0.072   5.829 -29.564  1.00  0.00     0.255 C 
HETATM   28  N   UNL     1      -0.084   7.058 -28.661  1.00  0.00    -0.064 N 
HETATM   29  H   UNL     1       0.756   7.631 -28.801  1.00  0.00     0.280 HD
HETATM   30  C   UNL     1      -1.286   7.895 -29.091  1.00  0.00     0.255 C 
HETATM   31  C   UNL     1      -1.164   8.292 -30.575  1.00  0.00     0.150 C 
BRANCH  28  32
HETATM   32  C   UNL     1      -0.146   6.711 -27.195  1.00  0.00     0.273 C 
BRANCH  32  33
HETATM   33  C   UNL     1       0.477   7.763 -26.321  1.00  0.00    -0.033 A 
HETATM   34  C   UNL     1       1.873   7.860 -26.205  1.00  0.00     0.009 A 
HETATM   35  C   UNL     1       2.449   8.821 -25.374  1.00  0.00     0.001 A 
HETATM   36  C   UNL     1       1.638   9.696 -24.653  1.00  0.00     0.000 A 
HETATM   37  C   UNL     1       0.252   9.614 -24.765  1.00  0.00     0.001 A 
HETATM   38  C   UNL     1      -0.328   8.654 -25.594  1.00  0.00     0.009 A 
ENDBRANCH  32  33
ENDBRANCH  28  32
ENDBRANCH   4  25
TORSDOF 10
ENDMDL
MODEL 8
REMARK VINA RESULT:      -8.1      3.301      8.527
REMARK  10 active torsions:
REMARK  status: ('A' for Active; 'I' for Inactive)
REMARK    1  A    between atoms: C_2  and  C_3 
REMARK    2  A    between atoms: C_3  and  O_4 
REMARK    3  A    between atoms: O_4  and  C_5 
REMARK    4  A    between atoms: C_8  and  C_9 
REMARK       I    between atoms: C_9  and  N_10 
REMARK    5  A    between atoms: N_10  and  C_11 
REMARK    6  A    between atoms: C_11  and  N_12 
REMARK    7  A    between atoms: N_12  and  C_13 
REMARK    8  A    between atoms: C_16  and  N_17 
REMARK    9  A    between atoms: N_20  and  C_22 
REMARK   10  A    between atoms: C_22  and  C_23 
ROOT
HETATM    1  C   UNL     1      -4.571   5.997 -30.682  1.00  0.00     0.034 A 
HETATM    2  C   UNL     1      -5.028   6.472 -31.911  1.00  0.00     0.032 A 
HETATM    3  C   UNL     1      -6.385   6.392 -32.252  1.00  0.00     0.031 A 
HETATM    4  C   UNL     1      -7.328   5.808 -31.394  1.00  0.00     0.030 A 
HETATM    5  C   UNL     1      -6.848   5.321 -30.174  1.00  0.00     0.031 A 
HETATM    6  C   UNL     1      -5.494   5.423 -29.815  1.00  0.00     0.032 A 
ENDROOT
BRANCH   1   7
HETATM    7  N   UNL     1      -3.181   6.027 -30.460  1.00  0.00    -0.333 N 
HETATM    8  H   UNL     1      -2.836   6.888 -30.030  1.00  0.00     0.168 HD
BRANCH   7   9
HETATM    9  C   UNL     1      -2.179   5.144 -30.780  1.00  0.00     0.179 C 
HETATM   10  S   UNL     1      -0.527   5.403 -30.788  1.00  0.00    -0.040 SA
BRANCH   9  11
HETATM   11  N   UNL     1      -2.614   3.878 -31.141  1.00  0.00    -0.299 N 
HETATM   12  C   UNL     1      -2.976   3.450 -32.410  1.00  0.00     0.257 C 
HETATM   13  O   UNL     1      -2.650   4.019 -33.448  1.00  0.00    -0.267 OA
HETATM   14  H   UNL     1      -2.896   3.317 -30.349  1.00  0.00     0.171 HD
BRANCH  12  15
HETATM   15  C   UNL     1      -3.836   2.244 -32.460  1.00  0.00     0.032 A 
HETATM   16  C   UNL     1      -3.267   1.022 -32.086  1.00  0.00     0.020 A 
HETATM   17  C   UNL     1      -4.011  -0.157 -32.174  1.00  0.00     0.038 A 
HETATM   18  C   UNL     1      -5.332  -0.118 -32.623  1.00  0.00     0.068 A 
HETATM   19  C   UNL     1      -5.906   1.112 -32.962  1.00  0.00     0.038 A 
HETATM   20  C   UNL     1      -5.165   2.295 -32.886  1.00  0.00     0.020 A 
BRANCH  18  21
HETATM   21  O   UNL     1      -6.162  -1.195 -32.762  1.00  0.00    -0.351 OA
BRANCH  21  22
HETATM   22  C   UNL     1      -6.955  -1.253 -33.950  1.00  0.00     0.175 C 
BRANCH  22  23
HETATM   23  C   UNL     1      -6.820  -2.653 -34.539  1.00  0.00     0.022 C 
HETATM   24  C   UNL     1      -5.406  -2.928 -35.017  1.00  0.00     0.007 C 
ENDBRANCH  22  23
ENDBRANCH  21  22
ENDBRANCH  18  21
ENDBRANCH  12  15
ENDBRANCH   9  11
ENDBRANCH   7   9
ENDBRANCH   1   7
BRANCH   4  25
HETATM   25  N   UNL     1      -8.654   5.685 -31.802  1.00  0.00    -0.378 N 
HETATM   26  C   UNL     1      -9.446   4.597 -31.199  1.00  0.00     0.150 C 
HETATM   27  C   UNL     1      -9.487   3.368 -32.133  1.00  0.00     0.255 C 
HETATM   28  N   UNL     1      -9.988   3.772 -33.525  1.00  0.00    -0.064 N 
HETATM   29  H   UNL     1     -10.931   4.158 -33.394  1.00  0.00     0.280 HD
HETATM   30  C   UNL     1      -9.118   4.879 -34.113  1.00  0.00     0.255 C 
HETATM   31  C   UNL     1      -9.061   6.087 -33.156  1.00  0.00     0.150 C 
BRANCH  28  32
HETATM   32  C   UNL     1     -10.114   2.605 -34.470  1.00  0.00     0.273 C 
BRANCH  32  33
HETATM   33  C   UNL     1     -11.386   1.828 -34.272  1.00  0.00    -0.033 A 
HETATM   34  C   UNL     1     -11.375   0.609 -33.576  1.00  0.00     0.009 A 
HETATM   35  C   UNL     1     -12.552  -0.123 -33.414  1.00  0.00     0.001 A 
HETATM   36  C   UNL     1     -13.750   0.357 -33.941  1.00  0.00     0.000 A 
HETATM   37  C   UNL     1     -13.773   1.569 -34.628  1.00  0.00     0.001 A 
HETATM   38  C   UNL     1     -12.599   2.303 -34.793  1.00  0.00     0.009 A 
ENDBRANCH  32  33
ENDBRANCH  28  32
ENDBRANCH   4  25
TORSDOF 10
ENDMDL
MODEL 9
REMARK VINA RESULT:      -8.0      6.556     11.631
REMARK  10 active torsions:
REMARK  status: ('A' for Active; 'I' for Inactive)
REMARK    1  A    between atoms: C_2  and  C_3 
REMARK    2  A    between atoms: C_3  and  O_4 
REMARK    3  A    between atoms: O_4  and  C_5 
REMARK    4  A    between atoms: C_8  and  C_9 
REMARK       I    between atoms: C_9  and  N_10 
REMARK    5  A    between atoms: N_10  and  C_11 
REMARK    6  A    between atoms: C_11  and  N_12 
REMARK    7  A    between atoms: N_12  and  C_13 
REMARK    8  A    between atoms: C_16  and  N_17 
REMARK    9  A    between atoms: N_20  and  C_22 
REMARK   10  A    between atoms: C_22  and  C_23 
ROOT
HETATM    1  C   UNL     1      -7.944   4.955 -29.363  1.00  0.00     0.034 A 
HETATM    2  C   UNL     1      -6.561   4.986 -29.189  1.00  0.00     0.032 A 
HETATM    3  C   UNL     1      -5.746   3.990 -29.744  1.00  0.00     0.031 A 
HETATM    4  C   UNL     1      -6.283   2.914 -30.465  1.00  0.00     0.030 A 
HETATM    5  C   UNL     1      -7.674   2.891 -30.614  1.00  0.00     0.031 A 
HETATM    6  C   UNL     1      -8.494   3.900 -30.083  1.00  0.00     0.032 A 
ENDROOT
BRANCH   1   7
HETATM    7  N   UNL     1      -8.697   5.938 -28.692  1.00  0.00    -0.333 N 
HETATM    8  H   UNL     1      -8.996   5.678 -27.749  1.00  0.00     0.168 HD
BRANCH   7   9
HETATM    9  C   UNL     1      -9.174   7.163 -29.091  1.00  0.00     0.179 C 
HETATM   10  S   UNL     1      -8.758   8.050 -30.447  1.00  0.00    -0.040 SA
BRANCH   9  11
HETATM   11  N   UNL     1     -10.120   7.721 -28.246  1.00  0.00    -0.299 N 
HETATM   12  C   UNL     1      -9.911   8.212 -26.965  1.00  0.00     0.257 C 
HETATM   13  O   UNL     1      -8.812   8.532 -26.522  1.00  0.00    -0.267 OA
HETATM   14  H   UNL     1     -11.069   7.526 -28.534  1.00  0.00     0.171 HD
BRANCH  12  15
HETATM   15  C   UNL     1     -11.117   8.308 -26.110  1.00  0.00     0.032 A 
HETATM   16  C   UNL     1     -12.260   8.898 -26.658  1.00  0.00     0.020 A 
HETATM   17  C   UNL     1     -13.406   9.073 -25.877  1.00  0.00     0.038 A 
HETATM   18  C   UNL     1     -13.418   8.646 -24.549  1.00  0.00     0.068 A 
HETATM   19  C   UNL     1     -12.283   8.025 -24.017  1.00  0.00     0.038 A 
HETATM   20  C   UNL     1     -11.129   7.856 -24.788  1.00  0.00     0.020 A 
BRANCH  18  21
HETATM   21  O   UNL     1     -14.466   8.765 -23.680  1.00  0.00    -0.351 OA
BRANCH  21  22
HETATM   22  C   UNL     1     -15.078   7.553 -23.232  1.00  0.00     0.175 C 
BRANCH  22  23
HETATM   23  C   UNL     1     -15.865   6.963 -24.398  1.00  0.00     0.022 C 
HETATM   24  C   UNL     1     -15.360   5.582 -24.775  1.00  0.00     0.007 C 
ENDBRANCH  22  23
ENDBRANCH  21  22
ENDBRANCH  18  21
ENDBRANCH  12  15
ENDBRANCH   9  11
ENDBRANCH   7   9
ENDBRANCH   1   7
BRANCH   4  25
HETATM   25  N   UNL     1      -5.443   1.910 -30.940  1.00  0.00    -0.378 N 
HETATM   26  C   UNL     1      -4.807   2.129 -32.252  1.00  0.00     0.150 C 
HETATM   27  C   UNL     1      -5.597   1.413 -33.369  1.00  0.00     0.255 C 
HETATM   28  N   UNL     1      -5.773  -0.072 -33.031  1.00  0.00    -0.064 N 
HETATM   29  H   UNL     1      -4.828  -0.466 -32.947  1.00  0.00     0.280 HD
HETATM   30  C   UNL     1      -6.460  -0.240 -31.679  1.00  0.00     0.255 C 
HETATM   31  C   UNL     1      -5.678   0.505 -30.579  1.00  0.00     0.150 C 
BRANCH  28  32
HETATM   32  C   UNL     1      -6.482  -0.845 -34.113  1.00  0.00     0.273 C 
BRANCH  32  33
HETATM   33  C   UNL     1      -5.964  -2.249 -34.261  1.00  0.00    -0.033 A 
HETATM   34  C   UNL     1      -4.619  -2.545 -33.990  1.00  0.00     0.009 A 
HETATM   35  C   UNL     1      -4.134  -3.844 -34.152  1.00  0.00     0.001 A 
HETATM   36  C   UNL     1      -4.988  -4.858 -34.582  1.00  0.00     0.000 A 
HETATM   37  C   UNL     1      -6.326  -4.577 -34.847  1.00  0.00     0.001 A 
HETATM   38  C   UNL     1      -6.815  -3.281 -34.688  1.00  0.00     0.009 A 
ENDBRANCH  32  33
ENDBRANCH  28  32
ENDBRANCH   4  25
TORSDOF 10
ENDMDL
MODEL 10
REMARK VINA RESULT:      -8.0      2.354      3.549
REMARK  10 active torsions:
REMARK  status: ('A' for Active; 'I' for Inactive)
REMARK    1  A    between atoms: C_2  and  C_3 
REMARK    2  A    between atoms: C_3  and  O_4 
REMARK    3  A    between atoms: O_4  and  C_5 
REMARK    4  A    between atoms: C_8  and  C_9 
REMARK       I    between atoms: C_9  and  N_10 
REMARK    5  A    between atoms: N_10  and  C_11 
REMARK    6  A    between atoms: C_11  and  N_12 
REMARK    7  A    between atoms: N_12  and  C_13 
REMARK    8  A    between atoms: C_16  and  N_17 
REMARK    9  A    between atoms: N_20  and  C_22 
REMARK   10  A    between atoms: C_22  and  C_23 
ROOT
HETATM    1  C   UNL     1     -10.133   4.293 -33.050  1.00  0.00     0.034 A 
HETATM    2  C   UNL     1      -9.522   5.415 -33.609  1.00  0.00     0.032 A 
HETATM    3  C   UNL     1      -8.449   6.045 -32.963  1.00  0.00     0.031 A 
HETATM    4  C   UNL     1      -7.967   5.596 -31.725  1.00  0.00     0.030 A 
HETATM    5  C   UNL     1      -8.604   4.480 -31.172  1.00  0.00     0.031 A 
HETATM    6  C   UNL     1      -9.663   3.829 -31.826  1.00  0.00     0.032 A 
ENDROOT
BRANCH   1   7
HETATM    7  N   UNL     1     -11.264   3.782 -33.714  1.00  0.00    -0.333 N 
HETATM    8  H   UNL     1     -12.148   4.229 -33.460  1.00  0.00     0.168 HD
BRANCH   7   9
HETATM    9  C   UNL     1     -11.421   2.738 -34.593  1.00  0.00     0.179 C 
HETATM   10  S   UNL     1     -12.736   2.384 -35.564  1.00  0.00    -0.040 SA
BRANCH   9  11
HETATM   11  N   UNL     1     -10.339   1.875 -34.670  1.00  0.00    -0.299 N 
HETATM   12  C   UNL     1     -10.085   0.779 -33.858  1.00  0.00     0.257 C 
HETATM   13  O   UNL     1     -10.937   0.214 -33.179  1.00  0.00    -0.267 OA
HETATM   14  H   UNL     1      -9.579   2.245 -35.225  1.00  0.00     0.171 HD
BRANCH  12  15
HETATM   15  C   UNL     1      -8.676   0.319 -33.822  1.00  0.00     0.032 A 
HETATM   16  C   UNL     1      -8.042   0.066 -35.042  1.00  0.00     0.020 A 
HETATM   17  C   UNL     1      -6.736  -0.431 -35.067  1.00  0.00     0.038 A 
HETATM   18  C   UNL     1      -6.053  -0.662 -33.872  1.00  0.00     0.068 A 
HETATM   19  C   UNL     1      -6.682  -0.373 -32.656  1.00  0.00     0.038 A 
HETATM   20  C   UNL     1      -7.992   0.114 -32.622  1.00  0.00     0.020 A 
BRANCH  18  21
HETATM   21  O   UNL     1      -4.782  -1.150 -33.758  1.00  0.00    -0.351 OA
BRANCH  21  22
HETATM   22  C   UNL     1      -4.422  -2.229 -34.624  1.00  0.00     0.175 C 
BRANCH  22  23
HETATM   23  C   UNL     1      -4.980  -3.518 -34.029  1.00  0.00     0.022 C 
HETATM   24  C   UNL     1      -5.955  -4.196 -34.973  1.00  0.00     0.007 C 
ENDBRANCH  22  23
ENDBRANCH  21  22
ENDBRANCH  18  21
ENDBRANCH  12  15
ENDBRANCH   9  11
ENDBRANCH   7   9
ENDBRANCH   1   7
BRANCH   4  25
HETATM   25  N   UNL     1      -6.945   6.292 -31.085  1.00  0.00    -0.378 N 
HETATM   26  C   UNL     1      -6.101   7.167 -31.920  1.00  0.00     0.150 C 
HETATM   27  C   UNL     1      -4.792   6.449 -32.315  1.00  0.00     0.255 C 
HETATM   28  N   UNL     1      -4.068   5.935 -31.065  1.00  0.00    -0.064 N 
HETATM   29  H   UNL     1      -3.867   6.759 -30.485  1.00  0.00     0.280 HD
HETATM   30  C   UNL     1      -4.975   5.015 -30.254  1.00  0.00     0.255 C 
HETATM   31  C   UNL     1      -6.290   5.733 -29.894  1.00  0.00     0.150 C 
BRANCH  28  32
HETATM   32  C   UNL     1      -2.747   5.278 -31.375  1.00  0.00     0.273 C 
BRANCH  32  33
HETATM   33  C   UNL     1      -1.574   6.038 -30.819  1.00  0.00    -0.033 A 
HETATM   34  C   UNL     1      -0.337   6.025 -31.484  1.00  0.00     0.009 A 
HETATM   35  C   UNL     1       0.757   6.711 -30.955  1.00  0.00     0.001 A 
HETATM   36  C   UNL     1       0.626   7.416 -29.759  1.00  0.00     0.000 A 
HETATM   37  C   UNL     1      -0.597   7.441 -29.095  1.00  0.00     0.001 A 
HETATM   38  C   UNL     1      -1.693   6.757 -29.620  1.00  0.00     0.009 A 
ENDBRANCH  32  33
ENDBRANCH  28  32
ENDBRANCH   4  25
TORSDOF 10
ENDMDL
