MODEL 1
REMARK VINA RESULT:      -9.5      0.000      0.000
REMARK  3 active torsions:
REMARK  status: ('A' for Active; 'I' for Inactive)
REMARK    1  A    between atoms: C_12  and  C_13 
REMARK    2  A    between atoms: C_13  and  N_14 
REMARK       I    between atoms: N_14  and  C_15 
REMARK    3  A    between atoms: C_15  and  C_16 
ROOT
HETATM    1  N   UNL     1      -5.449   0.713 -32.071  1.00  0.00    -0.352 N 
HETATM    2  C   UNL     1      -5.496   0.030 -33.259  1.00  0.00     0.254 C 
HETATM    3  O   UNL     1      -6.027   0.502 -34.262  1.00  0.00    -0.268 OA
HETATM    4  H   UNL     1      -5.037   0.259 -31.268  1.00  0.00     0.163 HD
ENDROOT
BRANCH   1   5
HETATM    5  C   UNL     1      -6.084   1.992 -31.871  1.00  0.00     0.165 C 
BRANCH   5   6
HETATM    6  C   UNL     1      -5.330   3.091 -32.562  1.00  0.00     0.008 C 
HETATM    7  C   UNL     1      -6.028   3.905 -33.657  1.00  0.00     0.043 C 
HETATM    8  C   UNL     1      -7.523   3.739 -33.843  1.00  0.00     0.071 C 
HETATM    9  N   UNL     1      -5.461   4.770 -34.451  1.00  0.00    -0.234 NA
HETATM   10  C   UNL     1      -4.126   4.931 -34.225  1.00  0.00     0.154 C 
HETATM   11  C   UNL     1      -3.316   5.642 -35.020  1.00  0.00     0.128 C 
HETATM   12  N   UNL     1      -3.426   4.356 -33.181  1.00  0.00    -0.239 N 
HETATM   13  C   UNL     1      -1.981   5.512 -34.403  1.00  0.00     0.263 C 
HETATM   14  N   UNL     1      -2.084   4.603 -33.364  1.00  0.00    -0.258 N 
HETATM   15  O   UNL     1      -0.991   6.138 -34.737  1.00  0.00    -0.267 OA
HETATM   16  H   UNL     1      -1.456   4.671 -32.576  1.00  0.00     0.191 HD
HETATM   17  C   UNL     1      -4.012   3.379 -32.392  1.00  0.00     0.042 C 
HETATM   18  C   UNL     1      -3.114   2.695 -31.391  1.00  0.00     0.071 C 
ENDBRANCH   5   6
ENDBRANCH   1   5
BRANCH   2  19
HETATM   19  C   UNL     1      -4.884  -1.304 -33.265  1.00  0.00     0.062 A 
HETATM   20  C   UNL     1      -5.254  -2.538 -33.915  1.00  0.00     0.046 A 
HETATM   21  C   UNL     1      -4.287  -3.495 -33.580  1.00  0.00     0.046 A 
HETATM   22  C   UNL     1      -6.300  -2.966 -34.764  1.00  0.00     0.130 A 
HETATM   23  C   UNL     1      -4.324  -4.818 -34.045  1.00  0.00     0.030 A 
HETATM   24  N   UNL     1      -3.370  -2.882 -32.761  1.00  0.00    -0.364 N 
HETATM   25  C   UNL     1      -5.378  -5.194 -34.881  1.00  0.00     0.005 A 
HETATM   26  C   UNL     1      -6.360  -4.277 -35.239  1.00  0.00     0.043 A 
HETATM   27  H   UNL     1      -2.558  -3.334 -32.364  1.00  0.00     0.165 HD
HETATM   28  C   UNL     1      -3.714  -1.576 -32.572  1.00  0.00     0.106 A 
HETATM   29  F   UNL     1      -7.268  -2.116 -35.138  1.00  0.00    -0.205 F 
ENDBRANCH   2  19
TORSDOF 3
ENDMDL
MODEL 2
REMARK VINA RESULT:      -9.3      2.714      7.636
REMARK  3 active torsions:
REMARK  status: ('A' for Active; 'I' for Inactive)
REMARK    1  A    between atoms: C_12  and  C_13 
REMARK    2  A    between atoms: C_13  and  N_14 
REMARK       I    between atoms: N_14  and  C_15 
REMARK    3  A    between atoms: C_15  and  C_16 
ROOT
HETATM    1  N   UNL     1      -4.963   2.466 -32.868  1.00  0.00    -0.352 N 
HETATM    2  C   UNL     1      -5.278   3.623 -33.534  1.00  0.00     0.254 C 
HETATM    3  O   UNL     1      -6.427   3.883 -33.883  1.00  0.00    -0.268 OA
HETATM    4  H   UNL     1      -3.995   2.285 -32.643  1.00  0.00     0.163 HD
ENDROOT
BRANCH   1   5
HETATM    5  C   UNL     1      -5.924   1.425 -32.598  1.00  0.00     0.165 C 
BRANCH   5   6
HETATM    6  C   UNL     1      -5.505   0.122 -33.214  1.00  0.00     0.008 C 
HETATM    7  C   UNL     1      -6.290  -0.428 -34.411  1.00  0.00     0.043 C 
HETATM    8  C   UNL     1      -7.309   0.469 -35.085  1.00  0.00     0.071 C 
HETATM    9  N   UNL     1      -6.151  -1.611 -34.942  1.00  0.00    -0.234 NA
HETATM   10  C   UNL     1      -5.194  -2.374 -34.342  1.00  0.00     0.154 C 
HETATM   11  C   UNL     1      -4.994  -3.670 -34.618  1.00  0.00     0.128 C 
HETATM   12  N   UNL     1      -4.336  -1.933 -33.353  1.00  0.00    -0.239 N 
HETATM   13  C   UNL     1      -3.892  -4.074 -33.722  1.00  0.00     0.263 C 
HETATM   14  N   UNL     1      -3.625  -3.011 -32.876  1.00  0.00    -0.258 N 
HETATM   15  O   UNL     1      -3.307  -5.141 -33.770  1.00  0.00    -0.267 OA
HETATM   16  H   UNL     1      -2.696  -2.895 -32.497  1.00  0.00     0.191 HD
HETATM   17  C   UNL     1      -4.539  -0.708 -32.738  1.00  0.00     0.042 C 
HETATM   18  C   UNL     1      -3.654  -0.393 -31.558  1.00  0.00     0.071 C 
ENDBRANCH   5   6
ENDBRANCH   1   5
BRANCH   2  19
HETATM   19  C   UNL     1      -4.161   4.533 -33.814  1.00  0.00     0.062 A 
HETATM   20  C   UNL     1      -3.027   4.950 -33.025  1.00  0.00     0.046 A 
HETATM   21  C   UNL     1      -2.267   5.826 -33.810  1.00  0.00     0.046 A 
HETATM   22  C   UNL     1      -2.540   4.680 -31.725  1.00  0.00     0.130 A 
HETATM   23  C   UNL     1      -1.080   6.424 -33.362  1.00  0.00     0.030 A 
HETATM   24  N   UNL     1      -2.904   5.948 -35.021  1.00  0.00    -0.364 N 
HETATM   25  C   UNL     1      -0.639   6.128 -32.070  1.00  0.00     0.005 A 
HETATM   26  C   UNL     1      -1.362   5.264 -31.256  1.00  0.00     0.043 A 
HETATM   27  H   UNL     1      -2.579   6.520 -35.789  1.00  0.00     0.165 HD
HETATM   28  C   UNL     1      -4.030   5.178 -35.035  1.00  0.00     0.106 A 
HETATM   29  F   UNL     1      -3.202   3.851 -30.904  1.00  0.00    -0.205 F 
ENDBRANCH   2  19
TORSDOF 3
ENDMDL
MODEL 3
REMARK VINA RESULT:      -9.2      3.281      5.450
REMARK  3 active torsions:
REMARK  status: ('A' for Active; 'I' for Inactive)
REMARK    1  A    between atoms: C_12  and  C_13 
REMARK    2  A    between atoms: C_13  and  N_14 
REMARK       I    between atoms: N_14  and  C_15 
REMARK    3  A    between atoms: C_15  and  C_16 
ROOT
HETATM    1  N   UNL     1      -6.741   1.089 -32.073  1.00  0.00    -0.352 N 
HETATM    2  C   UNL     1      -5.645   1.088 -32.897  1.00  0.00     0.254 C 
HETATM    3  O   UNL     1      -5.241   2.111 -33.446  1.00  0.00    -0.268 OA
HETATM    4  H   UNL     1      -7.054   0.211 -31.683  1.00  0.00     0.163 HD
ENDROOT
BRANCH   1   5
HETATM    5  C   UNL     1      -7.557   2.256 -31.847  1.00  0.00     0.165 C 
BRANCH   5   6
HETATM    6  C   UNL     1      -8.692   2.327 -32.826  1.00  0.00     0.008 C 
HETATM    7  C   UNL     1      -8.855   3.579 -33.696  1.00  0.00     0.043 C 
HETATM    8  C   UNL     1      -7.735   4.600 -33.715  1.00  0.00     0.071 C 
HETATM    9  N   UNL     1      -9.872   3.853 -34.465  1.00  0.00    -0.234 NA
HETATM   10  C   UNL     1     -10.839   2.892 -34.461  1.00  0.00     0.154 C 
HETATM   11  C   UNL     1     -12.035   3.037 -35.047  1.00  0.00     0.128 C 
HETATM   12  N   UNL     1     -10.735   1.669 -33.828  1.00  0.00    -0.239 N 
HETATM   13  C   UNL     1     -12.743   1.772 -34.764  1.00  0.00     0.263 C 
HETATM   14  N   UNL     1     -11.954   1.032 -33.899  1.00  0.00    -0.258 N 
HETATM   15  O   UNL     1     -13.808   1.442 -35.253  1.00  0.00    -0.267 OA
HETATM   16  H   UNL     1     -12.015   0.024 -33.906  1.00  0.00     0.191 HD
HETATM   17  C   UNL     1      -9.693   1.414 -32.951  1.00  0.00     0.042 C 
HETATM   18  C   UNL     1      -9.761   0.118 -32.183  1.00  0.00     0.071 C 
ENDBRANCH   5   6
ENDBRANCH   1   5
BRANCH   2  19
HETATM   19  C   UNL     1      -4.985  -0.208 -33.096  1.00  0.00     0.062 A 
HETATM   20  C   UNL     1      -5.421  -1.433 -33.722  1.00  0.00     0.046 A 
HETATM   21  C   UNL     1      -4.363  -2.347 -33.639  1.00  0.00     0.046 A 
HETATM   22  C   UNL     1      -6.596  -1.882 -34.367  1.00  0.00     0.130 A 
HETATM   23  C   UNL     1      -4.431  -3.649 -34.156  1.00  0.00     0.030 A 
HETATM   24  N   UNL     1      -3.329  -1.718 -32.989  1.00  0.00    -0.364 N 
HETATM   25  C   UNL     1      -5.614  -4.048 -34.783  1.00  0.00     0.005 A 
HETATM   26  C   UNL     1      -6.689  -3.173 -34.889  1.00  0.00     0.043 A 
HETATM   27  H   UNL     1      -2.432  -2.141 -32.787  1.00  0.00     0.165 HD
HETATM   28  C   UNL     1      -3.688  -0.442 -32.666  1.00  0.00     0.106 A 
HETATM   29  F   UNL     1      -7.658  -1.073 -34.495  1.00  0.00    -0.205 F 
ENDBRANCH   2  19
TORSDOF 3
ENDMDL
MODEL 4
REMARK VINA RESULT:      -9.1      1.847      2.871
REMARK  3 active torsions:
REMARK  status: ('A' for Active; 'I' for Inactive)
REMARK    1  A    between atoms: C_12  and  C_13 
REMARK    2  A    between atoms: C_13  and  N_14 
REMARK       I    between atoms: N_14  and  C_15 
REMARK    3  A    between atoms: C_15  and  C_16 
ROOT
HETATM    1  N   UNL     1      -5.628   1.094 -33.127  1.00  0.00    -0.352 N 
HETATM    2  C   UNL     1      -6.448   0.023 -32.876  1.00  0.00     0.254 C 
HETATM    3  O   UNL     1      -7.406   0.100 -32.109  1.00  0.00    -0.268 OA
HETATM    4  H   UNL     1      -4.831   0.962 -33.732  1.00  0.00     0.163 HD
ENDROOT
BRANCH   1   5
HETATM    5  C   UNL     1      -5.763   2.364 -32.457  1.00  0.00     0.165 C 
BRANCH   5   6
HETATM    6  C   UNL     1      -4.545   3.219 -32.655  1.00  0.00     0.008 C 
HETATM    7  C   UNL     1      -3.278   2.918 -31.846  1.00  0.00     0.043 C 
HETATM    8  C   UNL     1      -3.214   1.629 -31.052  1.00  0.00     0.071 C 
HETATM    9  N   UNL     1      -2.209   3.662 -31.789  1.00  0.00    -0.234 NA
HETATM   10  C   UNL     1      -2.282   4.789 -32.552  1.00  0.00     0.154 C 
HETATM   11  C   UNL     1      -1.371   5.771 -32.519  1.00  0.00     0.128 C 
HETATM   12  N   UNL     1      -3.311   5.089 -33.423  1.00  0.00    -0.239 N 
HETATM   13  C   UNL     1      -1.874   6.776 -33.477  1.00  0.00     0.263 C 
HETATM   14  N   UNL     1      -3.131   6.370 -33.893  1.00  0.00    -0.258 N 
HETATM   15  O   UNL     1      -1.255   7.756 -33.852  1.00  0.00    -0.267 OA
HETATM   16  H   UNL     1      -3.466   6.642 -34.806  1.00  0.00     0.191 HD
HETATM   17  C   UNL     1      -4.477   4.340 -33.422  1.00  0.00     0.042 C 
HETATM   18  C   UNL     1      -5.604   4.848 -34.287  1.00  0.00     0.071 C 
ENDBRANCH   5   6
ENDBRANCH   1   5
BRANCH   2  19
HETATM   19  C   UNL     1      -6.112  -1.226 -33.569  1.00  0.00     0.062 A 
HETATM   20  C   UNL     1      -5.087  -2.216 -33.342  1.00  0.00     0.046 A 
HETATM   21  C   UNL     1      -5.248  -3.218 -34.308  1.00  0.00     0.046 A 
HETATM   22  C   UNL     1      -4.033  -2.394 -32.417  1.00  0.00     0.130 A 
HETATM   23  C   UNL     1      -4.425  -4.351 -34.384  1.00  0.00     0.030 A 
HETATM   24  N   UNL     1      -6.316  -2.859 -35.095  1.00  0.00    -0.364 N 
HETATM   25  C   UNL     1      -3.396  -4.481 -33.448  1.00  0.00     0.005 A 
HETATM   26  C   UNL     1      -3.199  -3.512 -32.472  1.00  0.00     0.043 A 
HETATM   27  H   UNL     1      -6.663  -3.398 -35.876  1.00  0.00     0.165 HD
HETATM   28  C   UNL     1      -6.840  -1.677 -34.660  1.00  0.00     0.106 A 
HETATM   29  F   UNL     1      -3.806  -1.486 -31.455  1.00  0.00    -0.205 F 
ENDBRANCH   2  19
TORSDOF 3
ENDMDL
MODEL 5
REMARK VINA RESULT:      -9.1      1.418      1.994
REMARK  3 active torsions:
REMARK  status: ('A' for Active; 'I' for Inactive)
REMARK    1  A    between atoms: C_12  and  C_13 
REMARK    2  A    between atoms: C_13  and  N_14 
REMARK       I    between atoms: N_14  and  C_15 
REMARK    3  A    between atoms: C_15  and  C_16 
ROOT
HETATM    1  N   UNL     1      -5.856   0.616 -32.577  1.00  0.00    -0.352 N 
HETATM    2  C   UNL     1      -6.130   0.121 -33.826  1.00  0.00     0.254 C 
HETATM    3  O   UNL     1      -6.721   0.785 -34.675  1.00  0.00    -0.268 OA
HETATM    4  H   UNL     1      -5.405   0.011 -31.906  1.00  0.00     0.163 HD
ENDROOT
BRANCH   1   5
HETATM    5  C   UNL     1      -6.306   1.909 -32.125  1.00  0.00     0.165 C 
BRANCH   5   6
HETATM    6  C   UNL     1      -5.488   3.014 -32.728  1.00  0.00     0.008 C 
HETATM    7  C   UNL     1      -6.154   3.994 -33.701  1.00  0.00     0.043 C 
HETATM    8  C   UNL     1      -7.663   3.966 -33.840  1.00  0.00     0.071 C 
HETATM    9  N   UNL     1      -5.544   4.893 -34.423  1.00  0.00    -0.234 NA
HETATM   10  C   UNL     1      -4.194   4.923 -34.238  1.00  0.00     0.154 C 
HETATM   11  C   UNL     1      -3.356   5.651 -34.988  1.00  0.00     0.128 C 
HETATM   12  N   UNL     1      -3.509   4.187 -33.291  1.00  0.00    -0.239 N 
HETATM   13  C   UNL     1      -2.016   5.351 -34.445  1.00  0.00     0.263 C 
HETATM   14  N   UNL     1      -2.158   4.346 -33.503  1.00  0.00    -0.258 N 
HETATM   15  O   UNL     1      -0.990   5.931 -34.753  1.00  0.00    -0.267 OA
HETATM   16  H   UNL     1      -1.500   4.280 -32.740  1.00  0.00     0.191 HD
HETATM   17  C   UNL     1      -4.146   3.179 -32.584  1.00  0.00     0.042 C 
HETATM   18  C   UNL     1      -3.274   2.323 -31.700  1.00  0.00     0.071 C 
ENDBRANCH   5   6
ENDBRANCH   1   5
BRANCH   2  19
HETATM   19  C   UNL     1      -5.685  -1.252 -34.092  1.00  0.00     0.062 A 
HETATM   20  C   UNL     1      -4.722  -2.103 -33.436  1.00  0.00     0.046 A 
HETATM   21  C   UNL     1      -4.716  -3.330 -34.112  1.00  0.00     0.046 A 
HETATM   22  C   UNL     1      -3.847  -1.985 -32.332  1.00  0.00     0.130 A 
HETATM   23  C   UNL     1      -3.898  -4.408 -33.740  1.00  0.00     0.030 A 
HETATM   24  N   UNL     1      -5.627  -3.237 -35.136  1.00  0.00    -0.364 N 
HETATM   25  C   UNL     1      -3.051  -4.243 -32.642  1.00  0.00     0.005 A 
HETATM   26  C   UNL     1      -3.023  -3.042 -31.943  1.00  0.00     0.043 A 
HETATM   27  H   UNL     1      -5.835  -3.978 -35.792  1.00  0.00     0.165 HD
HETATM   28  C   UNL     1      -6.213  -2.006 -35.129  1.00  0.00     0.106 A 
HETATM   29  F   UNL     1      -3.787  -0.847 -31.625  1.00  0.00    -0.205 F 
ENDBRANCH   2  19
TORSDOF 3
ENDMDL
MODEL 6
REMARK VINA RESULT:      -8.8      2.732      7.857
REMARK  3 active torsions:
REMARK  status: ('A' for Active; 'I' for Inactive)
REMARK    1  A    between atoms: C_12  and  C_13 
REMARK    2  A    between atoms: C_13  and  N_14 
REMARK       I    between atoms: N_14  and  C_15 
REMARK    3  A    between atoms: C_15  and  C_16 
ROOT
HETATM    1  N   UNL     1      -4.837   2.514 -32.284  1.00  0.00    -0.352 N 
HETATM    2  C   UNL     1      -5.343   3.603 -32.947  1.00  0.00     0.254 C 
HETATM    3  O   UNL     1      -6.547   3.848 -32.974  1.00  0.00    -0.268 OA
HETATM    4  H   UNL     1      -3.844   2.338 -32.331  1.00  0.00     0.163 HD
ENDROOT
BRANCH   1   5
HETATM    5  C   UNL     1      -5.668   1.525 -31.642  1.00  0.00     0.165 C 
BRANCH   5   6
HETATM    6  C   UNL     1      -5.468   0.166 -32.248  1.00  0.00     0.008 C 
HETATM    7  C   UNL     1      -4.096  -0.508 -32.139  1.00  0.00     0.043 C 
HETATM    8  C   UNL     1      -3.057   0.104 -31.221  1.00  0.00     0.071 C 
HETATM    9  N   UNL     1      -3.726  -1.600 -32.748  1.00  0.00    -0.234 NA
HETATM   10  C   UNL     1      -4.700  -2.152 -33.528  1.00  0.00     0.154 C 
HETATM   11  C   UNL     1      -4.492  -3.177 -34.364  1.00  0.00     0.128 C 
HETATM   12  N   UNL     1      -6.007  -1.709 -33.591  1.00  0.00    -0.239 N 
HETATM   13  C   UNL     1      -5.804  -3.407 -35.002  1.00  0.00     0.263 C 
HETATM   14  N   UNL     1      -6.655  -2.393 -34.595  1.00  0.00    -0.258 N 
HETATM   15  O   UNL     1      -6.078  -4.354 -35.718  1.00  0.00    -0.267 OA
HETATM   16  H   UNL     1      -7.649  -2.562 -34.552  1.00  0.00     0.191 HD
HETATM   17  C   UNL     1      -6.374  -0.506 -33.008  1.00  0.00     0.042 C 
HETATM   18  C   UNL     1      -7.779  -0.029 -33.276  1.00  0.00     0.071 C 
ENDBRANCH   5   6
ENDBRANCH   1   5
BRANCH   2  19
HETATM   19  C   UNL     1      -4.365   4.457 -33.630  1.00  0.00     0.062 A 
HETATM   20  C   UNL     1      -3.152   5.096 -33.179  1.00  0.00     0.046 A 
HETATM   21  C   UNL     1      -2.606   5.781 -34.272  1.00  0.00     0.046 A 
HETATM   22  C   UNL     1      -2.436   5.172 -31.963  1.00  0.00     0.130 A 
HETATM   23  C   UNL     1      -1.413   6.515 -34.201  1.00  0.00     0.030 A 
HETATM   24  N   UNL     1      -3.444   5.578 -35.343  1.00  0.00    -0.364 N 
HETATM   25  C   UNL     1      -0.741   6.561 -32.977  1.00  0.00     0.005 A 
HETATM   26  C   UNL     1      -1.246   5.896 -31.866  1.00  0.00     0.043 A 
HETATM   27  H   UNL     1      -3.298   5.956 -36.269  1.00  0.00     0.165 HD
HETATM   28  C   UNL     1      -4.491   4.787 -34.971  1.00  0.00     0.106 A 
HETATM   29  F   UNL     1      -2.883   4.546 -30.865  1.00  0.00    -0.205 F 
ENDBRANCH   2  19
TORSDOF 3
ENDMDL
MODEL 7
REMARK VINA RESULT:      -8.8      1.976      2.456
REMARK  3 active torsions:
REMARK  status: ('A' for Active; 'I' for Inactive)
REMARK    1  A    between atoms: C_12  and  C_13 
REMARK    2  A    between atoms: C_13  and  N_14 
REMARK       I    between atoms: N_14  and  C_15 
REMARK    3  A    between atoms: C_15  and  C_16 
ROOT
HETATM    1  N   UNL     1      -5.677   1.925 -33.066  1.00  0.00    -0.352 N 
HETATM    2  C   UNL     1      -5.946   0.802 -32.327  1.00  0.00     0.254 C 
HETATM    3  O   UNL     1      -6.764   0.806 -31.409  1.00  0.00    -0.268 OA
HETATM    4  H   UNL     1      -4.965   1.875 -33.781  1.00  0.00     0.163 HD
ENDROOT
BRANCH   1   5
HETATM    5  C   UNL     1      -6.257   3.214 -32.781  1.00  0.00     0.165 C 
BRANCH   5   6
HETATM    6  C   UNL     1      -5.207   4.208 -32.375  1.00  0.00     0.008 C 
HETATM    7  C   UNL     1      -5.003   4.517 -30.888  1.00  0.00     0.043 C 
HETATM    8  C   UNL     1      -5.696   3.642 -29.863  1.00  0.00     0.071 C 
HETATM    9  N   UNL     1      -4.255   5.465 -30.396  1.00  0.00    -0.234 NA
HETATM   10  C   UNL     1      -3.609   6.204 -31.343  1.00  0.00     0.154 C 
HETATM   11  C   UNL     1      -2.920   7.320 -31.075  1.00  0.00     0.128 C 
HETATM   12  N   UNL     1      -3.610   5.927 -32.697  1.00  0.00    -0.239 N 
HETATM   13  C   UNL     1      -2.429   7.778 -32.390  1.00  0.00     0.263 C 
HETATM   14  N   UNL     1      -2.997   6.968 -33.358  1.00  0.00    -0.258 N 
HETATM   15  O   UNL     1      -1.630   8.682 -32.563  1.00  0.00    -0.267 OA
HETATM   16  H   UNL     1      -2.511   6.816 -34.230  1.00  0.00     0.191 HD
HETATM   17  C   UNL     1      -4.467   4.973 -33.222  1.00  0.00     0.042 C 
HETATM   18  C   UNL     1      -4.513   4.865 -34.725  1.00  0.00     0.071 C 
ENDBRANCH   5   6
ENDBRANCH   1   5
BRANCH   2  19
HETATM   19  C   UNL     1      -5.196  -0.406 -32.688  1.00  0.00     0.062 A 
HETATM   20  C   UNL     1      -5.549  -1.574 -33.459  1.00  0.00     0.046 A 
HETATM   21  C   UNL     1      -4.427  -2.410 -33.495  1.00  0.00     0.046 A 
HETATM   22  C   UNL     1      -6.697  -2.026 -34.149  1.00  0.00     0.130 A 
HETATM   23  C   UNL     1      -4.407  -3.640 -34.170  1.00  0.00     0.030 A 
HETATM   24  N   UNL     1      -3.432  -1.791 -32.777  1.00  0.00    -0.364 N 
HETATM   25  C   UNL     1      -5.566  -4.044 -34.836  1.00  0.00     0.005 A 
HETATM   26  C   UNL     1      -6.704  -3.246 -34.827  1.00  0.00     0.043 A 
HETATM   27  H   UNL     1      -2.505  -2.168 -32.633  1.00  0.00     0.165 HD
HETATM   28  C   UNL     1      -3.879  -0.596 -32.296  1.00  0.00     0.106 A 
HETATM   29  F   UNL     1      -7.818  -1.288 -34.170  1.00  0.00    -0.205 F 
ENDBRANCH   2  19
TORSDOF 3
ENDMDL
MODEL 8
REMARK VINA RESULT:      -8.6      2.985      4.204
REMARK  3 active torsions:
REMARK  status: ('A' for Active; 'I' for Inactive)
REMARK    1  A    between atoms: C_12  and  C_13 
REMARK    2  A    between atoms: C_13  and  N_14 
REMARK       I    between atoms: N_14  and  C_15 
REMARK    3  A    between atoms: C_15  and  C_16 
ROOT
HETATM    1  N   UNL     1      -4.471   3.864 -33.286  1.00  0.00    -0.352 N 
HETATM    2  C   UNL     1      -5.183   3.030 -32.463  1.00  0.00     0.254 C 
HETATM    3  O   UNL     1      -5.874   3.458 -31.540  1.00  0.00    -0.268 OA
HETATM    4  H   UNL     1      -3.886   3.455 -34.001  1.00  0.00     0.163 HD
ENDROOT
BRANCH   1   5
HETATM    5  C   UNL     1      -4.401   5.291 -33.093  1.00  0.00     0.165 C 
BRANCH   5   6
HETATM    6  C   UNL     1      -3.130   5.687 -32.399  1.00  0.00     0.008 C 
HETATM    7  C   UNL     1      -1.803   5.607 -33.162  1.00  0.00     0.043 C 
HETATM    8  C   UNL     1      -1.839   5.362 -34.658  1.00  0.00     0.071 C 
HETATM    9  N   UNL     1      -0.612   5.758 -32.651  1.00  0.00    -0.234 NA
HETATM   10  C   UNL     1      -0.618   6.025 -31.314  1.00  0.00     0.154 C 
HETATM   11  C   UNL     1       0.487   6.057 -30.557  1.00  0.00     0.128 C 
HETATM   12  N   UNL     1      -1.751   6.255 -30.559  1.00  0.00    -0.239 N 
HETATM   13  C   UNL     1      -0.005   6.352 -29.196  1.00  0.00     0.263 C 
HETATM   14  N   UNL     1      -1.389   6.324 -29.232  1.00  0.00    -0.258 N 
HETATM   15  O   UNL     1       0.701   6.616 -28.239  1.00  0.00    -0.267 OA
HETATM   16  H   UNL     1      -1.917   6.883 -28.577  1.00  0.00     0.191 HD
HETATM   17  C   UNL     1      -3.011   6.016 -31.085  1.00  0.00     0.042 C 
HETATM   18  C   UNL     1      -4.173   6.135 -30.130  1.00  0.00     0.071 C 
ENDBRANCH   5   6
ENDBRANCH   1   5
BRANCH   2  19
HETATM   19  C   UNL     1      -5.067   1.593 -32.739  1.00  0.00     0.062 A 
HETATM   20  C   UNL     1      -5.853   0.695 -33.551  1.00  0.00     0.046 A 
HETATM   21  C   UNL     1      -5.269  -0.574 -33.459  1.00  0.00     0.046 A 
HETATM   22  C   UNL     1      -6.999   0.806 -34.371  1.00  0.00     0.130 A 
HETATM   23  C   UNL     1      -5.768  -1.700 -34.131  1.00  0.00     0.030 A 
HETATM   24  N   UNL     1      -4.180  -0.465 -32.628  1.00  0.00    -0.364 N 
HETATM   25  C   UNL     1      -6.903  -1.540 -34.929  1.00  0.00     0.005 A 
HETATM   26  C   UNL     1      -7.516  -0.298 -35.049  1.00  0.00     0.043 A 
HETATM   27  H   UNL     1      -3.565  -1.228 -32.379  1.00  0.00     0.165 HD
HETATM   28  C   UNL     1      -4.049   0.823 -32.198  1.00  0.00     0.106 A 
HETATM   29  F   UNL     1      -7.623   1.985 -34.519  1.00  0.00    -0.205 F 
ENDBRANCH   2  19
TORSDOF 3
ENDMDL
MODEL 9
REMARK VINA RESULT:      -8.6      2.510      3.185
REMARK  3 active torsions:
REMARK  status: ('A' for Active; 'I' for Inactive)
REMARK    1  A    between atoms: C_12  and  C_13 
REMARK    2  A    between atoms: C_13  and  N_14 
REMARK       I    between atoms: N_14  and  C_15 
REMARK    3  A    between atoms: C_15  and  C_16 
ROOT
HETATM    1  N   UNL     1      -4.356   2.486 -33.017  1.00  0.00    -0.352 N 
HETATM    2  C   UNL     1      -5.093   1.476 -32.456  1.00  0.00     0.254 C 
HETATM    3  O   UNL     1      -6.268   1.629 -32.129  1.00  0.00    -0.268 OA
HETATM    4  H   UNL     1      -3.382   2.316 -33.227  1.00  0.00     0.163 HD
ENDROOT
BRANCH   1   5
HETATM    5  C   UNL     1      -4.859   3.826 -33.192  1.00  0.00     0.165 C 
BRANCH   5   6
HETATM    6  C   UNL     1      -3.931   4.842 -32.591  1.00  0.00     0.008 C 
HETATM    7  C   UNL     1      -2.829   5.458 -33.461  1.00  0.00     0.043 C 
HETATM    8  C   UNL     1      -2.858   5.206 -34.955  1.00  0.00     0.071 C 
HETATM    9  N   UNL     1      -1.856   6.219 -33.043  1.00  0.00    -0.234 NA
HETATM   10  C   UNL     1      -1.887   6.464 -31.702  1.00  0.00     0.154 C 
HETATM   11  C   UNL     1      -0.904   7.083 -31.035  1.00  0.00     0.128 C 
HETATM   12  N   UNL     1      -2.905   6.078 -30.851  1.00  0.00    -0.239 N 
HETATM   13  C   UNL     1      -1.360   7.099 -29.631  1.00  0.00     0.263 C 
HETATM   14  N   UNL     1      -2.521   6.348 -29.556  1.00  0.00    -0.258 N 
HETATM   15  O   UNL     1      -0.819   7.709 -28.726  1.00  0.00    -0.267 OA
HETATM   16  H   UNL     1      -3.206   6.557 -28.844  1.00  0.00     0.191 HD
HETATM   17  C   UNL     1      -3.891   5.205 -31.281  1.00  0.00     0.042 C 
HETATM   18  C   UNL     1      -4.857   4.711 -30.232  1.00  0.00     0.071 C 
ENDBRANCH   5   6
ENDBRANCH   1   5
BRANCH   2  19
HETATM   19  C   UNL     1      -4.398   0.198 -32.259  1.00  0.00     0.062 A 
HETATM   20  C   UNL     1      -4.476  -1.066 -32.951  1.00  0.00     0.046 A 
HETATM   21  C   UNL     1      -3.564  -1.936 -32.341  1.00  0.00     0.046 A 
HETATM   22  C   UNL     1      -5.211  -1.583 -34.042  1.00  0.00     0.130 A 
HETATM   23  C   UNL     1      -3.366  -3.260 -32.762  1.00  0.00     0.030 A 
HETATM   24  N   UNL     1      -2.958  -1.245 -31.319  1.00  0.00    -0.364 N 
HETATM   25  C   UNL     1      -4.117  -3.726 -33.843  1.00  0.00     0.005 A 
HETATM   26  C   UNL     1      -5.034  -2.897 -34.479  1.00  0.00     0.043 A 
HETATM   27  H   UNL     1      -2.252  -1.625 -30.704  1.00  0.00     0.165 HD
HETATM   28  C   UNL     1      -3.444   0.029 -31.266  1.00  0.00     0.106 A 
HETATM   29  F   UNL     1      -6.105  -0.820 -34.688  1.00  0.00    -0.205 F 
ENDBRANCH   2  19
TORSDOF 3
ENDMDL
MODEL 10
REMARK VINA RESULT:      -8.5      3.041      7.439
REMARK  3 active torsions:
REMARK  status: ('A' for Active; 'I' for Inactive)
REMARK    1  A    between atoms: C_12  and  C_13 
REMARK    2  A    between atoms: C_13  and  N_14 
REMARK       I    between atoms: N_14  and  C_15 
REMARK    3  A    between atoms: C_15  and  C_16 
ROOT
HETATM    1  N   UNL     1      -4.544   3.224 -30.454  1.00  0.00    -0.352 N 
HETATM    2  C   UNL     1      -5.061   4.482 -30.630  1.00  0.00     0.254 C 
HETATM    3  O   UNL     1      -6.244   4.737 -30.414  1.00  0.00    -0.268 OA
HETATM    4  H   UNL     1      -3.574   3.062 -30.688  1.00  0.00     0.163 HD
ENDROOT
BRANCH   1   5
HETATM    5  C   UNL     1      -5.348   2.085 -30.089  1.00  0.00     0.165 C 
BRANCH   5   6
HETATM    6  C   UNL     1      -5.578   1.178 -31.263  1.00  0.00     0.008 C 
HETATM    7  C   UNL     1      -6.997   1.023 -31.824  1.00  0.00     0.043 C 
HETATM    8  C   UNL     1      -8.078   1.965 -31.333  1.00  0.00     0.071 C 
HETATM    9  N   UNL     1      -7.377   0.158 -32.723  1.00  0.00    -0.234 NA
HETATM   10  C   UNL     1      -6.370  -0.641 -33.177  1.00  0.00     0.154 C 
HETATM   11  C   UNL     1      -6.562  -1.698 -33.978  1.00  0.00     0.128 C 
HETATM   12  N   UNL     1      -5.036  -0.497 -32.847  1.00  0.00    -0.239 N 
HETATM   13  C   UNL     1      -5.212  -2.261 -34.180  1.00  0.00     0.263 C 
HETATM   14  N   UNL     1      -4.340  -1.571 -33.354  1.00  0.00    -0.258 N 
HETATM   15  O   UNL     1      -4.933  -3.143 -34.972  1.00  0.00    -0.267 OA
HETATM   16  H   UNL     1      -3.368  -1.485 -33.615  1.00  0.00     0.191 HD
HETATM   17  C   UNL     1      -4.649   0.366 -31.835  1.00  0.00     0.042 C 
HETATM   18  C   UNL     1      -3.195   0.326 -31.435  1.00  0.00     0.071 C 
ENDBRANCH   5   6
ENDBRANCH   1   5
BRANCH   2  19
HETATM   19  C   UNL     1      -4.123   5.508 -31.100  1.00  0.00     0.062 A 
HETATM   20  C   UNL     1      -3.188   5.538 -32.198  1.00  0.00     0.046 A 
HETATM   21  C   UNL     1      -2.561   6.791 -32.183  1.00  0.00     0.046 A 
HETATM   22  C   UNL     1      -2.796   4.647 -33.223  1.00  0.00     0.130 A 
HETATM   23  C   UNL     1      -1.591   7.175 -33.121  1.00  0.00     0.030 A 
HETATM   24  N   UNL     1      -3.081   7.496 -31.125  1.00  0.00    -0.364 N 
HETATM   25  C   UNL     1      -1.236   6.259 -34.114  1.00  0.00     0.005 A 
HETATM   26  C   UNL     1      -1.832   5.005 -34.167  1.00  0.00     0.043 A 
HETATM   27  H   UNL     1      -2.813   8.437 -30.871  1.00  0.00     0.165 HD
HETATM   28  C   UNL     1      -4.016   6.743 -30.477  1.00  0.00     0.106 A 
HETATM   29  F   UNL     1      -3.344   3.426 -33.316  1.00  0.00    -0.205 F 
ENDBRANCH   2  19
TORSDOF 3
ENDMDL
