MODEL 1
REMARK VINA RESULT:      -8.9      0.000      0.000
REMARK  4 active torsions:
REMARK  status: ('A' for Active; 'I' for Inactive)
REMARK    1  A    between atoms: N_4  and  C_5 
REMARK    2  A    between atoms: C_14  and  C_15 
REMARK       I    between atoms: C_15  and  N_16 
REMARK    3  A    between atoms: N_16  and  N_17 
REMARK       I    between atoms: N_17  and  C_18 
REMARK       I    between atoms: C_18  and  N_19 
REMARK    4  A    between atoms: N_19  and  C_20 
ROOT
HETATM    1  C   UNL     1      -1.760   4.921 -31.283  1.00  0.00     0.277 C 
HETATM    2  N   UNL     1      -1.619   5.602 -30.090  1.00  0.00    -0.261 N 
HETATM    3  O   UNL     1      -0.808   4.774 -32.049  1.00  0.00    -0.265 OA
HETATM    4  H   UNL     1      -2.418   5.818 -29.494  1.00  0.00     0.190 HD
ENDROOT
BRANCH   1   5
HETATM    5  C   UNL     1      -3.095   4.403 -31.549  1.00  0.00     0.077 A 
HETATM    6  S   UNL     1      -3.327   2.944 -32.485  1.00  0.00    -0.064 SA
HETATM    7  C   UNL     1      -4.977   3.044 -32.286  1.00  0.00     0.113 A 
HETATM    8  N   UNL     1      -6.123   2.363 -32.615  1.00  0.00    -0.226 N 
HETATM    9  C   UNL     1      -5.340   4.114 -31.572  1.00  0.00     0.027 A 
HETATM   10  N   UNL     1      -7.219   3.050 -32.115  1.00  0.00    -0.171 NA
HETATM   11  C   UNL     1      -6.720   4.123 -31.473  1.00  0.00     0.064 A 
HETATM   12  C   UNL     1      -7.614   5.098 -30.811  1.00  0.00     0.073 C 
HETATM   13  C   UNL     1      -4.311   4.929 -31.110  1.00  0.00     0.041 A 
BRANCH   8  14
HETATM   14  C   UNL     1      -6.309   1.142 -33.327  1.00  0.00     0.059 A 
HETATM   15  C   UNL     1      -6.972   1.171 -34.566  1.00  0.00     0.031 A 
HETATM   16  C   UNL     1      -7.189  -0.006 -35.287  1.00  0.00     0.002 A 
HETATM   17  C   UNL     1      -6.746  -1.225 -34.782  1.00  0.00     0.000 A 
HETATM   18  C   UNL     1      -6.084  -1.265 -33.557  1.00  0.00     0.002 A 
HETATM   19  C   UNL     1      -5.866  -0.090 -32.831  1.00  0.00     0.031 A 
ENDBRANCH   8  14
ENDBRANCH   1   5
BRANCH   2  20
HETATM   20  N   UNL     1      -0.429   6.289 -29.802  1.00  0.00    -0.249 N 
HETATM   21  C   UNL     1      -0.407   6.968 -28.591  1.00  0.00     0.339 C 
HETATM   22  N   UNL     1       0.743   7.707 -28.433  1.00  0.00    -0.308 N 
HETATM   23  O   UNL     1      -1.329   6.848 -27.788  1.00  0.00    -0.245 OA
HETATM   24  H   UNL     1       1.415   7.645 -29.183  1.00  0.00     0.170 HD
HETATM   25  H   UNL     1       0.053   6.667 -30.614  1.00  0.00     0.192 HD
BRANCH  22  26
HETATM   26  C   UNL     1       1.116   8.478 -27.313  1.00  0.00     0.036 A 
HETATM   27  C   UNL     1       0.792   9.828 -27.152  1.00  0.00     0.031 A 
HETATM   28  C   UNL     1       1.185  10.524 -26.003  1.00  0.00     0.026 A 
HETATM   29  C   UNL     1       1.907   9.872 -25.010  1.00  0.00     0.034 A 
HETATM   30 CL   UNL     1       2.385  10.726 -23.596  1.00  0.00    -0.084 Cl
HETATM   31  C   UNL     1       2.243   8.529 -25.156  1.00  0.00     0.026 A 
HETATM   32  C   UNL     1       1.848   7.835 -26.305  1.00  0.00     0.031 A 
ENDBRANCH  22  26
ENDBRANCH   2  20
TORSDOF 4
ENDMDL
MODEL 2
REMARK VINA RESULT:      -8.7      2.632      4.181
REMARK  4 active torsions:
REMARK  status: ('A' for Active; 'I' for Inactive)
REMARK    1  A    between atoms: N_4  and  C_5 
REMARK    2  A    between atoms: C_14  and  C_15 
REMARK       I    between atoms: C_15  and  N_16 
REMARK    3  A    between atoms: N_16  and  N_17 
REMARK       I    between atoms: N_17  and  C_18 
REMARK       I    between atoms: C_18  and  N_19 
REMARK    4  A    between atoms: N_19  and  C_20 
ROOT
HETATM    1  C   UNL     1      -6.176   4.694 -32.446  1.00  0.00     0.277 C 
HETATM    2  N   UNL     1      -4.960   5.016 -33.015  1.00  0.00    -0.261 N 
HETATM    3  O   UNL     1      -6.772   5.492 -31.722  1.00  0.00    -0.265 OA
HETATM    4  H   UNL     1      -4.408   4.332 -33.533  1.00  0.00     0.190 HD
ENDROOT
BRANCH   1   5
HETATM    5  C   UNL     1      -6.681   3.367 -32.768  1.00  0.00     0.077 A 
HETATM    6  S   UNL     1      -5.589   2.049 -33.127  1.00  0.00    -0.064 SA
HETATM    7  C   UNL     1      -6.870   1.001 -33.317  1.00  0.00     0.113 A 
HETATM    8  N   UNL     1      -7.120  -0.319 -33.597  1.00  0.00    -0.226 N 
HETATM    9  C   UNL     1      -8.050   1.601 -33.136  1.00  0.00     0.027 A 
HETATM   10  N   UNL     1      -8.491  -0.527 -33.618  1.00  0.00    -0.171 NA
HETATM   11  C   UNL     1      -9.049   0.664 -33.330  1.00  0.00     0.064 A 
HETATM   12  C   UNL     1     -10.518   0.822 -33.268  1.00  0.00     0.073 C 
HETATM   13  C   UNL     1      -8.014   2.953 -32.809  1.00  0.00     0.041 A 
BRANCH   8  14
HETATM   14  C   UNL     1      -6.229  -1.408 -33.832  1.00  0.00     0.059 A 
HETATM   15  C   UNL     1      -6.651  -2.467 -34.653  1.00  0.00     0.031 A 
HETATM   16  C   UNL     1      -5.813  -3.560 -34.895  1.00  0.00     0.002 A 
HETATM   17  C   UNL     1      -4.547  -3.607 -34.321  1.00  0.00     0.000 A 
HETATM   18  C   UNL     1      -4.116  -2.561 -33.508  1.00  0.00     0.002 A 
HETATM   19  C   UNL     1      -4.952  -1.466 -33.262  1.00  0.00     0.031 A 
ENDBRANCH   8  14
ENDBRANCH   1   5
BRANCH   2  20
HETATM   20  N   UNL     1      -4.294   6.196 -32.645  1.00  0.00    -0.249 N 
HETATM   21  C   UNL     1      -3.270   6.041 -31.721  1.00  0.00     0.339 C 
HETATM   22  N   UNL     1      -2.744   7.249 -31.324  1.00  0.00    -0.308 N 
HETATM   23  O   UNL     1      -2.908   4.922 -31.368  1.00  0.00    -0.245 OA
HETATM   24  H   UNL     1      -3.140   8.068 -31.760  1.00  0.00     0.170 HD
HETATM   25  H   UNL     1      -4.875   7.030 -32.637  1.00  0.00     0.192 HD
BRANCH  22  26
HETATM   26  C   UNL     1      -1.669   7.464 -30.436  1.00  0.00     0.036 A 
HETATM   27  C   UNL     1      -0.351   7.082 -30.700  1.00  0.00     0.031 A 
HETATM   28  C   UNL     1       0.666   7.344 -29.774  1.00  0.00     0.026 A 
HETATM   29  C   UNL     1       0.367   7.987 -28.579  1.00  0.00     0.034 A 
HETATM   30 CL   UNL     1       1.618   8.314 -27.444  1.00  0.00    -0.084 Cl
HETATM   31  C   UNL     1      -0.941   8.369 -28.297  1.00  0.00     0.026 A 
HETATM   32  C   UNL     1      -1.956   8.107 -29.225  1.00  0.00     0.031 A 
ENDBRANCH  22  26
ENDBRANCH   2  20
TORSDOF 4
ENDMDL
MODEL 3
REMARK VINA RESULT:      -8.3      7.944     11.024
REMARK  4 active torsions:
REMARK  status: ('A' for Active; 'I' for Inactive)
REMARK    1  A    between atoms: N_4  and  C_5 
REMARK    2  A    between atoms: C_14  and  C_15 
REMARK       I    between atoms: C_15  and  N_16 
REMARK    3  A    between atoms: N_16  and  N_17 
REMARK       I    between atoms: N_17  and  C_18 
REMARK       I    between atoms: C_18  and  N_19 
REMARK    4  A    between atoms: N_19  and  C_20 
ROOT
HETATM    1  C   UNL     1      -9.339   3.005 -33.821  1.00  0.00     0.277 C 
HETATM    2  N   UNL     1      -9.091   4.363 -33.832  1.00  0.00    -0.261 N 
HETATM    3  O   UNL     1     -10.478   2.563 -33.969  1.00  0.00    -0.265 OA
HETATM    4  H   UNL     1      -8.172   4.747 -33.610  1.00  0.00     0.190 HD
ENDROOT
BRANCH   1   5
HETATM    5  C   UNL     1      -8.168   2.161 -33.626  1.00  0.00     0.077 A 
HETATM    6  S   UNL     1      -8.185   0.473 -34.084  1.00  0.00    -0.064 SA
HETATM    7  C   UNL     1      -6.599   0.298 -33.606  1.00  0.00     0.113 A 
HETATM    8  N   UNL     1      -5.612  -0.655 -33.555  1.00  0.00    -0.226 N 
HETATM    9  C   UNL     1      -6.085   1.431 -33.118  1.00  0.00     0.027 A 
HETATM   10  N   UNL     1      -4.472  -0.099 -32.993  1.00  0.00    -0.171 NA
HETATM   11  C   UNL     1      -4.780   1.186 -32.733  1.00  0.00     0.064 A 
HETATM   12  C   UNL     1      -3.789   2.096 -32.118  1.00  0.00     0.073 C 
HETATM   13  C   UNL     1      -6.927   2.539 -33.111  1.00  0.00     0.041 A 
BRANCH   8  14
HETATM   14  C   UNL     1      -5.606  -2.015 -33.983  1.00  0.00     0.059 A 
HETATM   15  C   UNL     1      -4.419  -2.758 -33.872  1.00  0.00     0.031 A 
HETATM   16  C   UNL     1      -4.368  -4.089 -34.295  1.00  0.00     0.002 A 
HETATM   17  C   UNL     1      -5.501  -4.694 -34.831  1.00  0.00     0.000 A 
HETATM   18  C   UNL     1      -6.685  -3.969 -34.942  1.00  0.00     0.002 A 
HETATM   19  C   UNL     1      -6.740  -2.636 -34.521  1.00  0.00     0.031 A 
ENDBRANCH   8  14
ENDBRANCH   1   5
BRANCH   2  20
HETATM   20  N   UNL     1     -10.157   5.278 -33.842  1.00  0.00    -0.249 N 
HETATM   21  C   UNL     1     -10.399   5.903 -35.058  1.00  0.00     0.339 C 
HETATM   22  N   UNL     1     -11.378   6.864 -34.959  1.00  0.00    -0.308 N 
HETATM   23  O   UNL     1      -9.792   5.562 -36.069  1.00  0.00    -0.245 OA
HETATM   24  H   UNL     1     -11.801   6.973 -34.049  1.00  0.00     0.170 HD
HETATM   25  H   UNL     1     -10.299   5.778 -32.967  1.00  0.00     0.192 HD
BRANCH  22  26
HETATM   26  C   UNL     1     -11.905   7.658 -35.999  1.00  0.00     0.036 A 
HETATM   27  C   UNL     1     -11.229   8.737 -36.576  1.00  0.00     0.031 A 
HETATM   28  C   UNL     1     -11.811   9.469 -37.617  1.00  0.00     0.026 A 
HETATM   29  C   UNL     1     -13.075   9.125 -38.085  1.00  0.00     0.034 A 
HETATM   30 CL   UNL     1     -13.787  10.021 -39.368  1.00  0.00    -0.084 Cl
HETATM   31  C   UNL     1     -13.764   8.057 -37.519  1.00  0.00     0.026 A 
HETATM   32  C   UNL     1     -13.179   7.326 -36.478  1.00  0.00     0.031 A 
ENDBRANCH  22  26
ENDBRANCH   2  20
TORSDOF 4
ENDMDL
MODEL 4
REMARK VINA RESULT:      -8.3      3.573      4.993
REMARK  4 active torsions:
REMARK  status: ('A' for Active; 'I' for Inactive)
REMARK    1  A    between atoms: N_4  and  C_5 
REMARK    2  A    between atoms: C_14  and  C_15 
REMARK       I    between atoms: C_15  and  N_16 
REMARK    3  A    between atoms: N_16  and  N_17 
REMARK       I    between atoms: N_17  and  C_18 
REMARK       I    between atoms: C_18  and  N_19 
REMARK    4  A    between atoms: N_19  and  C_20 
ROOT
HETATM    1  C   UNL     1      -6.175   5.487 -32.956  1.00  0.00     0.277 C 
HETATM    2  N   UNL     1      -4.858   5.558 -33.363  1.00  0.00    -0.261 N 
HETATM    3  O   UNL     1      -6.711   6.426 -32.368  1.00  0.00    -0.265 OA
HETATM    4  H   UNL     1      -4.370   4.754 -33.760  1.00  0.00     0.190 HD
ENDROOT
BRANCH   1   5
HETATM    5  C   UNL     1      -6.857   4.240 -33.274  1.00  0.00     0.077 A 
HETATM    6  S   UNL     1      -8.602   4.164 -33.365  1.00  0.00    -0.064 SA
HETATM    7  C   UNL     1      -8.540   2.552 -33.778  1.00  0.00     0.113 A 
HETATM    8  N   UNL     1      -9.376   1.513 -34.100  1.00  0.00    -0.226 N 
HETATM    9  C   UNL     1      -7.287   2.088 -33.833  1.00  0.00     0.027 A 
HETATM   10  N   UNL     1      -8.618   0.374 -34.330  1.00  0.00    -0.171 NA
HETATM   11  C   UNL     1      -7.334   0.747 -34.164  1.00  0.00     0.064 A 
HETATM   12  C   UNL     1      -6.232  -0.226 -34.329  1.00  0.00     0.073 C 
HETATM   13  C   UNL     1      -6.275   3.005 -33.566  1.00  0.00     0.041 A 
BRANCH   8  14
HETATM   14  C   UNL     1     -10.795   1.464 -34.232  1.00  0.00     0.059 A 
HETATM   15  C   UNL     1     -11.508   0.462 -33.552  1.00  0.00     0.031 A 
HETATM   16  C   UNL     1     -12.898   0.371 -33.668  1.00  0.00     0.002 A 
HETATM   17  C   UNL     1     -13.591   1.279 -34.464  1.00  0.00     0.000 A 
HETATM   18  C   UNL     1     -12.896   2.278 -35.140  1.00  0.00     0.002 A 
HETATM   19  C   UNL     1     -11.504   2.372 -35.027  1.00  0.00     0.031 A 
ENDBRANCH   8  14
ENDBRANCH   1   5
BRANCH   2  20
HETATM   20  N   UNL     1      -4.049   6.636 -32.967  1.00  0.00    -0.249 N 
HETATM   21  C   UNL     1      -3.160   6.370 -31.934  1.00  0.00     0.339 C 
HETATM   22  N   UNL     1      -2.488   7.500 -31.527  1.00  0.00    -0.308 N 
HETATM   23  O   UNL     1      -3.020   5.228 -31.506  1.00  0.00    -0.245 OA
HETATM   24  H   UNL     1      -2.702   8.347 -32.031  1.00  0.00     0.170 HD
HETATM   25  H   UNL     1      -4.487   7.550 -33.049  1.00  0.00     0.192 HD
BRANCH  22  26
HETATM   26  C   UNL     1      -1.486   7.589 -30.539  1.00  0.00     0.036 A 
HETATM   27  C   UNL     1      -0.205   7.046 -30.675  1.00  0.00     0.031 A 
HETATM   28  C   UNL     1       0.742   7.190 -29.655  1.00  0.00     0.026 A 
HETATM   29  C   UNL     1       0.411   7.875 -28.492  1.00  0.00     0.034 A 
HETATM   30 CL   UNL     1       1.577   8.056 -27.241  1.00  0.00    -0.084 Cl
HETATM   31  C   UNL     1      -0.862   8.418 -28.337  1.00  0.00     0.026 A 
HETATM   32  C   UNL     1      -1.807   8.274 -29.359  1.00  0.00     0.031 A 
ENDBRANCH  22  26
ENDBRANCH   2  20
TORSDOF 4
ENDMDL
MODEL 5
REMARK VINA RESULT:      -8.2      3.024      3.764
REMARK  4 active torsions:
REMARK  status: ('A' for Active; 'I' for Inactive)
REMARK    1  A    between atoms: N_4  and  C_5 
REMARK    2  A    between atoms: C_14  and  C_15 
REMARK       I    between atoms: C_15  and  N_16 
REMARK    3  A    between atoms: N_16  and  N_17 
REMARK       I    between atoms: N_17  and  C_18 
REMARK       I    between atoms: C_18  and  N_19 
REMARK    4  A    between atoms: N_19  and  C_20 
ROOT
HETATM    1  C   UNL     1      -6.995   5.222 -28.380  1.00  0.00     0.277 C 
HETATM    2  N   UNL     1      -5.711   4.822 -28.067  1.00  0.00    -0.261 N 
HETATM    3  O   UNL     1      -7.564   6.100 -27.733  1.00  0.00    -0.265 OA
HETATM    4  H   UNL     1      -5.264   4.028 -28.527  1.00  0.00     0.190 HD
ENDROOT
BRANCH   1   5
HETATM    5  C   UNL     1      -7.601   4.533 -29.511  1.00  0.00     0.077 A 
HETATM    6  S   UNL     1      -6.736   3.285 -30.378  1.00  0.00    -0.064 SA
HETATM    7  C   UNL     1      -8.042   3.034 -31.379  1.00  0.00     0.113 A 
HETATM    8  N   UNL     1      -8.430   2.237 -32.427  1.00  0.00    -0.226 N 
HETATM    9  C   UNL     1      -9.066   3.845 -31.094  1.00  0.00     0.027 A 
HETATM   10  N   UNL     1      -9.715   2.589 -32.815  1.00  0.00    -0.171 NA
HETATM   11  C   UNL     1     -10.092   3.578 -31.982  1.00  0.00     0.064 A 
HETATM   12  C   UNL     1     -11.425   4.209 -32.105  1.00  0.00     0.073 C 
HETATM   13  C   UNL     1      -8.884   4.721 -30.029  1.00  0.00     0.041 A 
BRANCH   8  14
HETATM   14  C   UNL     1      -7.748   1.179 -33.097  1.00  0.00     0.059 A 
HETATM   15  C   UNL     1      -7.755   1.146 -34.501  1.00  0.00     0.031 A 
HETATM   16  C   UNL     1      -7.111   0.117 -35.195  1.00  0.00     0.002 A 
HETATM   17  C   UNL     1      -6.452  -0.889 -34.494  1.00  0.00     0.000 A 
HETATM   18  C   UNL     1      -6.435  -0.865 -33.101  1.00  0.00     0.002 A 
HETATM   19  C   UNL     1      -7.079   0.163 -32.404  1.00  0.00     0.031 A 
ENDBRANCH   8  14
ENDBRANCH   1   5
BRANCH   2  20
HETATM   20  N   UNL     1      -5.087   5.289 -26.898  1.00  0.00    -0.249 N 
HETATM   21  C   UNL     1      -4.154   6.301 -27.080  1.00  0.00     0.339 C 
HETATM   22  N   UNL     1      -3.507   6.624 -25.910  1.00  0.00    -0.308 N 
HETATM   23  O   UNL     1      -4.001   6.821 -28.182  1.00  0.00    -0.245 OA
HETATM   24  H   UNL     1      -3.801   6.118 -25.088  1.00  0.00     0.170 HD
HETATM   25  H   UNL     1      -4.953   4.586 -26.176  1.00  0.00     0.192 HD
BRANCH  22  26
HETATM   26  C   UNL     1      -2.536   7.629 -25.719  1.00  0.00     0.036 A 
HETATM   27  C   UNL     1      -2.786   8.842 -25.069  1.00  0.00     0.031 A 
HETATM   28  C   UNL     1      -1.765   9.785 -24.903  1.00  0.00     0.026 A 
HETATM   29  C   UNL     1      -0.490   9.520 -25.389  1.00  0.00     0.034 A 
HETATM   30 CL   UNL     1       0.765  10.677 -25.181  1.00  0.00    -0.084 Cl
HETATM   31  C   UNL     1      -0.225   8.321 -26.043  1.00  0.00     0.026 A 
HETATM   32  C   UNL     1      -1.247   7.378 -26.207  1.00  0.00     0.031 A 
ENDBRANCH  22  26
ENDBRANCH   2  20
TORSDOF 4
ENDMDL
MODEL 6
REMARK VINA RESULT:      -8.2      1.857      2.059
REMARK  4 active torsions:
REMARK  status: ('A' for Active; 'I' for Inactive)
REMARK    1  A    between atoms: N_4  and  C_5 
REMARK    2  A    between atoms: C_14  and  C_15 
REMARK       I    between atoms: C_15  and  N_16 
REMARK    3  A    between atoms: N_16  and  N_17 
REMARK       I    between atoms: N_17  and  C_18 
REMARK       I    between atoms: C_18  and  N_19 
REMARK    4  A    between atoms: N_19  and  C_20 
ROOT
HETATM    1  C   UNL     1      -3.422   6.635 -32.321  1.00  0.00     0.277 C 
HETATM    2  N   UNL     1      -3.563   7.162 -31.053  1.00  0.00    -0.261 N 
HETATM    3  O   UNL     1      -2.439   6.896 -33.014  1.00  0.00    -0.265 OA
HETATM    4  H   UNL     1      -4.417   7.037 -30.507  1.00  0.00     0.190 HD
ENDROOT
BRANCH   1   5
HETATM    5  C   UNL     1      -4.507   5.767 -32.758  1.00  0.00     0.077 A 
HETATM    6  S   UNL     1      -4.241   4.062 -33.039  1.00  0.00    -0.064 SA
HETATM    7  C   UNL     1      -5.846   3.845 -33.426  1.00  0.00     0.113 A 
HETATM    8  N   UNL     1      -6.718   2.850 -33.791  1.00  0.00    -0.226 N 
HETATM    9  C   UNL     1      -6.544   4.984 -33.363  1.00  0.00     0.027 A 
HETATM   10  N   UNL     1      -7.978   3.398 -33.985  1.00  0.00    -0.171 NA
HETATM   11  C   UNL     1      -7.853   4.712 -33.715  1.00  0.00     0.064 A 
HETATM   12  C   UNL     1      -9.012   5.624 -33.824  1.00  0.00     0.073 C 
HETATM   13  C   UNL     1      -5.840   6.120 -32.976  1.00  0.00     0.041 A 
BRANCH   8  14
HETATM   14  C   UNL     1      -6.515   1.449 -33.963  1.00  0.00     0.059 A 
HETATM   15  C   UNL     1      -7.211   0.782 -34.986  1.00  0.00     0.031 A 
HETATM   16  C   UNL     1      -7.051  -0.594 -35.177  1.00  0.00     0.002 A 
HETATM   17  C   UNL     1      -6.196  -1.317 -34.351  1.00  0.00     0.000 A 
HETATM   18  C   UNL     1      -5.498  -0.666 -33.337  1.00  0.00     0.002 A 
HETATM   19  C   UNL     1      -5.656   0.711 -33.141  1.00  0.00     0.031 A 
ENDBRANCH   8  14
ENDBRANCH   1   5
BRANCH   2  20
HETATM   20  N   UNL     1      -2.671   8.142 -30.588  1.00  0.00    -0.249 N 
HETATM   21  C   UNL     1      -1.927   7.794 -29.469  1.00  0.00     0.339 C 
HETATM   22  N   UNL     1      -1.164   8.842 -29.009  1.00  0.00    -0.308 N 
HETATM   23  O   UNL     1      -1.971   6.653 -29.018  1.00  0.00    -0.245 OA
HETATM   24  H   UNL     1      -1.221   9.698 -29.541  1.00  0.00     0.170 HD
HETATM   25  H   UNL     1      -2.982   9.101 -30.723  1.00  0.00     0.192 HD
BRANCH  22  26
HETATM   26  C   UNL     1      -0.260   8.831 -27.926  1.00  0.00     0.036 A 
HETATM   27  C   UNL     1       1.078   8.441 -28.031  1.00  0.00     0.031 A 
HETATM   28  C   UNL     1       1.920   8.472 -26.913  1.00  0.00     0.026 A 
HETATM   29  C   UNL     1       1.424   8.891 -25.683  1.00  0.00     0.034 A 
HETATM   30 CL   UNL     1       2.460   8.934 -24.311  1.00  0.00    -0.084 Cl
HETATM   31  C   UNL     1       0.093   9.278 -25.560  1.00  0.00     0.026 A 
HETATM   32  C   UNL     1      -0.746   9.247 -26.680  1.00  0.00     0.031 A 
ENDBRANCH  22  26
ENDBRANCH   2  20
TORSDOF 4
ENDMDL
MODEL 7
REMARK VINA RESULT:      -8.1      7.636     11.240
REMARK  4 active torsions:
REMARK  status: ('A' for Active; 'I' for Inactive)
REMARK    1  A    between atoms: N_4  and  C_5 
REMARK    2  A    between atoms: C_14  and  C_15 
REMARK       I    between atoms: C_15  and  N_16 
REMARK    3  A    between atoms: N_16  and  N_17 
REMARK       I    between atoms: N_17  and  C_18 
REMARK       I    between atoms: C_18  and  N_19 
REMARK    4  A    between atoms: N_19  and  C_20 
ROOT
HETATM    1  C   UNL     1      -9.650   1.341 -33.920  1.00  0.00     0.277 C 
HETATM    2  N   UNL     1      -9.859   2.284 -34.906  1.00  0.00    -0.261 N 
HETATM    3  O   UNL     1     -10.594   0.775 -33.369  1.00  0.00    -0.265 OA
HETATM    4  H   UNL     1      -9.095   2.834 -35.299  1.00  0.00     0.190 HD
ENDROOT
BRANCH   1   5
HETATM    5  C   UNL     1      -8.254   1.079 -33.596  1.00  0.00     0.077 A 
HETATM    6  S   UNL     1      -7.623  -0.552 -33.573  1.00  0.00    -0.064 SA
HETATM    7  C   UNL     1      -6.103   0.010 -33.193  1.00  0.00     0.113 A 
HETATM    8  N   UNL     1      -4.833  -0.456 -32.963  1.00  0.00    -0.226 N 
HETATM    9  C   UNL     1      -6.066   1.341 -33.076  1.00  0.00     0.027 A 
HETATM   10  N   UNL     1      -4.001   0.614 -32.668  1.00  0.00    -0.171 NA
HETATM   11  C   UNL     1      -4.776   1.713 -32.744  1.00  0.00     0.064 A 
HETATM   12  C   UNL     1      -4.217   3.057 -32.482  1.00  0.00     0.073 C 
HETATM   13  C   UNL     1      -7.261   2.016 -33.304  1.00  0.00     0.041 A 
BRANCH   8  14
HETATM   14  C   UNL     1      -4.304  -1.781 -33.003  1.00  0.00     0.059 A 
HETATM   15  C   UNL     1      -4.623  -2.608 -34.093  1.00  0.00     0.031 A 
HETATM   16  C   UNL     1      -4.137  -3.917 -34.161  1.00  0.00     0.002 A 
HETATM   17  C   UNL     1      -3.330  -4.415 -33.142  1.00  0.00     0.000 A 
HETATM   18  C   UNL     1      -3.005  -3.602 -32.058  1.00  0.00     0.002 A 
HETATM   19  C   UNL     1      -3.489  -2.292 -31.986  1.00  0.00     0.031 A 
ENDBRANCH   8  14
ENDBRANCH   1   5
BRANCH   2  20
HETATM   20  N   UNL     1     -11.157   2.743 -35.184  1.00  0.00    -0.249 N 
HETATM   21  C   UNL     1     -11.349   4.112 -35.055  1.00  0.00     0.339 C 
HETATM   22  N   UNL     1     -12.666   4.468 -35.233  1.00  0.00    -0.308 N 
HETATM   23  O   UNL     1     -10.400   4.861 -34.839  1.00  0.00    -0.245 OA
HETATM   24  H   UNL     1     -13.302   3.716 -35.452  1.00  0.00     0.170 HD
HETATM   25  H   UNL     1     -11.901   2.092 -34.945  1.00  0.00     0.192 HD
BRANCH  22  26
HETATM   26  C   UNL     1     -13.210   5.769 -35.215  1.00  0.00     0.036 A 
HETATM   27  C   UNL     1     -13.604   6.434 -34.050  1.00  0.00     0.031 A 
HETATM   28  C   UNL     1     -14.121   7.734 -34.111  1.00  0.00     0.026 A 
HETATM   29  C   UNL     1     -14.249   8.372 -35.340  1.00  0.00     0.034 A 
HETATM   30 CL   UNL     1     -14.879   9.971 -35.413  1.00  0.00    -0.084 Cl
HETATM   31  C   UNL     1     -13.866   7.723 -36.510  1.00  0.00     0.026 A 
HETATM   32  C   UNL     1     -13.348   6.424 -36.446  1.00  0.00     0.031 A 
ENDBRANCH  22  26
ENDBRANCH   2  20
TORSDOF 4
ENDMDL
MODEL 8
REMARK VINA RESULT:      -8.1      4.691     10.780
REMARK  4 active torsions:
REMARK  status: ('A' for Active; 'I' for Inactive)
REMARK    1  A    between atoms: N_4  and  C_5 
REMARK    2  A    between atoms: C_14  and  C_15 
REMARK       I    between atoms: C_15  and  N_16 
REMARK    3  A    between atoms: N_16  and  N_17 
REMARK       I    between atoms: N_17  and  C_18 
REMARK       I    between atoms: C_18  and  N_19 
REMARK    4  A    between atoms: N_19  and  C_20 
ROOT
HETATM    1  C   UNL     1      -5.638   5.218 -32.080  1.00  0.00     0.277 C 
HETATM    2  N   UNL     1      -5.880   3.879 -31.844  1.00  0.00    -0.261 N 
HETATM    3  O   UNL     1      -5.865   5.722 -33.180  1.00  0.00    -0.265 OA
HETATM    4  H   UNL     1      -5.604   3.425 -30.973  1.00  0.00     0.190 HD
ENDROOT
BRANCH   1   5
HETATM    5  C   UNL     1      -5.109   5.963 -30.947  1.00  0.00     0.077 A 
HETATM    6  S   UNL     1      -3.414   5.879 -30.523  1.00  0.00    -0.064 SA
HETATM    7  C   UNL     1      -3.643   6.952 -29.271  1.00  0.00     0.113 A 
HETATM    8  N   UNL     1      -2.932   7.594 -28.288  1.00  0.00    -0.226 N 
HETATM    9  C   UNL     1      -4.916   7.344 -29.162  1.00  0.00     0.027 A 
HETATM   10  N   UNL     1      -3.796   8.377 -27.539  1.00  0.00    -0.171 NA
HETATM   11  C   UNL     1      -5.013   8.214 -28.092  1.00  0.00     0.064 A 
HETATM   12  C   UNL     1      -6.198   8.908 -27.542  1.00  0.00     0.073 C 
HETATM   13  C   UNL     1      -5.806   6.824 -30.097  1.00  0.00     0.041 A 
BRANCH   8  14
HETATM   14  C   UNL     1      -1.539   7.571 -27.979  1.00  0.00     0.059 A 
HETATM   15  C   UNL     1      -0.615   7.921 -28.979  1.00  0.00     0.031 A 
HETATM   16  C   UNL     1       0.758   7.897 -28.720  1.00  0.00     0.002 A 
HETATM   17  C   UNL     1       1.224   7.524 -27.463  1.00  0.00     0.000 A 
HETATM   18  C   UNL     1       0.317   7.179 -26.464  1.00  0.00     0.002 A 
HETATM   19  C   UNL     1      -1.058   7.201 -26.718  1.00  0.00     0.031 A 
ENDBRANCH   8  14
ENDBRANCH   1   5
BRANCH   2  20
HETATM   20  N   UNL     1      -6.229   3.024 -32.902  1.00  0.00    -0.249 N 
HETATM   21  C   UNL     1      -5.827   1.703 -32.762  1.00  0.00     0.339 C 
HETATM   22  N   UNL     1      -6.104   0.956 -33.885  1.00  0.00    -0.308 N 
HETATM   23  O   UNL     1      -5.319   1.309 -31.716  1.00  0.00    -0.245 OA
HETATM   24  H   UNL     1      -6.571   1.443 -34.635  1.00  0.00     0.170 HD
HETATM   25  H   UNL     1      -6.246   3.464 -33.819  1.00  0.00     0.192 HD
BRANCH  22  26
HETATM   26  C   UNL     1      -5.874  -0.422 -34.073  1.00  0.00     0.036 A 
HETATM   27  C   UNL     1      -4.638  -1.042 -33.872  1.00  0.00     0.031 A 
HETATM   28  C   UNL     1      -4.491  -2.420 -34.063  1.00  0.00     0.026 A 
HETATM   29  C   UNL     1      -5.582  -3.185 -34.461  1.00  0.00     0.034 A 
HETATM   30 CL   UNL     1      -5.402  -4.880 -34.691  1.00  0.00    -0.084 Cl
HETATM   31  C   UNL     1      -6.819  -2.584 -34.672  1.00  0.00     0.026 A 
HETATM   32  C   UNL     1      -6.964  -1.206 -34.478  1.00  0.00     0.031 A 
ENDBRANCH  22  26
ENDBRANCH   2  20
TORSDOF 4
ENDMDL
MODEL 9
REMARK VINA RESULT:      -7.9      4.886     11.036
REMARK  4 active torsions:
REMARK  status: ('A' for Active; 'I' for Inactive)
REMARK    1  A    between atoms: N_4  and  C_5 
REMARK    2  A    between atoms: C_14  and  C_15 
REMARK       I    between atoms: C_15  and  N_16 
REMARK    3  A    between atoms: N_16  and  N_17 
REMARK       I    between atoms: N_17  and  C_18 
REMARK       I    between atoms: C_18  and  N_19 
REMARK    4  A    between atoms: N_19  and  C_20 
ROOT
HETATM    1  C   UNL     1      -4.831   5.054 -32.109  1.00  0.00     0.277 C 
HETATM    2  N   UNL     1      -5.036   3.719 -31.822  1.00  0.00    -0.261 N 
HETATM    3  O   UNL     1      -5.391   5.595 -33.062  1.00  0.00    -0.265 OA
HETATM    4  H   UNL     1      -4.504   3.233 -31.100  1.00  0.00     0.190 HD
ENDROOT
BRANCH   1   5
HETATM    5  C   UNL     1      -3.920   5.749 -31.209  1.00  0.00     0.077 A 
HETATM    6  S   UNL     1      -4.496   6.478 -29.728  1.00  0.00    -0.064 SA
HETATM    7  C   UNL     1      -2.953   6.965 -29.333  1.00  0.00     0.113 A 
HETATM    8  N   UNL     1      -2.277   7.619 -28.334  1.00  0.00    -0.226 N 
HETATM    9  C   UNL     1      -2.056   6.617 -30.261  1.00  0.00     0.027 A 
HETATM   10  N   UNL     1      -0.934   7.699 -28.671  1.00  0.00    -0.171 NA
HETATM   11  C   UNL     1      -0.815   7.075 -29.859  1.00  0.00     0.064 A 
HETATM   12  C   UNL     1       0.497   6.970 -30.535  1.00  0.00     0.073 C 
HETATM   13  C   UNL     1      -2.541   5.909 -31.356  1.00  0.00     0.041 A 
BRANCH   8  14
HETATM   14  C   UNL     1      -2.736   8.162 -27.097  1.00  0.00     0.059 A 
HETATM   15  C   UNL     1      -3.440   9.377 -27.108  1.00  0.00     0.031 A 
HETATM   16  C   UNL     1      -3.893   9.950 -25.916  1.00  0.00     0.002 A 
HETATM   17  C   UNL     1      -3.649   9.316 -24.702  1.00  0.00     0.000 A 
HETATM   18  C   UNL     1      -2.954   8.109 -24.679  1.00  0.00     0.002 A 
HETATM   19  C   UNL     1      -2.498   7.533 -25.870  1.00  0.00     0.031 A 
ENDBRANCH   8  14
ENDBRANCH   1   5
BRANCH   2  20
HETATM   20  N   UNL     1      -5.756   2.905 -32.713  1.00  0.00    -0.249 N 
HETATM   21  C   UNL     1      -5.387   1.567 -32.733  1.00  0.00     0.339 C 
HETATM   22  N   UNL     1      -6.056   0.861 -33.707  1.00  0.00    -0.308 N 
HETATM   23  O   UNL     1      -4.575   1.128 -31.923  1.00  0.00    -0.245 OA
HETATM   24  H   UNL     1      -6.727   1.384 -34.250  1.00  0.00     0.170 HD
HETATM   25  H   UNL     1      -6.061   3.370 -33.564  1.00  0.00     0.192 HD
BRANCH  22  26
HETATM   26  C   UNL     1      -5.962  -0.519 -33.979  1.00  0.00     0.036 A 
HETATM   27  C   UNL     1      -7.043  -1.313 -34.373  1.00  0.00     0.031 A 
HETATM   28  C   UNL     1      -6.868  -2.675 -34.642  1.00  0.00     0.026 A 
HETATM   29  C   UNL     1      -5.608  -3.250 -34.515  1.00  0.00     0.034 A 
HETATM   30 CL   UNL     1      -5.392  -4.923 -34.851  1.00  0.00    -0.084 Cl
HETATM   31  C   UNL     1      -4.522  -2.477 -34.118  1.00  0.00     0.026 A 
HETATM   32  C   UNL     1      -4.699  -1.114 -33.851  1.00  0.00     0.031 A 
ENDBRANCH  22  26
ENDBRANCH   2  20
TORSDOF 4
ENDMDL
MODEL 10
REMARK VINA RESULT:      -7.8      6.411     11.827
REMARK  4 active torsions:
REMARK  status: ('A' for Active; 'I' for Inactive)
REMARK    1  A    between atoms: N_4  and  C_5 
REMARK    2  A    between atoms: C_14  and  C_15 
REMARK       I    between atoms: C_15  and  N_16 
REMARK    3  A    between atoms: N_16  and  N_17 
REMARK       I    between atoms: N_17  and  C_18 
REMARK       I    between atoms: C_18  and  N_19 
REMARK    4  A    between atoms: N_19  and  C_20 
ROOT
HETATM    1  C   UNL     1      -7.881   1.870 -34.266  1.00  0.00     0.277 C 
HETATM    2  N   UNL     1      -8.686   2.987 -34.369  1.00  0.00    -0.261 N 
HETATM    3  O   UNL     1      -8.237   0.783 -34.720  1.00  0.00    -0.265 OA
HETATM    4  H   UNL     1      -8.451   3.868 -33.911  1.00  0.00     0.190 HD
ENDROOT
BRANCH   1   5
HETATM    5  C   UNL     1      -6.607   2.083 -33.593  1.00  0.00     0.077 A 
HETATM    6  S   UNL     1      -5.824   3.647 -33.616  1.00  0.00    -0.064 SA
HETATM    7  C   UNL     1      -4.580   3.071 -32.672  1.00  0.00     0.113 A 
HETATM    8  N   UNL     1      -3.420   3.502 -32.078  1.00  0.00    -0.226 N 
HETATM    9  C   UNL     1      -4.730   1.779 -32.364  1.00  0.00     0.027 A 
HETATM   10  N   UNL     1      -2.827   2.438 -31.414  1.00  0.00    -0.171 NA
HETATM   11  C   UNL     1      -3.648   1.386 -31.598  1.00  0.00     0.064 A 
HETATM   12  C   UNL     1      -3.326   0.061 -31.025  1.00  0.00     0.073 C 
HETATM   13  C   UNL     1      -5.874   1.155 -32.851  1.00  0.00     0.041 A 
BRANCH   8  14
HETATM   14  C   UNL     1      -2.811   4.791 -32.046  1.00  0.00     0.059 A 
HETATM   15  C   UNL     1      -1.446   4.891 -31.729  1.00  0.00     0.031 A 
HETATM   16  C   UNL     1      -0.816   6.138 -31.672  1.00  0.00     0.002 A 
HETATM   17  C   UNL     1      -1.541   7.297 -31.933  1.00  0.00     0.000 A 
HETATM   18  C   UNL     1      -2.894   7.210 -32.252  1.00  0.00     0.002 A 
HETATM   19  C   UNL     1      -3.529   5.964 -32.309  1.00  0.00     0.031 A 
ENDBRANCH   8  14
ENDBRANCH   1   5
BRANCH   2  20
HETATM   20  N   UNL     1     -10.003   2.870 -34.844  1.00  0.00    -0.249 N 
HETATM   21  C   UNL     1     -10.992   2.850 -33.870  1.00  0.00     0.339 C 
HETATM   22  N   UNL     1     -12.239   2.619 -34.403  1.00  0.00    -0.308 N 
HETATM   23  O   UNL     1     -10.715   3.054 -32.691  1.00  0.00    -0.245 OA
HETATM   24  H   UNL     1     -12.279   2.521 -35.407  1.00  0.00     0.170 HD
HETATM   25  H   UNL     1     -10.104   2.319 -35.693  1.00  0.00     0.192 HD
BRANCH  22  26
HETATM   26  C   UNL     1     -13.469   2.578 -33.715  1.00  0.00     0.036 A 
HETATM   27  C   UNL     1     -14.336   1.481 -33.730  1.00  0.00     0.031 A 
HETATM   28  C   UNL     1     -15.534   1.508 -33.007  1.00  0.00     0.026 A 
HETATM   29  C   UNL     1     -15.872   2.636 -32.267  1.00  0.00     0.034 A 
HETATM   30 CL   UNL     1     -17.341   2.667 -31.374  1.00  0.00    -0.084 Cl
HETATM   31  C   UNL     1     -15.023   3.739 -32.245  1.00  0.00     0.026 A 
HETATM   32  C   UNL     1     -13.825   3.709 -32.967  1.00  0.00     0.031 A 
ENDBRANCH  22  26
ENDBRANCH   2  20
TORSDOF 4
ENDMDL
