MODEL 1
REMARK VINA RESULT:      -9.4      0.000      0.000
REMARK  6 active torsions:
REMARK  status: ('A' for Active; 'I' for Inactive)
REMARK    1  A    between atoms: C_6  and  C_7 
REMARK    2  A    between atoms: N_9  and  C_10 
REMARK    3  A    between atoms: C_10  and  C_11 
REMARK    4  A    between atoms: C_18  and  C_19 
REMARK       I    between atoms: C_19  and  N_20 
REMARK    5  A    between atoms: N_20  and  C_21 
REMARK    6  A    between atoms: C_24  and  O_25 
ROOT
HETATM    1  C   UNL     1      -4.154   0.512 -31.851  1.00  0.00     0.104 A 
HETATM    2  N   UNL     1      -3.092   1.333 -31.918  1.00  0.00    -0.171 NA
HETATM    3  N   UNL     1      -3.515   2.486 -31.369  1.00  0.00    -0.275 N 
HETATM    4  C   UNL     1      -4.803   2.432 -30.929  1.00  0.00     0.132 A 
HETATM    5  C   UNL     1      -5.280   1.183 -31.277  1.00  0.00     0.080 A 
ENDROOT
BRANCH   5   6
HETATM    6  C   UNL     1      -6.647   0.740 -31.065  1.00  0.00     0.255 C 
HETATM    7  N   UNL     1      -7.595   1.501 -31.713  1.00  0.00    -0.352 N 
HETATM    8  H   UNL     1      -7.281   2.320 -32.216  1.00  0.00     0.163 HD
HETATM    9  O   UNL     1      -6.924  -0.208 -30.338  1.00  0.00    -0.268 OA
BRANCH   7  10
HETATM   10  C   UNL     1      -9.020   1.210 -31.653  1.00  0.00     0.084 C 
HETATM   11  C   UNL     1      -9.874   2.479 -31.780  1.00  0.00     0.028 C 
HETATM   12  C   UNL     1      -9.830   3.080 -33.185  1.00  0.00     0.034 C 
HETATM   13  C   UNL     1     -10.174   2.064 -34.274  1.00  0.00     0.118 C 
HETATM   14  C   UNL     1      -9.363   0.775 -34.145  1.00  0.00     0.034 C 
HETATM   15  C   UNL     1      -9.402   0.186 -32.731  1.00  0.00     0.028 C 
BRANCH  13  16
HETATM   16  O   UNL     1     -11.567   1.763 -34.247  1.00  0.00    -0.396 OA
HETATM   17  H   UNL     1     -11.813   1.465 -33.357  1.00  0.00     0.210 HD
ENDBRANCH  13  16
ENDBRANCH   7  10
ENDBRANCH   5   6
BRANCH   1  18
HETATM   18  C   UNL     1      -4.048  -0.866 -32.339  1.00  0.00    -0.004 A 
HETATM   19  C   UNL     1      -4.763  -1.296 -33.464  1.00  0.00     0.021 A 
HETATM   20  C   UNL     1      -4.626  -2.603 -33.964  1.00  0.00    -0.055 A 
HETATM   21  C   UNL     1      -3.792  -3.515 -33.288  1.00  0.00    -0.056 A 
HETATM   22  C   UNL     1      -5.408  -3.005 -35.184  1.00  0.00     0.049 C 
HETATM   23  C   UNL     1      -3.618  -4.929 -33.768  1.00  0.00     0.049 C 
HETATM   24  C   UNL     1      -3.089  -3.087 -32.152  1.00  0.00     0.008 A 
HETATM   25  C   UNL     1      -3.217  -1.778 -31.682  1.00  0.00     0.014 A 
ENDBRANCH   1  18
BRANCH   3  26
HETATM   26  C   UNL     1      -2.613   3.630 -31.293  1.00  0.00     0.189 C 
BRANCH  26  27
HETATM   27  C   UNL     1      -2.554   4.390 -32.597  1.00  0.00    -0.038 A 
HETATM   28  C   UNL     1      -3.698   4.520 -33.397  1.00  0.00     0.009 A 
HETATM   29  C   UNL     1      -3.648   5.239 -34.594  1.00  0.00     0.001 A 
HETATM   30  C   UNL     1      -2.458   5.837 -35.003  1.00  0.00     0.000 A 
HETATM   31  C   UNL     1      -1.316   5.723 -34.213  1.00  0.00     0.001 A 
HETATM   32  C   UNL     1      -1.364   5.011 -33.014  1.00  0.00     0.009 A 
ENDBRANCH  26  27
ENDBRANCH   3  26
TORSDOF 6
ENDMDL
MODEL 2
REMARK VINA RESULT:      -9.3      1.754      2.485
REMARK  6 active torsions:
REMARK  status: ('A' for Active; 'I' for Inactive)
REMARK    1  A    between atoms: C_6  and  C_7 
REMARK    2  A    between atoms: N_9  and  C_10 
REMARK    3  A    between atoms: C_10  and  C_11 
REMARK    4  A    between atoms: C_18  and  C_19 
REMARK       I    between atoms: C_19  and  N_20 
REMARK    5  A    between atoms: N_20  and  C_21 
REMARK    6  A    between atoms: C_24  and  O_25 
ROOT
HETATM    1  C   UNL     1      -4.066   2.386 -32.226  1.00  0.00     0.104 A 
HETATM    2  N   UNL     1      -3.124   3.161 -32.792  1.00  0.00    -0.171 NA
HETATM    3  N   UNL     1      -3.496   4.421 -32.498  1.00  0.00    -0.275 N 
HETATM    4  C   UNL     1      -4.629   4.486 -31.745  1.00  0.00     0.132 A 
HETATM    5  C   UNL     1      -5.071   3.185 -31.593  1.00  0.00     0.080 A 
ENDROOT
BRANCH   5   6
HETATM    6  C   UNL     1      -6.302   2.811 -30.922  1.00  0.00     0.255 C 
HETATM    7  N   UNL     1      -7.295   2.365 -31.767  1.00  0.00    -0.352 N 
HETATM    8  H   UNL     1      -7.117   2.393 -32.762  1.00  0.00     0.163 HD
HETATM    9  O   UNL     1      -6.449   2.924 -29.710  1.00  0.00    -0.268 OA
BRANCH   7  10
HETATM   10  C   UNL     1      -8.596   1.917 -31.294  1.00  0.00     0.084 C 
HETATM   11  C   UNL     1      -9.741   2.769 -31.858  1.00  0.00     0.028 C 
HETATM   12  C   UNL     1      -9.961   2.543 -33.354  1.00  0.00     0.034 C 
HETATM   13  C   UNL     1     -10.134   1.067 -33.710  1.00  0.00     0.118 C 
HETATM   14  C   UNL     1      -9.026   0.192 -33.127  1.00  0.00     0.034 C 
HETATM   15  C   UNL     1      -8.804   0.433 -31.630  1.00  0.00     0.028 C 
BRANCH  13  16
HETATM   16  O   UNL     1     -11.405   0.597 -33.266  1.00  0.00    -0.396 OA
HETATM   17  H   UNL     1     -11.686  -0.144 -33.826  1.00  0.00     0.210 HD
ENDBRANCH  13  16
ENDBRANCH   7  10
ENDBRANCH   5   6
BRANCH   1  18
HETATM   18  C   UNL     1      -3.967   0.927 -32.319  1.00  0.00    -0.004 A 
HETATM   19  C   UNL     1      -4.807   0.194 -33.168  1.00  0.00     0.021 A 
HETATM   20  C   UNL     1      -4.682  -1.201 -33.295  1.00  0.00    -0.055 A 
HETATM   21  C   UNL     1      -3.727  -1.881 -32.515  1.00  0.00    -0.056 A 
HETATM   22  C   UNL     1      -5.602  -1.935 -34.232  1.00  0.00     0.049 C 
HETATM   23  C   UNL     1      -3.558  -3.373 -32.600  1.00  0.00     0.049 C 
HETATM   24  C   UNL     1      -2.897  -1.147 -31.655  1.00  0.00     0.008 A 
HETATM   25  C   UNL     1      -3.017   0.241 -31.557  1.00  0.00     0.014 A 
ENDBRANCH   1  18
BRANCH   3  26
HETATM   26  C   UNL     1      -2.702   5.545 -32.980  1.00  0.00     0.189 C 
BRANCH  26  27
HETATM   27  C   UNL     1      -1.671   5.984 -31.967  1.00  0.00    -0.038 A 
HETATM   28  C   UNL     1      -0.452   5.300 -31.851  1.00  0.00     0.009 A 
HETATM   29  C   UNL     1       0.510   5.716 -30.927  1.00  0.00     0.001 A 
HETATM   30  C   UNL     1       0.267   6.821 -30.113  1.00  0.00     0.000 A 
HETATM   31  C   UNL     1      -0.935   7.516 -30.225  1.00  0.00     0.001 A 
HETATM   32  C   UNL     1      -1.895   7.105 -31.151  1.00  0.00     0.009 A 
ENDBRANCH  26  27
ENDBRANCH   3  26
TORSDOF 6
ENDMDL
MODEL 3
REMARK VINA RESULT:      -9.2      1.733      2.635
REMARK  6 active torsions:
REMARK  status: ('A' for Active; 'I' for Inactive)
REMARK    1  A    between atoms: C_6  and  C_7 
REMARK    2  A    between atoms: N_9  and  C_10 
REMARK    3  A    between atoms: C_10  and  C_11 
REMARK    4  A    between atoms: C_18  and  C_19 
REMARK       I    between atoms: C_19  and  N_20 
REMARK    5  A    between atoms: N_20  and  C_21 
REMARK    6  A    between atoms: C_24  and  O_25 
ROOT
HETATM    1  C   UNL     1      -6.208   0.955 -32.731  1.00  0.00     0.104 A 
HETATM    2  N   UNL     1      -5.070   1.647 -32.541  1.00  0.00    -0.171 NA
HETATM    3  N   UNL     1      -5.451   2.758 -31.884  1.00  0.00    -0.275 N 
HETATM    4  C   UNL     1      -6.787   2.798 -31.624  1.00  0.00     0.132 A 
HETATM    5  C   UNL     1      -7.332   1.672 -32.210  1.00  0.00     0.080 A 
ENDROOT
BRANCH   5   6
HETATM    6  C   UNL     1      -8.751   1.369 -32.241  1.00  0.00     0.255 C 
HETATM    7  N   UNL     1      -9.506   2.264 -32.966  1.00  0.00    -0.352 N 
HETATM    8  H   UNL     1      -9.037   3.072 -33.355  1.00  0.00     0.163 HD
HETATM    9  O   UNL     1      -9.232   0.417 -31.635  1.00  0.00    -0.268 OA
BRANCH   7  10
HETATM   10  C   UNL     1     -10.943   2.128 -33.144  1.00  0.00     0.084 C 
HETATM   11  C   UNL     1     -11.721   3.255 -32.452  1.00  0.00     0.028 C 
HETATM   12  C   UNL     1     -11.541   4.606 -33.145  1.00  0.00     0.034 C 
HETATM   13  C   UNL     1     -11.851   4.550 -34.640  1.00  0.00     0.118 C 
HETATM   14  C   UNL     1     -11.117   3.410 -35.346  1.00  0.00     0.034 C 
HETATM   15  C   UNL     1     -11.294   2.062 -34.638  1.00  0.00     0.028 C 
BRANCH  13  16
HETATM   16  O   UNL     1     -13.255   4.423 -34.850  1.00  0.00    -0.396 OA
HETATM   17  H   UNL     1     -13.423   4.220 -35.783  1.00  0.00     0.210 HD
ENDBRANCH  13  16
ENDBRANCH   7  10
ENDBRANCH   5   6
BRANCH   1  18
HETATM   18  C   UNL     1      -6.170  -0.347 -33.401  1.00  0.00    -0.004 A 
HETATM   19  C   UNL     1      -5.089  -1.222 -33.229  1.00  0.00     0.021 A 
HETATM   20  C   UNL     1      -5.072  -2.492 -33.832  1.00  0.00    -0.055 A 
HETATM   21  C   UNL     1      -6.140  -2.872 -34.668  1.00  0.00    -0.056 A 
HETATM   22  C   UNL     1      -3.891  -3.395 -33.601  1.00  0.00     0.049 C 
HETATM   23  C   UNL     1      -6.168  -4.212 -35.350  1.00  0.00     0.049 C 
HETATM   24  C   UNL     1      -7.214  -1.989 -34.852  1.00  0.00     0.008 A 
HETATM   25  C   UNL     1      -7.227  -0.740 -34.227  1.00  0.00     0.014 A 
ENDBRANCH   1  18
BRANCH   3  26
HETATM   26  C   UNL     1      -4.461   3.767 -31.526  1.00  0.00     0.189 C 
BRANCH  26  27
HETATM   27  C   UNL     1      -3.748   4.315 -32.740  1.00  0.00    -0.038 A 
HETATM   28  C   UNL     1      -2.348   4.383 -32.773  1.00  0.00     0.009 A 
HETATM   29  C   UNL     1      -1.688   4.873 -33.903  1.00  0.00     0.001 A 
HETATM   30  C   UNL     1      -2.418   5.297 -35.012  1.00  0.00     0.000 A 
HETATM   31  C   UNL     1      -3.809   5.226 -34.996  1.00  0.00     0.001 A 
HETATM   32  C   UNL     1      -4.471   4.732 -33.871  1.00  0.00     0.009 A 
ENDBRANCH  26  27
ENDBRANCH   3  26
TORSDOF 6
ENDMDL
MODEL 4
REMARK VINA RESULT:      -9.2      2.213      3.193
REMARK  6 active torsions:
REMARK  status: ('A' for Active; 'I' for Inactive)
REMARK    1  A    between atoms: C_6  and  C_7 
REMARK    2  A    between atoms: N_9  and  C_10 
REMARK    3  A    between atoms: C_10  and  C_11 
REMARK    4  A    between atoms: C_18  and  C_19 
REMARK       I    between atoms: C_19  and  N_20 
REMARK    5  A    between atoms: N_20  and  C_21 
REMARK    6  A    between atoms: C_24  and  O_25 
ROOT
HETATM    1  C   UNL     1      -6.522   2.580 -33.438  1.00  0.00     0.104 A 
HETATM    2  N   UNL     1      -5.560   3.452 -33.787  1.00  0.00    -0.171 NA
HETATM    3  N   UNL     1      -5.949   4.623 -33.249  1.00  0.00    -0.275 N 
HETATM    4  C   UNL     1      -7.112   4.533 -32.547  1.00  0.00     0.132 A 
HETATM    5  C   UNL     1      -7.555   3.232 -32.692  1.00  0.00     0.080 A 
ENDROOT
BRANCH   5   6
HETATM    6  C   UNL     1      -8.812   2.731 -32.167  1.00  0.00     0.255 C 
HETATM    7  N   UNL     1      -9.874   2.845 -33.036  1.00  0.00    -0.352 N 
HETATM    8  H   UNL     1      -9.716   3.313 -33.918  1.00  0.00     0.163 HD
HETATM    9  O   UNL     1      -8.916   2.283 -31.030  1.00  0.00    -0.268 OA
BRANCH   7  10
HETATM   10  C   UNL     1     -11.215   2.379 -32.714  1.00  0.00     0.084 C 
HETATM   11  C   UNL     1     -12.281   3.447 -32.992  1.00  0.00     0.028 C 
HETATM   12  C   UNL     1     -12.488   3.696 -34.487  1.00  0.00     0.034 C 
HETATM   13  C   UNL     1     -12.765   2.413 -35.268  1.00  0.00     0.118 C 
HETATM   14  C   UNL     1     -11.738   1.319 -34.977  1.00  0.00     0.034 C 
HETATM   15  C   UNL     1     -11.528   1.084 -33.478  1.00  0.00     0.028 C 
BRANCH  13  16
HETATM   16  O   UNL     1     -14.076   1.933 -34.980  1.00  0.00    -0.396 OA
HETATM   17  H   UNL     1     -14.677   2.190 -35.697  1.00  0.00     0.210 HD
ENDBRANCH  13  16
ENDBRANCH   7  10
ENDBRANCH   5   6
BRANCH   1  18
HETATM   18  C   UNL     1      -6.413   1.173 -33.833  1.00  0.00    -0.004 A 
HETATM   19  C   UNL     1      -5.410   0.346 -33.310  1.00  0.00     0.021 A 
HETATM   20  C   UNL     1      -5.333  -1.016 -33.650  1.00  0.00    -0.055 A 
HETATM   21  C   UNL     1      -6.251  -1.548 -34.576  1.00  0.00    -0.056 A 
HETATM   22  C   UNL     1      -4.243  -1.859 -33.047  1.00  0.00     0.049 C 
HETATM   23  C   UNL     1      -6.207  -2.994 -34.987  1.00  0.00     0.049 C 
HETATM   24  C   UNL     1      -7.245  -0.715 -35.110  1.00  0.00     0.008 A 
HETATM   25  C   UNL     1      -7.324   0.630 -34.744  1.00  0.00     0.014 A 
ENDBRANCH   1  18
BRANCH   3  26
HETATM   26  C   UNL     1      -5.140   5.820 -33.450  1.00  0.00     0.189 C 
BRANCH  26  27
HETATM   27  C   UNL     1      -3.691   5.589 -33.089  1.00  0.00    -0.038 A 
HETATM   28  C   UNL     1      -3.325   5.299 -31.767  1.00  0.00     0.009 A 
HETATM   29  C   UNL     1      -1.987   5.068 -31.436  1.00  0.00     0.001 A 
HETATM   30  C   UNL     1      -1.003   5.120 -32.421  1.00  0.00     0.000 A 
HETATM   31  C   UNL     1      -1.354   5.397 -33.740  1.00  0.00     0.001 A 
HETATM   32  C   UNL     1      -2.690   5.623 -34.074  1.00  0.00     0.009 A 
ENDBRANCH  26  27
ENDBRANCH   3  26
TORSDOF 6
ENDMDL
MODEL 5
REMARK VINA RESULT:      -9.1      2.718      7.297
REMARK  6 active torsions:
REMARK  status: ('A' for Active; 'I' for Inactive)
REMARK    1  A    between atoms: C_6  and  C_7 
REMARK    2  A    between atoms: N_9  and  C_10 
REMARK    3  A    between atoms: C_10  and  C_11 
REMARK    4  A    between atoms: C_18  and  C_19 
REMARK       I    between atoms: C_19  and  N_20 
REMARK    5  A    between atoms: N_20  and  C_21 
REMARK    6  A    between atoms: C_24  and  O_25 
ROOT
HETATM    1  C   UNL     1      -8.402   1.598 -33.762  1.00  0.00     0.104 A 
HETATM    2  N   UNL     1      -9.468   1.662 -34.579  1.00  0.00    -0.171 NA
HETATM    3  N   UNL     1     -10.099   2.799 -34.230  1.00  0.00    -0.275 N 
HETATM    4  C   UNL     1      -9.468   3.480 -33.235  1.00  0.00     0.132 A 
HETATM    5  C   UNL     1      -8.388   2.705 -32.856  1.00  0.00     0.080 A 
ENDROOT
BRANCH   5   6
HETATM    6  C   UNL     1      -7.492   3.028 -31.760  1.00  0.00     0.255 C 
HETATM    7  N   UNL     1      -6.303   3.602 -32.152  1.00  0.00    -0.352 N 
HETATM    8  H   UNL     1      -6.125   3.692 -33.144  1.00  0.00     0.163 HD
HETATM    9  O   UNL     1      -7.764   2.771 -30.592  1.00  0.00    -0.268 OA
BRANCH   7  10
HETATM   10  C   UNL     1      -5.279   4.026 -31.209  1.00  0.00     0.084 C 
HETATM   11  C   UNL     1      -4.283   2.901 -30.894  1.00  0.00     0.028 C 
HETATM   12  C   UNL     1      -3.371   2.575 -32.078  1.00  0.00     0.034 C 
HETATM   13  C   UNL     1      -2.663   3.809 -32.637  1.00  0.00     0.118 C 
HETATM   14  C   UNL     1      -3.631   4.957 -32.922  1.00  0.00     0.034 C 
HETATM   15  C   UNL     1      -4.548   5.270 -31.736  1.00  0.00     0.028 C 
BRANCH  13  16
HETATM   16  O   UNL     1      -1.647   4.246 -31.739  1.00  0.00    -0.396 OA
HETATM   17  H   UNL     1      -1.166   3.474 -31.399  1.00  0.00     0.210 HD
ENDBRANCH  13  16
ENDBRANCH   7  10
ENDBRANCH   5   6
BRANCH   1  18
HETATM   18  C   UNL     1      -7.455   0.487 -33.880  1.00  0.00    -0.004 A 
HETATM   19  C   UNL     1      -6.463   0.272 -32.914  1.00  0.00     0.021 A 
HETATM   20  C   UNL     1      -5.583  -0.822 -32.999  1.00  0.00    -0.055 A 
HETATM   21  C   UNL     1      -5.667  -1.689 -34.106  1.00  0.00    -0.056 A 
HETATM   22  C   UNL     1      -4.546  -1.012 -31.925  1.00  0.00     0.049 C 
HETATM   23  C   UNL     1      -4.743  -2.866 -34.257  1.00  0.00     0.049 C 
HETATM   24  C   UNL     1      -6.650  -1.463 -35.080  1.00  0.00     0.008 A 
HETATM   25  C   UNL     1      -7.532  -0.386 -34.969  1.00  0.00     0.014 A 
ENDBRANCH   1  18
BRANCH   3  26
HETATM   26  C   UNL     1     -11.332   3.183 -34.907  1.00  0.00     0.189 C 
BRANCH  26  27
HETATM   27  C   UNL     1     -12.543   2.515 -34.299  1.00  0.00    -0.038 A 
HETATM   28  C   UNL     1     -13.035   1.315 -34.833  1.00  0.00     0.009 A 
HETATM   29  C   UNL     1     -14.144   0.687 -34.259  1.00  0.00     0.001 A 
HETATM   30  C   UNL     1     -14.769   1.248 -33.147  1.00  0.00     0.000 A 
HETATM   31  C   UNL     1     -14.283   2.434 -32.601  1.00  0.00     0.001 A 
HETATM   32  C   UNL     1     -13.173   3.060 -33.168  1.00  0.00     0.009 A 
ENDBRANCH  26  27
ENDBRANCH   3  26
TORSDOF 6
ENDMDL
MODEL 6
REMARK VINA RESULT:      -9.0      2.382      6.361
REMARK  6 active torsions:
REMARK  status: ('A' for Active; 'I' for Inactive)
REMARK    1  A    between atoms: C_6  and  C_7 
REMARK    2  A    between atoms: N_9  and  C_10 
REMARK    3  A    between atoms: C_10  and  C_11 
REMARK    4  A    between atoms: C_18  and  C_19 
REMARK       I    between atoms: C_19  and  N_20 
REMARK    5  A    between atoms: N_20  and  C_21 
REMARK    6  A    between atoms: C_24  and  O_25 
ROOT
HETATM    1  C   UNL     1      -5.997   0.909 -32.481  1.00  0.00     0.104 A 
HETATM    2  N   UNL     1      -7.323   1.025 -32.293  1.00  0.00    -0.171 NA
HETATM    3  N   UNL     1      -7.504   2.301 -31.905  1.00  0.00    -0.275 N 
HETATM    4  C   UNL     1      -6.347   3.018 -31.859  1.00  0.00     0.132 A 
HETATM    5  C   UNL     1      -5.329   2.135 -32.169  1.00  0.00     0.080 A 
ENDROOT
BRANCH   5   6
HETATM    6  C   UNL     1      -3.918   2.473 -32.151  1.00  0.00     0.255 C 
HETATM    7  N   UNL     1      -3.595   3.594 -32.885  1.00  0.00    -0.352 N 
HETATM    8  H   UNL     1      -4.332   4.042 -33.414  1.00  0.00     0.163 HD
HETATM    9  O   UNL     1      -3.086   1.790 -31.563  1.00  0.00    -0.268 OA
BRANCH   7  10
HETATM   10  C   UNL     1      -2.241   4.118 -32.977  1.00  0.00     0.084 C 
HETATM   11  C   UNL     1      -1.943   4.712 -34.360  1.00  0.00     0.028 C 
HETATM   12  C   UNL     1      -2.701   6.015 -34.616  1.00  0.00     0.034 C 
HETATM   13  C   UNL     1      -2.494   7.047 -33.508  1.00  0.00     0.118 C 
HETATM   14  C   UNL     1      -2.747   6.468 -32.117  1.00  0.00     0.034 C 
HETATM   15  C   UNL     1      -1.993   5.157 -31.873  1.00  0.00     0.028 C 
BRANCH  13  16
HETATM   16  O   UNL     1      -1.176   7.586 -33.574  1.00  0.00    -0.396 OA
HETATM   17  H   UNL     1      -0.692   7.160 -34.299  1.00  0.00     0.210 HD
ENDBRANCH  13  16
ENDBRANCH   7  10
ENDBRANCH   5   6
BRANCH   1  18
HETATM   18  C   UNL     1      -5.431  -0.361 -32.943  1.00  0.00    -0.004 A 
HETATM   19  C   UNL     1      -4.447  -1.030 -32.204  1.00  0.00     0.021 A 
HETATM   20  C   UNL     1      -3.937  -2.273 -32.621  1.00  0.00    -0.055 A 
HETATM   21  C   UNL     1      -4.388  -2.831 -33.833  1.00  0.00    -0.056 A 
HETATM   22  C   UNL     1      -2.891  -2.953 -31.780  1.00  0.00     0.049 C 
HETATM   23  C   UNL     1      -3.867  -4.150 -34.335  1.00  0.00     0.049 C 
HETATM   24  C   UNL     1      -5.362  -2.152 -34.580  1.00  0.00     0.008 A 
HETATM   25  C   UNL     1      -5.876  -0.930 -34.141  1.00  0.00     0.014 A 
ENDBRANCH   1  18
BRANCH   3  26
HETATM   26  C   UNL     1      -8.843   2.783 -31.587  1.00  0.00     0.189 C 
BRANCH  26  27
HETATM   27  C   UNL     1      -9.747   2.779 -32.798  1.00  0.00    -0.038 A 
HETATM   28  C   UNL     1      -9.716   3.843 -33.711  1.00  0.00     0.009 A 
HETATM   29  C   UNL     1     -10.539   3.831 -34.840  1.00  0.00     0.001 A 
HETATM   30  C   UNL     1     -11.397   2.758 -35.071  1.00  0.00     0.000 A 
HETATM   31  C   UNL     1     -11.430   1.691 -34.177  1.00  0.00     0.001 A 
HETATM   32  C   UNL     1     -10.606   1.697 -33.051  1.00  0.00     0.009 A 
ENDBRANCH  26  27
ENDBRANCH   3  26
TORSDOF 6
ENDMDL
MODEL 7
REMARK VINA RESULT:      -8.9      2.469      3.565
REMARK  6 active torsions:
REMARK  status: ('A' for Active; 'I' for Inactive)
REMARK    1  A    between atoms: C_6  and  C_7 
REMARK    2  A    between atoms: N_9  and  C_10 
REMARK    3  A    between atoms: C_10  and  C_11 
REMARK    4  A    between atoms: C_18  and  C_19 
REMARK       I    between atoms: C_19  and  N_20 
REMARK    5  A    between atoms: N_20  and  C_21 
REMARK    6  A    between atoms: C_24  and  O_25 
ROOT
HETATM    1  C   UNL     1      -4.044   3.012 -32.262  1.00  0.00     0.104 A 
HETATM    2  N   UNL     1      -2.823   3.340 -32.721  1.00  0.00    -0.171 NA
HETATM    3  N   UNL     1      -2.521   4.494 -32.097  1.00  0.00    -0.275 N 
HETATM    4  C   UNL     1      -3.490   4.909 -31.236  1.00  0.00     0.132 A 
HETATM    5  C   UNL     1      -4.530   4.006 -31.354  1.00  0.00     0.080 A 
ENDROOT
BRANCH   5   6
HETATM    6  C   UNL     1      -5.803   4.127 -30.667  1.00  0.00     0.255 C 
HETATM    7  N   UNL     1      -6.894   4.200 -31.505  1.00  0.00    -0.352 N 
HETATM    8  H   UNL     1      -6.724   4.227 -32.502  1.00  0.00     0.163 HD
HETATM    9  O   UNL     1      -5.885   4.198 -29.445  1.00  0.00    -0.268 OA
BRANCH   7  10
HETATM   10  C   UNL     1      -8.262   4.297 -31.018  1.00  0.00     0.084 C 
HETATM   11  C   UNL     1      -9.217   4.851 -32.084  1.00  0.00     0.028 C 
HETATM   12  C   UNL     1      -9.459   3.864 -33.227  1.00  0.00     0.034 C 
HETATM   13  C   UNL     1      -9.908   2.489 -32.735  1.00  0.00     0.118 C 
HETATM   14  C   UNL     1      -8.994   1.932 -31.644  1.00  0.00     0.034 C 
HETATM   15  C   UNL     1      -8.747   2.931 -30.509  1.00  0.00     0.028 C 
BRANCH  13  16
HETATM   16  O   UNL     1     -11.250   2.548 -32.257  1.00  0.00    -0.396 OA
HETATM   17  H   UNL     1     -11.861   2.492 -33.009  1.00  0.00     0.210 HD
ENDBRANCH  13  16
ENDBRANCH   7  10
ENDBRANCH   5   6
BRANCH   1  18
HETATM   18  C   UNL     1      -4.687   1.775 -32.711  1.00  0.00    -0.004 A 
HETATM   19  C   UNL     1      -5.775   1.801 -33.594  1.00  0.00     0.021 A 
HETATM   20  C   UNL     1      -6.364   0.614 -34.065  1.00  0.00    -0.055 A 
HETATM   21  C   UNL     1      -5.884  -0.625 -33.598  1.00  0.00    -0.056 A 
HETATM   22  C   UNL     1      -7.520   0.701 -35.023  1.00  0.00     0.049 C 
HETATM   23  C   UNL     1      -6.484  -1.926 -34.056  1.00  0.00     0.049 C 
HETATM   24  C   UNL     1      -4.805  -0.648 -32.702  1.00  0.00     0.008 A 
HETATM   25  C   UNL     1      -4.215   0.538 -32.262  1.00  0.00     0.014 A 
ENDBRANCH   1  18
BRANCH   3  26
HETATM   26  C   UNL     1      -1.256   5.162 -32.376  1.00  0.00     0.189 C 
BRANCH  26  27
HETATM   27  C   UNL     1      -0.631   5.735 -31.126  1.00  0.00    -0.038 A 
HETATM   28  C   UNL     1      -0.741   7.103 -30.839  1.00  0.00     0.009 A 
HETATM   29  C   UNL     1      -0.179   7.630 -29.673  1.00  0.00     0.001 A 
HETATM   30  C   UNL     1       0.494   6.798 -28.781  1.00  0.00     0.000 A 
HETATM   31  C   UNL     1       0.602   5.435 -29.050  1.00  0.00     0.001 A 
HETATM   32  C   UNL     1       0.038   4.905 -30.210  1.00  0.00     0.009 A 
ENDBRANCH  26  27
ENDBRANCH   3  26
TORSDOF 6
ENDMDL
MODEL 8
REMARK VINA RESULT:      -8.8      2.221      6.526
REMARK  6 active torsions:
REMARK  status: ('A' for Active; 'I' for Inactive)
REMARK    1  A    between atoms: C_6  and  C_7 
REMARK    2  A    between atoms: N_9  and  C_10 
REMARK    3  A    between atoms: C_10  and  C_11 
REMARK    4  A    between atoms: C_18  and  C_19 
REMARK       I    between atoms: C_19  and  N_20 
REMARK    5  A    between atoms: N_20  and  C_21 
REMARK    6  A    between atoms: C_24  and  O_25 
ROOT
HETATM    1  C   UNL     1      -5.306   3.175 -32.711  1.00  0.00     0.104 A 
HETATM    2  N   UNL     1      -4.939   1.991 -32.188  1.00  0.00    -0.171 NA
HETATM    3  N   UNL     1      -6.016   1.200 -32.344  1.00  0.00    -0.275 N 
HETATM    4  C   UNL     1      -7.055   1.822 -32.968  1.00  0.00     0.132 A 
HETATM    5  C   UNL     1      -6.660   3.130 -33.172  1.00  0.00     0.080 A 
ENDROOT
BRANCH   5   6
HETATM    6  C   UNL     1      -7.508   4.163 -33.738  1.00  0.00     0.255 C 
HETATM    7  N   UNL     1      -8.845   3.837 -33.782  1.00  0.00    -0.352 N 
HETATM    8  H   UNL     1      -9.116   2.908 -33.485  1.00  0.00     0.163 HD
HETATM    9  O   UNL     1      -7.056   5.217 -34.175  1.00  0.00    -0.268 OA
BRANCH   7  10
HETATM   10  C   UNL     1      -9.866   4.743 -34.287  1.00  0.00     0.084 C 
HETATM   11  C   UNL     1     -10.675   4.121 -35.434  1.00  0.00     0.028 C 
HETATM   12  C   UNL     1     -11.595   2.994 -34.960  1.00  0.00     0.034 C 
HETATM   13  C   UNL     1     -12.499   3.416 -33.802  1.00  0.00     0.118 C 
HETATM   14  C   UNL     1     -11.720   4.075 -32.664  1.00  0.00     0.034 C 
HETATM   15  C   UNL     1     -10.792   5.194 -33.149  1.00  0.00     0.028 C 
BRANCH  13  16
HETATM   16  O   UNL     1     -13.516   4.301 -34.266  1.00  0.00    -0.396 OA
HETATM   17  H   UNL     1     -13.715   4.951 -33.574  1.00  0.00     0.210 HD
ENDBRANCH  13  16
ENDBRANCH   7  10
ENDBRANCH   5   6
BRANCH   1  18
HETATM   18  C   UNL     1      -4.355   4.289 -32.741  1.00  0.00    -0.004 A 
HETATM   19  C   UNL     1      -3.307   4.325 -33.671  1.00  0.00     0.021 A 
HETATM   20  C   UNL     1      -2.422   5.416 -33.734  1.00  0.00    -0.055 A 
HETATM   21  C   UNL     1      -2.559   6.469 -32.808  1.00  0.00    -0.056 A 
HETATM   22  C   UNL     1      -1.324   5.408 -34.763  1.00  0.00     0.049 C 
HETATM   23  C   UNL     1      -1.632   7.653 -32.819  1.00  0.00     0.049 C 
HETATM   24  C   UNL     1      -3.598   6.423 -31.868  1.00  0.00     0.008 A 
HETATM   25  C   UNL     1      -4.484   5.344 -31.833  1.00  0.00     0.014 A 
ENDBRANCH   1  18
BRANCH   3  26
HETATM   26  C   UNL     1      -5.984  -0.176 -31.863  1.00  0.00     0.189 C 
BRANCH  26  27
HETATM   27  C   UNL     1      -5.803  -1.165 -32.990  1.00  0.00    -0.038 A 
HETATM   28  C   UNL     1      -4.536  -1.695 -33.274  1.00  0.00     0.009 A 
HETATM   29  C   UNL     1      -4.371  -2.624 -34.305  1.00  0.00     0.001 A 
HETATM   30  C   UNL     1      -5.468  -3.036 -35.059  1.00  0.00     0.000 A 
HETATM   31  C   UNL     1      -6.734  -2.525 -34.780  1.00  0.00     0.001 A 
HETATM   32  C   UNL     1      -6.902  -1.602 -33.748  1.00  0.00     0.009 A 
ENDBRANCH  26  27
ENDBRANCH   3  26
TORSDOF 6
ENDMDL
MODEL 9
REMARK VINA RESULT:      -8.7      2.564      6.243
REMARK  6 active torsions:
REMARK  status: ('A' for Active; 'I' for Inactive)
REMARK    1  A    between atoms: C_6  and  C_7 
REMARK    2  A    between atoms: N_9  and  C_10 
REMARK    3  A    between atoms: C_10  and  C_11 
REMARK    4  A    between atoms: C_18  and  C_19 
REMARK       I    between atoms: C_19  and  N_20 
REMARK    5  A    between atoms: N_20  and  C_21 
REMARK    6  A    between atoms: C_24  and  O_25 
ROOT
HETATM    1  C   UNL     1      -5.950   1.304 -31.804  1.00  0.00     0.104 A 
HETATM    2  N   UNL     1      -7.217   1.450 -31.378  1.00  0.00    -0.171 NA
HETATM    3  N   UNL     1      -7.252   2.675 -30.822  1.00  0.00    -0.275 N 
HETATM    4  C   UNL     1      -6.062   3.333 -30.894  1.00  0.00     0.132 A 
HETATM    5  C   UNL     1      -5.166   2.455 -31.473  1.00  0.00     0.080 A 
ENDROOT
BRANCH   5   6
HETATM    6  C   UNL     1      -3.753   2.731 -31.660  1.00  0.00     0.255 C 
HETATM    7  N   UNL     1      -3.489   3.772 -32.522  1.00  0.00    -0.352 N 
HETATM    8  H   UNL     1      -4.271   4.207 -32.993  1.00  0.00     0.163 HD
HETATM    9  O   UNL     1      -2.877   2.061 -31.123  1.00  0.00    -0.268 OA
BRANCH   7  10
HETATM   10  C   UNL     1      -2.140   4.226 -32.826  1.00  0.00     0.084 C 
HETATM   11  C   UNL     1      -2.021   4.766 -34.258  1.00  0.00     0.028 C 
HETATM   12  C   UNL     1      -2.750   6.097 -34.448  1.00  0.00     0.034 C 
HETATM   13  C   UNL     1      -2.339   7.148 -33.418  1.00  0.00     0.118 C 
HETATM   14  C   UNL     1      -2.412   6.622 -31.986  1.00  0.00     0.034 C 
HETATM   15  C   UNL     1      -1.690   5.283 -31.807  1.00  0.00     0.028 C 
BRANCH  13  16
HETATM   16  O   UNL     1      -1.022   7.620 -33.693  1.00  0.00    -0.396 OA
HETATM   17  H   UNL     1      -0.375   6.991 -33.336  1.00  0.00     0.210 HD
ENDBRANCH  13  16
ENDBRANCH   7  10
ENDBRANCH   5   6
BRANCH   1  18
HETATM   18  C   UNL     1      -5.547   0.079 -32.499  1.00  0.00    -0.004 A 
HETATM   19  C   UNL     1      -4.552  -0.759 -31.979  1.00  0.00     0.021 A 
HETATM   20  C   UNL     1      -4.198  -1.960 -32.619  1.00  0.00    -0.055 A 
HETATM   21  C   UNL     1      -4.819  -2.301 -33.836  1.00  0.00    -0.056 A 
HETATM   22  C   UNL     1      -3.132  -2.828 -32.007  1.00  0.00     0.049 C 
HETATM   23  C   UNL     1      -4.470  -3.565 -34.571  1.00  0.00     0.049 C 
HETATM   24  C   UNL     1      -5.804  -1.453 -34.363  1.00  0.00     0.008 A 
HETATM   25  C   UNL     1      -6.162  -0.276 -33.704  1.00  0.00     0.014 A 
ENDBRANCH   1  18
BRANCH   3  26
HETATM   26  C   UNL     1      -8.488   3.168 -30.225  1.00  0.00     0.189 C 
BRANCH  26  27
HETATM   27  C   UNL     1      -9.352   3.892 -31.231  1.00  0.00    -0.038 A 
HETATM   28  C   UNL     1     -10.295   3.190 -31.995  1.00  0.00     0.009 A 
HETATM   29  C   UNL     1     -11.107   3.862 -32.912  1.00  0.00     0.001 A 
HETATM   30  C   UNL     1     -10.989   5.241 -33.073  1.00  0.00     0.000 A 
HETATM   31  C   UNL     1     -10.062   5.952 -32.313  1.00  0.00     0.001 A 
HETATM   32  C   UNL     1      -9.254   5.284 -31.393  1.00  0.00     0.009 A 
ENDBRANCH  26  27
ENDBRANCH   3  26
TORSDOF 6
ENDMDL
MODEL 10
REMARK VINA RESULT:      -8.6      2.225      6.075
REMARK  6 active torsions:
REMARK  status: ('A' for Active; 'I' for Inactive)
REMARK    1  A    between atoms: C_6  and  C_7 
REMARK    2  A    between atoms: N_9  and  C_10 
REMARK    3  A    between atoms: C_10  and  C_11 
REMARK    4  A    between atoms: C_18  and  C_19 
REMARK       I    between atoms: C_19  and  N_20 
REMARK    5  A    between atoms: N_20  and  C_21 
REMARK    6  A    between atoms: C_24  and  O_25 
ROOT
HETATM    1  C   UNL     1      -7.737   0.002 -33.136  1.00  0.00     0.104 A 
HETATM    2  N   UNL     1      -8.923   0.027 -33.768  1.00  0.00    -0.171 NA
HETATM    3  N   UNL     1      -9.559   1.098 -33.260  1.00  0.00    -0.275 N 
HETATM    4  C   UNL     1      -8.819   1.777 -32.341  1.00  0.00     0.132 A 
HETATM    5  C   UNL     1      -7.645   1.065 -32.183  1.00  0.00     0.080 A 
ENDROOT
BRANCH   5   6
HETATM    6  C   UNL     1      -6.605   1.401 -31.228  1.00  0.00     0.255 C 
HETATM    7  N   UNL     1      -5.806   2.456 -31.609  1.00  0.00    -0.352 N 
HETATM    8  H   UNL     1      -5.960   2.860 -32.524  1.00  0.00     0.163 HD
HETATM    9  O   UNL     1      -6.435   0.766 -30.192  1.00  0.00    -0.268 OA
BRANCH   7  10
HETATM   10  C   UNL     1      -4.722   2.969 -30.784  1.00  0.00     0.084 C 
HETATM   11  C   UNL     1      -3.343   2.622 -31.360  1.00  0.00     0.028 C 
HETATM   12  C   UNL     1      -3.029   3.396 -32.641  1.00  0.00     0.034 C 
HETATM   13  C   UNL     1      -3.203   4.905 -32.477  1.00  0.00     0.118 C 
HETATM   14  C   UNL     1      -4.555   5.274 -31.869  1.00  0.00     0.034 C 
HETATM   15  C   UNL     1      -4.867   4.485 -30.592  1.00  0.00     0.028 C 
BRANCH  13  16
HETATM   16  O   UNL     1      -2.152   5.441 -31.678  1.00  0.00    -0.396 OA
HETATM   17  H   UNL     1      -1.399   5.667 -32.247  1.00  0.00     0.210 HD
ENDBRANCH  13  16
ENDBRANCH   7  10
ENDBRANCH   5   6
BRANCH   1  18
HETATM   18  C   UNL     1      -6.753  -1.032 -33.467  1.00  0.00    -0.004 A 
HETATM   19  C   UNL     1      -7.123  -2.194 -34.158  1.00  0.00     0.021 A 
HETATM   20  C   UNL     1      -6.172  -3.165 -34.519  1.00  0.00    -0.055 A 
HETATM   21  C   UNL     1      -4.829  -2.992 -34.132  1.00  0.00    -0.056 A 
HETATM   22  C   UNL     1      -6.624  -4.385 -35.274  1.00  0.00     0.049 C 
HETATM   23  C   UNL     1      -3.773  -4.005 -34.477  1.00  0.00     0.049 C 
HETATM   24  C   UNL     1      -4.464  -1.837 -33.426  1.00  0.00     0.008 A 
HETATM   25  C   UNL     1      -5.415  -0.869 -33.095  1.00  0.00     0.014 A 
ENDBRANCH   1  18
BRANCH   3  26
HETATM   26  C   UNL     1     -10.908   1.424 -33.708  1.00  0.00     0.189 C 
BRANCH  26  27
HETATM   27  C   UNL     1     -11.104   2.913 -33.873  1.00  0.00    -0.038 A 
HETATM   28  C   UNL     1     -10.523   3.592 -34.954  1.00  0.00     0.009 A 
HETATM   29  C   UNL     1     -10.719   4.966 -35.116  1.00  0.00     0.001 A 
HETATM   30  C   UNL     1     -11.499   5.675 -34.206  1.00  0.00     0.000 A 
HETATM   31  C   UNL     1     -12.091   5.011 -33.133  1.00  0.00     0.001 A 
HETATM   32  C   UNL     1     -11.901   3.638 -32.971  1.00  0.00     0.009 A 
ENDBRANCH  26  27
ENDBRANCH   3  26
TORSDOF 6
ENDMDL
