MODEL 1
REMARK VINA RESULT:      -8.3      0.000      0.000
REMARK  4 active torsions:
REMARK  status: ('A' for Active; 'I' for Inactive)
REMARK    1  A    between atoms: C_6  and  C_7 
REMARK    2  A    between atoms: C_7  and  N_8 
REMARK    3  A    between atoms: C_12  and  C_13 
REMARK    4  A    between atoms: C_15  and  C_16 
ROOT
HETATM    1  N   UNL     1      -8.730   0.772 -33.318  1.00  0.00    -0.067 N 
HETATM    2  H   UNL     1      -8.830   1.792 -33.257  1.00  0.00     0.280 HD
HETATM    3  C   UNL     1      -7.748   0.344 -32.251  1.00  0.00     0.236 C 
HETATM    4  C   UNL     1      -6.370   0.932 -32.534  1.00  0.00     0.040 C 
HETATM    5  C   UNL     1      -5.849   0.598 -33.934  1.00  0.00     0.058 C 
HETATM    6  C   UNL     1      -6.890   0.996 -34.986  1.00  0.00     0.040 C 
HETATM    7  C   UNL     1      -8.271   0.415 -34.710  1.00  0.00     0.236 C 
ENDROOT
BRANCH   5   8
HETATM    8  C   UNL     1      -5.500  -0.856 -34.039  1.00  0.00     0.108 A 
HETATM    9  N   UNL     1      -6.276  -1.795 -34.536  1.00  0.00    -0.229 NA
HETATM   10  C   UNL     1      -5.578  -2.992 -34.411  1.00  0.00     0.157 A 
HETATM   11  C   UNL     1      -4.349  -2.734 -33.829  1.00  0.00     0.126 A 
HETATM   12  N   UNL     1      -4.311  -1.385 -33.602  1.00  0.00    -0.352 N 
HETATM   13  H   UNL     1      -3.544  -0.877 -33.179  1.00  0.00     0.166 HD
BRANCH  10  14
HETATM   14  C   UNL     1      -6.145  -4.315 -34.856  1.00  0.00     0.436 C 
HETATM   15  F   UNL     1      -7.378  -4.544 -34.328  1.00  0.00    -0.165 F 
HETATM   16  F   UNL     1      -6.276  -4.379 -36.206  1.00  0.00    -0.165 F 
HETATM   17  F   UNL     1      -5.356  -5.353 -34.479  1.00  0.00    -0.165 F 
ENDBRANCH  10  14
ENDBRANCH   5   8
BRANCH   1  18
HETATM   18  C   UNL     1     -10.116   0.200 -33.069  1.00  0.00     0.275 C 
BRANCH  18  19
HETATM   19  C   UNL     1     -11.210   1.096 -33.516  1.00  0.00    -0.001 A 
HETATM   20  C   UNL     1     -12.537   0.753 -33.723  1.00  0.00     0.057 A 
HETATM   21  O   UNL     1     -13.252   1.843 -34.105  1.00  0.00    -0.320 OA
HETATM   22  C   UNL     1     -13.296  -0.514 -33.612  1.00  0.00     0.077 C 
HETATM   23  C   UNL     1     -12.394   2.893 -34.175  1.00  0.00     0.050 A 
HETATM   24  C   UNL     1     -12.970   4.188 -34.594  1.00  0.00     0.076 C 
HETATM   25  C   UNL     1     -11.124   2.486 -33.826  1.00  0.00     0.043 A 
ENDBRANCH  18  19
ENDBRANCH   1  18
TORSDOF 4
ENDMDL
MODEL 2
REMARK VINA RESULT:      -8.1      3.897      7.426
REMARK  4 active torsions:
REMARK  status: ('A' for Active; 'I' for Inactive)
REMARK    1  A    between atoms: C_6  and  C_7 
REMARK    2  A    between atoms: C_7  and  N_8 
REMARK    3  A    between atoms: C_12  and  C_13 
REMARK    4  A    between atoms: C_15  and  C_16 
ROOT
HETATM    1  N   UNL     1      -6.720  -0.041 -34.099  1.00  0.00    -0.067 N 
HETATM    2  H   UNL     1      -5.845   0.180 -33.612  1.00  0.00     0.280 HD
HETATM    3  C   UNL     1      -7.124   1.181 -34.893  1.00  0.00     0.236 C 
HETATM    4  C   UNL     1      -7.432   2.344 -33.955  1.00  0.00     0.040 C 
HETATM    5  C   UNL     1      -8.482   1.998 -32.895  1.00  0.00     0.058 C 
HETATM    6  C   UNL     1      -8.068   0.727 -32.146  1.00  0.00     0.040 C 
HETATM    7  C   UNL     1      -7.755  -0.439 -33.075  1.00  0.00     0.236 C 
ENDROOT
BRANCH   5   8
HETATM    8  C   UNL     1      -9.837   1.845 -33.517  1.00  0.00     0.108 A 
HETATM    9  N   UNL     1     -10.815   1.103 -33.045  1.00  0.00    -0.229 NA
HETATM   10  C   UNL     1     -11.872   1.224 -33.943  1.00  0.00     0.157 A 
HETATM   11  C   UNL     1     -11.493   2.075 -34.966  1.00  0.00     0.126 A 
HETATM   12  N   UNL     1     -10.211   2.461 -34.685  1.00  0.00    -0.352 N 
HETATM   13  H   UNL     1      -9.642   3.083 -35.247  1.00  0.00     0.166 HD
BRANCH  10  14
HETATM   14  C   UNL     1     -13.182   0.503 -33.759  1.00  0.00     0.436 C 
HETATM   15  F   UNL     1     -13.003  -0.784 -33.357  1.00  0.00    -0.165 F 
HETATM   16  F   UNL     1     -13.962   1.105 -32.825  1.00  0.00    -0.165 F 
HETATM   17  F   UNL     1     -13.897   0.460 -34.912  1.00  0.00    -0.165 F 
ENDBRANCH  10  14
ENDBRANCH   5   8
BRANCH   1  18
HETATM   18  C   UNL     1      -6.409  -1.222 -35.004  1.00  0.00     0.275 C 
BRANCH  18  19
HETATM   19  C   UNL     1      -5.527  -2.231 -34.369  1.00  0.00    -0.001 A 
HETATM   20  C   UNL     1      -5.501  -3.593 -34.624  1.00  0.00     0.057 A 
HETATM   21  O   UNL     1      -4.545  -4.196 -33.871  1.00  0.00    -0.320 OA
HETATM   22  C   UNL     1      -6.275  -4.483 -35.520  1.00  0.00     0.077 C 
HETATM   23  C   UNL     1      -3.963  -3.239 -33.103  1.00  0.00     0.050 A 
HETATM   24  C   UNL     1      -2.895  -3.688 -32.186  1.00  0.00     0.076 C 
HETATM   25  C   UNL     1      -4.534  -2.013 -33.368  1.00  0.00     0.043 A 
ENDBRANCH  18  19
ENDBRANCH   1  18
TORSDOF 4
ENDMDL
MODEL 3
REMARK VINA RESULT:      -8.1      3.427      6.503
REMARK  4 active torsions:
REMARK  status: ('A' for Active; 'I' for Inactive)
REMARK    1  A    between atoms: C_6  and  C_7 
REMARK    2  A    between atoms: C_7  and  N_8 
REMARK    3  A    between atoms: C_12  and  C_13 
REMARK    4  A    between atoms: C_15  and  C_16 
ROOT
HETATM    1  N   UNL     1      -4.504   0.242 -31.972  1.00  0.00    -0.067 N 
HETATM    2  H   UNL     1      -3.754   0.138 -31.279  1.00  0.00     0.280 HD
HETATM    3  C   UNL     1      -4.756   1.721 -32.155  1.00  0.00     0.236 C 
HETATM    4  C   UNL     1      -5.277   2.335 -30.859  1.00  0.00     0.040 C 
HETATM    5  C   UNL     1      -6.517   1.623 -30.312  1.00  0.00     0.058 C 
HETATM    6  C   UNL     1      -6.244   0.120 -30.189  1.00  0.00     0.040 C 
HETATM    7  C   UNL     1      -5.721  -0.501 -31.479  1.00  0.00     0.236 C 
ENDROOT
BRANCH   5   8
HETATM    8  C   UNL     1      -7.709   1.888 -31.182  1.00  0.00     0.108 A 
HETATM    9  N   UNL     1      -8.485   0.970 -31.716  1.00  0.00    -0.229 NA
HETATM   10  C   UNL     1      -9.441   1.648 -32.467  1.00  0.00     0.157 A 
HETATM   11  C   UNL     1      -9.215   3.009 -32.354  1.00  0.00     0.126 A 
HETATM   12  N   UNL     1      -8.123   3.147 -31.540  1.00  0.00    -0.352 N 
HETATM   13  H   UNL     1      -7.697   4.023 -31.264  1.00  0.00     0.166 HD
BRANCH  10  14
HETATM   14  C   UNL     1     -10.512   0.938 -33.253  1.00  0.00     0.436 C 
HETATM   15  F   UNL     1     -10.698  -0.339 -32.822  1.00  0.00    -0.165 F 
HETATM   16  F   UNL     1     -11.711   1.567 -33.155  1.00  0.00    -0.165 F 
HETATM   17  F   UNL     1     -10.203   0.867 -34.573  1.00  0.00    -0.165 F 
ENDBRANCH  10  14
ENDBRANCH   5   8
BRANCH   1  18
HETATM   18  C   UNL     1      -3.987  -0.403 -33.247  1.00  0.00     0.275 C 
BRANCH  18  19
HETATM   19  C   UNL     1      -4.985  -1.280 -33.907  1.00  0.00    -0.001 A 
HETATM   20  C   UNL     1      -6.135  -0.881 -34.570  1.00  0.00     0.057 A 
HETATM   21  O   UNL     1      -6.789  -1.962 -35.070  1.00  0.00    -0.320 OA
HETATM   22  C   UNL     1      -6.762   0.434 -34.833  1.00  0.00     0.077 C 
HETATM   23  C   UNL     1      -6.087  -3.068 -34.713  1.00  0.00     0.050 A 
HETATM   24  C   UNL     1      -6.641  -4.369 -35.146  1.00  0.00     0.076 C 
HETATM   25  C   UNL     1      -4.970  -2.704 -33.993  1.00  0.00     0.043 A 
ENDBRANCH  18  19
ENDBRANCH   1  18
TORSDOF 4
ENDMDL
MODEL 4
REMARK VINA RESULT:      -7.9      4.697      7.157
REMARK  4 active torsions:
REMARK  status: ('A' for Active; 'I' for Inactive)
REMARK    1  A    between atoms: C_6  and  C_7 
REMARK    2  A    between atoms: C_7  and  N_8 
REMARK    3  A    between atoms: C_12  and  C_13 
REMARK    4  A    between atoms: C_15  and  C_16 
ROOT
HETATM    1  N   UNL     1      -4.305   2.647 -31.852  1.00  0.00    -0.067 N 
HETATM    2  H   UNL     1      -4.015   3.034 -30.947  1.00  0.00     0.280 HD
HETATM    3  C   UNL     1      -5.802   2.440 -31.804  1.00  0.00     0.236 C 
HETATM    4  C   UNL     1      -6.159   1.395 -30.752  1.00  0.00     0.040 C 
HETATM    5  C   UNL     1      -5.421   0.067 -30.949  1.00  0.00     0.058 C 
HETATM    6  C   UNL     1      -3.912   0.319 -31.046  1.00  0.00     0.040 C 
HETATM    7  C   UNL     1      -3.546   1.364 -32.093  1.00  0.00     0.236 C 
ENDROOT
BRANCH   5   8
HETATM    8  C   UNL     1      -5.930  -0.651 -32.162  1.00  0.00     0.108 A 
HETATM    9  N   UNL     1      -5.345  -1.673 -32.747  1.00  0.00    -0.229 NA
HETATM   10  C   UNL     1      -6.133  -2.004 -33.845  1.00  0.00     0.157 A 
HETATM   11  C   UNL     1      -7.219  -1.148 -33.890  1.00  0.00     0.126 A 
HETATM   12  N   UNL     1      -7.081  -0.302 -32.824  1.00  0.00    -0.352 N 
HETATM   13  H   UNL     1      -7.713   0.450 -32.578  1.00  0.00     0.166 HD
BRANCH  10  14
HETATM   14  C   UNL     1      -5.784  -3.127 -34.788  1.00  0.00     0.436 C 
HETATM   15  F   UNL     1      -6.868  -3.892 -35.092  1.00  0.00    -0.165 F 
HETATM   16  F   UNL     1      -5.286  -2.663 -35.962  1.00  0.00    -0.165 F 
HETATM   17  F   UNL     1      -4.852  -3.958 -34.256  1.00  0.00    -0.165 F 
ENDBRANCH  10  14
ENDBRANCH   5   8
BRANCH   1  18
HETATM   18  C   UNL     1      -3.912   3.681 -32.894  1.00  0.00     0.275 C 
BRANCH  18  19
HETATM   19  C   UNL     1      -2.635   4.368 -32.588  1.00  0.00    -0.001 A 
HETATM   20  C   UNL     1      -1.762   4.949 -33.494  1.00  0.00     0.057 A 
HETATM   21  O   UNL     1      -0.708   5.506 -32.843  1.00  0.00    -0.320 OA
HETATM   22  C   UNL     1      -1.754   5.078 -34.969  1.00  0.00     0.077 C 
HETATM   23  C   UNL     1      -0.873   5.270 -31.517  1.00  0.00     0.050 A 
HETATM   24  C   UNL     1       0.183   5.783 -30.619  1.00  0.00     0.076 C 
HETATM   25  C   UNL     1      -2.041   4.570 -31.306  1.00  0.00     0.043 A 
ENDBRANCH  18  19
ENDBRANCH   1  18
TORSDOF 4
ENDMDL
MODEL 5
REMARK VINA RESULT:      -7.7      4.548      7.886
REMARK  4 active torsions:
REMARK  status: ('A' for Active; 'I' for Inactive)
REMARK    1  A    between atoms: C_6  and  C_7 
REMARK    2  A    between atoms: C_7  and  N_8 
REMARK    3  A    between atoms: C_12  and  C_13 
REMARK    4  A    between atoms: C_15  and  C_16 
ROOT
HETATM    1  N   UNL     1      -7.198   0.294 -33.659  1.00  0.00    -0.067 N 
HETATM    2  H   UNL     1      -6.467   0.209 -32.944  1.00  0.00     0.280 HD
HETATM    3  C   UNL     1      -7.385   1.767 -33.948  1.00  0.00     0.236 C 
HETATM    4  C   UNL     1      -7.906   2.487 -32.709  1.00  0.00     0.040 C 
HETATM    5  C   UNL     1      -9.187   1.864 -32.144  1.00  0.00     0.058 C 
HETATM    6  C   UNL     1      -8.978   0.364 -31.914  1.00  0.00     0.040 C 
HETATM    7  C   UNL     1      -8.455  -0.364 -33.145  1.00  0.00     0.236 C 
ENDROOT
BRANCH   5   8
HETATM    8  C   UNL     1     -10.348   2.116 -33.057  1.00  0.00     0.108 A 
HETATM    9  N   UNL     1     -10.419   3.072 -33.959  1.00  0.00    -0.229 NA
HETATM   10  C   UNL     1     -11.673   2.963 -34.552  1.00  0.00     0.157 A 
HETATM   11  C   UNL     1     -12.348   1.899 -33.980  1.00  0.00     0.126 A 
HETATM   12  N   UNL     1     -11.502   1.373 -33.041  1.00  0.00    -0.352 N 
HETATM   13  H   UNL     1     -11.702   0.583 -32.440  1.00  0.00     0.166 HD
BRANCH  10  14
HETATM   14  C   UNL     1     -12.145   3.899 -35.635  1.00  0.00     0.436 C 
HETATM   15  F   UNL     1     -11.214   4.848 -35.928  1.00  0.00    -0.165 F 
HETATM   16  F   UNL     1     -12.414   3.239 -36.790  1.00  0.00    -0.165 F 
HETATM   17  F   UNL     1     -13.276   4.556 -35.273  1.00  0.00    -0.165 F 
ENDBRANCH  10  14
ENDBRANCH   5   8
BRANCH   1  18
HETATM   18  C   UNL     1      -6.682  -0.457 -34.876  1.00  0.00     0.275 C 
BRANCH  18  19
HETATM   19  C   UNL     1      -5.837  -1.625 -34.530  1.00  0.00    -0.001 A 
HETATM   20  C   UNL     1      -4.666  -1.617 -33.790  1.00  0.00     0.057 A 
HETATM   21  O   UNL     1      -4.183  -2.880 -33.656  1.00  0.00    -0.320 OA
HETATM   22  C   UNL     1      -3.871  -0.549 -33.142  1.00  0.00     0.077 C 
HETATM   23  C   UNL     1      -5.020  -3.712 -34.328  1.00  0.00     0.050 A 
HETATM   24  C   UNL     1      -4.665  -5.147 -34.324  1.00  0.00     0.076 C 
HETATM   25  C   UNL     1      -6.052  -2.990 -34.887  1.00  0.00     0.043 A 
ENDBRANCH  18  19
ENDBRANCH   1  18
TORSDOF 4
ENDMDL
MODEL 6
REMARK VINA RESULT:      -7.6      5.297      7.940
REMARK  4 active torsions:
REMARK  status: ('A' for Active; 'I' for Inactive)
REMARK    1  A    between atoms: C_6  and  C_7 
REMARK    2  A    between atoms: C_7  and  N_8 
REMARK    3  A    between atoms: C_12  and  C_13 
REMARK    4  A    between atoms: C_15  and  C_16 
ROOT
HETATM    1  N   UNL     1      -4.053   2.745 -31.687  1.00  0.00    -0.067 N 
HETATM    2  H   UNL     1      -3.366   2.836 -30.930  1.00  0.00     0.280 HD
HETATM    3  C   UNL     1      -5.428   2.892 -31.078  1.00  0.00     0.236 C 
HETATM    4  C   UNL     1      -5.702   1.750 -30.105  1.00  0.00     0.040 C 
HETATM    5  C   UNL     1      -5.519   0.366 -30.735  1.00  0.00     0.058 C 
HETATM    6  C   UNL     1      -4.136   0.270 -31.389  1.00  0.00     0.040 C 
HETATM    7  C   UNL     1      -3.853   1.409 -32.360  1.00  0.00     0.236 C 
ENDROOT
BRANCH   5   8
HETATM    8  C   UNL     1      -6.608   0.084 -31.726  1.00  0.00     0.108 A 
HETATM    9  N   UNL     1      -7.804   0.632 -31.724  1.00  0.00    -0.229 NA
HETATM   10  C   UNL     1      -8.499   0.067 -32.789  1.00  0.00     0.157 A 
HETATM   11  C   UNL     1      -7.671  -0.833 -33.436  1.00  0.00     0.126 A 
HETATM   12  N   UNL     1      -6.482  -0.811 -32.758  1.00  0.00    -0.352 N 
HETATM   13  H   UNL     1      -5.665  -1.366 -32.979  1.00  0.00     0.166 HD
BRANCH  10  14
HETATM   14  C   UNL     1      -9.925   0.429 -33.113  1.00  0.00     0.436 C 
HETATM   15  F   UNL     1     -10.791  -0.566 -32.778  1.00  0.00    -0.165 F 
HETATM   16  F   UNL     1     -10.326   1.543 -32.448  1.00  0.00    -0.165 F 
HETATM   17  F   UNL     1     -10.094   0.670 -34.438  1.00  0.00    -0.165 F 
ENDBRANCH  10  14
ENDBRANCH   5   8
BRANCH   1  18
HETATM   18  C   UNL     1      -3.748   3.866 -32.667  1.00  0.00     0.275 C 
BRANCH  18  19
HETATM   19  C   UNL     1      -2.423   4.496 -32.445  1.00  0.00    -0.001 A 
HETATM   20  C   UNL     1      -1.601   5.068 -33.403  1.00  0.00     0.057 A 
HETATM   21  O   UNL     1      -0.478   5.566 -32.824  1.00  0.00    -0.320 OA
HETATM   22  C   UNL     1      -1.703   5.237 -34.871  1.00  0.00     0.077 C 
HETATM   23  C   UNL     1      -0.549   5.300 -31.495  1.00  0.00     0.050 A 
HETATM   24  C   UNL     1       0.594   5.747 -30.671  1.00  0.00     0.076 C 
HETATM   25  C   UNL     1      -1.724   4.639 -31.210  1.00  0.00     0.043 A 
ENDBRANCH  18  19
ENDBRANCH   1  18
TORSDOF 4
ENDMDL
MODEL 7
REMARK VINA RESULT:      -7.6      1.405      2.196
REMARK  4 active torsions:
REMARK  status: ('A' for Active; 'I' for Inactive)
REMARK    1  A    between atoms: C_6  and  C_7 
REMARK    2  A    between atoms: C_7  and  N_8 
REMARK    3  A    between atoms: C_12  and  C_13 
REMARK    4  A    between atoms: C_15  and  C_16 
ROOT
HETATM    1  N   UNL     1      -7.416   0.708 -31.966  1.00  0.00    -0.067 N 
HETATM    2  H   UNL     1      -7.320   1.705 -31.745  1.00  0.00     0.280 HD
HETATM    3  C   UNL     1      -6.441  -0.051 -31.094  1.00  0.00     0.236 C 
HETATM    4  C   UNL     1      -5.007   0.335 -31.443  1.00  0.00     0.040 C 
HETATM    5  C   UNL     1      -4.680   0.155 -32.928  1.00  0.00     0.058 C 
HETATM    6  C   UNL     1      -5.716   0.892 -33.783  1.00  0.00     0.040 C 
HETATM    7  C   UNL     1      -7.152   0.515 -33.440  1.00  0.00     0.236 C 
ENDROOT
BRANCH   5   8
HETATM    8  C   UNL     1      -4.616  -1.299 -33.287  1.00  0.00     0.108 A 
HETATM    9  N   UNL     1      -5.451  -1.927 -34.085  1.00  0.00    -0.229 NA
HETATM   10  C   UNL     1      -5.046  -3.258 -34.113  1.00  0.00     0.157 A 
HETATM   11  C   UNL     1      -3.929  -3.402 -33.309  1.00  0.00     0.126 A 
HETATM   12  N   UNL     1      -3.667  -2.161 -32.796  1.00  0.00    -0.352 N 
HETATM   13  H   UNL     1      -2.912  -1.929 -32.162  1.00  0.00     0.166 HD
BRANCH  10  14
HETATM   14  C   UNL     1      -5.768  -4.311 -34.912  1.00  0.00     0.436 C 
HETATM   15  F   UNL     1      -5.086  -5.489 -34.937  1.00  0.00    -0.165 F 
HETATM   16  F   UNL     1      -6.997  -4.578 -34.402  1.00  0.00    -0.165 F 
HETATM   17  F   UNL     1      -5.943  -3.930 -36.204  1.00  0.00    -0.165 F 
ENDBRANCH  10  14
ENDBRANCH   5   8
BRANCH   1  18
HETATM   18  C   UNL     1      -8.857   0.344 -31.649  1.00  0.00     0.275 C 
BRANCH  18  19
HETATM   19  C   UNL     1      -9.843   1.049 -32.503  1.00  0.00    -0.001 A 
HETATM   20  C   UNL     1     -10.078   2.414 -32.552  1.00  0.00     0.057 A 
HETATM   21  O   UNL     1     -11.037   2.694 -33.472  1.00  0.00    -0.320 OA
HETATM   22  C   UNL     1      -9.512   3.577 -31.832  1.00  0.00     0.077 C 
HETATM   23  C   UNL     1     -11.450   1.517 -34.007  1.00  0.00     0.050 A 
HETATM   24  C   UNL     1     -12.514   1.594 -35.030  1.00  0.00     0.076 C 
HETATM   25  C   UNL     1     -10.749   0.473 -33.442  1.00  0.00     0.043 A 
ENDBRANCH  18  19
ENDBRANCH   1  18
TORSDOF 4
ENDMDL
MODEL 8
REMARK VINA RESULT:      -7.6      5.502      7.896
REMARK  4 active torsions:
REMARK  status: ('A' for Active; 'I' for Inactive)
REMARK    1  A    between atoms: C_6  and  C_7 
REMARK    2  A    between atoms: C_7  and  N_8 
REMARK    3  A    between atoms: C_12  and  C_13 
REMARK    4  A    between atoms: C_15  and  C_16 
ROOT
HETATM    1  N   UNL     1      -3.692   3.857 -32.224  1.00  0.00    -0.067 N 
HETATM    2  H   UNL     1      -3.934   4.728 -31.738  1.00  0.00     0.280 HD
HETATM    3  C   UNL     1      -4.779   3.581 -33.238  1.00  0.00     0.236 C 
HETATM    4  C   UNL     1      -6.108   3.327 -32.533  1.00  0.00     0.040 C 
HETATM    5  C   UNL     1      -6.030   2.214 -31.484  1.00  0.00     0.058 C 
HETATM    6  C   UNL     1      -4.885   2.498 -30.507  1.00  0.00     0.040 C 
HETATM    7  C   UNL     1      -3.554   2.756 -31.201  1.00  0.00     0.236 C 
ENDROOT
BRANCH   5   8
HETATM    8  C   UNL     1      -5.863   0.876 -32.140  1.00  0.00     0.108 A 
HETATM    9  N   UNL     1      -6.559   0.435 -33.165  1.00  0.00    -0.229 NA
HETATM   10  C   UNL     1      -6.104  -0.854 -33.427  1.00  0.00     0.157 A 
HETATM   11  C   UNL     1      -5.101  -1.165 -32.526  1.00  0.00     0.126 A 
HETATM   12  N   UNL     1      -4.957  -0.067 -31.723  1.00  0.00    -0.352 N 
HETATM   13  H   UNL     1      -4.304   0.023 -30.954  1.00  0.00     0.166 HD
BRANCH  10  14
HETATM   14  C   UNL     1      -6.672  -1.709 -34.530  1.00  0.00     0.436 C 
HETATM   15  F   UNL     1      -7.490  -0.999 -35.354  1.00  0.00    -0.165 F 
HETATM   16  F   UNL     1      -5.696  -2.243 -35.307  1.00  0.00    -0.165 F 
HETATM   17  F   UNL     1      -7.405  -2.740 -34.040  1.00  0.00    -0.165 F 
ENDBRANCH  10  14
ENDBRANCH   5   8
BRANCH   1  18
HETATM   18  C   UNL     1      -2.351   4.111 -32.893  1.00  0.00     0.275 C 
BRANCH  18  19
HETATM   19  C   UNL     1      -1.583   5.216 -32.268  1.00  0.00    -0.001 A 
HETATM   20  C   UNL     1      -1.415   6.499 -32.764  1.00  0.00     0.057 A 
HETATM   21  O   UNL     1      -0.670   7.242 -31.905  1.00  0.00    -0.320 OA
HETATM   22  C   UNL     1      -1.870   7.190 -33.992  1.00  0.00     0.077 C 
HETATM   23  C   UNL     1      -0.327   6.444 -30.862  1.00  0.00     0.050 A 
HETATM   24  C   UNL     1       0.508   7.058 -29.808  1.00  0.00     0.076 C 
HETATM   25  C   UNL     1      -0.860   5.186 -31.038  1.00  0.00     0.043 A 
ENDBRANCH  18  19
ENDBRANCH   1  18
TORSDOF 4
ENDMDL
MODEL 9
REMARK VINA RESULT:      -7.5      3.915      5.613
REMARK  4 active torsions:
REMARK  status: ('A' for Active; 'I' for Inactive)
REMARK    1  A    between atoms: C_6  and  C_7 
REMARK    2  A    between atoms: C_7  and  N_8 
REMARK    3  A    between atoms: C_12  and  C_13 
REMARK    4  A    between atoms: C_15  and  C_16 
ROOT
HETATM    1  N   UNL     1      -7.607   2.072 -33.379  1.00  0.00    -0.067 N 
HETATM    2  H   UNL     1      -8.520   2.360 -33.750  1.00  0.00     0.280 HD
HETATM    3  C   UNL     1      -6.717   1.748 -34.557  1.00  0.00     0.236 C 
HETATM    4  C   UNL     1      -7.270   0.551 -35.325  1.00  0.00     0.040 C 
HETATM    5  C   UNL     1      -7.492  -0.679 -34.442  1.00  0.00     0.058 C 
HETATM    6  C   UNL     1      -8.353  -0.303 -33.231  1.00  0.00     0.040 C 
HETATM    7  C   UNL     1      -7.811   0.893 -32.459  1.00  0.00     0.236 C 
ENDROOT
BRANCH   5   8
HETATM    8  C   UNL     1      -6.184  -1.271 -34.013  1.00  0.00     0.108 A 
HETATM    9  N   UNL     1      -5.490  -0.909 -32.956  1.00  0.00    -0.229 NA
HETATM   10  C   UNL     1      -4.337  -1.688 -32.954  1.00  0.00     0.157 A 
HETATM   11  C   UNL     1      -4.370  -2.538 -34.044  1.00  0.00     0.126 A 
HETATM   12  N   UNL     1      -5.539  -2.268 -34.702  1.00  0.00    -0.352 N 
HETATM   13  H   UNL     1      -5.859  -2.719 -35.550  1.00  0.00     0.166 HD
BRANCH  10  14
HETATM   14  C   UNL     1      -3.269  -1.557 -31.898  1.00  0.00     0.436 C 
HETATM   15  F   UNL     1      -2.172  -0.899 -32.362  1.00  0.00    -0.165 F 
HETATM   16  F   UNL     1      -3.713  -0.871 -30.814  1.00  0.00    -0.165 F 
HETATM   17  F   UNL     1      -2.845  -2.770 -31.460  1.00  0.00    -0.165 F 
ENDBRANCH  10  14
ENDBRANCH   5   8
BRANCH   1  18
HETATM   18  C   UNL     1      -7.084   3.260 -32.588  1.00  0.00     0.275 C 
BRANCH  18  19
HETATM   19  C   UNL     1      -5.731   3.697 -33.011  1.00  0.00    -0.001 A 
HETATM   20  C   UNL     1      -4.517   3.244 -32.518  1.00  0.00     0.057 A 
HETATM   21  O   UNL     1      -3.490   3.854 -33.164  1.00  0.00    -0.320 OA
HETATM   22  C   UNL     1      -4.136   2.267 -31.474  1.00  0.00     0.077 C 
HETATM   23  C   UNL     1      -4.025   4.724 -34.059  1.00  0.00     0.050 A 
HETATM   24  C   UNL     1      -3.070   5.513 -34.865  1.00  0.00     0.076 C 
HETATM   25  C   UNL     1      -5.401   4.669 -34.002  1.00  0.00     0.043 A 
ENDBRANCH  18  19
ENDBRANCH   1  18
TORSDOF 4
ENDMDL
MODEL 10
REMARK VINA RESULT:      -7.4      7.353      9.350
REMARK  4 active torsions:
REMARK  status: ('A' for Active; 'I' for Inactive)
REMARK    1  A    between atoms: C_6  and  C_7 
REMARK    2  A    between atoms: C_7  and  N_8 
REMARK    3  A    between atoms: C_12  and  C_13 
REMARK    4  A    between atoms: C_15  and  C_16 
ROOT
HETATM    1  N   UNL     1      -4.088   2.724 -31.949  1.00  0.00    -0.067 N 
HETATM    2  H   UNL     1      -4.854   2.549 -32.608  1.00  0.00     0.280 HD
HETATM    3  C   UNL     1      -4.656   3.502 -30.783  1.00  0.00     0.236 C 
HETATM    4  C   UNL     1      -5.147   4.869 -31.248  1.00  0.00     0.040 C 
HETATM    5  C   UNL     1      -4.073   5.676 -31.985  1.00  0.00     0.058 C 
HETATM    6  C   UNL     1      -3.483   4.839 -33.125  1.00  0.00     0.040 C 
HETATM    7  C   UNL     1      -2.992   3.470 -32.670  1.00  0.00     0.236 C 
ENDROOT
BRANCH   5   8
HETATM    8  C   UNL     1      -3.005   6.130 -31.037  1.00  0.00     0.108 A 
HETATM    9  N   UNL     1      -1.717   6.175 -31.300  1.00  0.00    -0.229 NA
HETATM   10  C   UNL     1      -1.092   6.623 -30.141  1.00  0.00     0.157 A 
HETATM   11  C   UNL     1      -2.055   6.855 -29.175  1.00  0.00     0.126 A 
HETATM   12  N   UNL     1      -3.256   6.543 -29.752  1.00  0.00    -0.352 N 
HETATM   13  H   UNL     1      -4.161   6.600 -29.303  1.00  0.00     0.166 HD
BRANCH  10  14
HETATM   14  C   UNL     1       0.402   6.794 -30.036  1.00  0.00     0.436 C 
HETATM   15  F   UNL     1       0.976   7.008 -31.251  1.00  0.00    -0.165 F 
HETATM   16  F   UNL     1       0.735   7.849 -29.250  1.00  0.00    -0.165 F 
HETATM   17  F   UNL     1       0.997   5.694 -29.507  1.00  0.00    -0.165 F 
ENDBRANCH  10  14
ENDBRANCH   5   8
BRANCH   1  18
HETATM   18  C   UNL     1      -3.584   1.355 -31.520  1.00  0.00     0.275 C 
BRANCH  18  19
HETATM   19  C   UNL     1      -4.311   0.234 -32.163  1.00  0.00    -0.001 A 
HETATM   20  C   UNL     1      -5.563  -0.253 -31.821  1.00  0.00     0.057 A 
HETATM   21  O   UNL     1      -5.915  -1.270 -32.649  1.00  0.00    -0.320 OA
HETATM   22  C   UNL     1      -6.550   0.103 -30.777  1.00  0.00     0.077 C 
HETATM   23  C   UNL     1      -4.889  -1.469 -33.516  1.00  0.00     0.050 A 
HETATM   24  C   UNL     1      -5.061  -2.555 -34.504  1.00  0.00     0.076 C 
HETATM   25  C   UNL     1      -3.875  -0.572 -33.257  1.00  0.00     0.043 A 
ENDBRANCH  18  19
ENDBRANCH   1  18
TORSDOF 4
ENDMDL
