MODEL 1
REMARK VINA RESULT:      -8.1      0.000      0.000
REMARK  6 active torsions:
REMARK  status: ('A' for Active; 'I' for Inactive)
REMARK    1  A    between atoms: C_2  and  N_3 
REMARK    2  A    between atoms: N_3  and  C_5 
REMARK    3  A    between atoms: N_3  and  C_28 
REMARK    4  A    between atoms: C_8  and  C_9 
REMARK    5  A    between atoms: N_10  and  C_11 
REMARK    6  A    between atoms: C_11  and  C_12 
ROOT
HETATM    1  C   UNL     1      -9.557   1.125 -34.161  1.00  0.00     0.199 C 
HETATM    2  N   UNL     1      -9.649   2.428 -33.525  1.00  0.00    -0.321 N 
HETATM    3  C   UNL     1     -10.895   3.052 -33.496  1.00  0.00     0.257 C 
HETATM    4  O   UNL     1     -11.046   4.263 -33.365  1.00  0.00    -0.267 OA
HETATM    5  C   UNL     1     -12.078   2.169 -33.592  1.00  0.00     0.053 A 
HETATM    6  C   UNL     1     -11.867   0.786 -33.623  1.00  0.00     0.026 A 
HETATM    7  N   UNL     1     -10.567   0.248 -33.579  1.00  0.00    -0.266 NA
HETATM    8  C   UNL     1     -13.369   2.707 -33.587  1.00  0.00     0.019 A 
HETATM    9  C   UNL     1     -14.472   1.853 -33.567  1.00  0.00     0.001 A 
HETATM   10  C   UNL     1     -14.277   0.474 -33.531  1.00  0.00     0.002 A 
HETATM   11  C   UNL     1     -12.982  -0.056 -33.545  1.00  0.00     0.024 A 
HETATM   12  H   UNL     1     -10.547  -0.684 -33.981  1.00  0.00     0.130 HD
ENDROOT
BRANCH   1  13
HETATM   13  C   UNL     1      -8.208   0.423 -34.026  1.00  0.00    -0.021 A 
HETATM   14  C   UNL     1      -7.413   0.141 -35.146  1.00  0.00     0.013 A 
HETATM   15  C   UNL     1      -6.225  -0.588 -35.014  1.00  0.00     0.038 A 
HETATM   16  C   UNL     1      -5.770  -1.002 -33.755  1.00  0.00     0.134 A 
HETATM   17  C   UNL     1      -6.538  -0.683 -32.631  1.00  0.00     0.038 A 
HETATM   18  C   UNL     1      -7.747   0.013 -32.767  1.00  0.00     0.013 A 
BRANCH  16  19
HETATM   19  N   UNL     1      -4.517  -1.820 -33.686  1.00  0.00    -0.042 N 
HETATM   20  H   UNL     1      -3.843  -1.275 -34.242  1.00  0.00     0.286 HD
BRANCH  19  21
HETATM   21  C   UNL     1      -4.572  -3.187 -34.336  1.00  0.00     0.237 C 
HETATM   22  C   UNL     1      -3.704  -4.189 -33.595  1.00  0.00     0.035 C 
ENDBRANCH  19  21
BRANCH  19  23
HETATM   23  C   UNL     1      -3.936  -1.878 -32.284  1.00  0.00     0.237 C 
HETATM   24  C   UNL     1      -2.847  -0.847 -32.050  1.00  0.00     0.035 C 
ENDBRANCH  19  23
ENDBRANCH  16  19
ENDBRANCH   1  13
BRANCH   2  25
HETATM   25  C   UNL     1      -8.476   3.283 -33.375  1.00  0.00     0.193 C 
BRANCH  25  26
HETATM   26  C   UNL     1      -7.971   3.313 -31.977  1.00  0.00     0.070 A 
HETATM   27  O   UNL     1      -6.620   3.436 -31.816  1.00  0.00    -0.325 OA
HETATM   28  C   UNL     1      -6.371   3.353 -30.485  1.00  0.00     0.142 A 
HETATM   29  C   UNL     1      -7.545   3.204 -29.782  1.00  0.00     0.027 A 
HETATM   30  C   UNL     1      -8.582   3.181 -30.747  1.00  0.00     0.036 A 
ENDBRANCH  25  26
ENDBRANCH   2  25
TORSDOF 6
ENDMDL
MODEL 2
REMARK VINA RESULT:      -8.0      1.986      7.114
REMARK  6 active torsions:
REMARK  status: ('A' for Active; 'I' for Inactive)
REMARK    1  A    between atoms: C_2  and  N_3 
REMARK    2  A    between atoms: N_3  and  C_5 
REMARK    3  A    between atoms: N_3  and  C_28 
REMARK    4  A    between atoms: C_8  and  C_9 
REMARK    5  A    between atoms: N_10  and  C_11 
REMARK    6  A    between atoms: C_11  and  C_12 
ROOT
HETATM    1  C   UNL     1      -7.229  -0.875 -33.374  1.00  0.00     0.199 C 
HETATM    2  N   UNL     1      -5.919  -0.276 -33.551  1.00  0.00    -0.321 N 
HETATM    3  C   UNL     1      -4.812  -1.123 -33.577  1.00  0.00     0.257 C 
HETATM    4  O   UNL     1      -3.668  -0.757 -33.324  1.00  0.00    -0.267 OA
HETATM    5  C   UNL     1      -5.064  -2.525 -33.974  1.00  0.00     0.053 A 
HETATM    6  C   UNL     1      -6.361  -2.876 -34.367  1.00  0.00     0.026 A 
HETATM    7  N   UNL     1      -7.400  -1.927 -34.371  1.00  0.00    -0.266 NA
HETATM    8  C   UNL     1      -4.018  -3.453 -34.014  1.00  0.00     0.019 A 
HETATM    9  C   UNL     1      -4.255  -4.740 -34.496  1.00  0.00     0.001 A 
HETATM   10  C   UNL     1      -5.526  -5.084 -34.952  1.00  0.00     0.002 A 
HETATM   11  C   UNL     1      -6.569  -4.153 -34.901  1.00  0.00     0.024 A 
HETATM   12  H   UNL     1      -8.306  -2.381 -34.302  1.00  0.00     0.130 HD
ENDROOT
BRANCH   1  13
HETATM   13  C   UNL     1      -8.412   0.080 -33.510  1.00  0.00    -0.021 A 
HETATM   14  C   UNL     1      -9.294   0.311 -32.445  1.00  0.00     0.013 A 
HETATM   15  C   UNL     1     -10.427   1.115 -32.615  1.00  0.00     0.038 A 
HETATM   16  C   UNL     1     -10.676   1.759 -33.835  1.00  0.00     0.134 A 
HETATM   17  C   UNL     1      -9.774   1.567 -34.886  1.00  0.00     0.038 A 
HETATM   18  C   UNL     1      -8.660   0.730 -34.727  1.00  0.00     0.013 A 
BRANCH  16  19
HETATM   19  N   UNL     1     -11.930   2.566 -33.969  1.00  0.00    -0.042 N 
HETATM   20  H   UNL     1     -11.759   3.380 -33.361  1.00  0.00     0.286 HD
BRANCH  19  21
HETATM   21  C   UNL     1     -13.199   1.927 -33.447  1.00  0.00     0.237 C 
HETATM   22  C   UNL     1     -13.700   0.841 -34.384  1.00  0.00     0.035 C 
ENDBRANCH  19  21
BRANCH  19  23
HETATM   23  C   UNL     1     -12.110   3.134 -35.367  1.00  0.00     0.237 C 
HETATM   24  C   UNL     1     -12.692   4.535 -35.368  1.00  0.00     0.035 C 
ENDBRANCH  19  23
ENDBRANCH  16  19
ENDBRANCH   1  13
BRANCH   2  25
HETATM   25  C   UNL     1      -5.674   1.123 -33.215  1.00  0.00     0.193 C 
BRANCH  25  26
HETATM   26  C   UNL     1      -5.918   1.413 -31.777  1.00  0.00     0.070 A 
HETATM   27  O   UNL     1      -6.688   2.506 -31.495  1.00  0.00    -0.325 OA
HETATM   28  C   UNL     1      -6.709   2.636 -30.144  1.00  0.00     0.142 A 
HETATM   29  C   UNL     1      -5.986   1.627 -29.551  1.00  0.00     0.027 A 
HETATM   30  C   UNL     1      -5.475   0.833 -30.607  1.00  0.00     0.036 A 
ENDBRANCH  25  26
ENDBRANCH   2  25
TORSDOF 6
ENDMDL
MODEL 3
REMARK VINA RESULT:      -8.0      2.838      7.521
REMARK  6 active torsions:
REMARK  status: ('A' for Active; 'I' for Inactive)
REMARK    1  A    between atoms: C_2  and  N_3 
REMARK    2  A    between atoms: N_3  and  C_5 
REMARK    3  A    between atoms: N_3  and  C_28 
REMARK    4  A    between atoms: C_8  and  C_9 
REMARK    5  A    between atoms: N_10  and  C_11 
REMARK    6  A    between atoms: C_11  and  C_12 
ROOT
HETATM    1  C   UNL     1      -4.405   0.339 -32.916  1.00  0.00     0.199 C 
HETATM    2  N   UNL     1      -5.589  -0.051 -33.660  1.00  0.00    -0.321 N 
HETATM    3  C   UNL     1      -5.577  -1.288 -34.303  1.00  0.00     0.257 C 
HETATM    4  O   UNL     1      -6.302  -1.568 -35.253  1.00  0.00    -0.267 OA
HETATM    5  C   UNL     1      -4.655  -2.307 -33.756  1.00  0.00     0.053 A 
HETATM    6  C   UNL     1      -3.932  -1.990 -32.601  1.00  0.00     0.026 A 
HETATM    7  N   UNL     1      -4.065  -0.731 -31.985  1.00  0.00    -0.266 NA
HETATM    8  C   UNL     1      -4.563  -3.573 -34.345  1.00  0.00     0.019 A 
HETATM    9  C   UNL     1      -3.771  -4.554 -33.750  1.00  0.00     0.001 A 
HETATM   10  C   UNL     1      -3.097  -4.273 -32.564  1.00  0.00     0.002 A 
HETATM   11  C   UNL     1      -3.188  -3.002 -31.985  1.00  0.00     0.024 A 
HETATM   12  H   UNL     1      -3.244  -0.512 -31.428  1.00  0.00     0.130 HD
ENDROOT
BRANCH   1  13
HETATM   13  C   UNL     1      -4.533   1.627 -32.108  1.00  0.00    -0.021 A 
HETATM   14  C   UNL     1      -3.901   2.812 -32.511  1.00  0.00     0.013 A 
HETATM   15  C   UNL     1      -3.950   3.958 -31.709  1.00  0.00     0.038 A 
HETATM   16  C   UNL     1      -4.680   3.969 -30.512  1.00  0.00     0.134 A 
HETATM   17  C   UNL     1      -5.348   2.802 -30.129  1.00  0.00     0.038 A 
HETATM   18  C   UNL     1      -5.267   1.642 -30.913  1.00  0.00     0.013 A 
BRANCH  16  19
HETATM   19  N   UNL     1      -4.653   5.210 -29.674  1.00  0.00    -0.042 N 
HETATM   20  H   UNL     1      -3.877   5.039 -29.018  1.00  0.00     0.286 HD
BRANCH  19  21
HETATM   21  C   UNL     1      -5.870   5.464 -28.810  1.00  0.00     0.237 C 
HETATM   22  C   UNL     1      -5.478   5.761 -27.373  1.00  0.00     0.035 C 
ENDBRANCH  19  21
BRANCH  19  23
HETATM   23  C   UNL     1      -4.250   6.439 -30.470  1.00  0.00     0.237 C 
HETATM   24  C   UNL     1      -2.988   7.099 -29.944  1.00  0.00     0.035 C 
ENDBRANCH  19  23
ENDBRANCH  16  19
ENDBRANCH   1  13
BRANCH   2  25
HETATM   25  C   UNL     1      -6.535   0.943 -34.156  1.00  0.00     0.193 C 
BRANCH  25  26
HETATM   26  C   UNL     1      -7.910   0.728 -33.632  1.00  0.00     0.070 A 
HETATM   27  O   UNL     1      -8.942   1.088 -34.454  1.00  0.00    -0.325 OA
HETATM   28  C   UNL     1     -10.089   0.895 -33.755  1.00  0.00     0.142 A 
HETATM   29  C   UNL     1      -9.814   0.391 -32.505  1.00  0.00     0.027 A 
HETATM   30  C   UNL     1      -8.404   0.280 -32.425  1.00  0.00     0.036 A 
ENDBRANCH  25  26
ENDBRANCH   2  25
TORSDOF 6
ENDMDL
MODEL 4
REMARK VINA RESULT:      -7.9      3.046      4.875
REMARK  6 active torsions:
REMARK  status: ('A' for Active; 'I' for Inactive)
REMARK    1  A    between atoms: C_2  and  N_3 
REMARK    2  A    between atoms: N_3  and  C_5 
REMARK    3  A    between atoms: N_3  and  C_28 
REMARK    4  A    between atoms: C_8  and  C_9 
REMARK    5  A    between atoms: N_10  and  C_11 
REMARK    6  A    between atoms: C_11  and  C_12 
ROOT
HETATM    1  C   UNL     1      -8.698   2.804 -32.867  1.00  0.00     0.199 C 
HETATM    2  N   UNL     1      -8.716   1.355 -32.778  1.00  0.00    -0.321 N 
HETATM    3  C   UNL     1      -9.939   0.707 -32.938  1.00  0.00     0.257 C 
HETATM    4  O   UNL     1     -10.174  -0.419 -32.510  1.00  0.00    -0.267 OA
HETATM    5  C   UNL     1     -10.974   1.431 -33.707  1.00  0.00     0.053 A 
HETATM    6  C   UNL     1     -10.630   2.661 -34.279  1.00  0.00     0.026 A 
HETATM    7  N   UNL     1      -9.341   3.203 -34.115  1.00  0.00    -0.266 NA
HETATM    8  C   UNL     1     -12.238   0.867 -33.907  1.00  0.00     0.019 A 
HETATM    9  C   UNL     1     -13.162   1.515 -34.725  1.00  0.00     0.001 A 
HETATM   10  C   UNL     1     -12.810   2.708 -35.354  1.00  0.00     0.002 A 
HETATM   11  C   UNL     1     -11.547   3.271 -35.143  1.00  0.00     0.024 A 
HETATM   12  H   UNL     1      -9.354   4.211 -34.238  1.00  0.00     0.130 HD
ENDROOT
BRANCH   1  13
HETATM   13  C   UNL     1      -7.315   3.447 -32.840  1.00  0.00    -0.021 A 
HETATM   14  C   UNL     1      -6.491   3.465 -33.974  1.00  0.00     0.013 A 
HETATM   15  C   UNL     1      -5.188   3.973 -33.905  1.00  0.00     0.038 A 
HETATM   16  C   UNL     1      -4.695   4.532 -32.718  1.00  0.00     0.134 A 
HETATM   17  C   UNL     1      -5.530   4.556 -31.597  1.00  0.00     0.038 A 
HETATM   18  C   UNL     1      -6.820   4.012 -31.655  1.00  0.00     0.013 A 
BRANCH  16  19
HETATM   19  N   UNL     1      -3.277   5.013 -32.694  1.00  0.00    -0.042 N 
HETATM   20  H   UNL     1      -3.341   5.968 -33.076  1.00  0.00     0.286 HD
BRANCH  19  21
HETATM   21  C   UNL     1      -2.304   4.280 -33.594  1.00  0.00     0.237 C 
HETATM   22  C   UNL     1      -1.903   5.130 -34.787  1.00  0.00     0.035 C 
ENDBRANCH  19  21
BRANCH  19  23
HETATM   23  C   UNL     1      -2.741   5.174 -31.283  1.00  0.00     0.237 C 
HETATM   24  C   UNL     1      -1.228   5.080 -31.208  1.00  0.00     0.035 C 
ENDBRANCH  19  23
ENDBRANCH  16  19
ENDBRANCH   1  13
BRANCH   2  25
HETATM   25  C   UNL     1      -7.668   0.627 -32.069  1.00  0.00     0.193 C 
BRANCH  25  26
HETATM   26  C   UNL     1      -6.894  -0.270 -32.967  1.00  0.00     0.070 A 
HETATM   27  O   UNL     1      -5.759  -0.827 -32.448  1.00  0.00    -0.325 OA
HETATM   28  C   UNL     1      -5.168  -1.526 -33.449  1.00  0.00     0.142 A 
HETATM   29  C   UNL     1      -5.919  -1.451 -34.600  1.00  0.00     0.027 A 
HETATM   30  C   UNL     1      -7.037  -0.640 -34.288  1.00  0.00     0.036 A 
ENDBRANCH  25  26
ENDBRANCH   2  25
TORSDOF 6
ENDMDL
MODEL 5
REMARK VINA RESULT:      -7.8      2.455      7.281
REMARK  6 active torsions:
REMARK  status: ('A' for Active; 'I' for Inactive)
REMARK    1  A    between atoms: C_2  and  N_3 
REMARK    2  A    between atoms: N_3  and  C_5 
REMARK    3  A    between atoms: N_3  and  C_28 
REMARK    4  A    between atoms: C_8  and  C_9 
REMARK    5  A    between atoms: N_10  and  C_11 
REMARK    6  A    between atoms: C_11  and  C_12 
ROOT
HETATM    1  C   UNL     1      -7.401   0.249 -32.759  1.00  0.00     0.199 C 
HETATM    2  N   UNL     1      -6.065   0.805 -32.642  1.00  0.00    -0.321 N 
HETATM    3  C   UNL     1      -4.985  -0.074 -32.697  1.00  0.00     0.257 C 
HETATM    4  O   UNL     1      -3.877   0.178 -32.232  1.00  0.00    -0.267 OA
HETATM    5  C   UNL     1      -5.213  -1.357 -33.397  1.00  0.00     0.053 A 
HETATM    6  C   UNL     1      -6.452  -1.559 -34.015  1.00  0.00     0.026 A 
HETATM    7  N   UNL     1      -7.460  -0.577 -33.960  1.00  0.00    -0.266 NA
HETATM    8  C   UNL     1      -4.193  -2.310 -33.489  1.00  0.00     0.019 A 
HETATM    9  C   UNL     1      -4.392  -3.464 -34.246  1.00  0.00     0.001 A 
HETATM   10  C   UNL     1      -5.598  -3.647 -34.920  1.00  0.00     0.002 A 
HETATM   11  C   UNL     1      -6.616  -2.694 -34.816  1.00  0.00     0.024 A 
HETATM   12  H   UNL     1      -8.376  -0.991 -34.100  1.00  0.00     0.130 HD
ENDROOT
BRANCH   1  13
HETATM   13  C   UNL     1      -8.531   1.269 -32.849  1.00  0.00    -0.021 A 
HETATM   14  C   UNL     1      -9.100   1.837 -31.700  1.00  0.00     0.013 A 
HETATM   15  C   UNL     1     -10.200   2.698 -31.796  1.00  0.00     0.038 A 
HETATM   16  C   UNL     1     -10.722   3.063 -33.045  1.00  0.00     0.134 A 
HETATM   17  C   UNL     1     -10.128   2.534 -34.195  1.00  0.00     0.038 A 
HETATM   18  C   UNL     1      -9.052   1.640 -34.097  1.00  0.00     0.013 A 
BRANCH  16  19
HETATM   19  N   UNL     1     -11.929   3.948 -33.080  1.00  0.00    -0.042 N 
HETATM   20  H   UNL     1     -11.532   4.891 -33.202  1.00  0.00     0.286 HD
BRANCH  19  21
HETATM   21  C   UNL     1     -12.751   4.013 -31.810  1.00  0.00     0.237 C 
HETATM   22  C   UNL     1     -14.084   3.305 -31.975  1.00  0.00     0.035 C 
ENDBRANCH  19  21
BRANCH  19  23
HETATM   23  C   UNL     1     -12.792   3.708 -34.307  1.00  0.00     0.237 C 
HETATM   24  C   UNL     1     -12.774   4.871 -35.282  1.00  0.00     0.035 C 
ENDBRANCH  19  23
ENDBRANCH  16  19
ENDBRANCH   1  13
BRANCH   2  25
HETATM   25  C   UNL     1      -5.835   2.097 -32.004  1.00  0.00     0.193 C 
BRANCH  25  26
HETATM   26  C   UNL     1      -5.363   3.129 -32.965  1.00  0.00     0.070 A 
HETATM   27  O   UNL     1      -4.134   3.676 -32.722  1.00  0.00    -0.325 OA
HETATM   28  C   UNL     1      -3.942   4.644 -33.653  1.00  0.00     0.142 A 
HETATM   29  C   UNL     1      -5.017   4.711 -34.509  1.00  0.00     0.027 A 
HETATM   30  C   UNL     1      -5.936   3.730 -34.066  1.00  0.00     0.036 A 
ENDBRANCH  25  26
ENDBRANCH   2  25
TORSDOF 6
ENDMDL
MODEL 6
REMARK VINA RESULT:      -7.6      2.894      7.718
REMARK  6 active torsions:
REMARK  status: ('A' for Active; 'I' for Inactive)
REMARK    1  A    between atoms: C_2  and  N_3 
REMARK    2  A    between atoms: N_3  and  C_5 
REMARK    3  A    between atoms: N_3  and  C_28 
REMARK    4  A    between atoms: C_8  and  C_9 
REMARK    5  A    between atoms: N_10  and  C_11 
REMARK    6  A    between atoms: C_11  and  C_12 
ROOT
HETATM    1  C   UNL     1      -6.234   2.590 -33.341  1.00  0.00     0.199 C 
HETATM    2  N   UNL     1      -5.401   1.887 -32.381  1.00  0.00    -0.321 N 
HETATM    3  C   UNL     1      -4.047   2.214 -32.331  1.00  0.00     0.257 C 
HETATM    4  O   UNL     1      -3.182   1.466 -31.885  1.00  0.00    -0.267 OA
HETATM    5  C   UNL     1      -3.675   3.561 -32.816  1.00  0.00     0.053 A 
HETATM    6  C   UNL     1      -4.701   4.427 -33.208  1.00  0.00     0.026 A 
HETATM    7  N   UNL     1      -6.049   4.025 -33.158  1.00  0.00    -0.266 NA
HETATM    8  C   UNL     1      -2.337   3.972 -32.820  1.00  0.00     0.019 A 
HETATM    9  C   UNL     1      -2.019   5.282 -33.176  1.00  0.00     0.001 A 
HETATM   10  C   UNL     1      -3.037   6.175 -33.506  1.00  0.00     0.002 A 
HETATM   11  C   UNL     1      -4.371   5.754 -33.508  1.00  0.00     0.024 A 
HETATM   12  H   UNL     1      -6.614   4.572 -33.800  1.00  0.00     0.130 HD
ENDROOT
BRANCH   1  13
HETATM   13  C   UNL     1      -7.730   2.305 -33.244  1.00  0.00    -0.021 A 
HETATM   14  C   UNL     1      -8.414   1.622 -34.260  1.00  0.00     0.013 A 
HETATM   15  C   UNL     1      -9.803   1.453 -34.199  1.00  0.00     0.038 A 
HETATM   16  C   UNL     1     -10.536   1.908 -33.094  1.00  0.00     0.134 A 
HETATM   17  C   UNL     1      -9.850   2.549 -32.059  1.00  0.00     0.038 A 
HETATM   18  C   UNL     1      -8.466   2.754 -32.137  1.00  0.00     0.013 A 
BRANCH  16  19
HETATM   19  N   UNL     1     -12.024   1.741 -33.112  1.00  0.00    -0.042 N 
HETATM   20  H   UNL     1     -12.228   1.308 -32.200  1.00  0.00     0.286 HD
BRANCH  19  21
HETATM   21  C   UNL     1     -12.581   0.789 -34.149  1.00  0.00     0.237 C 
HETATM   22  C   UNL     1     -13.838   0.098 -33.650  1.00  0.00     0.035 C 
ENDBRANCH  19  21
BRANCH  19  23
HETATM   23  C   UNL     1     -12.759   3.071 -33.104  1.00  0.00     0.237 C 
HETATM   24  C   UNL     1     -12.806   3.730 -34.470  1.00  0.00     0.035 C 
ENDBRANCH  19  23
ENDBRANCH  16  19
ENDBRANCH   1  13
BRANCH   2  25
HETATM   25  C   UNL     1      -5.787   0.583 -31.853  1.00  0.00     0.193 C 
BRANCH  25  26
HETATM   26  C   UNL     1      -5.786  -0.475 -32.898  1.00  0.00     0.070 A 
HETATM   27  O   UNL     1      -6.980  -1.090 -33.149  1.00  0.00    -0.325 OA
HETATM   28  C   UNL     1      -6.738  -2.068 -34.057  1.00  0.00     0.142 A 
HETATM   29  C   UNL     1      -5.410  -2.075 -34.417  1.00  0.00     0.027 A 
HETATM   30  C   UNL     1      -4.793  -1.043 -33.669  1.00  0.00     0.036 A 
ENDBRANCH  25  26
ENDBRANCH   2  25
TORSDOF 6
ENDMDL
MODEL 7
REMARK VINA RESULT:      -7.5      3.581      6.542
REMARK  6 active torsions:
REMARK  status: ('A' for Active; 'I' for Inactive)
REMARK    1  A    between atoms: C_2  and  N_3 
REMARK    2  A    between atoms: N_3  and  C_5 
REMARK    3  A    between atoms: N_3  and  C_28 
REMARK    4  A    between atoms: C_8  and  C_9 
REMARK    5  A    between atoms: N_10  and  C_11 
REMARK    6  A    between atoms: C_11  and  C_12 
ROOT
HETATM    1  C   UNL     1      -5.590   1.349 -33.344  1.00  0.00     0.199 C 
HETATM    2  N   UNL     1      -6.798   1.036 -32.602  1.00  0.00    -0.321 N 
HETATM    3  C   UNL     1      -7.525  -0.090 -32.985  1.00  0.00     0.257 C 
HETATM    4  O   UNL     1      -8.716  -0.248 -32.734  1.00  0.00    -0.267 OA
HETATM    5  C   UNL     1      -6.777  -1.148 -33.696  1.00  0.00     0.053 A 
HETATM    6  C   UNL     1      -5.397  -0.984 -33.860  1.00  0.00     0.026 A 
HETATM    7  N   UNL     1      -4.740   0.164 -33.375  1.00  0.00    -0.266 NA
HETATM    8  C   UNL     1      -7.425  -2.308 -34.133  1.00  0.00     0.019 A 
HETATM    9  C   UNL     1      -6.682  -3.341 -34.703  1.00  0.00     0.001 A 
HETATM   10  C   UNL     1      -5.299  -3.218 -34.813  1.00  0.00     0.002 A 
HETATM   11  C   UNL     1      -4.658  -2.052 -34.381  1.00  0.00     0.024 A 
HETATM   12  H   UNL     1      -3.873   0.324 -33.878  1.00  0.00     0.130 HD
ENDROOT
BRANCH   1  13
HETATM   13  C   UNL     1      -4.755   2.497 -32.785  1.00  0.00    -0.021 A 
HETATM   14  C   UNL     1      -4.920   3.814 -33.238  1.00  0.00     0.013 A 
HETATM   15  C   UNL     1      -4.080   4.837 -32.784  1.00  0.00     0.038 A 
HETATM   16  C   UNL     1      -3.094   4.586 -31.820  1.00  0.00     0.134 A 
HETATM   17  C   UNL     1      -2.957   3.283 -31.332  1.00  0.00     0.038 A 
HETATM   18  C   UNL     1      -3.771   2.250 -31.816  1.00  0.00     0.013 A 
BRANCH  16  19
HETATM   19  N   UNL     1      -2.196   5.713 -31.411  1.00  0.00    -0.042 N 
HETATM   20  H   UNL     1      -2.459   5.886 -30.431  1.00  0.00     0.286 HD
BRANCH  19  21
HETATM   21  C   UNL     1      -2.404   7.030 -32.128  1.00  0.00     0.237 C 
HETATM   22  C   UNL     1      -1.344   7.256 -33.193  1.00  0.00     0.035 C 
ENDBRANCH  19  21
BRANCH  19  23
HETATM   23  C   UNL     1      -0.733   5.306 -31.375  1.00  0.00     0.237 C 
HETATM   24  C   UNL     1      -0.049   5.665 -30.068  1.00  0.00     0.035 C 
ENDBRANCH  19  23
ENDBRANCH  16  19
ENDBRANCH   1  13
BRANCH   2  25
HETATM   25  C   UNL     1      -7.513   2.062 -31.850  1.00  0.00     0.193 C 
BRANCH  25  26
HETATM   26  C   UNL     1      -8.518   2.776 -32.681  1.00  0.00     0.070 A 
HETATM   27  O   UNL     1      -9.815   2.724 -32.253  1.00  0.00    -0.325 OA
HETATM   28  C   UNL     1     -10.566   3.355 -33.190  1.00  0.00     0.142 A 
HETATM   29  C   UNL     1      -9.770   3.837 -34.203  1.00  0.00     0.027 A 
HETATM   30  C   UNL     1      -8.444   3.465 -33.873  1.00  0.00     0.036 A 
ENDBRANCH  25  26
ENDBRANCH   2  25
TORSDOF 6
ENDMDL
MODEL 8
REMARK VINA RESULT:      -7.4      3.250      6.550
REMARK  6 active torsions:
REMARK  status: ('A' for Active; 'I' for Inactive)
REMARK    1  A    between atoms: C_2  and  N_3 
REMARK    2  A    between atoms: N_3  and  C_5 
REMARK    3  A    between atoms: N_3  and  C_28 
REMARK    4  A    between atoms: C_8  and  C_9 
REMARK    5  A    between atoms: N_10  and  C_11 
REMARK    6  A    between atoms: C_11  and  C_12 
ROOT
HETATM    1  C   UNL     1      -3.719   2.252 -31.453  1.00  0.00     0.199 C 
HETATM    2  N   UNL     1      -4.894   2.805 -30.804  1.00  0.00    -0.321 N 
HETATM    3  C   UNL     1      -4.825   4.117 -30.339  1.00  0.00     0.257 C 
HETATM    4  O   UNL     1      -5.552   4.566 -29.457  1.00  0.00    -0.267 OA
HETATM    5  C   UNL     1      -3.836   4.999 -30.995  1.00  0.00     0.053 A 
HETATM    6  C   UNL     1      -3.108   4.485 -32.074  1.00  0.00     0.026 A 
HETATM    7  N   UNL     1      -3.300   3.162 -32.514  1.00  0.00    -0.266 NA
HETATM    8  C   UNL     1      -3.684   6.328 -30.585  1.00  0.00     0.019 A 
HETATM    9  C   UNL     1      -2.826   7.173 -31.288  1.00  0.00     0.001 A 
HETATM   10  C   UNL     1      -2.145   6.693 -32.405  1.00  0.00     0.002 A 
HETATM   11  C   UNL     1      -2.296   5.360 -32.804  1.00  0.00     0.024 A 
HETATM   12  H   UNL     1      -2.482   2.824 -33.012  1.00  0.00     0.130 HD
ENDROOT
BRANCH   1  13
HETATM   13  C   UNL     1      -3.902   0.872 -32.078  1.00  0.00    -0.021 A 
HETATM   14  C   UNL     1      -4.753   0.671 -33.174  1.00  0.00     0.013 A 
HETATM   15  C   UNL     1      -4.984  -0.616 -33.674  1.00  0.00     0.038 A 
HETATM   16  C   UNL     1      -4.324  -1.728 -33.133  1.00  0.00     0.134 A 
HETATM   17  C   UNL     1      -3.440  -1.525 -32.069  1.00  0.00     0.038 A 
HETATM   18  C   UNL     1      -3.239  -0.241 -31.542  1.00  0.00     0.013 A 
BRANCH  16  19
HETATM   19  N   UNL     1      -4.650  -3.084 -33.680  1.00  0.00    -0.042 N 
HETATM   20  H   UNL     1      -5.279  -3.485 -32.969  1.00  0.00     0.286 HD
BRANCH  19  21
HETATM   21  C   UNL     1      -3.496  -4.056 -33.798  1.00  0.00     0.237 C 
HETATM   22  C   UNL     1      -3.936  -5.479 -33.498  1.00  0.00     0.035 C 
ENDBRANCH  19  21
BRANCH  19  23
HETATM   23  C   UNL     1      -5.471  -3.014 -34.956  1.00  0.00     0.237 C 
HETATM   24  C   UNL     1      -6.812  -3.715 -34.839  1.00  0.00     0.035 C 
ENDBRANCH  19  23
ENDBRANCH  16  19
ENDBRANCH   1  13
BRANCH   2  25
HETATM   25  C   UNL     1      -5.904   1.941 -30.202  1.00  0.00     0.193 C 
BRANCH  25  26
HETATM   26  C   UNL     1      -7.117   1.810 -31.052  1.00  0.00     0.070 A 
HETATM   27  O   UNL     1      -7.677   0.566 -31.132  1.00  0.00    -0.325 OA
HETATM   28  C   UNL     1      -8.703   0.650 -32.016  1.00  0.00     0.142 A 
HETATM   29  C   UNL     1      -8.829   1.937 -32.488  1.00  0.00     0.027 A 
HETATM   30  C   UNL     1      -7.805   2.688 -31.863  1.00  0.00     0.036 A 
ENDBRANCH  25  26
ENDBRANCH   2  25
TORSDOF 6
ENDMDL
MODEL 9
REMARK VINA RESULT:      -7.3      1.677      4.589
REMARK  6 active torsions:
REMARK  status: ('A' for Active; 'I' for Inactive)
REMARK    1  A    between atoms: C_2  and  N_3 
REMARK    2  A    between atoms: N_3  and  C_5 
REMARK    3  A    between atoms: N_3  and  C_28 
REMARK    4  A    between atoms: C_8  and  C_9 
REMARK    5  A    between atoms: N_10  and  C_11 
REMARK    6  A    between atoms: C_11  and  C_12 
ROOT
HETATM    1  C   UNL     1      -8.165   1.760 -32.171  1.00  0.00     0.199 C 
HETATM    2  N   UNL     1      -8.811   2.705 -33.065  1.00  0.00    -0.321 N 
HETATM    3  C   UNL     1      -9.362   3.857 -32.507  1.00  0.00     0.257 C 
HETATM    4  O   UNL     1     -10.248   4.517 -33.043  1.00  0.00    -0.267 OA
HETATM    5  C   UNL     1      -8.796   4.302 -31.215  1.00  0.00     0.053 A 
HETATM    6  C   UNL     1      -7.709   3.591 -30.693  1.00  0.00     0.026 A 
HETATM    7  N   UNL     1      -7.179   2.476 -31.369  1.00  0.00    -0.266 NA
HETATM    8  C   UNL     1      -9.295   5.439 -30.572  1.00  0.00     0.019 A 
HETATM    9  C   UNL     1      -8.676   5.904 -29.412  1.00  0.00     0.001 A 
HETATM   10  C   UNL     1      -7.553   5.244 -28.917  1.00  0.00     0.002 A 
HETATM   11  C   UNL     1      -7.064   4.103 -29.562  1.00  0.00     0.024 A 
HETATM   12  H   UNL     1      -6.687   1.863 -30.726  1.00  0.00     0.130 HD
ENDROOT
BRANCH   1  13
HETATM   13  C   UNL     1      -7.447   0.599 -32.852  1.00  0.00    -0.021 A 
HETATM   14  C   UNL     1      -8.128  -0.568 -33.226  1.00  0.00     0.013 A 
HETATM   15  C   UNL     1      -7.437  -1.660 -33.762  1.00  0.00     0.038 A 
HETATM   16  C   UNL     1      -6.056  -1.594 -33.995  1.00  0.00     0.134 A 
HETATM   17  C   UNL     1      -5.380  -0.416 -33.664  1.00  0.00     0.038 A 
HETATM   18  C   UNL     1      -6.066   0.664 -33.091  1.00  0.00     0.013 A 
BRANCH  16  19
HETATM   19  N   UNL     1      -5.366  -2.814 -34.524  1.00  0.00    -0.042 N 
HETATM   20  H   UNL     1      -5.237  -2.602 -35.524  1.00  0.00     0.286 HD
BRANCH  19  21
HETATM   21  C   UNL     1      -6.155  -4.105 -34.480  1.00  0.00     0.237 C 
HETATM   22  C   UNL     1      -6.533  -4.572 -35.874  1.00  0.00     0.035 C 
ENDBRANCH  19  21
BRANCH  19  23
HETATM   23  C   UNL     1      -3.965  -2.981 -33.960  1.00  0.00     0.237 C 
HETATM   24  C   UNL     1      -3.628  -4.422 -33.626  1.00  0.00     0.035 C 
ENDBRANCH  19  23
ENDBRANCH  16  19
ENDBRANCH   1  13
BRANCH   2  25
HETATM   25  C   UNL     1      -9.324   2.289 -34.366  1.00  0.00     0.193 C 
BRANCH  25  26
HETATM   26  C   UNL     1     -10.724   1.795 -34.292  1.00  0.00     0.070 A 
HETATM   27  O   UNL     1     -11.626   2.381 -35.136  1.00  0.00    -0.325 OA
HETATM   28  C   UNL     1     -12.841   1.852 -34.844  1.00  0.00     0.142 A 
HETATM   29  C   UNL     1     -12.732   0.914 -33.844  1.00  0.00     0.027 A 
HETATM   30  C   UNL     1     -11.362   0.874 -33.487  1.00  0.00     0.036 A 
ENDBRANCH  25  26
ENDBRANCH   2  25
TORSDOF 6
ENDMDL
MODEL 10
REMARK VINA RESULT:      -7.2      2.416      5.476
REMARK  6 active torsions:
REMARK  status: ('A' for Active; 'I' for Inactive)
REMARK    1  A    between atoms: C_2  and  N_3 
REMARK    2  A    between atoms: N_3  and  C_5 
REMARK    3  A    between atoms: N_3  and  C_28 
REMARK    4  A    between atoms: C_8  and  C_9 
REMARK    5  A    between atoms: N_10  and  C_11 
REMARK    6  A    between atoms: C_11  and  C_12 
ROOT
HETATM    1  C   UNL     1      -5.554   2.405 -31.661  1.00  0.00     0.199 C 
HETATM    2  N   UNL     1      -6.906   2.745 -31.254  1.00  0.00    -0.321 N 
HETATM    3  C   UNL     1      -7.141   4.040 -30.795  1.00  0.00     0.257 C 
HETATM    4  O   UNL     1      -8.086   4.345 -30.073  1.00  0.00    -0.267 OA
HETATM    5  C   UNL     1      -6.203   5.085 -31.257  1.00  0.00     0.053 A 
HETATM    6  C   UNL     1      -5.209   4.721 -32.172  1.00  0.00     0.026 A 
HETATM    7  N   UNL     1      -5.094   3.395 -32.630  1.00  0.00    -0.266 NA
HETATM    8  C   UNL     1      -6.350   6.411 -30.836  1.00  0.00     0.019 A 
HETATM    9  C   UNL     1      -5.524   7.400 -31.368  1.00  0.00     0.001 A 
HETATM   10  C   UNL     1      -4.573   7.062 -32.330  1.00  0.00     0.002 A 
HETATM   11  C   UNL     1      -4.426   5.733 -32.739  1.00  0.00     0.024 A 
HETATM   12  H   UNL     1      -4.153   3.205 -32.958  1.00  0.00     0.130 HD
ENDROOT
BRANCH   1  13
HETATM   13  C   UNL     1      -5.388   1.029 -32.299  1.00  0.00    -0.021 A 
HETATM   14  C   UNL     1      -5.900   0.743 -33.572  1.00  0.00     0.013 A 
HETATM   15  C   UNL     1      -5.823  -0.551 -34.101  1.00  0.00     0.038 A 
HETATM   16  C   UNL     1      -5.177  -1.578 -33.400  1.00  0.00     0.134 A 
HETATM   17  C   UNL     1      -4.625  -1.286 -32.149  1.00  0.00     0.038 A 
HETATM   18  C   UNL     1      -4.738  -0.000 -31.602  1.00  0.00     0.013 A 
BRANCH  16  19
HETATM   19  N   UNL     1      -5.171  -2.951 -33.998  1.00  0.00    -0.042 N 
HETATM   20  H   UNL     1      -5.581  -3.538 -33.257  1.00  0.00     0.286 HD
BRANCH  19  21
HETATM   21  C   UNL     1      -3.811  -3.552 -34.286  1.00  0.00     0.237 C 
HETATM   22  C   UNL     1      -3.547  -4.770 -33.418  1.00  0.00     0.035 C 
ENDBRANCH  19  21
BRANCH  19  23
HETATM   23  C   UNL     1      -6.113  -3.074 -35.183  1.00  0.00     0.237 C 
HETATM   24  C   UNL     1      -6.704  -4.464 -35.330  1.00  0.00     0.035 C 
ENDBRANCH  19  23
ENDBRANCH  16  19
ENDBRANCH   1  13
BRANCH   2  25
HETATM   25  C   UNL     1      -7.857   1.716 -30.850  1.00  0.00     0.193 C 
BRANCH  25  26
HETATM   26  C   UNL     1      -8.869   1.434 -31.903  1.00  0.00     0.070 A 
HETATM   27  O   UNL     1      -9.448   2.517 -32.503  1.00  0.00    -0.325 OA
HETATM   28  C   UNL     1     -10.390   2.040 -33.355  1.00  0.00     0.142 A 
HETATM   29  C   UNL     1     -10.410   0.664 -33.332  1.00  0.00     0.027 A 
HETATM   30  C   UNL     1      -9.424   0.271 -32.395  1.00  0.00     0.036 A 
ENDBRANCH  25  26
ENDBRANCH   2  25
TORSDOF 6
ENDMDL
