MODEL 1
REMARK VINA RESULT:     -10.4      0.000      0.000
REMARK  6 active torsions:
REMARK  status: ('A' for Active; 'I' for Inactive)
REMARK       I    between atoms: N_1  and  C_2 
REMARK    1  A    between atoms: C_2  and  C_4 
REMARK    2  A    between atoms: C_9  and  C_13 
REMARK       I    between atoms: C_13  and  N_15 
REMARK    3  A    between atoms: C_19  and  C_20 
REMARK    4  A    between atoms: C_24  and  C_26 
REMARK       I    between atoms: C_26  and  N_28 
REMARK    5  A    between atoms: N_28  and  C_29 
REMARK    6  A    between atoms: C_34  and  N_38 
ROOT
HETATM    1  C   UNL     1      -3.093   7.959 -29.835  1.00  0.00    -0.034 A 
HETATM    2  C   UNL     1      -2.329   8.797 -30.666  1.00  0.00     0.009 A 
HETATM    3  C   UNL     1      -1.879   8.356 -31.912  1.00  0.00     0.002 A 
HETATM    4  C   UNL     1      -2.177   7.067 -32.347  1.00  0.00     0.017 A 
HETATM    5  C   UNL     1      -2.931   6.218 -31.528  1.00  0.00     0.033 A 
HETATM    6  C   UNL     1      -3.405   6.668 -30.291  1.00  0.00     0.026 A 
ENDROOT
BRANCH   1   7
HETATM    7  C   UNL     1      -3.560   8.483 -28.485  1.00  0.00     0.120 C 
HETATM    8  N   UNL     1      -2.521   8.474 -27.461  1.00  0.00    -0.338 N 
HETATM    9  C   UNL     1      -1.498   9.412 -27.479  1.00  0.00     0.274 C 
HETATM   10  C   UNL     1      -2.791   7.479 -26.433  1.00  0.00     0.127 C 
HETATM   11  O   UNL     1      -1.395  10.228 -28.397  1.00  0.00    -0.266 OA
HETATM   12  C   UNL     1      -3.933   6.638 -26.991  1.00  0.00     0.022 C 
HETATM   13  C   UNL     1      -4.677   7.619 -27.886  1.00  0.00     0.032 C 
BRANCH   9  14
HETATM   14  C   UNL     1      -0.516   9.408 -26.383  1.00  0.00     0.142 A 
HETATM   15  N   UNL     1      -0.672  10.008 -25.142  1.00  0.00    -0.224 NA
HETATM   16  C   UNL     1       0.445   9.779 -24.486  1.00  0.00     0.134 A 
HETATM   17  C   UNL     1       0.868  10.161 -23.183  1.00  0.00     0.052 A 
HETATM   18  N   UNL     1       1.337   9.036 -25.248  1.00  0.00    -0.314 N 
HETATM   19  C   UNL     1       2.081   9.778 -22.738  1.00  0.00     0.022 A 
HETATM   20  C   UNL     1       2.982   8.962 -23.555  1.00  0.00     0.047 A 
HETATM   21  C   UNL     1       2.590   8.628 -24.801  1.00  0.00     0.115 A 
HETATM   22  C   UNL     1       0.735   8.815 -26.456  1.00  0.00     0.135 A 
BRANCH  20  23
HETATM   23  C   UNL     1       4.319   8.577 -23.018  1.00  0.00     0.250 C 
HETATM   24  N   UNL     1       4.377   7.401 -22.333  1.00  0.00    -0.366 N 
HETATM   25  H   UNL     1       5.259   7.179 -21.889  1.00  0.00     0.159 HD
HETATM   26  H   UNL     1       3.558   6.885 -22.048  1.00  0.00     0.159 HD
HETATM   27  O   UNL     1       5.303   9.294 -23.134  1.00  0.00    -0.268 OA
ENDBRANCH  20  23
ENDBRANCH   9  14
ENDBRANCH   1   7
BRANCH   5  28
HETATM   28  C   UNL     1      -3.251   4.828 -31.947  1.00  0.00     0.257 C 
HETATM   29  O   UNL     1      -2.330   4.087 -32.261  1.00  0.00    -0.267 OA
HETATM   30  N   UNL     1      -4.598   4.556 -31.962  1.00  0.00    -0.301 N 
HETATM   31  H   UNL     1      -5.274   5.284 -31.792  1.00  0.00     0.171 HD
BRANCH  30  32
HETATM   32  C   UNL     1      -5.098   3.313 -32.220  1.00  0.00     0.174 A 
HETATM   33  N   UNL     1      -5.627   2.828 -33.315  1.00  0.00    -0.228 NA
HETATM   34  C   UNL     1      -5.911   1.494 -33.127  1.00  0.00     0.050 A 
HETATM   35  C   UNL     1      -6.448   0.655 -34.234  1.00  0.00     0.062 C 
HETATM   36  C   UNL     1      -5.571   0.995 -31.888  1.00  0.00     0.013 A 
HETATM   37  C   UNL     1      -6.617  -0.825 -33.828  1.00  0.00     0.031 C 
HETATM   38  C   UNL     1      -5.649  -1.357 -32.724  1.00  0.00     0.084 C 
HETATM   39  C   UNL     1      -5.714  -0.423 -31.478  1.00  0.00     0.073 C 
HETATM   40  S   UNL     1      -4.944   2.230 -30.902  1.00  0.00    -0.055 SA
BRANCH  38  41
HETATM   41  N   UNL     1      -4.328  -1.816 -33.196  1.00  0.00    -0.404 N 
HETATM   42  C   UNL     1      -3.286  -2.236 -32.255  1.00  0.00     0.143 C 
HETATM   43  C   UNL     1      -3.249  -3.745 -31.971  1.00  0.00     0.187 C 
HETATM   44  O   UNL     1      -3.141  -4.494 -33.189  1.00  0.00    -0.388 OA
HETATM   45  C   UNL     1      -4.240  -4.196 -34.057  1.00  0.00     0.187 C 
HETATM   46  C   UNL     1      -4.322  -2.691 -34.380  1.00  0.00     0.143 C 
ENDBRANCH  38  41
ENDBRANCH  30  32
ENDBRANCH   5  28
TORSDOF 6
ENDMDL
MODEL 2
REMARK VINA RESULT:     -10.3      2.278     13.083
REMARK  6 active torsions:
REMARK  status: ('A' for Active; 'I' for Inactive)
REMARK       I    between atoms: N_1  and  C_2 
REMARK    1  A    between atoms: C_2  and  C_4 
REMARK    2  A    between atoms: C_9  and  C_13 
REMARK       I    between atoms: C_13  and  N_15 
REMARK    3  A    between atoms: C_19  and  C_20 
REMARK    4  A    between atoms: C_24  and  C_26 
REMARK       I    between atoms: C_26  and  N_28 
REMARK    5  A    between atoms: N_28  and  C_29 
REMARK    6  A    between atoms: C_34  and  N_38 
ROOT
HETATM    1  C   UNL     1      -3.867   5.150 -31.397  1.00  0.00    -0.034 A 
HETATM    2  C   UNL     1      -2.743   4.438 -31.854  1.00  0.00     0.009 A 
HETATM    3  C   UNL     1      -1.459   4.760 -31.411  1.00  0.00     0.002 A 
HETATM    4  C   UNL     1      -1.273   5.806 -30.509  1.00  0.00     0.017 A 
HETATM    5  C   UNL     1      -2.381   6.529 -30.051  1.00  0.00     0.033 A 
HETATM    6  C   UNL     1      -3.670   6.189 -30.474  1.00  0.00     0.026 A 
ENDROOT
BRANCH   1   7
HETATM    7  C   UNL     1      -5.246   4.763 -31.910  1.00  0.00     0.120 C 
HETATM    8  N   UNL     1      -5.294   3.443 -32.527  1.00  0.00    -0.338 N 
HETATM    9  C   UNL     1      -5.253   2.294 -31.750  1.00  0.00     0.274 C 
HETATM   10  C   UNL     1      -5.504   3.532 -33.965  1.00  0.00     0.127 C 
HETATM   11  O   UNL     1      -5.101   2.353 -30.528  1.00  0.00    -0.266 OA
HETATM   12  C   UNL     1      -5.314   5.006 -34.299  1.00  0.00     0.022 C 
HETATM   13  C   UNL     1      -5.736   5.707 -33.015  1.00  0.00     0.032 C 
BRANCH   9  14
HETATM   14  C   UNL     1      -5.379   0.986 -32.414  1.00  0.00     0.142 A 
HETATM   15  N   UNL     1      -6.423   0.581 -33.232  1.00  0.00    -0.224 NA
HETATM   16  C   UNL     1      -6.144  -0.654 -33.590  1.00  0.00     0.134 A 
HETATM   17  C   UNL     1      -6.851  -1.582 -34.404  1.00  0.00     0.052 A 
HETATM   18  N   UNL     1      -4.941  -1.081 -33.044  1.00  0.00    -0.314 N 
HETATM   19  C   UNL     1      -6.328  -2.804 -34.628  1.00  0.00     0.022 A 
HETATM   20  C   UNL     1      -5.038  -3.207 -34.067  1.00  0.00     0.047 A 
HETATM   21  C   UNL     1      -4.386  -2.337 -33.270  1.00  0.00     0.115 A 
HETATM   22  C   UNL     1      -4.464  -0.047 -32.286  1.00  0.00     0.135 A 
BRANCH  20  23
HETATM   23  C   UNL     1      -4.512  -4.577 -34.336  1.00  0.00     0.250 C 
HETATM   24  N   UNL     1      -3.234  -4.821 -33.934  1.00  0.00    -0.366 N 
HETATM   25  H   UNL     1      -2.840  -5.716 -34.196  1.00  0.00     0.159 HD
HETATM   26  H   UNL     1      -2.604  -4.097 -33.623  1.00  0.00     0.159 HD
HETATM   27  O   UNL     1      -5.163  -5.424 -34.933  1.00  0.00    -0.268 OA
ENDBRANCH  20  23
ENDBRANCH   9  14
ENDBRANCH   1   7
BRANCH   5  28
HETATM   28  C   UNL     1      -2.221   7.666 -29.105  1.00  0.00     0.257 C 
HETATM   29  O   UNL     1      -2.751   8.732 -29.382  1.00  0.00    -0.267 OA
HETATM   30  N   UNL     1      -1.437   7.368 -28.018  1.00  0.00    -0.301 N 
HETATM   31  H   UNL     1      -0.956   6.484 -27.954  1.00  0.00     0.171 HD
BRANCH  30  32
HETATM   32  C   UNL     1      -1.246   8.237 -26.983  1.00  0.00     0.174 A 
HETATM   33  N   UNL     1      -1.804   8.274 -25.800  1.00  0.00    -0.228 NA
HETATM   34  C   UNL     1      -1.229   9.285 -25.061  1.00  0.00     0.050 A 
HETATM   35  C   UNL     1      -1.608   9.513 -23.639  1.00  0.00     0.062 C 
HETATM   36  C   UNL     1      -0.231   9.982 -25.706  1.00  0.00     0.013 A 
HETATM   37  C   UNL     1      -0.786  10.641 -22.980  1.00  0.00     0.031 C 
HETATM   38  C   UNL     1       0.651  10.875 -23.547  1.00  0.00     0.084 C 
HETATM   39  C   UNL     1       0.579  11.063 -25.093  1.00  0.00     0.073 C 
HETATM   40  S   UNL     1      -0.044   9.417 -27.298  1.00  0.00    -0.055 SA
BRANCH  38  41
HETATM   41  N   UNL     1       1.709  10.012 -22.988  1.00  0.00    -0.404 N 
HETATM   42  C   UNL     1       2.289   8.914 -23.766  1.00  0.00     0.143 C 
HETATM   43  C   UNL     1       3.566   9.278 -24.536  1.00  0.00     0.187 C 
HETATM   44  O   UNL     1       4.555   9.831 -23.657  1.00  0.00    -0.388 OA
HETATM   45  C   UNL     1       4.043  10.995 -23.000  1.00  0.00     0.187 C 
HETATM   46  C   UNL     1       2.760  10.686 -22.205  1.00  0.00     0.143 C 
ENDBRANCH  38  41
ENDBRANCH  30  32
ENDBRANCH   5  28
TORSDOF 6
ENDMDL
MODEL 3
REMARK VINA RESULT:     -10.2      3.830     11.767
REMARK  6 active torsions:
REMARK  status: ('A' for Active; 'I' for Inactive)
REMARK       I    between atoms: N_1  and  C_2 
REMARK    1  A    between atoms: C_2  and  C_4 
REMARK    2  A    between atoms: C_9  and  C_13 
REMARK       I    between atoms: C_13  and  N_15 
REMARK    3  A    between atoms: C_19  and  C_20 
REMARK    4  A    between atoms: C_24  and  C_26 
REMARK       I    between atoms: C_26  and  N_28 
REMARK    5  A    between atoms: N_28  and  C_29 
REMARK    6  A    between atoms: C_34  and  N_38 
ROOT
HETATM    1  C   UNL     1     -10.491   5.042 -32.059  1.00  0.00    -0.034 A 
HETATM    2  C   UNL     1     -11.361   5.894 -31.355  1.00  0.00     0.009 A 
HETATM    3  C   UNL     1     -10.893   7.064 -30.755  1.00  0.00     0.002 A 
HETATM    4  C   UNL     1      -9.543   7.401 -30.839  1.00  0.00     0.017 A 
HETATM    5  C   UNL     1      -8.663   6.560 -31.530  1.00  0.00     0.033 A 
HETATM    6  C   UNL     1      -9.137   5.401 -32.154  1.00  0.00     0.026 A 
ENDROOT
BRANCH   1   7
HETATM    7  C   UNL     1     -11.047   3.777 -32.695  1.00  0.00     0.120 C 
HETATM    8  N   UNL     1     -10.020   2.823 -33.098  1.00  0.00    -0.338 N 
HETATM    9  C   UNL     1      -9.349   2.061 -32.153  1.00  0.00     0.274 C 
HETATM   10  C   UNL     1      -9.923   2.724 -34.547  1.00  0.00     0.127 C 
HETATM   11  O   UNL     1      -9.544   2.219 -30.947  1.00  0.00    -0.266 OA
HETATM   12  C   UNL     1     -10.760   3.881 -35.078  1.00  0.00     0.022 C 
HETATM   13  C   UNL     1     -11.810   4.072 -33.992  1.00  0.00     0.032 C 
BRANCH   9  14
HETATM   14  C   UNL     1      -8.374   1.058 -32.616  1.00  0.00     0.142 A 
HETATM   15  N   UNL     1      -6.994   1.190 -32.600  1.00  0.00    -0.224 NA
HETATM   16  C   UNL     1      -6.519   0.078 -33.118  1.00  0.00     0.134 A 
HETATM   17  C   UNL     1      -5.186  -0.348 -33.371  1.00  0.00     0.052 A 
HETATM   18  N   UNL     1      -7.540  -0.795 -33.469  1.00  0.00    -0.314 N 
HETATM   19  C   UNL     1      -4.967  -1.564 -33.910  1.00  0.00     0.022 A 
HETATM   20  C   UNL     1      -6.066  -2.475 -34.233  1.00  0.00     0.047 A 
HETATM   21  C   UNL     1      -7.330  -2.055 -34.021  1.00  0.00     0.115 A 
HETATM   22  C   UNL     1      -8.716  -0.167 -33.166  1.00  0.00     0.135 A 
BRANCH  20  23
HETATM   23  C   UNL     1      -5.769  -3.805 -34.839  1.00  0.00     0.250 C 
HETATM   24  N   UNL     1      -6.834  -4.495 -35.332  1.00  0.00    -0.366 N 
HETATM   25  H   UNL     1      -6.652  -5.435 -35.660  1.00  0.00     0.159 HD
HETATM   26  H   UNL     1      -7.793  -4.227 -35.165  1.00  0.00     0.159 HD
HETATM   27  O   UNL     1      -4.642  -4.284 -34.849  1.00  0.00    -0.268 OA
ENDBRANCH  20  23
ENDBRANCH   9  14
ENDBRANCH   1   7
BRANCH   5  28
HETATM   28  C   UNL     1      -7.212   6.873 -31.623  1.00  0.00     0.257 C 
HETATM   29  O   UNL     1      -6.820   7.947 -31.188  1.00  0.00    -0.267 OA
HETATM   30  N   UNL     1      -6.478   5.892 -32.243  1.00  0.00    -0.301 N 
HETATM   31  H   UNL     1      -6.931   5.097 -32.666  1.00  0.00     0.171 HD
BRANCH  30  32
HETATM   32  C   UNL     1      -5.118   5.938 -32.342  1.00  0.00     0.174 A 
HETATM   33  N   UNL     1      -4.351   6.697 -33.083  1.00  0.00    -0.228 NA
HETATM   34  C   UNL     1      -3.032   6.442 -32.778  1.00  0.00     0.050 A 
HETATM   35  C   UNL     1      -1.930   7.219 -33.409  1.00  0.00     0.062 C 
HETATM   36  C   UNL     1      -2.835   5.500 -31.793  1.00  0.00     0.013 A 
HETATM   37  C   UNL     1      -0.540   6.825 -32.865  1.00  0.00     0.031 C 
HETATM   38  C   UNL     1      -0.496   6.283 -31.401  1.00  0.00     0.084 C 
HETATM   39  C   UNL     1      -1.511   5.110 -31.247  1.00  0.00     0.073 C 
HETATM   40  S   UNL     1      -4.321   4.858 -31.276  1.00  0.00    -0.055 SA
BRANCH  38  41
HETATM   41  N   UNL     1      -0.430   7.306 -30.340  1.00  0.00    -0.404 N 
HETATM   42  C   UNL     1      -1.640   7.969 -29.843  1.00  0.00     0.143 C 
HETATM   43  C   UNL     1      -2.266   7.315 -28.604  1.00  0.00     0.187 C 
HETATM   44  O   UNL     1      -1.304   7.195 -27.546  1.00  0.00    -0.388 OA
HETATM   45  C   UNL     1      -0.181   6.421 -27.980  1.00  0.00     0.187 C 
HETATM   46  C   UNL     1       0.491   7.035 -29.223  1.00  0.00     0.143 C 
ENDBRANCH  38  41
ENDBRANCH  30  32
ENDBRANCH   5  28
TORSDOF 6
ENDMDL
MODEL 4
REMARK VINA RESULT:     -10.2      6.630     11.425
REMARK  6 active torsions:
REMARK  status: ('A' for Active; 'I' for Inactive)
REMARK       I    between atoms: N_1  and  C_2 
REMARK    1  A    between atoms: C_2  and  C_4 
REMARK    2  A    between atoms: C_9  and  C_13 
REMARK       I    between atoms: C_13  and  N_15 
REMARK    3  A    between atoms: C_19  and  C_20 
REMARK    4  A    between atoms: C_24  and  C_26 
REMARK       I    between atoms: C_26  and  N_28 
REMARK    5  A    between atoms: N_28  and  C_29 
REMARK    6  A    between atoms: C_34  and  N_38 
ROOT
HETATM    1  C   UNL     1      -9.480   0.447 -33.395  1.00  0.00    -0.034 A 
HETATM    2  C   UNL     1     -10.606  -0.292 -32.990  1.00  0.00     0.009 A 
HETATM    3  C   UNL     1     -11.899   0.152 -33.275  1.00  0.00     0.002 A 
HETATM    4  C   UNL     1     -12.090   1.348 -33.964  1.00  0.00     0.017 A 
HETATM    5  C   UNL     1     -10.979   2.099 -34.367  1.00  0.00     0.033 A 
HETATM    6  C   UNL     1      -9.684   1.641 -34.105  1.00  0.00     0.026 A 
ENDROOT
BRANCH   1   7
HETATM    7  C   UNL     1      -8.092  -0.077 -33.060  1.00  0.00     0.120 C 
HETATM    8  N   UNL     1      -7.043   0.931 -33.168  1.00  0.00    -0.338 N 
HETATM    9  C   UNL     1      -6.908   1.922 -32.206  1.00  0.00     0.274 C 
HETATM   10  C   UNL     1      -6.157   0.662 -34.292  1.00  0.00     0.127 C 
HETATM   11  O   UNL     1      -7.712   2.026 -31.278  1.00  0.00    -0.266 OA
HETATM   12  C   UNL     1      -6.854  -0.434 -35.089  1.00  0.00     0.022 C 
HETATM   13  C   UNL     1      -7.644  -1.183 -34.024  1.00  0.00     0.032 C 
BRANCH   9  14
HETATM   14  C   UNL     1      -5.788   2.871 -32.320  1.00  0.00     0.142 A 
HETATM   15  N   UNL     1      -5.764   4.019 -33.096  1.00  0.00    -0.224 NA
HETATM   16  C   UNL     1      -4.574   4.552 -32.918  1.00  0.00     0.134 A 
HETATM   17  C   UNL     1      -3.973   5.719 -33.465  1.00  0.00     0.052 A 
HETATM   18  N   UNL     1      -3.808   3.798 -32.039  1.00  0.00    -0.314 N 
HETATM   19  C   UNL     1      -2.719   6.054 -33.101  1.00  0.00     0.022 A 
HETATM   20  C   UNL     1      -1.953   5.256 -32.142  1.00  0.00     0.047 A 
HETATM   21  C   UNL     1      -2.515   4.134 -31.650  1.00  0.00     0.115 A 
HETATM   22  C   UNL     1      -4.571   2.724 -31.673  1.00  0.00     0.135 A 
BRANCH  20  23
HETATM   23  C   UNL     1      -0.564   5.666 -31.784  1.00  0.00     0.250 C 
HETATM   24  N   UNL     1      -0.273   6.989 -31.916  1.00  0.00    -0.366 N 
HETATM   25  H   UNL     1       0.691   7.258 -31.763  1.00  0.00     0.159 HD
HETATM   26  H   UNL     1      -0.882   7.646 -32.380  1.00  0.00     0.159 HD
HETATM   27  O   UNL     1       0.289   4.858 -31.441  1.00  0.00    -0.268 OA
ENDBRANCH  20  23
ENDBRANCH   9  14
ENDBRANCH   1   7
BRANCH   5  28
HETATM   28  C   UNL     1     -11.143   3.391 -35.085  1.00  0.00     0.257 C 
HETATM   29  O   UNL     1     -11.828   3.413 -36.097  1.00  0.00    -0.267 OA
HETATM   30  N   UNL     1     -10.446   4.427 -34.513  1.00  0.00    -0.301 N 
HETATM   31  H   UNL     1      -9.819   4.265 -33.741  1.00  0.00     0.171 HD
BRANCH  30  32
HETATM   32  C   UNL     1     -10.540   5.715 -34.956  1.00  0.00     0.174 A 
HETATM   33  N   UNL     1     -10.040   6.276 -36.028  1.00  0.00    -0.228 NA
HETATM   34  C   UNL     1     -10.475   7.581 -36.099  1.00  0.00     0.050 A 
HETATM   35  C   UNL     1     -10.131   8.447 -37.260  1.00  0.00     0.062 C 
HETATM   36  C   UNL     1     -11.313   7.972 -35.077  1.00  0.00     0.013 A 
HETATM   37  C   UNL     1     -10.787   9.842 -37.174  1.00  0.00     0.031 C 
HETATM   38  C   UNL     1     -12.136   9.928 -36.393  1.00  0.00     0.084 C 
HETATM   39  C   UNL     1     -11.962   9.302 -34.976  1.00  0.00     0.073 C 
HETATM   40  S   UNL     1     -11.515   6.709 -33.958  1.00  0.00    -0.055 SA
BRANCH  38  41
HETATM   41  N   UNL     1     -13.348   9.597 -37.168  1.00  0.00    -0.404 N 
HETATM   42  C   UNL     1     -13.390   8.434 -38.059  1.00  0.00     0.143 C 
HETATM   43  C   UNL     1     -13.950   7.156 -37.419  1.00  0.00     0.187 C 
HETATM   44  O   UNL     1     -15.249   7.390 -36.858  1.00  0.00    -0.388 OA
HETATM   45  C   UNL     1     -15.188   8.431 -35.877  1.00  0.00     0.187 C 
HETATM   46  C   UNL     1     -14.635   9.743 -36.467  1.00  0.00     0.143 C 
ENDBRANCH  38  41
ENDBRANCH  30  32
ENDBRANCH   5  28
TORSDOF 6
ENDMDL
MODEL 5
REMARK VINA RESULT:     -10.2      4.135      7.728
REMARK  6 active torsions:
REMARK  status: ('A' for Active; 'I' for Inactive)
REMARK       I    between atoms: N_1  and  C_2 
REMARK    1  A    between atoms: C_2  and  C_4 
REMARK    2  A    between atoms: C_9  and  C_13 
REMARK       I    between atoms: C_13  and  N_15 
REMARK    3  A    between atoms: C_19  and  C_20 
REMARK    4  A    between atoms: C_24  and  C_26 
REMARK       I    between atoms: C_26  and  N_28 
REMARK    5  A    between atoms: N_28  and  C_29 
REMARK    6  A    between atoms: C_34  and  N_38 
ROOT
HETATM    1  C   UNL     1      -1.495   8.297 -28.821  1.00  0.00    -0.034 A 
HETATM    2  C   UNL     1      -0.148   8.363 -28.422  1.00  0.00     0.009 A 
HETATM    3  C   UNL     1       0.789   7.443 -28.896  1.00  0.00     0.002 A 
HETATM    4  C   UNL     1       0.395   6.433 -29.772  1.00  0.00     0.017 A 
HETATM    5  C   UNL     1      -0.944   6.349 -30.173  1.00  0.00     0.033 A 
HETATM    6  C   UNL     1      -1.877   7.287 -29.719  1.00  0.00     0.026 A 
ENDROOT
BRANCH   1   7
HETATM    7  C   UNL     1      -2.480   9.320 -28.277  1.00  0.00     0.120 C 
HETATM    8  N   UNL     1      -3.870   9.032 -28.609  1.00  0.00    -0.338 N 
HETATM    9  C   UNL     1      -4.559   8.016 -27.962  1.00  0.00     0.274 C 
HETATM   10  C   UNL     1      -4.403   9.996 -29.561  1.00  0.00     0.127 C 
HETATM   11  O   UNL     1      -3.998   7.282 -27.146  1.00  0.00    -0.266 OA
HETATM   12  C   UNL     1      -3.190  10.777 -30.051  1.00  0.00     0.022 C 
HETATM   13  C   UNL     1      -2.241  10.718 -28.862  1.00  0.00     0.032 C 
BRANCH   9  14
HETATM   14  C   UNL     1      -5.982   7.813 -28.279  1.00  0.00     0.142 A 
HETATM   15  N   UNL     1      -7.056   8.426 -27.652  1.00  0.00    -0.224 NA
HETATM   16  C   UNL     1      -8.136   7.945 -28.230  1.00  0.00     0.134 A 
HETATM   17  C   UNL     1      -9.517   8.190 -27.998  1.00  0.00     0.052 A 
HETATM   18  N   UNL     1      -7.813   7.038 -29.231  1.00  0.00    -0.314 N 
HETATM   19  C   UNL     1     -10.440   7.564 -28.755  1.00  0.00     0.022 A 
HETATM   20  C   UNL     1     -10.064   6.642 -29.827  1.00  0.00     0.047 A 
HETATM   21  C   UNL     1      -8.755   6.388 -30.024  1.00  0.00     0.115 A 
HETATM   22  C   UNL     1      -6.450   6.942 -29.252  1.00  0.00     0.135 A 
BRANCH  20  23
HETATM   23  C   UNL     1     -11.127   5.966 -30.627  1.00  0.00     0.250 C 
HETATM   24  N   UNL     1     -11.332   4.646 -30.364  1.00  0.00    -0.366 N 
HETATM   25  H   UNL     1     -11.986   4.161 -30.965  1.00  0.00     0.159 HD
HETATM   26  H   UNL     1     -10.712   4.093 -29.791  1.00  0.00     0.159 HD
HETATM   27  O   UNL     1     -11.748   6.542 -31.510  1.00  0.00    -0.268 OA
ENDBRANCH  20  23
ENDBRANCH   9  14
ENDBRANCH   1   7
BRANCH   5  28
HETATM   28  C   UNL     1      -1.408   5.272 -31.088  1.00  0.00     0.257 C 
HETATM   29  O   UNL     1      -0.632   4.856 -31.937  1.00  0.00    -0.267 OA
HETATM   30  N   UNL     1      -2.711   4.895 -30.875  1.00  0.00    -0.301 N 
HETATM   31  H   UNL     1      -3.292   5.392 -30.218  1.00  0.00     0.171 HD
BRANCH  30  32
HETATM   32  C   UNL     1      -3.298   3.857 -31.539  1.00  0.00     0.174 A 
HETATM   33  N   UNL     1      -3.048   2.573 -31.485  1.00  0.00    -0.228 NA
HETATM   34  C   UNL     1      -3.959   1.902 -32.270  1.00  0.00     0.050 A 
HETATM   35  C   UNL     1      -3.971   0.415 -32.340  1.00  0.00     0.062 C 
HETATM   36  C   UNL     1      -4.894   2.703 -32.890  1.00  0.00     0.013 A 
HETATM   37  C   UNL     1      -5.123  -0.128 -33.212  1.00  0.00     0.031 C 
HETATM   38  C   UNL     1      -6.406   0.757 -33.299  1.00  0.00     0.084 C 
HETATM   39  C   UNL     1      -6.015   2.205 -33.725  1.00  0.00     0.073 C 
HETATM   40  S   UNL     1      -4.596   4.341 -32.547  1.00  0.00    -0.055 SA
BRANCH  38  41
HETATM   41  N   UNL     1      -7.381   0.581 -32.206  1.00  0.00    -0.404 N 
HETATM   42  C   UNL     1      -7.252   1.313 -30.942  1.00  0.00     0.143 C 
HETATM   43  C   UNL     1      -8.041   2.629 -30.879  1.00  0.00     0.187 C 
HETATM   44  O   UNL     1      -9.426   2.411 -31.180  1.00  0.00    -0.388 OA
HETATM   45  C   UNL     1      -9.569   1.828 -32.479  1.00  0.00     0.187 C 
HETATM   46  C   UNL     1      -8.799   0.499 -32.598  1.00  0.00     0.143 C 
ENDBRANCH  38  41
ENDBRANCH  30  32
ENDBRANCH   5  28
TORSDOF 6
ENDMDL
MODEL 6
REMARK VINA RESULT:     -10.0      1.710      2.402
REMARK  6 active torsions:
REMARK  status: ('A' for Active; 'I' for Inactive)
REMARK       I    between atoms: N_1  and  C_2 
REMARK    1  A    between atoms: C_2  and  C_4 
REMARK    2  A    between atoms: C_9  and  C_13 
REMARK       I    between atoms: C_13  and  N_15 
REMARK    3  A    between atoms: C_19  and  C_20 
REMARK    4  A    between atoms: C_24  and  C_26 
REMARK       I    between atoms: C_26  and  N_28 
REMARK    5  A    between atoms: N_28  and  C_29 
REMARK    6  A    between atoms: C_34  and  N_38 
ROOT
HETATM    1  C   UNL     1      -3.180   7.542 -28.637  1.00  0.00    -0.034 A 
HETATM    2  C   UNL     1      -3.689   7.754 -27.343  1.00  0.00     0.009 A 
HETATM    3  C   UNL     1      -4.833   7.086 -26.902  1.00  0.00     0.002 A 
HETATM    4  C   UNL     1      -5.496   6.201 -27.750  1.00  0.00     0.017 A 
HETATM    5  C   UNL     1      -5.006   5.985 -29.044  1.00  0.00     0.033 A 
HETATM    6  C   UNL     1      -3.845   6.634 -29.476  1.00  0.00     0.026 A 
ENDROOT
BRANCH   1   7
HETATM    7  C   UNL     1      -1.932   8.294 -29.072  1.00  0.00     0.120 C 
HETATM    8  N   UNL     1      -1.144   8.816 -27.962  1.00  0.00    -0.338 N 
HETATM    9  C   UNL     1      -0.370   7.971 -27.180  1.00  0.00     0.274 C 
HETATM   10  C   UNL     1      -1.202  10.270 -27.902  1.00  0.00     0.127 C 
HETATM   11  O   UNL     1      -0.383   6.750 -27.352  1.00  0.00    -0.266 OA
HETATM   12  C   UNL     1      -2.306  10.659 -28.877  1.00  0.00     0.022 C 
HETATM   13  C   UNL     1      -2.268   9.537 -29.906  1.00  0.00     0.032 C 
BRANCH   9  14
HETATM   14  C   UNL     1       0.466   8.556 -26.118  1.00  0.00     0.142 A 
HETATM   15  N   UNL     1       0.011   9.262 -25.015  1.00  0.00    -0.224 NA
HETATM   16  C   UNL     1       1.085   9.616 -24.344  1.00  0.00     0.134 A 
HETATM   17  C   UNL     1       1.244  10.366 -23.146  1.00  0.00     0.052 A 
HETATM   18  N   UNL     1       2.242   9.158 -24.961  1.00  0.00    -0.314 N 
HETATM   19  C   UNL     1       2.480  10.580 -22.653  1.00  0.00     0.022 A 
HETATM   20  C   UNL     1       3.676  10.050 -23.310  1.00  0.00     0.047 A 
HETATM   21  C   UNL     1       3.525   9.366 -24.462  1.00  0.00     0.115 A 
HETATM   22  C   UNL     1       1.850   8.500 -26.094  1.00  0.00     0.135 A 
BRANCH  20  23
HETATM   23  C   UNL     1       5.021  10.327 -22.729  1.00  0.00     0.250 C 
HETATM   24  N   UNL     1       6.029  10.545 -23.618  1.00  0.00    -0.366 N 
HETATM   25  H   UNL     1       6.960  10.642 -23.233  1.00  0.00     0.159 HD
HETATM   26  H   UNL     1       5.940  10.373 -24.608  1.00  0.00     0.159 HD
HETATM   27  O   UNL     1       5.231  10.309 -21.523  1.00  0.00    -0.268 OA
ENDBRANCH  20  23
ENDBRANCH   9  14
ENDBRANCH   1   7
BRANCH   5  28
HETATM   28  C   UNL     1      -5.698   5.066 -29.985  1.00  0.00     0.257 C 
HETATM   29  O   UNL     1      -6.683   5.477 -30.583  1.00  0.00    -0.267 OA
HETATM   30  N   UNL     1      -5.140   3.812 -30.036  1.00  0.00    -0.301 N 
HETATM   31  H   UNL     1      -4.395   3.552 -29.408  1.00  0.00     0.171 HD
BRANCH  30  32
HETATM   32  C   UNL     1      -5.560   2.850 -30.909  1.00  0.00     0.174 A 
HETATM   33  N   UNL     1      -5.765   2.915 -32.200  1.00  0.00    -0.228 NA
HETATM   34  C   UNL     1      -6.103   1.664 -32.667  1.00  0.00     0.050 A 
HETATM   35  C   UNL     1      -6.315   1.414 -34.119  1.00  0.00     0.062 C 
HETATM   36  C   UNL     1      -6.128   0.673 -31.710  1.00  0.00     0.013 A 
HETATM   37  C   UNL     1      -6.605  -0.070 -34.429  1.00  0.00     0.031 C 
HETATM   38  C   UNL     1      -5.992  -1.117 -33.446  1.00  0.00     0.084 C 
HETATM   39  C   UNL     1      -6.395  -0.760 -31.983  1.00  0.00     0.073 C 
HETATM   40  S   UNL     1      -5.792   1.320 -30.175  1.00  0.00    -0.055 SA
BRANCH  38  41
HETATM   41  N   UNL     1      -4.596  -1.512 -33.718  1.00  0.00    -0.404 N 
HETATM   42  C   UNL     1      -3.586  -1.529 -32.656  1.00  0.00     0.143 C 
HETATM   43  C   UNL     1      -3.402  -2.889 -31.968  1.00  0.00     0.187 C 
HETATM   44  O   UNL     1      -3.119  -3.915 -32.930  1.00  0.00    -0.388 OA
HETATM   45  C   UNL     1      -4.176  -4.003 -33.891  1.00  0.00     0.187 C 
HETATM   46  C   UNL     1      -4.403  -2.663 -34.617  1.00  0.00     0.143 C 
ENDBRANCH  38  41
ENDBRANCH  30  32
ENDBRANCH   5  28
TORSDOF 6
ENDMDL
MODEL 7
REMARK VINA RESULT:      -9.9      2.794     13.372
REMARK  6 active torsions:
REMARK  status: ('A' for Active; 'I' for Inactive)
REMARK       I    between atoms: N_1  and  C_2 
REMARK    1  A    between atoms: C_2  and  C_4 
REMARK    2  A    between atoms: C_9  and  C_13 
REMARK       I    between atoms: C_13  and  N_15 
REMARK    3  A    between atoms: C_19  and  C_20 
REMARK    4  A    between atoms: C_24  and  C_26 
REMARK       I    between atoms: C_26  and  N_28 
REMARK    5  A    between atoms: N_28  and  C_29 
REMARK    6  A    between atoms: C_34  and  N_38 
ROOT
HETATM    1  C   UNL     1      -1.403   6.142 -31.116  1.00  0.00    -0.034 A 
HETATM    2  C   UNL     1      -0.410   5.203 -31.450  1.00  0.00     0.009 A 
HETATM    3  C   UNL     1       0.663   4.955 -30.593  1.00  0.00     0.002 A 
HETATM    4  C   UNL     1       0.770   5.648 -29.389  1.00  0.00     0.017 A 
HETATM    5  C   UNL     1      -0.205   6.591 -29.045  1.00  0.00     0.033 A 
HETATM    6  C   UNL     1      -1.295   6.820 -29.891  1.00  0.00     0.026 A 
ENDROOT
BRANCH   1   7
HETATM    7  C   UNL     1      -2.553   6.380 -32.083  1.00  0.00     0.120 C 
HETATM    8  N   UNL     1      -3.127   5.153 -32.623  1.00  0.00    -0.338 N 
HETATM    9  C   UNL     1      -3.942   4.346 -31.842  1.00  0.00     0.274 C 
HETATM   10  C   UNL     1      -2.831   5.002 -34.040  1.00  0.00     0.127 C 
HETATM   11  O   UNL     1      -4.143   4.601 -30.653  1.00  0.00    -0.266 OA
HETATM   12  C   UNL     1      -1.785   6.069 -34.339  1.00  0.00     0.022 C 
HETATM   13  C   UNL     1      -2.109   7.160 -33.327  1.00  0.00     0.032 C 
BRANCH   9  14
HETATM   14  C   UNL     1      -4.559   3.158 -32.455  1.00  0.00     0.142 A 
HETATM   15  N   UNL     1      -5.757   3.126 -33.152  1.00  0.00    -0.224 NA
HETATM   16  C   UNL     1      -5.938   1.871 -33.504  1.00  0.00     0.134 A 
HETATM   17  C   UNL     1      -6.991   1.235 -34.217  1.00  0.00     0.052 A 
HETATM   18  N   UNL     1      -4.891   1.068 -33.071  1.00  0.00    -0.314 N 
HETATM   19  C   UNL     1      -6.924  -0.090 -34.460  1.00  0.00     0.022 A 
HETATM   20  C   UNL     1      -5.786  -0.899 -34.022  1.00  0.00     0.047 A 
HETATM   21  C   UNL     1      -4.805  -0.299 -33.319  1.00  0.00     0.115 A 
HETATM   22  C   UNL     1      -4.025   1.881 -32.393  1.00  0.00     0.135 A 
BRANCH  20  23
HETATM   23  C   UNL     1      -5.769  -2.364 -34.307  1.00  0.00     0.250 C 
HETATM   24  N   UNL     1      -6.960  -2.924 -34.658  1.00  0.00    -0.366 N 
HETATM   25  H   UNL     1      -6.973  -3.930 -34.762  1.00  0.00     0.159 HD
HETATM   26  H   UNL     1      -7.843  -2.442 -34.578  1.00  0.00     0.159 HD
HETATM   27  O   UNL     1      -4.759  -3.043 -34.182  1.00  0.00    -0.268 OA
ENDBRANCH  20  23
ENDBRANCH   9  14
ENDBRANCH   1   7
BRANCH   5  28
HETATM   28  C   UNL     1      -0.114   7.366 -27.779  1.00  0.00     0.257 C 
HETATM   29  O   UNL     1      -1.149   7.638 -27.187  1.00  0.00    -0.267 OA
HETATM   30  N   UNL     1       1.169   7.722 -27.446  1.00  0.00    -0.301 N 
HETATM   31  H   UNL     1       1.936   7.540 -28.075  1.00  0.00     0.171 HD
BRANCH  30  32
HETATM   32  C   UNL     1       1.482   8.349 -26.274  1.00  0.00     0.174 A 
HETATM   33  N   UNL     1       1.741   7.847 -25.093  1.00  0.00    -0.228 NA
HETATM   34  C   UNL     1       2.090   8.867 -24.236  1.00  0.00     0.050 A 
HETATM   35  C   UNL     1       2.518   8.588 -22.838  1.00  0.00     0.062 C 
HETATM   36  C   UNL     1       2.102  10.124 -24.801  1.00  0.00     0.013 A 
HETATM   37  C   UNL     1       2.940   9.865 -22.080  1.00  0.00     0.031 C 
HETATM   38  C   UNL     1       3.511  11.031 -22.949  1.00  0.00     0.084 C 
HETATM   39  C   UNL     1       2.512  11.364 -24.098  1.00  0.00     0.073 C 
HETATM   40  S   UNL     1       1.600  10.051 -26.423  1.00  0.00    -0.055 SA
BRANCH  38  41
HETATM   41  N   UNL     1       4.950  10.950 -23.265  1.00  0.00    -0.404 N 
HETATM   42  C   UNL     1       5.960  11.538 -22.379  1.00  0.00     0.143 C 
HETATM   43  C   UNL     1       6.553  10.566 -21.349  1.00  0.00     0.187 C 
HETATM   44  O   UNL     1       7.084   9.399 -21.991  1.00  0.00    -0.388 OA
HETATM   45  C   UNL     1       6.062   8.735 -22.743  1.00  0.00     0.187 C 
HETATM   46  C   UNL     1       5.433   9.665 -23.799  1.00  0.00     0.143 C 
ENDBRANCH  38  41
ENDBRANCH  30  32
ENDBRANCH   5  28
TORSDOF 6
ENDMDL
MODEL 8
REMARK VINA RESULT:      -9.8      8.943     13.983
REMARK  6 active torsions:
REMARK  status: ('A' for Active; 'I' for Inactive)
REMARK       I    between atoms: N_1  and  C_2 
REMARK    1  A    between atoms: C_2  and  C_4 
REMARK    2  A    between atoms: C_9  and  C_13 
REMARK       I    between atoms: C_13  and  N_15 
REMARK    3  A    between atoms: C_19  and  C_20 
REMARK    4  A    between atoms: C_24  and  C_26 
REMARK       I    between atoms: C_26  and  N_28 
REMARK    5  A    between atoms: N_28  and  C_29 
REMARK    6  A    between atoms: C_34  and  N_38 
ROOT
HETATM    1  C   UNL     1     -13.344   2.464 -33.795  1.00  0.00    -0.034 A 
HETATM    2  C   UNL     1     -14.313   1.493 -33.487  1.00  0.00     0.009 A 
HETATM    3  C   UNL     1     -15.357   1.772 -32.603  1.00  0.00     0.002 A 
HETATM    4  C   UNL     1     -15.447   3.027 -32.004  1.00  0.00     0.017 A 
HETATM    5  C   UNL     1     -14.486   4.003 -32.294  1.00  0.00     0.033 A 
HETATM    6  C   UNL     1     -13.456   3.731 -33.200  1.00  0.00     0.026 A 
ENDROOT
BRANCH   1   7
HETATM    7  C   UNL     1     -12.225   2.112 -34.763  1.00  0.00     0.120 C 
HETATM    8  N   UNL     1     -10.935   1.901 -34.116  1.00  0.00    -0.338 N 
HETATM    9  C   UNL     1     -10.683   0.743 -33.394  1.00  0.00     0.274 C 
HETATM   10  C   UNL     1      -9.994   2.963 -34.441  1.00  0.00     0.127 C 
HETATM   11  O   UNL     1     -11.562  -0.102 -33.215  1.00  0.00    -0.266 OA
HETATM   12  C   UNL     1     -10.833   4.038 -35.120  1.00  0.00     0.022 C 
HETATM   13  C   UNL     1     -11.956   3.239 -35.769  1.00  0.00     0.032 C 
BRANCH   9  14
HETATM   14  C   UNL     1      -9.341   0.543 -32.823  1.00  0.00     0.142 A 
HETATM   15  N   UNL     1      -8.857   1.110 -31.654  1.00  0.00    -0.224 NA
HETATM   16  C   UNL     1      -7.618   0.683 -31.531  1.00  0.00     0.134 A 
HETATM   17  C   UNL     1      -6.625   0.942 -30.546  1.00  0.00     0.052 A 
HETATM   18  N   UNL     1      -7.266  -0.159 -32.578  1.00  0.00    -0.314 N 
HETATM   19  C   UNL     1      -5.415   0.357 -30.651  1.00  0.00     0.022 A 
HETATM   20  C   UNL     1      -5.091  -0.555 -31.748  1.00  0.00     0.047 A 
HETATM   21  C   UNL     1      -6.023  -0.774 -32.697  1.00  0.00     0.115 A 
HETATM   22  C   UNL     1      -8.353  -0.235 -33.405  1.00  0.00     0.135 A 
BRANCH  20  23
HETATM   23  C   UNL     1      -3.732  -1.166 -31.823  1.00  0.00     0.250 C 
HETATM   24  N   UNL     1      -2.725  -0.470 -31.228  1.00  0.00    -0.366 N 
HETATM   25  H   UNL     1      -1.788  -0.832 -31.354  1.00  0.00     0.159 HD
HETATM   26  H   UNL     1      -2.827   0.477 -30.895  1.00  0.00     0.159 HD
HETATM   27  O   UNL     1      -3.514  -2.206 -32.430  1.00  0.00    -0.268 OA
ENDBRANCH  20  23
ENDBRANCH   9  14
ENDBRANCH   1   7
BRANCH   5  28
HETATM   28  C   UNL     1     -14.535   5.346 -31.657  1.00  0.00     0.257 C 
HETATM   29  O   UNL     1     -14.767   6.317 -32.363  1.00  0.00    -0.267 OA
HETATM   30  N   UNL     1     -14.267   5.324 -30.310  1.00  0.00    -0.301 N 
HETATM   31  H   UNL     1     -13.974   4.473 -29.855  1.00  0.00     0.171 HD
BRANCH  30  32
HETATM   32  C   UNL     1     -14.359   6.432 -29.520  1.00  0.00     0.174 A 
HETATM   33  N   UNL     1     -15.380   6.910 -28.855  1.00  0.00    -0.228 NA
HETATM   34  C   UNL     1     -14.972   8.006 -28.127  1.00  0.00     0.050 A 
HETATM   35  C   UNL     1     -15.904   8.712 -27.206  1.00  0.00     0.062 C 
HETATM   36  C   UNL     1     -13.636   8.321 -28.249  1.00  0.00     0.013 A 
HETATM   37  C   UNL     1     -15.218   9.858 -26.432  1.00  0.00     0.031 C 
HETATM   38  C   UNL     1     -13.687   9.699 -26.166  1.00  0.00     0.084 C 
HETATM   39  C   UNL     1     -12.952   9.410 -27.510  1.00  0.00     0.073 C 
HETATM   40  S   UNL     1     -12.876   7.272 -29.350  1.00  0.00    -0.055 SA
BRANCH  38  41
HETATM   41  N   UNL     1     -13.322   8.907 -24.976  1.00  0.00    -0.404 N 
HETATM   42  C   UNL     1     -14.096   8.994 -23.734  1.00  0.00     0.143 C 
HETATM   43  C   UNL     1     -15.199   7.936 -23.589  1.00  0.00     0.187 C 
HETATM   44  O   UNL     1     -14.664   6.614 -23.741  1.00  0.00    -0.388 OA
HETATM   45  C   UNL     1     -14.031   6.476 -25.018  1.00  0.00     0.187 C 
HETATM   46  C   UNL     1     -12.909   7.513 -25.216  1.00  0.00     0.143 C 
ENDBRANCH  38  41
ENDBRANCH  30  32
ENDBRANCH   5  28
TORSDOF 6
ENDMDL
MODEL 9
REMARK VINA RESULT:      -9.8      4.792     12.692
REMARK  6 active torsions:
REMARK  status: ('A' for Active; 'I' for Inactive)
REMARK       I    between atoms: N_1  and  C_2 
REMARK    1  A    between atoms: C_2  and  C_4 
REMARK    2  A    between atoms: C_9  and  C_13 
REMARK       I    between atoms: C_13  and  N_15 
REMARK    3  A    between atoms: C_19  and  C_20 
REMARK    4  A    between atoms: C_24  and  C_26 
REMARK       I    between atoms: C_26  and  N_28 
REMARK    5  A    between atoms: N_28  and  C_29 
REMARK    6  A    between atoms: C_34  and  N_38 
ROOT
HETATM    1  C   UNL     1      -5.516   1.369 -33.237  1.00  0.00    -0.034 A 
HETATM    2  C   UNL     1      -4.663   0.287 -32.955  1.00  0.00     0.009 A 
HETATM    3  C   UNL     1      -3.592   0.427 -32.070  1.00  0.00     0.002 A 
HETATM    4  C   UNL     1      -3.349   1.654 -31.456  1.00  0.00     0.017 A 
HETATM    5  C   UNL     1      -4.185   2.742 -31.732  1.00  0.00     0.033 A 
HETATM    6  C   UNL     1      -5.273   2.595 -32.598  1.00  0.00     0.026 A 
ENDROOT
BRANCH   1   7
HETATM    7  C   UNL     1      -6.668   1.169 -34.210  1.00  0.00     0.120 C 
HETATM    8  N   UNL     1      -7.977   1.461 -33.636  1.00  0.00    -0.338 N 
HETATM    9  C   UNL     1      -8.381   2.770 -33.418  1.00  0.00     0.274 C 
HETATM   10  C   UNL     1      -8.770   0.251 -33.469  1.00  0.00     0.127 C 
HETATM   11  O   UNL     1      -7.622   3.717 -33.630  1.00  0.00    -0.266 OA
HETATM   12  C   UNL     1      -7.794  -0.894 -33.710  1.00  0.00     0.022 C 
HETATM   13  C   UNL     1      -6.784  -0.288 -34.675  1.00  0.00     0.032 C 
BRANCH   9  14
HETATM   14  C   UNL     1      -9.740   3.016 -32.907  1.00  0.00     0.142 A 
HETATM   15  N   UNL     1     -10.069   3.738 -31.770  1.00  0.00    -0.224 NA
HETATM   16  C   UNL     1     -11.380   3.689 -31.677  1.00  0.00     0.134 A 
HETATM   17  C   UNL     1     -12.277   4.229 -30.714  1.00  0.00     0.052 A 
HETATM   18  N   UNL     1     -11.936   2.963 -32.723  1.00  0.00    -0.314 N 
HETATM   19  C   UNL     1     -13.604   4.039 -30.861  1.00  0.00     0.022 A 
HETATM   20  C   UNL     1     -14.158   3.301 -31.997  1.00  0.00     0.047 A 
HETATM   21  C   UNL     1     -13.303   2.765 -32.891  1.00  0.00     0.115 A 
HETATM   22  C   UNL     1     -10.896   2.523 -33.493  1.00  0.00     0.135 A 
BRANCH  20  23
HETATM   23  C   UNL     1     -15.634   3.111 -32.105  1.00  0.00     0.250 C 
HETATM   24  N   UNL     1     -16.355   4.197 -32.497  1.00  0.00    -0.366 N 
HETATM   25  H   UNL     1     -17.362   4.101 -32.483  1.00  0.00     0.159 HD
HETATM   26  H   UNL     1     -15.966   5.127 -32.558  1.00  0.00     0.159 HD
HETATM   27  O   UNL     1     -16.182   2.058 -31.807  1.00  0.00    -0.268 OA
ENDBRANCH  20  23
ENDBRANCH   9  14
ENDBRANCH   1   7
BRANCH   5  28
HETATM   28  C   UNL     1      -3.945   4.074 -31.113  1.00  0.00     0.257 C 
HETATM   29  O   UNL     1      -4.862   4.607 -30.505  1.00  0.00    -0.267 OA
HETATM   30  N   UNL     1      -2.685   4.567 -31.347  1.00  0.00    -0.301 N 
HETATM   31  H   UNL     1      -2.047   4.087 -31.963  1.00  0.00     0.171 HD
BRANCH  30  32
HETATM   32  C   UNL     1      -2.228   5.724 -30.786  1.00  0.00     0.174 A 
HETATM   33  N   UNL     1      -2.865   6.832 -30.504  1.00  0.00    -0.228 NA
HETATM   34  C   UNL     1      -2.005   7.697 -29.864  1.00  0.00     0.050 A 
HETATM   35  C   UNL     1      -2.475   9.012 -29.348  1.00  0.00     0.062 C 
HETATM   36  C   UNL     1      -0.732   7.209 -29.663  1.00  0.00     0.013 A 
HETATM   37  C   UNL     1      -1.369   9.784 -28.597  1.00  0.00     0.031 C 
HETATM   38  C   UNL     1      -0.268   8.921 -27.904  1.00  0.00     0.084 C 
HETATM   39  C   UNL     1       0.345   7.927 -28.937  1.00  0.00     0.073 C 
HETATM   40  S   UNL     1      -0.574   5.661 -30.346  1.00  0.00    -0.055 SA
BRANCH  38  41
HETATM   41  N   UNL     1      -0.598   8.423 -26.554  1.00  0.00    -0.404 N 
HETATM   42  C   UNL     1      -1.983   8.370 -26.078  1.00  0.00     0.143 C 
HETATM   43  C   UNL     1      -2.686   7.023 -26.297  1.00  0.00     0.187 C 
HETATM   44  O   UNL     1      -1.928   5.950 -25.721  1.00  0.00    -0.388 OA
HETATM   45  C   UNL     1      -0.616   5.904 -26.290  1.00  0.00     0.187 C 
HETATM   46  C   UNL     1       0.139   7.233 -26.095  1.00  0.00     0.143 C 
ENDBRANCH  38  41
ENDBRANCH  30  32
ENDBRANCH   5  28
TORSDOF 6
ENDMDL
MODEL 10
REMARK VINA RESULT:      -9.7      4.016     13.144
REMARK  6 active torsions:
REMARK  status: ('A' for Active; 'I' for Inactive)
REMARK       I    between atoms: N_1  and  C_2 
REMARK    1  A    between atoms: C_2  and  C_4 
REMARK    2  A    between atoms: C_9  and  C_13 
REMARK       I    between atoms: C_13  and  N_15 
REMARK    3  A    between atoms: C_19  and  C_20 
REMARK    4  A    between atoms: C_24  and  C_26 
REMARK       I    between atoms: C_26  and  N_28 
REMARK    5  A    between atoms: N_28  and  C_29 
REMARK    6  A    between atoms: C_34  and  N_38 
ROOT
HETATM    1  C   UNL     1      -3.900   3.018 -32.197  1.00  0.00    -0.034 A 
HETATM    2  C   UNL     1      -3.062   3.330 -33.282  1.00  0.00     0.009 A 
HETATM    3  C   UNL     1      -2.401   4.558 -33.351  1.00  0.00     0.002 A 
HETATM    4  C   UNL     1      -2.573   5.501 -32.341  1.00  0.00     0.017 A 
HETATM    5  C   UNL     1      -3.410   5.209 -31.257  1.00  0.00     0.033 A 
HETATM    6  C   UNL     1      -4.051   3.969 -31.175  1.00  0.00     0.026 A 
ENDROOT
BRANCH   1   7
HETATM    7  C   UNL     1      -4.600   1.668 -32.166  1.00  0.00     0.120 C 
HETATM    8  N   UNL     1      -6.054   1.759 -32.224  1.00  0.00    -0.338 N 
HETATM    9  C   UNL     1      -6.699   2.074 -33.412  1.00  0.00     0.274 C 
HETATM   10  C   UNL     1      -6.665   1.369 -30.962  1.00  0.00     0.127 C 
HETATM   11  O   UNL     1      -6.064   2.358 -34.429  1.00  0.00    -0.266 OA
HETATM   12  C   UNL     1      -5.507   1.280 -29.976  1.00  0.00     0.022 C 
HETATM   13  C   UNL     1      -4.327   0.906 -30.863  1.00  0.00     0.032 C 
BRANCH   9  14
HETATM   14  C   UNL     1      -8.171   2.081 -33.437  1.00  0.00     0.142 A 
HETATM   15  N   UNL     1      -8.990   3.163 -33.152  1.00  0.00    -0.224 NA
HETATM   16  C   UNL     1     -10.224   2.725 -33.274  1.00  0.00     0.134 A 
HETATM   17  C   UNL     1     -11.476   3.373 -33.090  1.00  0.00     0.052 A 
HETATM   18  N   UNL     1     -10.253   1.386 -33.643  1.00  0.00    -0.314 N 
HETATM   19  C   UNL     1     -12.618   2.687 -33.295  1.00  0.00     0.022 A 
HETATM   20  C   UNL     1     -12.612   1.286 -33.721  1.00  0.00     0.047 A 
HETATM   21  C   UNL     1     -11.423   0.666 -33.864  1.00  0.00     0.115 A 
HETATM   22  C   UNL     1      -8.952   0.974 -33.730  1.00  0.00     0.135 A 
BRANCH  20  23
HETATM   23  C   UNL     1     -13.904   0.570 -33.923  1.00  0.00     0.250 C 
HETATM   24  N   UNL     1     -13.984  -0.687 -33.406  1.00  0.00    -0.366 N 
HETATM   25  H   UNL     1     -14.823  -1.212 -33.619  1.00  0.00     0.159 HD
HETATM   26  H   UNL     1     -13.186  -1.191 -33.051  1.00  0.00     0.159 HD
HETATM   27  O   UNL     1     -14.828   1.054 -34.563  1.00  0.00    -0.268 OA
ENDBRANCH  20  23
ENDBRANCH   9  14
ENDBRANCH   1   7
BRANCH   5  28
HETATM   28  C   UNL     1      -3.637   6.199 -30.171  1.00  0.00     0.257 C 
HETATM   29  O   UNL     1      -4.785   6.542 -29.925  1.00  0.00    -0.267 OA
HETATM   30  N   UNL     1      -2.478   6.644 -29.584  1.00  0.00    -0.301 N 
HETATM   31  H   UNL     1      -1.577   6.375 -29.950  1.00  0.00     0.171 HD
BRANCH  30  32
HETATM   32  C   UNL     1      -2.468   7.477 -28.503  1.00  0.00     0.174 A 
HETATM   33  N   UNL     1      -2.408   7.198 -27.226  1.00  0.00    -0.228 NA
HETATM   34  C   UNL     1      -2.337   8.373 -26.510  1.00  0.00     0.050 A 
HETATM   35  C   UNL     1      -2.176   8.368 -25.030  1.00  0.00     0.062 C 
HETATM   36  C   UNL     1      -2.329   9.520 -27.274  1.00  0.00     0.013 A 
HETATM   37  C   UNL     1      -2.038   9.789 -24.443  1.00  0.00     0.031 C 
HETATM   38  C   UNL     1      -1.416  10.871 -25.382  1.00  0.00     0.084 C 
HETATM   39  C   UNL     1      -2.189  10.895 -26.736  1.00  0.00     0.073 C 
HETATM   40  S   UNL     1      -2.484   9.138 -28.923  1.00  0.00    -0.055 SA
BRANCH  38  41
HETATM   41  N   UNL     1       0.059  10.925 -25.409  1.00  0.00    -0.404 N 
HETATM   42  C   UNL     1       0.867  10.226 -24.406  1.00  0.00     0.143 C 
HETATM   43  C   UNL     1       1.323   8.819 -24.816  1.00  0.00     0.187 C 
HETATM   44  O   UNL     1       2.018   8.850 -26.070  1.00  0.00    -0.388 OA
HETATM   45  C   UNL     1       1.180   9.399 -27.092  1.00  0.00     0.187 C 
HETATM   46  C   UNL     1       0.695  10.818 -26.733  1.00  0.00     0.143 C 
ENDBRANCH  38  41
ENDBRANCH  30  32
ENDBRANCH   5  28
TORSDOF 6
ENDMDL
