MODEL 1
REMARK VINA RESULT:      -8.7      0.000      0.000
REMARK  2 active torsions:
REMARK  status: ('A' for Active; 'I' for Inactive)
REMARK    1  A    between atoms: C_6  and  O_7 
REMARK    2  A    between atoms: C_6  and  C_8 
ROOT
HETATM    1  C   UNL     1      -5.242   4.841 -30.115  1.00  0.00     0.048 C 
HETATM    2  C   UNL     1      -5.628   3.620 -30.899  1.00  0.00    -0.059 A 
HETATM    3  C   UNL     1      -5.760   3.675 -32.290  1.00  0.00     0.037 A 
HETATM    4  C   UNL     1      -6.113   2.514 -32.950  1.00  0.00     0.046 A 
HETATM    5  C   UNL     1      -6.331   1.295 -32.293  1.00  0.00     0.023 A 
HETATM    6  C   UNL     1      -6.712   0.247 -33.323  1.00  0.00     0.199 A 
HETATM    7  C   UNL     1      -6.768   1.108 -34.636  1.00  0.00     0.266 A 
HETATM    8  O   UNL     1      -7.161   0.755 -35.738  1.00  0.00    -0.269 OA
HETATM    9  N   UNL     1      -6.345   2.392 -34.313  1.00  0.00    -0.323 N 
HETATM   10  C   UNL     1      -6.239   1.231 -30.903  1.00  0.00    -0.049 A 
HETATM   11  C   UNL     1      -6.467  -0.032 -30.127  1.00  0.00     0.049 C 
HETATM   12  C   UNL     1      -5.861   2.404 -30.221  1.00  0.00     0.014 A 
HETATM   13  H   UNL     1      -6.316   3.143 -34.984  1.00  0.00     0.169 HD
ENDROOT
BRANCH   6  14
HETATM   14  O   UNL     1      -7.975  -0.302 -32.980  1.00  0.00    -0.371 OA
HETATM   15  H   UNL     1      -7.848  -1.264 -32.976  1.00  0.00     0.212 HD
ENDBRANCH   6  14
BRANCH   6  16
HETATM   16  C   UNL     1      -5.617  -0.800 -33.423  1.00  0.00     0.018 A 
HETATM   17  C   UNL     1      -5.766  -2.123 -33.990  1.00  0.00     0.002 A 
HETATM   18  C   UNL     1      -4.548  -2.792 -33.848  1.00  0.00     0.043 A 
HETATM   19  C   UNL     1      -6.825  -2.819 -34.617  1.00  0.00     0.014 A 
HETATM   20  C   UNL     1      -4.348  -4.116 -34.258  1.00  0.00     0.030 A 
HETATM   21  N   UNL     1      -3.670  -1.912 -33.268  1.00  0.00    -0.365 N 
HETATM   22  C   UNL     1      -5.422  -4.782 -34.852  1.00  0.00     0.002 A 
HETATM   23  C   UNL     1      -6.642  -4.142 -35.038  1.00  0.00     0.001 A 
HETATM   24  H   UNL     1      -2.704  -2.122 -33.058  1.00  0.00     0.165 HD
HETATM   25  C   UNL     1      -4.285  -0.714 -33.035  1.00  0.00     0.100 A 
ENDBRANCH   6  16
TORSDOF 2
ENDMDL
MODEL 2
REMARK VINA RESULT:      -8.2      1.895      6.040
REMARK  2 active torsions:
REMARK  status: ('A' for Active; 'I' for Inactive)
REMARK    1  A    between atoms: C_6  and  O_7 
REMARK    2  A    between atoms: C_6  and  C_8 
ROOT
HETATM    1  C   UNL     1      -4.182  -3.394 -34.520  1.00  0.00     0.048 C 
HETATM    2  C   UNL     1      -4.925  -2.209 -33.972  1.00  0.00    -0.059 A 
HETATM    3  C   UNL     1      -4.606  -1.681 -32.717  1.00  0.00     0.037 A 
HETATM    4  C   UNL     1      -5.326  -0.589 -32.276  1.00  0.00     0.046 A 
HETATM    5  C   UNL     1      -6.345   0.012 -33.027  1.00  0.00     0.023 A 
HETATM    6  C   UNL     1      -6.922   1.169 -32.231  1.00  0.00     0.199 A 
HETATM    7  C   UNL     1      -6.128   1.042 -30.882  1.00  0.00     0.266 A 
HETATM    8  O   UNL     1      -6.317   1.667 -29.848  1.00  0.00    -0.269 OA
HETATM    9  N   UNL     1      -5.190   0.029 -31.041  1.00  0.00    -0.323 N 
HETATM   10  C   UNL     1      -6.701  -0.523 -34.265  1.00  0.00    -0.049 A 
HETATM   11  C   UNL     1      -7.785   0.056 -35.124  1.00  0.00     0.049 C 
HETATM   12  C   UNL     1      -5.960  -1.626 -34.734  1.00  0.00     0.014 A 
HETATM   13  H   UNL     1      -4.569  -0.263 -30.302  1.00  0.00     0.169 HD
ENDROOT
BRANCH   6  14
HETATM   14  O   UNL     1      -8.316   0.965 -32.062  1.00  0.00    -0.371 OA
HETATM   15  H   UNL     1      -8.565   0.306 -32.729  1.00  0.00     0.212 HD
ENDBRANCH   6  14
BRANCH   6  16
HETATM   16  C   UNL     1      -6.592   2.483 -32.918  1.00  0.00     0.018 A 
HETATM   17  C   UNL     1      -5.281   3.092 -32.985  1.00  0.00     0.002 A 
HETATM   18  C   UNL     1      -5.406   4.311 -33.654  1.00  0.00     0.043 A 
HETATM   19  C   UNL     1      -3.992   2.719 -32.539  1.00  0.00     0.014 A 
HETATM   20  C   UNL     1      -4.332   5.184 -33.864  1.00  0.00     0.030 A 
HETATM   21  N   UNL     1      -6.720   4.431 -34.031  1.00  0.00    -0.365 N 
HETATM   22  C   UNL     1      -3.077   4.797 -33.391  1.00  0.00     0.002 A 
HETATM   23  C   UNL     1      -2.904   3.578 -32.745  1.00  0.00     0.001 A 
HETATM   24  H   UNL     1      -7.098   5.212 -34.548  1.00  0.00     0.165 HD
HETATM   25  C   UNL     1      -7.431   3.338 -33.623  1.00  0.00     0.100 A 
ENDBRANCH   6  16
TORSDOF 2
ENDMDL
MODEL 3
REMARK VINA RESULT:      -8.1     14.349     15.500
REMARK  2 active torsions:
REMARK  status: ('A' for Active; 'I' for Inactive)
REMARK    1  A    between atoms: C_6  and  O_7 
REMARK    2  A    between atoms: C_6  and  C_8 
ROOT
HETATM    1  C   UNL     1     -10.741 -13.010 -40.005  1.00  0.00     0.048 C 
HETATM    2  C   UNL     1      -9.333 -13.050 -39.482  1.00  0.00    -0.059 A 
HETATM    3  C   UNL     1      -9.036 -13.680 -38.270  1.00  0.00     0.037 A 
HETATM    4  C   UNL     1      -7.720 -13.683 -37.851  1.00  0.00     0.046 A 
HETATM    5  C   UNL     1      -6.680 -13.098 -38.586  1.00  0.00     0.023 A 
HETATM    6  C   UNL     1      -5.381 -13.279 -37.822  1.00  0.00     0.199 A 
HETATM    7  C   UNL     1      -5.889 -13.966 -36.504  1.00  0.00     0.266 A 
HETATM    8  O   UNL     1      -5.242 -14.205 -35.495  1.00  0.00    -0.269 OA
HETATM    9  N   UNL     1      -7.250 -14.206 -36.655  1.00  0.00    -0.323 N 
HETATM   10  C   UNL     1      -6.964 -12.434 -39.779  1.00  0.00    -0.049 A 
HETATM   11  C   UNL     1      -5.909 -11.775 -40.618  1.00  0.00     0.049 C 
HETATM   12  C   UNL     1      -8.299 -12.440 -40.226  1.00  0.00     0.014 A 
HETATM   13  H   UNL     1      -7.816 -14.620 -35.930  1.00  0.00     0.169 HD
ENDROOT
BRANCH   6  14
HETATM   14  O   UNL     1      -4.803 -12.005 -37.582  1.00  0.00    -0.371 OA
HETATM   15  H   UNL     1      -4.732 -11.930 -36.617  1.00  0.00     0.212 HD
ENDBRANCH   6  14
BRANCH   6  16
HETATM   16  C   UNL     1      -4.460 -14.215 -38.586  1.00  0.00     0.018 A 
HETATM   17  C   UNL     1      -3.030 -14.053 -38.735  1.00  0.00     0.002 A 
HETATM   18  C   UNL     1      -2.561 -15.089 -39.545  1.00  0.00     0.043 A 
HETATM   19  C   UNL     1      -2.083 -13.120 -38.252  1.00  0.00     0.014 A 
HETATM   20  C   UNL     1      -1.220 -15.217 -39.926  1.00  0.00     0.030 A 
HETATM   21  N   UNL     1      -3.637 -15.886 -39.844  1.00  0.00    -0.365 N 
HETATM   22  C   UNL     1      -0.315 -14.266 -39.452  1.00  0.00     0.002 A 
HETATM   23  C   UNL     1      -0.736 -13.236 -38.619  1.00  0.00     0.001 A 
HETATM   24  H   UNL     1      -3.591 -16.723 -40.406  1.00  0.00     0.165 HD
HETATM   25  C   UNL     1      -4.768 -15.392 -39.257  1.00  0.00     0.100 A 
ENDBRANCH   6  16
TORSDOF 2
ENDMDL
MODEL 4
REMARK VINA RESULT:      -7.9      1.715      6.392
REMARK  2 active torsions:
REMARK  status: ('A' for Active; 'I' for Inactive)
REMARK    1  A    between atoms: C_6  and  O_7 
REMARK    2  A    between atoms: C_6  and  C_8 
ROOT
HETATM    1  C   UNL     1      -6.113  -4.131 -35.527  1.00  0.00     0.048 C 
HETATM    2  C   UNL     1      -5.955  -2.929 -34.640  1.00  0.00    -0.059 A 
HETATM    3  C   UNL     1      -4.689  -2.515 -34.213  1.00  0.00     0.037 A 
HETATM    4  C   UNL     1      -4.615  -1.400 -33.402  1.00  0.00     0.046 A 
HETATM    5  C   UNL     1      -5.741  -0.667 -33.003  1.00  0.00     0.023 A 
HETATM    6  C   UNL     1      -5.288   0.477 -32.113  1.00  0.00     0.199 A 
HETATM    7  C   UNL     1      -3.747   0.194 -32.005  1.00  0.00     0.266 A 
HETATM    8  O   UNL     1      -2.937   0.761 -31.285  1.00  0.00    -0.269 OA
HETATM    9  N   UNL     1      -3.458  -0.880 -32.839  1.00  0.00    -0.323 N 
HETATM   10  C   UNL     1      -7.013  -1.086 -33.390  1.00  0.00    -0.049 A 
HETATM   11  C   UNL     1      -8.266  -0.362 -32.996  1.00  0.00     0.049 C 
HETATM   12  C   UNL     1      -7.100  -2.212 -34.232  1.00  0.00     0.014 A 
HETATM   13  H   UNL     1      -2.533  -1.272 -32.926  1.00  0.00     0.169 HD
ENDROOT
BRANCH   6  14
HETATM   14  O   UNL     1      -5.947   0.377 -30.860  1.00  0.00    -0.371 OA
HETATM   15  H   UNL     1      -6.725  -0.180 -31.019  1.00  0.00     0.212 HD
ENDBRANCH   6  14
BRANCH   6  16
HETATM   16  C   UNL     1      -5.535   1.802 -32.811  1.00  0.00     0.018 A 
HETATM   17  C   UNL     1      -5.330   3.112 -32.229  1.00  0.00     0.002 A 
HETATM   18  C   UNL     1      -5.718   4.067 -33.171  1.00  0.00     0.043 A 
HETATM   19  C   UNL     1      -4.846   3.578 -30.985  1.00  0.00     0.014 A 
HETATM   20  C   UNL     1      -5.686   5.445 -32.924  1.00  0.00     0.030 A 
HETATM   21  N   UNL     1      -6.098   3.388 -34.301  1.00  0.00    -0.365 N 
HETATM   22  C   UNL     1      -5.225   5.871 -31.677  1.00  0.00     0.002 A 
HETATM   23  C   UNL     1      -4.801   4.953 -30.722  1.00  0.00     0.001 A 
HETATM   24  H   UNL     1      -6.414   3.828 -35.154  1.00  0.00     0.165 HD
HETATM   25  C   UNL     1      -5.968   2.041 -34.110  1.00  0.00     0.100 A 
ENDBRANCH   6  16
TORSDOF 2
ENDMDL
MODEL 5
REMARK VINA RESULT:      -7.7      2.365      3.675
REMARK  2 active torsions:
REMARK  status: ('A' for Active; 'I' for Inactive)
REMARK    1  A    between atoms: C_6  and  O_7 
REMARK    2  A    between atoms: C_6  and  C_8 
ROOT
HETATM    1  C   UNL     1      -8.636   6.590 -30.716  1.00  0.00     0.048 C 
HETATM    2  C   UNL     1      -7.892   5.309 -30.964  1.00  0.00    -0.059 A 
HETATM    3  C   UNL     1      -7.736   4.363 -29.947  1.00  0.00     0.037 A 
HETATM    4  C   UNL     1      -7.044   3.205 -30.244  1.00  0.00     0.046 A 
HETATM    5  C   UNL     1      -6.508   2.937 -31.511  1.00  0.00     0.023 A 
HETATM    6  C   UNL     1      -5.809   1.590 -31.470  1.00  0.00     0.199 A 
HETATM    7  C   UNL     1      -5.960   1.209 -29.953  1.00  0.00     0.266 A 
HETATM    8  O   UNL     1      -5.447   0.264 -29.371  1.00  0.00    -0.269 OA
HETATM    9  N   UNL     1      -6.743   2.187 -29.351  1.00  0.00    -0.323 N 
HETATM   10  C   UNL     1      -6.623   3.885 -32.527  1.00  0.00    -0.049 A 
HETATM   11  C   UNL     1      -6.068   3.677 -33.905  1.00  0.00     0.049 C 
HETATM   12  C   UNL     1      -7.342   5.062 -32.241  1.00  0.00     0.014 A 
HETATM   13  H   UNL     1      -6.965   2.181 -28.368  1.00  0.00     0.169 HD
ENDROOT
BRANCH   6  14
HETATM   14  O   UNL     1      -4.454   1.758 -31.855  1.00  0.00    -0.371 OA
HETATM   15  H   UNL     1      -4.463   2.443 -32.543  1.00  0.00     0.212 HD
ENDBRANCH   6  14
BRANCH   6  16
HETATM   16  C   UNL     1      -6.556   0.595 -32.342  1.00  0.00     0.018 A 
HETATM   17  C   UNL     1      -5.968  -0.545 -33.011  1.00  0.00     0.002 A 
HETATM   18  C   UNL     1      -6.971  -1.175 -33.750  1.00  0.00     0.043 A 
HETATM   19  C   UNL     1      -4.671  -1.107 -33.057  1.00  0.00     0.014 A 
HETATM   20  C   UNL     1      -6.741  -2.299 -34.553  1.00  0.00     0.030 A 
HETATM   21  N   UNL     1      -8.137  -0.492 -33.512  1.00  0.00    -0.365 N 
HETATM   22  C   UNL     1      -5.444  -2.814 -34.596  1.00  0.00     0.002 A 
HETATM   23  C   UNL     1      -4.423  -2.234 -33.852  1.00  0.00     0.001 A 
HETATM   24  H   UNL     1      -9.034  -0.736 -33.907  1.00  0.00     0.165 HD
HETATM   25  C   UNL     1      -7.909   0.547 -32.655  1.00  0.00     0.100 A 
ENDBRANCH   6  16
TORSDOF 2
ENDMDL
MODEL 6
REMARK VINA RESULT:      -7.6     14.221     16.107
REMARK  2 active torsions:
REMARK  status: ('A' for Active; 'I' for Inactive)
REMARK    1  A    between atoms: C_6  and  O_7 
REMARK    2  A    between atoms: C_6  and  C_8 
ROOT
HETATM    1  C   UNL     1       0.893 -14.641 -38.688  1.00  0.00     0.048 C 
HETATM    2  C   UNL     1      -0.505 -14.279 -39.101  1.00  0.00    -0.059 A 
HETATM    3  C   UNL     1      -0.983 -14.606 -40.374  1.00  0.00     0.037 A 
HETATM    4  C   UNL     1      -2.279 -14.246 -40.687  1.00  0.00     0.046 A 
HETATM    5  C   UNL     1      -3.129 -13.585 -39.790  1.00  0.00     0.023 A 
HETATM    6  C   UNL     1      -4.463 -13.339 -40.471  1.00  0.00     0.199 A 
HETATM    7  C   UNL     1      -4.175 -13.879 -41.919  1.00  0.00     0.266 A 
HETATM    8  O   UNL     1      -4.897 -13.789 -42.901  1.00  0.00    -0.269 OA
HETATM    9  N   UNL     1      -2.901 -14.435 -41.913  1.00  0.00    -0.323 N 
HETATM   10  C   UNL     1      -2.657 -13.220 -38.529  1.00  0.00    -0.049 A 
HETATM   11  C   UNL     1      -3.501 -12.503 -37.517  1.00  0.00     0.049 C 
HETATM   12  C   UNL     1      -1.343 -13.597 -38.192  1.00  0.00     0.014 A 
HETATM   13  H   UNL     1      -2.473 -14.829 -42.736  1.00  0.00     0.169 HD
ENDROOT
BRANCH   6  14
HETATM   14  O   UNL     1      -4.742 -11.948 -40.457  1.00  0.00    -0.371 OA
HETATM   15  H   UNL     1      -5.608 -11.861 -40.028  1.00  0.00     0.212 HD
ENDBRANCH   6  14
BRANCH   6  16
HETATM   16  C   UNL     1      -5.545 -14.169 -39.803  1.00  0.00     0.018 A 
HETATM   17  C   UNL     1      -6.937 -13.793 -39.675  1.00  0.00     0.002 A 
HETATM   18  C   UNL     1      -7.590 -14.797 -38.957  1.00  0.00     0.043 A 
HETATM   19  C   UNL     1      -7.708 -12.690 -40.108  1.00  0.00     0.014 A 
HETATM   20  C   UNL     1      -8.947 -14.738 -38.618  1.00  0.00     0.030 A 
HETATM   21  N   UNL     1      -6.662 -15.773 -38.694  1.00  0.00    -0.365 N 
HETATM   22  C   UNL     1      -9.675 -13.624 -39.039  1.00  0.00     0.002 A 
HETATM   23  C   UNL     1      -9.069 -12.617 -39.782  1.00  0.00     0.001 A 
HETATM   24  H   UNL     1      -6.859 -16.631 -38.198  1.00  0.00     0.165 HD
HETATM   25  C   UNL     1      -5.448 -15.425 -39.215  1.00  0.00     0.100 A 
ENDBRANCH   6  16
TORSDOF 2
ENDMDL
MODEL 7
REMARK VINA RESULT:      -7.5      2.178      6.621
REMARK  2 active torsions:
REMARK  status: ('A' for Active; 'I' for Inactive)
REMARK    1  A    between atoms: C_6  and  O_7 
REMARK    2  A    between atoms: C_6  and  C_8 
ROOT
HETATM    1  C   UNL     1      -5.397  -3.024 -35.349  1.00  0.00     0.048 C 
HETATM    2  C   UNL     1      -5.908  -1.982 -34.396  1.00  0.00    -0.059 A 
HETATM    3  C   UNL     1      -5.230  -1.708 -33.204  1.00  0.00     0.037 A 
HETATM    4  C   UNL     1      -5.752  -0.735 -32.375  1.00  0.00     0.046 A 
HETATM    5  C   UNL     1      -6.913  -0.011 -32.679  1.00  0.00     0.023 A 
HETATM    6  C   UNL     1      -7.196   0.957 -31.545  1.00  0.00     0.199 A 
HETATM    7  C   UNL     1      -6.065   0.577 -30.524  1.00  0.00     0.266 A 
HETATM    8  O   UNL     1      -5.933   0.983 -29.378  1.00  0.00    -0.269 OA
HETATM    9  N   UNL     1      -5.252  -0.372 -31.133  1.00  0.00    -0.323 N 
HETATM   10  C   UNL     1      -7.621  -0.296 -33.847  1.00  0.00    -0.049 A 
HETATM   11  C   UNL     1      -8.875   0.428 -34.238  1.00  0.00     0.049 C 
HETATM   12  C   UNL     1      -7.088  -1.274 -34.709  1.00  0.00     0.014 A 
HETATM   13  H   UNL     1      -4.464  -0.795 -30.668  1.00  0.00     0.169 HD
ENDROOT
BRANCH   6  14
HETATM   14  O   UNL     1      -8.496   0.705 -31.034  1.00  0.00    -0.371 OA
HETATM   15  H   UNL     1      -8.595  -0.260 -31.043  1.00  0.00     0.212 HD
ENDBRANCH   6  14
BRANCH   6  16
HETATM   16  C   UNL     1      -7.015   2.385 -32.029  1.00  0.00     0.018 A 
HETATM   17  C   UNL     1      -7.565   3.565 -31.396  1.00  0.00     0.002 A 
HETATM   18  C   UNL     1      -7.215   4.672 -32.171  1.00  0.00     0.043 A 
HETATM   19  C   UNL     1      -8.329   3.798 -30.229  1.00  0.00     0.014 A 
HETATM   20  C   UNL     1      -7.617   5.979 -31.868  1.00  0.00     0.030 A 
HETATM   21  N   UNL     1      -6.443   4.212 -33.207  1.00  0.00    -0.365 N 
HETATM   22  C   UNL     1      -8.391   6.172 -30.722  1.00  0.00     0.002 A 
HETATM   23  C   UNL     1      -8.736   5.100 -29.907  1.00  0.00     0.001 A 
HETATM   24  H   UNL     1      -6.035   4.798 -33.922  1.00  0.00     0.165 HD
HETATM   25  C   UNL     1      -6.293   2.856 -33.119  1.00  0.00     0.100 A 
ENDBRANCH   6  16
TORSDOF 2
ENDMDL
MODEL 8
REMARK VINA RESULT:      -7.4      2.418      4.234
REMARK  2 active torsions:
REMARK  status: ('A' for Active; 'I' for Inactive)
REMARK    1  A    between atoms: C_6  and  O_7 
REMARK    2  A    between atoms: C_6  and  C_8 
ROOT
HETATM    1  C   UNL     1      -4.073   8.036 -30.646  1.00  0.00     0.048 C 
HETATM    2  C   UNL     1      -4.147   6.558 -30.902  1.00  0.00    -0.059 A 
HETATM    3  C   UNL     1      -4.861   5.717 -30.042  1.00  0.00     0.037 A 
HETATM    4  C   UNL     1      -4.892   4.369 -30.338  1.00  0.00     0.046 A 
HETATM    5  C   UNL     1      -4.255   3.815 -31.457  1.00  0.00     0.023 A 
HETATM    6  C   UNL     1      -4.487   2.315 -31.459  1.00  0.00     0.199 A 
HETATM    7  C   UNL     1      -5.266   2.121 -30.109  1.00  0.00     0.266 A 
HETATM    8  O   UNL     1      -5.574   1.065 -29.575  1.00  0.00    -0.269 OA
HETATM    9  N   UNL     1      -5.497   3.382 -29.573  1.00  0.00    -0.323 N 
HETATM   10  C   UNL     1      -3.509   4.634 -32.305  1.00  0.00    -0.049 A 
HETATM   11  C   UNL     1      -2.792   4.116 -33.517  1.00  0.00     0.049 C 
HETATM   12  C   UNL     1      -3.486   6.014 -32.024  1.00  0.00     0.014 A 
HETATM   13  H   UNL     1      -5.961   3.524 -28.689  1.00  0.00     0.169 HD
ENDROOT
BRANCH   6  14
HETATM   14  O   UNL     1      -3.232   1.652 -31.462  1.00  0.00    -0.371 OA
HETATM   15  H   UNL     1      -3.279   1.006 -30.739  1.00  0.00     0.212 HD
ENDBRANCH   6  14
BRANCH   6  16
HETATM   16  C   UNL     1      -5.366   1.931 -32.637  1.00  0.00     0.018 A 
HETATM   17  C   UNL     1      -5.536   0.592 -33.159  1.00  0.00     0.002 A 
HETATM   18  C   UNL     1      -6.379   0.666 -34.269  1.00  0.00     0.043 A 
HETATM   19  C   UNL     1      -5.052  -0.684 -32.789  1.00  0.00     0.014 A 
HETATM   20  C   UNL     1      -6.728  -0.447 -35.043  1.00  0.00     0.030 A 
HETATM   21  N   UNL     1      -6.757   1.979 -34.401  1.00  0.00    -0.365 N 
HETATM   22  C   UNL     1      -6.214  -1.689 -34.666  1.00  0.00     0.002 A 
HETATM   23  C   UNL     1      -5.395  -1.811 -33.549  1.00  0.00     0.001 A 
HETATM   24  H   UNL     1      -7.381   2.326 -35.116  1.00  0.00     0.165 HD
HETATM   25  C   UNL     1      -6.183   2.737 -33.420  1.00  0.00     0.100 A 
ENDBRANCH   6  16
TORSDOF 2
ENDMDL
MODEL 9
REMARK VINA RESULT:      -7.3     14.152     15.321
REMARK  2 active torsions:
REMARK  status: ('A' for Active; 'I' for Inactive)
REMARK    1  A    between atoms: C_6  and  O_7 
REMARK    2  A    between atoms: C_6  and  C_8 
ROOT
HETATM    1  C   UNL     1      -1.619 -14.711 -35.737  1.00  0.00     0.048 C 
HETATM    2  C   UNL     1      -2.851 -14.231 -36.452  1.00  0.00    -0.059 A 
HETATM    3  C   UNL     1      -2.755 -13.578 -37.684  1.00  0.00     0.037 A 
HETATM    4  C   UNL     1      -3.927 -13.167 -38.288  1.00  0.00     0.046 A 
HETATM    5  C   UNL     1      -5.194 -13.384 -37.730  1.00  0.00     0.023 A 
HETATM    6  C   UNL     1      -6.243 -12.791 -38.653  1.00  0.00     0.199 A 
HETATM    7  C   UNL     1      -5.344 -12.125 -39.756  1.00  0.00     0.266 A 
HETATM    8  O   UNL     1      -5.706 -11.398 -40.670  1.00  0.00    -0.269 OA
HETATM    9  N   UNL     1      -4.023 -12.457 -39.476  1.00  0.00    -0.323 N 
HETATM   10  C   UNL     1      -5.305 -14.002 -36.484  1.00  0.00    -0.049 A 
HETATM   11  C   UNL     1      -6.623 -14.261 -35.817  1.00  0.00     0.049 C 
HETATM   12  C   UNL     1      -4.118 -14.442 -35.867  1.00  0.00     0.014 A 
HETATM   13  H   UNL     1      -3.247 -12.126 -40.029  1.00  0.00     0.169 HD
ENDROOT
BRANCH   6  14
HETATM   14  O   UNL     1      -7.012 -11.841 -37.933  1.00  0.00    -0.371 OA
HETATM   15  H   UNL     1      -6.385 -11.149 -37.666  1.00  0.00     0.212 HD
ENDBRANCH   6  14
BRANCH   6  16
HETATM   16  C   UNL     1      -7.085 -13.902 -39.257  1.00  0.00     0.018 A 
HETATM   17  C   UNL     1      -8.443 -13.763 -39.738  1.00  0.00     0.002 A 
HETATM   18  C   UNL     1      -8.878 -15.018 -40.166  1.00  0.00     0.043 A 
HETATM   19  C   UNL     1      -9.347 -12.682 -39.853  1.00  0.00     0.014 A 
HETATM   20  C   UNL     1     -10.167 -15.255 -40.661  1.00  0.00     0.030 A 
HETATM   21  N   UNL     1      -7.827 -15.886 -40.008  1.00  0.00    -0.365 N 
HETATM   22  C   UNL     1     -11.043 -14.171 -40.739  1.00  0.00     0.002 A 
HETATM   23  C   UNL     1     -10.639 -12.899 -40.350  1.00  0.00     0.001 A 
HETATM   24  H   UNL     1      -7.852 -16.866 -40.253  1.00  0.00     0.165 HD
HETATM   25  C   UNL     1      -6.745 -15.229 -39.494  1.00  0.00     0.100 A 
ENDBRANCH   6  16
TORSDOF 2
ENDMDL
MODEL 10
REMARK VINA RESULT:      -7.3      3.208      5.986
REMARK  2 active torsions:
REMARK  status: ('A' for Active; 'I' for Inactive)
REMARK    1  A    between atoms: C_6  and  O_7 
REMARK    2  A    between atoms: C_6  and  C_8 
ROOT
HETATM    1  C   UNL     1      -3.676  -1.387 -33.041  1.00  0.00     0.048 C 
HETATM    2  C   UNL     1      -4.906  -0.595 -32.698  1.00  0.00    -0.059 A 
HETATM    3  C   UNL     1      -4.855   0.431 -31.749  1.00  0.00     0.037 A 
HETATM    4  C   UNL     1      -6.022   1.121 -31.484  1.00  0.00     0.046 A 
HETATM    5  C   UNL     1      -7.237   0.847 -32.126  1.00  0.00     0.023 A 
HETATM    6  C   UNL     1      -8.300   1.784 -31.581  1.00  0.00     0.199 A 
HETATM    7  C   UNL     1      -7.497   2.547 -30.466  1.00  0.00     0.266 A 
HETATM    8  O   UNL     1      -7.940   3.328 -29.636  1.00  0.00    -0.269 OA
HETATM    9  N   UNL     1      -6.175   2.125 -30.539  1.00  0.00    -0.323 N 
HETATM   10  C   UNL     1      -7.314  -0.197 -33.048  1.00  0.00    -0.049 A 
HETATM   11  C   UNL     1      -8.579  -0.558 -33.768  1.00  0.00     0.049 C 
HETATM   12  C   UNL     1      -6.127  -0.896 -33.340  1.00  0.00     0.014 A 
HETATM   13  H   UNL     1      -5.461   2.453 -29.907  1.00  0.00     0.169 HD
ENDROOT
BRANCH   6  14
HETATM   14  O   UNL     1      -9.369   1.016 -31.050  1.00  0.00    -0.371 OA
HETATM   15  H   UNL     1      -9.746   1.554 -30.337  1.00  0.00     0.212 HD
ENDBRANCH   6  14
BRANCH   6  16
HETATM   16  C   UNL     1      -8.743   2.749 -32.667  1.00  0.00     0.018 A 
HETATM   17  C   UNL     1      -9.961   2.643 -33.441  1.00  0.00     0.002 A 
HETATM   18  C   UNL     1      -9.975   3.689 -34.367  1.00  0.00     0.043 A 
HETATM   19  C   UNL     1     -11.061   1.754 -33.441  1.00  0.00     0.014 A 
HETATM   20  C   UNL     1     -10.998   3.867 -35.306  1.00  0.00     0.030 A 
HETATM   21  N   UNL     1      -8.848   4.438 -34.145  1.00  0.00    -0.365 N 
HETATM   22  C   UNL     1     -12.057   2.958 -35.296  1.00  0.00     0.002 A 
HETATM   23  C   UNL     1     -12.095   1.920 -34.371  1.00  0.00     0.001 A 
HETATM   24  H   UNL     1      -8.604   5.271 -34.662  1.00  0.00     0.165 HD
HETATM   25  C   UNL     1      -8.120   3.906 -33.119  1.00  0.00     0.100 A 
ENDBRANCH   6  16
TORSDOF 2
ENDMDL
