MODEL 1
REMARK VINA RESULT:      -8.5      0.000      0.000
REMARK  4 active torsions:
REMARK  status: ('A' for Active; 'I' for Inactive)
REMARK    1  A    between atoms: C_9  and  C_10 
REMARK    2  A    between atoms: C_11  and  O_12 
REMARK    3  A    between atoms: C_18  and  C_19 
REMARK       I    between atoms: C_19  and  N_20 
REMARK    4  A    between atoms: N_20  and  C_21 
ROOT
HETATM    1  C   UNL     1      -7.960   2.666 -30.690  1.00  0.00     0.070 C 
HETATM    2  C   UNL     1      -6.782   3.606 -30.760  1.00  0.00     0.037 C 
HETATM    3  N   UNL     1      -7.025   4.906 -30.330  1.00  0.00    -0.192 N 
HETATM    4  C   UNL     1      -6.041   5.797 -30.101  1.00  0.00     0.725 A 
HETATM    5  N   UNL     1      -4.751   5.483 -30.441  1.00  0.00    -0.084 N 
HETATM    6  N   UNL     1      -3.896   6.457 -30.062  1.00  0.00    -0.149 NA
HETATM    7  C   UNL     1      -4.748   7.345 -29.539  1.00  0.00     0.275 A 
HETATM    8  N   UNL     1      -6.070   6.981 -29.545  1.00  0.00    -0.054 NA
HETATM    9  C   UNL     1      -4.355   4.225 -31.090  1.00  0.00     0.205 C 
HETATM   10  C   UNL     1      -5.531   3.252 -31.147  1.00  0.00     0.063 C 
HETATM   11  H   UNL     1      -7.948   5.114 -29.958  1.00  0.00     0.184 HD
ENDROOT
BRANCH  10  12
HETATM   12  C   UNL     1      -5.164   1.872 -31.555  1.00  0.00     0.256 C 
HETATM   13  N   UNL     1      -5.820   1.453 -32.693  1.00  0.00    -0.323 N 
HETATM   14  H   UNL     1      -6.451   2.115 -33.127  1.00  0.00     0.169 HD
HETATM   15  O   UNL     1      -4.346   1.252 -30.889  1.00  0.00    -0.267 OA
BRANCH  13  16
HETATM   16  C   UNL     1      -5.736   0.187 -33.308  1.00  0.00     0.035 A 
HETATM   17  C   UNL     1      -4.580  -0.597 -33.327  1.00  0.00     0.031 A 
HETATM   18  C   UNL     1      -4.581  -1.851 -33.947  1.00  0.00     0.026 A 
HETATM   19  C   UNL     1      -5.741  -2.330 -34.548  1.00  0.00     0.034 A 
HETATM   20 CL   UNL     1      -5.744  -3.876 -35.301  1.00  0.00    -0.084 Cl
HETATM   21  C   UNL     1      -6.900  -1.560 -34.540  1.00  0.00     0.026 A 
HETATM   22  C   UNL     1      -6.895  -0.303 -33.926  1.00  0.00     0.031 A 
ENDBRANCH  13  16
ENDBRANCH  10  12
BRANCH   9  23
HETATM   23  C   UNL     1      -3.783   4.529 -32.475  1.00  0.00     0.005 A 
HETATM   24  C   UNL     1      -2.392   4.525 -32.694  1.00  0.00     0.076 A 
HETATM   25  C   UNL     1      -1.884   4.809 -33.966  1.00  0.00     0.037 A 
HETATM   26  C   UNL     1      -2.745   5.125 -35.018  1.00  0.00     0.003 A 
HETATM   27  C   UNL     1      -4.119   5.157 -34.809  1.00  0.00     0.001 A 
HETATM   28  C   UNL     1      -4.636   4.861 -33.548  1.00  0.00     0.012 A 
BRANCH  24  29
HETATM   29  O   UNL     1      -1.604   4.198 -31.622  1.00  0.00    -0.355 OA
HETATM   30  C   UNL     1      -0.673   5.190 -31.201  1.00  0.00     0.210 C 
ENDBRANCH  24  29
ENDBRANCH   9  23
TORSDOF 4
ENDMDL
MODEL 2
REMARK VINA RESULT:      -8.4      1.877      2.638
REMARK  4 active torsions:
REMARK  status: ('A' for Active; 'I' for Inactive)
REMARK    1  A    between atoms: C_9  and  C_10 
REMARK    2  A    between atoms: C_11  and  O_12 
REMARK    3  A    between atoms: C_18  and  C_19 
REMARK       I    between atoms: C_19  and  N_20 
REMARK    4  A    between atoms: N_20  and  C_21 
ROOT
HETATM    1  C   UNL     1      -9.703   2.212 -34.006  1.00  0.00     0.070 C 
HETATM    2  C   UNL     1      -8.630   2.759 -33.098  1.00  0.00     0.037 C 
HETATM    3  N   UNL     1      -9.032   3.774 -32.236  1.00  0.00    -0.192 N 
HETATM    4  C   UNL     1      -8.277   4.202 -31.207  1.00  0.00     0.725 A 
HETATM    5  N   UNL     1      -6.994   3.741 -31.071  1.00  0.00    -0.084 N 
HETATM    6  N   UNL     1      -6.423   4.212 -29.941  1.00  0.00    -0.149 NA
HETATM    7  C   UNL     1      -7.408   4.985 -29.470  1.00  0.00     0.275 A 
HETATM    8  N   UNL     1      -8.559   5.009 -30.215  1.00  0.00    -0.054 NA
HETATM    9  C   UNL     1      -6.350   2.815 -32.013  1.00  0.00     0.205 C 
HETATM   10  C   UNL     1      -7.359   2.292 -33.034  1.00  0.00     0.063 C 
HETATM   11  H   UNL     1     -10.015   4.036 -32.243  1.00  0.00     0.184 HD
ENDROOT
BRANCH  10  12
HETATM   12  C   UNL     1      -6.861   1.166 -33.864  1.00  0.00     0.256 C 
HETATM   13  N   UNL     1      -6.722  -0.008 -33.154  1.00  0.00    -0.323 N 
HETATM   14  H   UNL     1      -6.980   0.016 -32.176  1.00  0.00     0.169 HD
HETATM   15  O   UNL     1      -6.635   1.355 -35.052  1.00  0.00    -0.267 OA
BRANCH  13  16
HETATM   16  C   UNL     1      -6.226  -1.239 -33.630  1.00  0.00     0.035 A 
HETATM   17  C   UNL     1      -4.886  -1.624 -33.549  1.00  0.00     0.031 A 
HETATM   18  C   UNL     1      -4.473  -2.871 -34.033  1.00  0.00     0.026 A 
HETATM   19  C   UNL     1      -5.402  -3.741 -34.596  1.00  0.00     0.034 A 
HETATM   20 CL   UNL     1      -4.897  -5.277 -35.181  1.00  0.00    -0.084 Cl
HETATM   21  C   UNL     1      -6.741  -3.371 -34.686  1.00  0.00     0.026 A 
HETATM   22  C   UNL     1      -7.150  -2.121 -34.209  1.00  0.00     0.031 A 
ENDBRANCH  13  16
ENDBRANCH  10  12
BRANCH   9  23
HETATM   23  C   UNL     1      -5.161   3.513 -32.674  1.00  0.00     0.005 A 
HETATM   24  C   UNL     1      -3.847   3.268 -32.230  1.00  0.00     0.076 A 
HETATM   25  C   UNL     1      -2.771   3.917 -32.843  1.00  0.00     0.037 A 
HETATM   26  C   UNL     1      -2.988   4.830 -33.877  1.00  0.00     0.003 A 
HETATM   27  C   UNL     1      -4.283   5.099 -34.307  1.00  0.00     0.001 A 
HETATM   28  C   UNL     1      -5.362   4.446 -33.712  1.00  0.00     0.012 A 
BRANCH  24  29
HETATM   29  O   UNL     1      -3.702   2.356 -31.220  1.00  0.00    -0.355 OA
HETATM   30  C   UNL     1      -3.366   1.030 -31.613  1.00  0.00     0.210 C 
ENDBRANCH  24  29
ENDBRANCH   9  23
TORSDOF 4
ENDMDL
MODEL 3
REMARK VINA RESULT:      -8.3      2.435      3.638
REMARK  4 active torsions:
REMARK  status: ('A' for Active; 'I' for Inactive)
REMARK    1  A    between atoms: C_9  and  C_10 
REMARK    2  A    between atoms: C_11  and  O_12 
REMARK    3  A    between atoms: C_18  and  C_19 
REMARK       I    between atoms: C_19  and  N_20 
REMARK    4  A    between atoms: N_20  and  C_21 
ROOT
HETATM    1  C   UNL     1     -10.209   0.055 -33.005  1.00  0.00     0.070 C 
HETATM    2  C   UNL     1      -9.654   1.347 -32.459  1.00  0.00     0.037 C 
HETATM    3  N   UNL     1     -10.537   2.422 -32.447  1.00  0.00    -0.192 N 
HETATM    4  C   UNL     1     -10.288   3.566 -31.781  1.00  0.00     0.725 A 
HETATM    5  N   UNL     1      -9.059   3.762 -31.209  1.00  0.00    -0.084 N 
HETATM    6  N   UNL     1      -9.022   4.921 -30.517  1.00  0.00    -0.149 NA
HETATM    7  C   UNL     1     -10.252   5.390 -30.754  1.00  0.00     0.275 A 
HETATM    8  N   UNL     1     -11.058   4.592 -31.525  1.00  0.00    -0.054 NA
HETATM    9  C   UNL     1      -7.947   2.805 -31.302  1.00  0.00     0.205 C 
HETATM   10  C   UNL     1      -8.410   1.497 -31.942  1.00  0.00     0.063 C 
HETATM   11  H   UNL     1     -11.491   2.251 -32.754  1.00  0.00     0.184 HD
ENDROOT
BRANCH  10  12
HETATM   12  C   UNL     1      -7.426   0.388 -31.848  1.00  0.00     0.256 C 
HETATM   13  N   UNL     1      -6.946  -0.011 -33.078  1.00  0.00    -0.323 N 
HETATM   14  H   UNL     1      -7.291   0.488 -33.887  1.00  0.00     0.169 HD
HETATM   15  O   UNL     1      -7.129  -0.053 -30.747  1.00  0.00    -0.267 OA
BRANCH  13  16
HETATM   16  C   UNL     1      -6.046  -1.065 -33.340  1.00  0.00     0.035 A 
HETATM   17  C   UNL     1      -4.788  -1.183 -32.745  1.00  0.00     0.031 A 
HETATM   18  C   UNL     1      -3.958  -2.269 -33.048  1.00  0.00     0.026 A 
HETATM   19  C   UNL     1      -4.385  -3.243 -33.944  1.00  0.00     0.034 A 
HETATM   20 CL   UNL     1      -3.369  -4.582 -34.308  1.00  0.00    -0.084 Cl
HETATM   21  C   UNL     1      -5.635  -3.139 -34.546  1.00  0.00     0.026 A 
HETATM   22  C   UNL     1      -6.461  -2.049 -34.248  1.00  0.00     0.031 A 
ENDBRANCH  13  16
ENDBRANCH  10  12
BRANCH   9  23
HETATM   23  C   UNL     1      -6.788   3.449 -32.065  1.00  0.00     0.005 A 
HETATM   24  C   UNL     1      -5.632   3.878 -31.386  1.00  0.00     0.076 A 
HETATM   25  C   UNL     1      -4.583   4.468 -32.098  1.00  0.00     0.037 A 
HETATM   26  C   UNL     1      -4.683   4.661 -33.477  1.00  0.00     0.003 A 
HETATM   27  C   UNL     1      -5.830   4.264 -34.155  1.00  0.00     0.001 A 
HETATM   28  C   UNL     1      -6.875   3.662 -33.457  1.00  0.00     0.012 A 
BRANCH  24  29
HETATM   29  O   UNL     1      -5.594   3.651 -30.036  1.00  0.00    -0.355 OA
HETATM   30  C   UNL     1      -5.648   4.804 -29.203  1.00  0.00     0.210 C 
ENDBRANCH  24  29
ENDBRANCH   9  23
TORSDOF 4
ENDMDL
MODEL 4
REMARK VINA RESULT:      -8.1      4.031      6.091
REMARK  4 active torsions:
REMARK  status: ('A' for Active; 'I' for Inactive)
REMARK    1  A    between atoms: C_9  and  C_10 
REMARK    2  A    between atoms: C_11  and  O_12 
REMARK    3  A    between atoms: C_18  and  C_19 
REMARK       I    between atoms: C_19  and  N_20 
REMARK    4  A    between atoms: N_20  and  C_21 
ROOT
HETATM    1  C   UNL     1      -8.502   5.651 -33.833  1.00  0.00     0.070 C 
HETATM    2  C   UNL     1      -7.442   4.620 -33.534  1.00  0.00     0.037 C 
HETATM    3  N   UNL     1      -6.139   4.988 -33.855  1.00  0.00    -0.192 N 
HETATM    4  C   UNL     1      -5.060   4.297 -33.439  1.00  0.00     0.725 A 
HETATM    5  N   UNL     1      -5.230   3.097 -32.800  1.00  0.00    -0.084 N 
HETATM    6  N   UNL     1      -4.047   2.594 -32.384  1.00  0.00    -0.149 NA
HETATM    7  C   UNL     1      -3.206   3.525 -32.847  1.00  0.00     0.275 A 
HETATM    8  N   UNL     1      -3.784   4.583 -33.500  1.00  0.00    -0.054 NA
HETATM    9  C   UNL     1      -6.538   2.471 -32.561  1.00  0.00     0.205 C 
HETATM   10  C   UNL     1      -7.671   3.424 -32.937  1.00  0.00     0.063 C 
HETATM   11  H   UNL     1      -5.990   5.927 -34.214  1.00  0.00     0.184 HD
ENDROOT
BRANCH  10  12
HETATM   12  C   UNL     1      -9.018   2.978 -32.497  1.00  0.00     0.256 C 
HETATM   13  N   UNL     1      -9.901   2.817 -33.543  1.00  0.00    -0.323 N 
HETATM   14  H   UNL     1      -9.546   2.998 -34.473  1.00  0.00     0.169 HD
HETATM   15  O   UNL     1      -9.223   2.790 -31.305  1.00  0.00    -0.267 OA
BRANCH  13  16
HETATM   16  C   UNL     1     -11.262   2.457 -33.461  1.00  0.00     0.035 A 
HETATM   17  C   UNL     1     -11.751   1.181 -33.755  1.00  0.00     0.031 A 
HETATM   18  C   UNL     1     -13.116   0.898 -33.637  1.00  0.00     0.026 A 
HETATM   19  C   UNL     1     -13.998   1.890 -33.218  1.00  0.00     0.034 A 
HETATM   20 CL   UNL     1     -15.675   1.539 -33.063  1.00  0.00    -0.084 Cl
HETATM   21  C   UNL     1     -13.528   3.166 -32.925  1.00  0.00     0.026 A 
HETATM   22  C   UNL     1     -12.163   3.449 -33.051  1.00  0.00     0.031 A 
ENDBRANCH  13  16
ENDBRANCH  10  12
BRANCH   9  23
HETATM   23  C   UNL     1      -6.612   1.148 -33.323  1.00  0.00     0.005 A 
HETATM   24  C   UNL     1      -6.338  -0.071 -32.675  1.00  0.00     0.076 A 
HETATM   25  C   UNL     1      -6.407  -1.272 -33.387  1.00  0.00     0.037 A 
HETATM   26  C   UNL     1      -6.719  -1.273 -34.748  1.00  0.00     0.003 A 
HETATM   27  C   UNL     1      -6.968  -0.073 -35.405  1.00  0.00     0.001 A 
HETATM   28  C   UNL     1      -6.916   1.129 -34.701  1.00  0.00     0.012 A 
BRANCH  24  29
HETATM   29  O   UNL     1      -6.046  -0.002 -31.338  1.00  0.00    -0.355 OA
HETATM   30  C   UNL     1      -4.735  -0.407 -30.959  1.00  0.00     0.210 C 
ENDBRANCH  24  29
ENDBRANCH   9  23
TORSDOF 4
ENDMDL
MODEL 5
REMARK VINA RESULT:      -7.9      2.325      4.470
REMARK  4 active torsions:
REMARK  status: ('A' for Active; 'I' for Inactive)
REMARK    1  A    between atoms: C_9  and  C_10 
REMARK    2  A    between atoms: C_11  and  O_12 
REMARK    3  A    between atoms: C_18  and  C_19 
REMARK       I    between atoms: C_19  and  N_20 
REMARK    4  A    between atoms: N_20  and  C_21 
ROOT
HETATM    1  C   UNL     1      -2.968   1.170 -30.813  1.00  0.00     0.070 C 
HETATM    2  C   UNL     1      -3.887   2.258 -31.311  1.00  0.00     0.037 C 
HETATM    3  N   UNL     1      -3.417   3.559 -31.158  1.00  0.00    -0.192 N 
HETATM    4  C   UNL     1      -3.991   4.620 -31.757  1.00  0.00     0.725 A 
HETATM    5  N   UNL     1      -5.175   4.460 -32.426  1.00  0.00    -0.084 N 
HETATM    6  N   UNL     1      -5.553   5.608 -33.030  1.00  0.00    -0.149 NA
HETATM    7  C   UNL     1      -4.569   6.426 -32.642  1.00  0.00     0.275 A 
HETATM    8  N   UNL     1      -3.594   5.862 -31.861  1.00  0.00    -0.054 NA
HETATM    9  C   UNL     1      -5.906   3.187 -32.511  1.00  0.00     0.205 C 
HETATM   10  C   UNL     1      -5.074   2.045 -31.931  1.00  0.00     0.063 C 
HETATM   11  H   UNL     1      -2.482   3.679 -30.776  1.00  0.00     0.184 HD
ENDROOT
BRANCH  10  12
HETATM   12  C   UNL     1      -5.622   0.691 -32.200  1.00  0.00     0.256 C 
HETATM   13  N   UNL     1      -5.063   0.094 -33.310  1.00  0.00    -0.323 N 
HETATM   14  H   UNL     1      -4.350   0.618 -33.801  1.00  0.00     0.169 HD
HETATM   15  O   UNL     1      -6.473   0.233 -31.450  1.00  0.00    -0.267 OA
BRANCH  13  16
HETATM   16  C   UNL     1      -5.399  -1.159 -33.864  1.00  0.00     0.035 A 
HETATM   17  C   UNL     1      -6.661  -1.475 -34.371  1.00  0.00     0.031 A 
HETATM   18  C   UNL     1      -6.911  -2.739 -34.918  1.00  0.00     0.026 A 
HETATM   19  C   UNL     1      -5.897  -3.690 -34.964  1.00  0.00     0.034 A 
HETATM   20 CL   UNL     1      -6.202  -5.240 -35.645  1.00  0.00    -0.084 Cl
HETATM   21  C   UNL     1      -4.635  -3.391 -34.460  1.00  0.00     0.026 A 
HETATM   22  C   UNL     1      -4.389  -2.130 -33.907  1.00  0.00     0.031 A 
ENDBRANCH  13  16
ENDBRANCH  10  12
BRANCH   9  23
HETATM   23  C   UNL     1      -7.260   3.335 -31.815  1.00  0.00     0.005 A 
HETATM   24  C   UNL     1      -8.456   3.082 -32.512  1.00  0.00     0.076 A 
HETATM   25  C   UNL     1      -9.687   3.225 -31.862  1.00  0.00     0.037 A 
HETATM   26  C   UNL     1      -9.741   3.644 -30.531  1.00  0.00     0.003 A 
HETATM   27  C   UNL     1      -8.566   3.920 -29.840  1.00  0.00     0.001 A 
HETATM   28  C   UNL     1      -7.335   3.767 -30.474  1.00  0.00     0.012 A 
BRANCH  24  29
HETATM   29  O   UNL     1      -8.333   2.666 -33.811  1.00  0.00    -0.355 OA
HETATM   30  C   UNL     1      -9.037   1.479 -34.160  1.00  0.00     0.210 C 
ENDBRANCH  24  29
ENDBRANCH   9  23
TORSDOF 4
ENDMDL
MODEL 6
REMARK VINA RESULT:      -7.7      3.667      6.823
REMARK  4 active torsions:
REMARK  status: ('A' for Active; 'I' for Inactive)
REMARK    1  A    between atoms: C_9  and  C_10 
REMARK    2  A    between atoms: C_11  and  O_12 
REMARK    3  A    between atoms: C_18  and  C_19 
REMARK       I    between atoms: C_19  and  N_20 
REMARK    4  A    between atoms: N_20  and  C_21 
ROOT
HETATM    1  C   UNL     1      -8.336   6.248 -32.729  1.00  0.00     0.070 C 
HETATM    2  C   UNL     1      -8.436   4.757 -32.939  1.00  0.00     0.037 C 
HETATM    3  N   UNL     1      -9.714   4.219 -32.823  1.00  0.00    -0.192 N 
HETATM    4  C   UNL     1     -10.018   2.965 -33.211  1.00  0.00     0.725 A 
HETATM    5  N   UNL     1      -9.016   2.116 -33.599  1.00  0.00    -0.084 N 
HETATM    6  N   UNL     1      -9.516   0.938 -34.032  1.00  0.00    -0.149 NA
HETATM    7  C   UNL     1     -10.823   1.136 -33.833  1.00  0.00     0.275 A 
HETATM    8  N   UNL     1     -11.173   2.363 -33.330  1.00  0.00    -0.054 NA
HETATM    9  C   UNL     1      -7.589   2.468 -33.589  1.00  0.00     0.205 C 
HETATM   10  C   UNL     1      -7.400   3.953 -33.282  1.00  0.00     0.063 C 
HETATM   11  H   UNL     1     -10.483   4.863 -32.658  1.00  0.00     0.184 HD
ENDROOT
BRANCH  10  12
HETATM   12  C   UNL     1      -6.018   4.451 -33.497  1.00  0.00     0.256 C 
HETATM   13  N   UNL     1      -5.346   4.704 -32.320  1.00  0.00    -0.323 N 
HETATM   14  H   UNL     1      -5.845   4.515 -31.460  1.00  0.00     0.169 HD
HETATM   15  O   UNL     1      -5.602   4.582 -34.641  1.00  0.00    -0.267 OA
BRANCH  13  16
HETATM   16  C   UNL     1      -4.046   5.231 -32.176  1.00  0.00     0.035 A 
HETATM   17  C   UNL     1      -3.726   6.578 -32.361  1.00  0.00     0.031 A 
HETATM   18  C   UNL     1      -2.411   7.027 -32.186  1.00  0.00     0.026 A 
HETATM   19  C   UNL     1      -1.413   6.130 -31.819  1.00  0.00     0.034 A 
HETATM   20 CL   UNL     1       0.200   6.684 -31.594  1.00  0.00    -0.084 Cl
HETATM   21  C   UNL     1      -1.716   4.784 -31.633  1.00  0.00     0.026 A 
HETATM   22  C   UNL     1      -3.029   4.336 -31.816  1.00  0.00     0.031 A 
ENDBRANCH  13  16
ENDBRANCH  10  12
BRANCH   9  23
HETATM   23  C   UNL     1      -6.854   1.569 -32.594  1.00  0.00     0.005 A 
HETATM   24  C   UNL     1      -6.108   0.462 -33.042  1.00  0.00     0.076 A 
HETATM   25  C   UNL     1      -5.444  -0.352 -32.119  1.00  0.00     0.037 A 
HETATM   26  C   UNL     1      -5.537  -0.093 -30.750  1.00  0.00     0.003 A 
HETATM   27  C   UNL     1      -6.290   0.982 -30.294  1.00  0.00     0.001 A 
HETATM   28  C   UNL     1      -6.944   1.809 -31.207  1.00  0.00     0.012 A 
BRANCH  24  29
HETATM   29  O   UNL     1      -6.051   0.269 -34.396  1.00  0.00    -0.355 OA
HETATM   30  C   UNL     1      -6.503  -0.994 -34.871  1.00  0.00     0.210 C 
ENDBRANCH  24  29
ENDBRANCH   9  23
TORSDOF 4
ENDMDL
MODEL 7
REMARK VINA RESULT:      -7.4      4.414      8.019
REMARK  4 active torsions:
REMARK  status: ('A' for Active; 'I' for Inactive)
REMARK    1  A    between atoms: C_9  and  C_10 
REMARK    2  A    between atoms: C_11  and  O_12 
REMARK    3  A    between atoms: C_18  and  C_19 
REMARK       I    between atoms: C_19  and  N_20 
REMARK    4  A    between atoms: N_20  and  C_21 
ROOT
HETATM    1  C   UNL     1      -1.111   5.303 -33.053  1.00  0.00     0.070 C 
HETATM    2  C   UNL     1      -2.450   5.020 -32.417  1.00  0.00     0.037 C 
HETATM    3  N   UNL     1      -3.229   4.062 -33.060  1.00  0.00    -0.192 N 
HETATM    4  C   UNL     1      -4.328   3.520 -32.503  1.00  0.00     0.725 A 
HETATM    5  N   UNL     1      -4.806   4.023 -31.321  1.00  0.00    -0.084 N 
HETATM    6  N   UNL     1      -5.859   3.304 -30.875  1.00  0.00    -0.149 NA
HETATM    7  C   UNL     1      -5.985   2.411 -31.863  1.00  0.00     0.275 A 
HETATM    8  N   UNL     1      -5.069   2.509 -32.879  1.00  0.00    -0.054 NA
HETATM    9  C   UNL     1      -4.212   5.167 -30.615  1.00  0.00     0.205 C 
HETATM   10  C   UNL     1      -2.893   5.580 -31.265  1.00  0.00     0.063 C 
HETATM   11  H   UNL     1      -2.827   3.593 -33.867  1.00  0.00     0.184 HD
ENDROOT
BRANCH  10  12
HETATM   12  C   UNL     1      -2.101   6.557 -30.476  1.00  0.00     0.256 C 
HETATM   13  N   UNL     1      -1.281   5.958 -29.543  1.00  0.00    -0.323 N 
HETATM   14  H   UNL     1      -1.294   4.947 -29.506  1.00  0.00     0.169 HD
HETATM   15  O   UNL     1      -2.225   7.752 -30.709  1.00  0.00    -0.267 OA
BRANCH  13  16
HETATM   16  C   UNL     1      -0.446   6.600 -28.605  1.00  0.00     0.035 A 
HETATM   17  C   UNL     1      -0.452   6.321 -27.236  1.00  0.00     0.031 A 
HETATM   18  C   UNL     1       0.419   6.992 -26.370  1.00  0.00     0.026 A 
HETATM   19  C   UNL     1       1.303   7.942 -26.871  1.00  0.00     0.034 A 
HETATM   20 CL   UNL     1       2.380   8.759 -25.808  1.00  0.00    -0.084 Cl
HETATM   21  C   UNL     1       1.319   8.233 -28.232  1.00  0.00     0.026 A 
HETATM   22  C   UNL     1       0.442   7.567 -29.095  1.00  0.00     0.031 A 
ENDBRANCH  13  16
ENDBRANCH  10  12
BRANCH   9  23
HETATM   23  C   UNL     1      -5.224   6.313 -30.569  1.00  0.00     0.005 A 
HETATM   24  C   UNL     1      -5.670   6.828 -29.337  1.00  0.00     0.076 A 
HETATM   25  C   UNL     1      -6.598   7.874 -29.312  1.00  0.00     0.037 A 
HETATM   26  C   UNL     1      -7.109   8.397 -30.502  1.00  0.00     0.003 A 
HETATM   27  C   UNL     1      -6.694   7.880 -31.724  1.00  0.00     0.001 A 
HETATM   28  C   UNL     1      -5.759   6.847 -31.760  1.00  0.00     0.012 A 
BRANCH  24  29
HETATM   29  O   UNL     1      -5.124   6.277 -28.209  1.00  0.00    -0.355 OA
HETATM   30  C   UNL     1      -4.264   7.122 -27.450  1.00  0.00     0.210 C 
ENDBRANCH  24  29
ENDBRANCH   9  23
TORSDOF 4
ENDMDL
MODEL 8
REMARK VINA RESULT:      -7.3      3.841      5.626
REMARK  4 active torsions:
REMARK  status: ('A' for Active; 'I' for Inactive)
REMARK    1  A    between atoms: C_9  and  C_10 
REMARK    2  A    between atoms: C_11  and  O_12 
REMARK    3  A    between atoms: C_18  and  C_19 
REMARK       I    between atoms: C_19  and  N_20 
REMARK    4  A    between atoms: N_20  and  C_21 
ROOT
HETATM    1  C   UNL     1      -7.478   2.989 -29.745  1.00  0.00     0.070 C 
HETATM    2  C   UNL     1      -8.369   3.866 -30.590  1.00  0.00     0.037 C 
HETATM    3  N   UNL     1      -9.143   4.787 -29.891  1.00  0.00    -0.192 N 
HETATM    4  C   UNL     1      -9.803   5.795 -30.493  1.00  0.00     0.725 A 
HETATM    5  N   UNL     1      -9.853   5.848 -31.861  1.00  0.00    -0.084 N 
HETATM    6  N   UNL     1     -10.481   6.967 -32.282  1.00  0.00    -0.149 NA
HETATM    7  C   UNL     1     -10.820   7.517 -31.111  1.00  0.00     0.275 A 
HETATM    8  N   UNL     1     -10.426   6.830 -29.992  1.00  0.00    -0.054 NA
HETATM    9  C   UNL     1      -9.254   4.839 -32.746  1.00  0.00     0.205 C 
HETATM   10  C   UNL     1      -8.411   3.848 -31.945  1.00  0.00     0.063 C 
HETATM   11  H   UNL     1      -9.017   4.838 -28.883  1.00  0.00     0.184 HD
ENDROOT
BRANCH  10  12
HETATM   12  C   UNL     1      -7.570   2.949 -32.776  1.00  0.00     0.256 C 
HETATM   13  N   UNL     1      -7.925   1.621 -32.662  1.00  0.00    -0.323 N 
HETATM   14  H   UNL     1      -8.706   1.407 -32.056  1.00  0.00     0.169 HD
HETATM   15  O   UNL     1      -6.683   3.432 -33.466  1.00  0.00    -0.267 OA
BRANCH  13  16
HETATM   16  C   UNL     1      -7.297   0.516 -33.273  1.00  0.00     0.035 A 
HETATM   17  C   UNL     1      -7.675  -0.010 -34.511  1.00  0.00     0.031 A 
HETATM   18  C   UNL     1      -6.992  -1.102 -35.057  1.00  0.00     0.026 A 
HETATM   19  C   UNL     1      -5.924  -1.670 -34.369  1.00  0.00     0.034 A 
HETATM   20 CL   UNL     1      -5.079  -3.007 -35.046  1.00  0.00    -0.084 Cl
HETATM   21  C   UNL     1      -5.538  -1.160 -33.134  1.00  0.00     0.026 A 
HETATM   22  C   UNL     1      -6.227  -0.072 -32.585  1.00  0.00     0.031 A 
ENDBRANCH  13  16
ENDBRANCH  10  12
BRANCH   9  23
HETATM   23  C   UNL     1     -10.360   4.150 -33.547  1.00  0.00     0.005 A 
HETATM   24  C   UNL     1     -10.591   4.490 -34.893  1.00  0.00     0.076 A 
HETATM   25  C   UNL     1     -11.608   3.853 -35.610  1.00  0.00     0.037 A 
HETATM   26  C   UNL     1     -12.419   2.898 -34.994  1.00  0.00     0.003 A 
HETATM   27  C   UNL     1     -12.217   2.571 -33.658  1.00  0.00     0.001 A 
HETATM   28  C   UNL     1     -11.196   3.190 -32.938  1.00  0.00     0.012 A 
BRANCH  24  29
HETATM   29  O   UNL     1      -9.755   5.427 -35.440  1.00  0.00    -0.355 OA
HETATM   30  C   UNL     1     -10.348   6.676 -35.780  1.00  0.00     0.210 C 
ENDBRANCH  24  29
ENDBRANCH   9  23
TORSDOF 4
ENDMDL
MODEL 9
REMARK VINA RESULT:      -7.3      3.661      5.346
REMARK  4 active torsions:
REMARK  status: ('A' for Active; 'I' for Inactive)
REMARK    1  A    between atoms: C_9  and  C_10 
REMARK    2  A    between atoms: C_11  and  O_12 
REMARK    3  A    between atoms: C_18  and  C_19 
REMARK       I    between atoms: C_19  and  N_20 
REMARK    4  A    between atoms: N_20  and  C_21 
ROOT
HETATM    1  C   UNL     1      -4.957   8.831 -28.804  1.00  0.00     0.070 C 
HETATM    2  C   UNL     1      -3.666   8.155 -29.194  1.00  0.00     0.037 C 
HETATM    3  N   UNL     1      -2.504   8.778 -28.750  1.00  0.00    -0.192 N 
HETATM    4  C   UNL     1      -1.293   8.189 -28.800  1.00  0.00     0.725 A 
HETATM    5  N   UNL     1      -1.150   6.990 -29.446  1.00  0.00    -0.084 N 
HETATM    6  N   UNL     1       0.108   6.515 -29.320  1.00  0.00    -0.149 NA
HETATM    7  C   UNL     1       0.677   7.504 -28.623  1.00  0.00     0.275 A 
HETATM    8  N   UNL     1      -0.145   8.548 -28.286  1.00  0.00    -0.054 NA
HETATM    9  C   UNL     1      -2.244   6.295 -30.141  1.00  0.00     0.205 C 
HETATM   10  C   UNL     1      -3.580   6.985 -29.874  1.00  0.00     0.063 C 
HETATM   11  H   UNL     1      -2.606   9.601 -28.163  1.00  0.00     0.184 HD
ENDROOT
BRANCH  10  12
HETATM   12  C   UNL     1      -4.767   6.215 -30.325  1.00  0.00     0.256 C 
HETATM   13  N   UNL     1      -5.225   6.607 -31.565  1.00  0.00    -0.323 N 
HETATM   14  H   UNL     1      -4.711   7.344 -32.030  1.00  0.00     0.169 HD
HETATM   15  O   UNL     1      -5.216   5.334 -29.603  1.00  0.00    -0.267 OA
BRANCH  13  16
HETATM   16  C   UNL     1      -6.356   6.117 -32.250  1.00  0.00     0.035 A 
HETATM   17  C   UNL     1      -7.647   6.627 -32.091  1.00  0.00     0.031 A 
HETATM   18  C   UNL     1      -8.717   6.095 -32.819  1.00  0.00     0.026 A 
HETATM   19  C   UNL     1      -8.499   5.051 -33.713  1.00  0.00     0.034 A 
HETATM   20 CL   UNL     1      -9.813   4.404 -34.615  1.00  0.00    -0.084 Cl
HETATM   21  C   UNL     1      -7.220   4.530 -33.881  1.00  0.00     0.026 A 
HETATM   22  C   UNL     1      -6.153   5.058 -33.146  1.00  0.00     0.031 A 
ENDBRANCH  13  16
ENDBRANCH  10  12
BRANCH   9  23
HETATM   23  C   UNL     1      -1.920   6.209 -31.633  1.00  0.00     0.005 A 
HETATM   24  C   UNL     1      -1.807   4.959 -32.272  1.00  0.00     0.076 A 
HETATM   25  C   UNL     1      -1.508   4.898 -33.637  1.00  0.00     0.037 A 
HETATM   26  C   UNL     1      -1.291   6.067 -34.369  1.00  0.00     0.003 A 
HETATM   27  C   UNL     1      -1.374   7.306 -33.743  1.00  0.00     0.001 A 
HETATM   28  C   UNL     1      -1.687   7.378 -32.386  1.00  0.00     0.012 A 
BRANCH  24  29
HETATM   29  O   UNL     1      -2.041   3.853 -31.500  1.00  0.00    -0.355 OA
HETATM   30  C   UNL     1      -3.188   3.081 -31.838  1.00  0.00     0.210 C 
ENDBRANCH  24  29
ENDBRANCH   9  23
TORSDOF 4
ENDMDL
MODEL 10
REMARK VINA RESULT:      -7.3      5.037      7.488
REMARK  4 active torsions:
REMARK  status: ('A' for Active; 'I' for Inactive)
REMARK    1  A    between atoms: C_9  and  C_10 
REMARK    2  A    between atoms: C_11  and  O_12 
REMARK    3  A    between atoms: C_18  and  C_19 
REMARK       I    between atoms: C_19  and  N_20 
REMARK    4  A    between atoms: N_20  and  C_21 
ROOT
HETATM    1  C   UNL     1      -8.696   4.703 -31.436  1.00  0.00     0.070 C 
HETATM    2  C   UNL     1      -9.780   4.614 -32.481  1.00  0.00     0.037 C 
HETATM    3  N   UNL     1     -10.457   5.801 -32.746  1.00  0.00    -0.192 N 
HETATM    4  C   UNL     1     -11.275   5.955 -33.804  1.00  0.00     0.725 A 
HETATM    5  N   UNL     1     -11.589   4.872 -34.581  1.00  0.00    -0.084 N 
HETATM    6  N   UNL     1     -12.348   5.232 -35.638  1.00  0.00    -0.149 NA
HETATM    7  C   UNL     1     -12.488   6.542 -35.406  1.00  0.00     0.275 A 
HETATM    8  N   UNL     1     -11.849   7.025 -34.293  1.00  0.00    -0.054 NA
HETATM    9  C   UNL     1     -11.114   3.506 -34.317  1.00  0.00     0.205 C 
HETATM   10  C   UNL     1     -10.079   3.500 -33.193  1.00  0.00     0.063 C 
HETATM   11  H   UNL     1     -10.145   6.639 -32.262  1.00  0.00     0.184 HD
ENDROOT
BRANCH  10  12
HETATM   12  C   UNL     1      -9.362   2.210 -33.028  1.00  0.00     0.256 C 
HETATM   13  N   UNL     1      -8.320   2.054 -33.918  1.00  0.00    -0.323 N 
HETATM   14  H   UNL     1      -8.149   2.818 -34.559  1.00  0.00     0.169 HD
HETATM   15  O   UNL     1      -9.727   1.433 -32.157  1.00  0.00    -0.267 OA
BRANCH  13  16
HETATM   16  C   UNL     1      -7.480   0.930 -34.059  1.00  0.00     0.035 A 
HETATM   17  C   UNL     1      -7.768  -0.159 -34.885  1.00  0.00     0.031 A 
HETATM   18  C   UNL     1      -6.875  -1.233 -34.982  1.00  0.00     0.026 A 
HETATM   19  C   UNL     1      -5.688  -1.218 -34.257  1.00  0.00     0.034 A 
HETATM   20 CL   UNL     1      -4.587  -2.533 -34.384  1.00  0.00    -0.084 Cl
HETATM   21  C   UNL     1      -5.389  -0.142 -33.427  1.00  0.00     0.026 A 
HETATM   22  C   UNL     1      -6.286   0.927 -33.325  1.00  0.00     0.031 A 
ENDBRANCH  13  16
ENDBRANCH  10  12
BRANCH   9  23
HETATM   23  C   UNL     1     -12.311   2.605 -34.011  1.00  0.00     0.005 A 
HETATM   24  C   UNL     1     -13.197   2.920 -32.963  1.00  0.00     0.076 A 
HETATM   25  C   UNL     1     -14.285   2.084 -32.694  1.00  0.00     0.037 A 
HETATM   26  C   UNL     1     -14.487   0.920 -33.440  1.00  0.00     0.003 A 
HETATM   27  C   UNL     1     -13.605   0.586 -34.461  1.00  0.00     0.001 A 
HETATM   28  C   UNL     1     -12.525   1.420 -34.746  1.00  0.00     0.012 A 
BRANCH  24  29
HETATM   29  O   UNL     1     -12.948   4.078 -32.277  1.00  0.00    -0.355 OA
HETATM   30  C   UNL     1     -13.323   4.089 -30.904  1.00  0.00     0.210 C 
ENDBRANCH  24  29
ENDBRANCH   9  23
TORSDOF 4
ENDMDL
