MODEL 1
REMARK VINA RESULT:      -8.7      0.000      0.000
REMARK  3 active torsions:
REMARK  status: ('A' for Active; 'I' for Inactive)
REMARK    1  A    between atoms: C_4  and  C_5 
REMARK    2  A    between atoms: C_9  and  C_10 
REMARK       I    between atoms: C_10  and  N_11 
REMARK    3  A    between atoms: N_11  and  N_12 
ROOT
HETATM    1  C   UNL     1      -4.620   2.728 -32.651  1.00  0.00     0.289 C 
HETATM    2  N   UNL     1      -3.963   1.530 -32.430  1.00  0.00    -0.241 N 
HETATM    3  O   UNL     1      -5.615   2.846 -33.363  1.00  0.00    -0.264 OA
HETATM    4  H   UNL     1      -3.140   1.488 -31.828  1.00  0.00     0.192 HD
ENDROOT
BRANCH   2   5
HETATM    5  N   UNL     1      -4.415   0.380 -33.020  1.00  0.00    -0.165 NA
HETATM    6  C   UNL     1      -3.848  -0.724 -32.660  1.00  0.00     0.157 A 
HETATM    7  C   UNL     1      -2.719  -0.935 -31.647  1.00  0.00     0.277 A 
HETATM    8  C   UNL     1      -4.182  -2.049 -33.167  1.00  0.00     0.028 A 
HETATM    9  O   UNL     1      -2.184  -0.047 -31.018  1.00  0.00    -0.266 OA
HETATM   10  N   UNL     1      -2.484  -2.293 -31.632  1.00  0.00    -0.321 N 
HETATM   11  C   UNL     1      -3.335  -2.949 -32.519  1.00  0.00     0.048 A 
HETATM   12  H   UNL     1      -1.784  -2.728 -31.048  1.00  0.00     0.169 HD
HETATM   13  C   UNL     1      -3.397  -4.301 -32.778  1.00  0.00     0.032 A 
HETATM   14  C   UNL     1      -4.343  -4.732 -33.718  1.00  0.00     0.021 A 
HETATM   15  C   UNL     1      -5.193  -3.810 -34.366  1.00  0.00     0.012 A 
HETATM   16 BR   UNL     1      -6.453  -4.443 -35.627  1.00  0.00    -0.051 Br
HETATM   17  C   UNL     1      -5.121  -2.444 -34.096  1.00  0.00     0.035 A 
ENDBRANCH   2   5
BRANCH   1  18
HETATM   18  C   UNL     1      -4.055   3.870 -31.977  1.00  0.00     0.121 A 
HETATM   19  N   UNL     1      -4.860   4.877 -31.511  1.00  0.00    -0.272 N 
HETATM   20  N   UNL     1      -4.199   5.875 -30.905  1.00  0.00    -0.172 NA
HETATM   21  H   UNL     1      -5.872   4.924 -31.587  1.00  0.00     0.189 HD
HETATM   22  C   UNL     1      -2.917   5.500 -30.980  1.00  0.00     0.113 A 
HETATM   23  C   UNL     1      -2.773   4.256 -31.639  1.00  0.00     0.073 A 
BRANCH  22  24
HETATM   24  C   UNL     1      -1.802   6.319 -30.426  1.00  0.00     0.105 A 
HETATM   25  O   UNL     1      -1.963   7.397 -29.597  1.00  0.00    -0.320 OA
HETATM   26  C   UNL     1      -0.724   7.873 -29.310  1.00  0.00     0.142 A 
HETATM   27  C   UNL     1       0.240   7.122 -29.939  1.00  0.00     0.027 A 
HETATM   28  C   UNL     1      -0.453   6.120 -30.659  1.00  0.00     0.041 A 
ENDBRANCH  22  24
ENDBRANCH   1  18
TORSDOF 3
ENDMDL
MODEL 2
REMARK VINA RESULT:      -8.7      3.664      9.466
REMARK  3 active torsions:
REMARK  status: ('A' for Active; 'I' for Inactive)
REMARK    1  A    between atoms: C_4  and  C_5 
REMARK    2  A    between atoms: C_9  and  C_10 
REMARK       I    between atoms: C_10  and  N_11 
REMARK    3  A    between atoms: N_11  and  N_12 
ROOT
HETATM    1  C   UNL     1      -3.358   1.058 -31.876  1.00  0.00     0.289 C 
HETATM    2  N   UNL     1      -3.423   2.370 -32.316  1.00  0.00    -0.241 N 
HETATM    3  O   UNL     1      -2.678   0.685 -30.923  1.00  0.00    -0.264 OA
HETATM    4  H   UNL     1      -4.005   2.626 -33.114  1.00  0.00     0.192 HD
ENDROOT
BRANCH   2   5
HETATM    5  N   UNL     1      -2.701   3.343 -31.679  1.00  0.00    -0.165 NA
HETATM    6  C   UNL     1      -2.918   4.565 -32.042  1.00  0.00     0.157 A 
HETATM    7  C   UNL     1      -3.887   5.089 -33.106  1.00  0.00     0.277 A 
HETATM    8  C   UNL     1      -2.256   5.740 -31.491  1.00  0.00     0.028 A 
HETATM    9  O   UNL     1      -4.614   4.391 -33.778  1.00  0.00    -0.266 OA
HETATM   10  N   UNL     1      -3.734   6.459 -33.103  1.00  0.00    -0.321 N 
HETATM   11  C   UNL     1      -2.781   6.844 -32.161  1.00  0.00     0.048 A 
HETATM   12  H   UNL     1      -4.253   7.077 -33.710  1.00  0.00     0.169 HD
HETATM   13  C   UNL     1      -2.359   8.124 -31.869  1.00  0.00     0.032 A 
HETATM   14  C   UNL     1      -1.383   8.267 -30.874  1.00  0.00     0.021 A 
HETATM   15  C   UNL     1      -0.860   7.139 -30.205  1.00  0.00     0.012 A 
HETATM   16 BR   UNL     1       0.457   7.387 -28.869  1.00  0.00    -0.051 Br
HETATM   17  C   UNL     1      -1.294   5.850 -30.508  1.00  0.00     0.035 A 
ENDBRANCH   2   5
BRANCH   1  18
HETATM   18  C   UNL     1      -4.161   0.123 -32.623  1.00  0.00     0.121 A 
HETATM   19  N   UNL     1      -5.322   0.525 -33.229  1.00  0.00    -0.272 N 
HETATM   20  N   UNL     1      -5.967  -0.450 -33.889  1.00  0.00    -0.172 NA
HETATM   21  H   UNL     1      -5.716   1.462 -33.217  1.00  0.00     0.189 HD
HETATM   22  C   UNL     1      -5.193  -1.525 -33.703  1.00  0.00     0.113 A 
HETATM   23  C   UNL     1      -4.053  -1.222 -32.920  1.00  0.00     0.073 A 
BRANCH  22  24
HETATM   24  C   UNL     1      -5.522  -2.865 -34.267  1.00  0.00     0.105 A 
HETATM   25  O   UNL     1      -4.665  -3.932 -34.295  1.00  0.00    -0.320 OA
HETATM   26  C   UNL     1      -5.324  -4.964 -34.883  1.00  0.00     0.142 A 
HETATM   27  C   UNL     1      -6.596  -4.584 -35.237  1.00  0.00     0.027 A 
HETATM   28  C   UNL     1      -6.725  -3.232 -34.842  1.00  0.00     0.041 A 
ENDBRANCH  22  24
ENDBRANCH   1  18
TORSDOF 3
ENDMDL
MODEL 3
REMARK VINA RESULT:      -8.5      7.768     10.795
REMARK  3 active torsions:
REMARK  status: ('A' for Active; 'I' for Inactive)
REMARK    1  A    between atoms: C_4  and  C_5 
REMARK    2  A    between atoms: C_9  and  C_10 
REMARK       I    between atoms: C_10  and  N_11 
REMARK    3  A    between atoms: N_11  and  N_12 
ROOT
HETATM    1  C   UNL     1      -9.756   1.571 -33.130  1.00  0.00     0.289 C 
HETATM    2  N   UNL     1     -10.849   1.901 -33.915  1.00  0.00    -0.241 N 
HETATM    3  O   UNL     1      -9.582   1.983 -31.985  1.00  0.00    -0.264 OA
HETATM    4  H   UNL     1     -10.945   1.530 -34.860  1.00  0.00     0.192 HD
ENDROOT
BRANCH   2   5
HETATM    5  N   UNL     1     -11.818   2.734 -33.425  1.00  0.00    -0.165 NA
HETATM    6  C   UNL     1     -12.990   2.221 -33.236  1.00  0.00     0.157 A 
HETATM    7  C   UNL     1     -13.457   0.785 -33.487  1.00  0.00     0.277 A 
HETATM    8  C   UNL     1     -14.152   2.935 -32.724  1.00  0.00     0.028 A 
HETATM    9  O   UNL     1     -12.752  -0.103 -33.917  1.00  0.00    -0.266 OA
HETATM   10  N   UNL     1     -14.786   0.759 -33.125  1.00  0.00    -0.321 N 
HETATM   11  C   UNL     1     -15.198   2.013 -32.679  1.00  0.00     0.048 A 
HETATM   12  H   UNL     1     -15.362  -0.069 -33.184  1.00  0.00     0.169 HD
HETATM   13  C   UNL     1     -16.451   2.377 -32.234  1.00  0.00     0.032 A 
HETATM   14  C   UNL     1     -16.629   3.707 -31.832  1.00  0.00     0.021 A 
HETATM   15  C   UNL     1     -15.561   4.629 -31.884  1.00  0.00     0.012 A 
HETATM   16 BR   UNL     1     -15.854   6.414 -31.330  1.00  0.00    -0.051 Br
HETATM   17  C   UNL     1     -14.298   4.250 -32.335  1.00  0.00     0.035 A 
ENDBRANCH   2   5
BRANCH   1  18
HETATM   18  C   UNL     1      -8.802   0.687 -33.750  1.00  0.00     0.121 A 
HETATM   19  N   UNL     1      -8.375   0.908 -35.034  1.00  0.00    -0.272 N 
HETATM   20  N   UNL     1      -7.488   0.007 -35.483  1.00  0.00    -0.172 NA
HETATM   21  H   UNL     1      -8.667   1.666 -35.645  1.00  0.00     0.189 HD
HETATM   22  C   UNL     1      -7.333  -0.829 -34.449  1.00  0.00     0.113 A 
HETATM   23  C   UNL     1      -8.130  -0.450 -33.344  1.00  0.00     0.073 A 
BRANCH  22  24
HETATM   24  C   UNL     1      -6.422  -2.008 -34.494  1.00  0.00     0.105 A 
HETATM   25  O   UNL     1      -5.075  -1.962 -34.256  1.00  0.00    -0.320 OA
HETATM   26  C   UNL     1      -4.598  -3.227 -34.389  1.00  0.00     0.142 A 
HETATM   27  C   UNL     1      -5.615  -4.095 -34.709  1.00  0.00     0.027 A 
HETATM   28  C   UNL     1      -6.791  -3.310 -34.777  1.00  0.00     0.041 A 
ENDBRANCH  22  24
ENDBRANCH   1  18
TORSDOF 3
ENDMDL
MODEL 4
REMARK VINA RESULT:      -8.3      2.281      3.374
REMARK  3 active torsions:
REMARK  status: ('A' for Active; 'I' for Inactive)
REMARK    1  A    between atoms: C_4  and  C_5 
REMARK    2  A    between atoms: C_9  and  C_10 
REMARK       I    between atoms: C_10  and  N_11 
REMARK    3  A    between atoms: N_11  and  N_12 
ROOT
HETATM    1  C   UNL     1      -2.467   4.108 -31.980  1.00  0.00     0.289 C 
HETATM    2  N   UNL     1      -3.072   3.080 -31.277  1.00  0.00    -0.241 N 
HETATM    3  O   UNL     1      -2.223   4.068 -33.184  1.00  0.00    -0.264 OA
HETATM    4  H   UNL     1      -3.253   3.166 -30.277  1.00  0.00     0.192 HD
ENDROOT
BRANCH   2   5
HETATM    5  N   UNL     1      -3.439   1.930 -31.923  1.00  0.00    -0.165 NA
HETATM    6  C   UNL     1      -4.706   1.716 -32.063  1.00  0.00     0.157 A 
HETATM    7  C   UNL     1      -5.880   2.584 -31.600  1.00  0.00     0.277 A 
HETATM    8  C   UNL     1      -5.299   0.558 -32.718  1.00  0.00     0.028 A 
HETATM    9  O   UNL     1      -5.767   3.638 -31.013  1.00  0.00    -0.266 OA
HETATM   10  N   UNL     1      -7.016   1.910 -31.994  1.00  0.00    -0.321 N 
HETATM   11  C   UNL     1      -6.682   0.725 -32.647  1.00  0.00     0.048 A 
HETATM   12  H   UNL     1      -7.951   2.250 -31.822  1.00  0.00     0.169 HD
HETATM   13  C   UNL     1      -7.543  -0.210 -33.182  1.00  0.00     0.032 A 
HETATM   14  C   UNL     1      -6.971  -1.332 -33.796  1.00  0.00     0.021 A 
HETATM   15  C   UNL     1      -5.569  -1.488 -33.859  1.00  0.00     0.012 A 
HETATM   16 BR   UNL     1      -4.847  -3.021 -34.700  1.00  0.00    -0.051 Br
HETATM   17  C   UNL     1      -4.708  -0.536 -33.316  1.00  0.00     0.035 A 
ENDBRANCH   2   5
BRANCH   1  18
HETATM   18  C   UNL     1      -2.128   5.269 -31.196  1.00  0.00     0.121 A 
HETATM   19  N   UNL     1      -2.967   6.352 -31.150  1.00  0.00    -0.272 N 
HETATM   20  N   UNL     1      -2.525   7.360 -30.381  1.00  0.00    -0.172 NA
HETATM   21  H   UNL     1      -3.857   6.447 -31.631  1.00  0.00     0.189 HD
HETATM   22  C   UNL     1      -1.355   6.912 -29.912  1.00  0.00     0.113 A 
HETATM   23  C   UNL     1      -1.060   5.613 -30.390  1.00  0.00     0.073 A 
BRANCH  22  24
HETATM   24  C   UNL     1      -0.492   7.713 -28.998  1.00  0.00     0.105 A 
HETATM   25  O   UNL     1      -0.944   8.698 -28.162  1.00  0.00    -0.320 OA
HETATM   26  C   UNL     1       0.133   9.189 -27.497  1.00  0.00     0.142 A 
HETATM   27  C   UNL     1       1.279   8.537 -27.887  1.00  0.00     0.027 A 
HETATM   28  C   UNL     1       0.878   7.586 -28.854  1.00  0.00     0.041 A 
ENDBRANCH  22  24
ENDBRANCH   1  18
TORSDOF 3
ENDMDL
MODEL 5
REMARK VINA RESULT:      -8.2      7.464      9.570
REMARK  3 active torsions:
REMARK  status: ('A' for Active; 'I' for Inactive)
REMARK    1  A    between atoms: C_4  and  C_5 
REMARK    2  A    between atoms: C_9  and  C_10 
REMARK       I    between atoms: C_10  and  N_11 
REMARK    3  A    between atoms: N_11  and  N_12 
ROOT
HETATM    1  C   UNL     1     -11.425   1.387 -33.610  1.00  0.00     0.289 C 
HETATM    2  N   UNL     1     -10.723   0.599 -32.713  1.00  0.00    -0.241 N 
HETATM    3  O   UNL     1     -11.126   1.511 -34.796  1.00  0.00    -0.264 OA
HETATM    4  H   UNL     1     -11.015   0.531 -31.738  1.00  0.00     0.192 HD
ENDROOT
BRANCH   2   5
HETATM    5  N   UNL     1      -9.624  -0.102 -33.129  1.00  0.00    -0.165 NA
HETATM    6  C   UNL     1      -8.484   0.246 -32.629  1.00  0.00     0.157 A 
HETATM    7  C   UNL     1      -8.181   1.353 -31.616  1.00  0.00     0.277 A 
HETATM    8  C   UNL     1      -7.201  -0.371 -32.940  1.00  0.00     0.028 A 
HETATM    9  O   UNL     1      -9.015   2.084 -31.126  1.00  0.00    -0.266 OA
HETATM   10  N   UNL     1      -6.819   1.310 -31.416  1.00  0.00    -0.321 N 
HETATM   11  C   UNL     1      -6.241   0.304 -32.188  1.00  0.00     0.048 A 
HETATM   12  H   UNL     1      -6.329   1.933 -30.789  1.00  0.00     0.169 HD
HETATM   13  C   UNL     1      -4.908  -0.041 -32.255  1.00  0.00     0.032 A 
HETATM   14  C   UNL     1      -4.560  -1.096 -33.109  1.00  0.00     0.021 A 
HETATM   15  C   UNL     1      -5.544  -1.771 -33.865  1.00  0.00     0.012 A 
HETATM   16 BR   UNL     1      -5.022  -3.188 -35.004  1.00  0.00    -0.051 Br
HETATM   17  C   UNL     1      -6.889  -1.413 -33.789  1.00  0.00     0.035 A 
ENDBRANCH   2   5
BRANCH   1  18
HETATM   18  C   UNL     1     -12.564   2.077 -33.059  1.00  0.00     0.121 A 
HETATM   19  N   UNL     1     -12.396   3.089 -32.151  1.00  0.00    -0.272 N 
HETATM   20  N   UNL     1     -13.542   3.641 -31.722  1.00  0.00    -0.172 NA
HETATM   21  H   UNL     1     -11.512   3.438 -31.792  1.00  0.00     0.189 HD
HETATM   22  C   UNL     1     -14.488   2.960 -32.379  1.00  0.00     0.113 A 
HETATM   23  C   UNL     1     -13.931   1.973 -33.226  1.00  0.00     0.073 A 
BRANCH  22  24
HETATM   24  C   UNL     1     -15.944   3.235 -32.213  1.00  0.00     0.105 A 
HETATM   25  O   UNL     1     -16.938   2.310 -32.390  1.00  0.00    -0.320 OA
HETATM   26  C   UNL     1     -18.118   2.937 -32.151  1.00  0.00     0.142 A 
HETATM   27  C   UNL     1     -17.908   4.255 -31.821  1.00  0.00     0.027 A 
HETATM   28  C   UNL     1     -16.507   4.448 -31.862  1.00  0.00     0.041 A 
ENDBRANCH  22  24
ENDBRANCH   1  18
TORSDOF 3
ENDMDL
MODEL 6
REMARK VINA RESULT:      -8.1      1.146      1.378
REMARK  3 active torsions:
REMARK  status: ('A' for Active; 'I' for Inactive)
REMARK    1  A    between atoms: C_4  and  C_5 
REMARK    2  A    between atoms: C_9  and  C_10 
REMARK       I    between atoms: C_10  and  N_11 
REMARK    3  A    between atoms: N_11  and  N_12 
ROOT
HETATM    1  C   UNL     1      -5.582   2.360 -31.763  1.00  0.00     0.289 C 
HETATM    2  N   UNL     1      -4.651   1.733 -32.574  1.00  0.00    -0.241 N 
HETATM    3  O   UNL     1      -6.679   1.883 -31.479  1.00  0.00    -0.264 OA
HETATM    4  H   UNL     1      -3.753   2.174 -32.777  1.00  0.00     0.192 HD
ENDROOT
BRANCH   2   5
HETATM    5  N   UNL     1      -4.927   0.507 -33.115  1.00  0.00    -0.165 NA
HETATM    6  C   UNL     1      -4.208  -0.488 -32.708  1.00  0.00     0.157 A 
HETATM    7  C   UNL     1      -3.068  -0.489 -31.686  1.00  0.00     0.277 A 
HETATM    8  C   UNL     1      -4.343  -1.867 -33.158  1.00  0.00     0.028 A 
HETATM    9  O   UNL     1      -2.672   0.493 -31.095  1.00  0.00    -0.266 OA
HETATM   10  N   UNL     1      -2.638  -1.796 -31.613  1.00  0.00    -0.321 N 
HETATM   11  C   UNL     1      -3.380  -2.606 -32.471  1.00  0.00     0.048 A 
HETATM   12  H   UNL     1      -1.887  -2.101 -31.011  1.00  0.00     0.169 HD
HETATM   13  C   UNL     1      -3.243  -3.963 -32.673  1.00  0.00     0.032 A 
HETATM   14  C   UNL     1      -4.110  -4.566 -33.594  1.00  0.00     0.021 A 
HETATM   15  C   UNL     1      -5.079  -3.805 -34.281  1.00  0.00     0.012 A 
HETATM   16 BR   UNL     1      -6.226  -4.667 -35.515  1.00  0.00    -0.051 Br
HETATM   17  C   UNL     1      -5.209  -2.433 -34.070  1.00  0.00     0.035 A 
ENDBRANCH   2   5
BRANCH   1  18
HETATM   18  C   UNL     1      -5.180   3.645 -31.250  1.00  0.00     0.121 A 
HETATM   19  N   UNL     1      -6.117   4.564 -30.854  1.00  0.00    -0.272 N 
HETATM   20  N   UNL     1      -5.601   5.717 -30.398  1.00  0.00    -0.172 NA
HETATM   21  H   UNL     1      -7.126   4.447 -30.879  1.00  0.00     0.189 HD
HETATM   22  C   UNL     1      -4.279   5.536 -30.502  1.00  0.00     0.113 A 
HETATM   23  C   UNL     1      -3.964   4.261 -31.027  1.00  0.00     0.073 A 
BRANCH  22  24
HETATM   24  C   UNL     1      -3.288   6.575 -30.102  1.00  0.00     0.105 A 
HETATM   25  O   UNL     1      -1.960   6.556 -30.434  1.00  0.00    -0.320 OA
HETATM   26  C   UNL     1      -1.392   7.663 -29.890  1.00  0.00     0.142 A 
HETATM   27  C   UNL     1      -2.331   8.402 -29.210  1.00  0.00     0.027 A 
HETATM   28  C   UNL     1      -3.552   7.702 -29.346  1.00  0.00     0.041 A 
ENDBRANCH  22  24
ENDBRANCH   1  18
TORSDOF 3
ENDMDL
MODEL 7
REMARK VINA RESULT:      -8.0     16.208     17.332
REMARK  3 active torsions:
REMARK  status: ('A' for Active; 'I' for Inactive)
REMARK    1  A    between atoms: C_4  and  C_5 
REMARK    2  A    between atoms: C_9  and  C_10 
REMARK       I    between atoms: C_10  and  N_11 
REMARK    3  A    between atoms: N_11  and  N_12 
ROOT
HETATM    1  C   UNL     1      -6.623 -14.950 -33.286  1.00  0.00     0.289 C 
HETATM    2  N   UNL     1      -6.104 -14.498 -34.488  1.00  0.00    -0.241 N 
HETATM    3  O   UNL     1      -7.821 -15.126 -33.076  1.00  0.00    -0.264 OA
HETATM    4  H   UNL     1      -5.100 -14.369 -34.609  1.00  0.00     0.192 HD
ENDROOT
BRANCH   2   5
HETATM    5  N   UNL     1      -6.942 -14.219 -35.534  1.00  0.00    -0.165 NA
HETATM    6  C   UNL     1      -6.421 -13.628 -36.559  1.00  0.00     0.157 A 
HETATM    7  C   UNL     1      -4.971 -13.185 -36.774  1.00  0.00     0.277 A 
HETATM    8  C   UNL     1      -7.139 -13.246 -37.768  1.00  0.00     0.028 A 
HETATM    9  O   UNL     1      -4.078 -13.341 -35.969  1.00  0.00    -0.266 OA
HETATM   10  N   UNL     1      -4.942 -12.607 -38.024  1.00  0.00    -0.321 N 
HETATM   11  C   UNL     1      -6.206 -12.640 -38.610  1.00  0.00     0.048 A 
HETATM   12  H   UNL     1      -4.106 -12.221 -38.438  1.00  0.00     0.169 HD
HETATM   13  C   UNL     1      -6.569 -12.160 -39.850  1.00  0.00     0.032 A 
HETATM   14  C   UNL     1      -7.911 -12.306 -40.227  1.00  0.00     0.021 A 
HETATM   15  C   UNL     1      -8.843 -12.921 -39.365  1.00  0.00     0.012 A 
HETATM   16 BR   UNL     1     -10.643 -13.094 -39.922  1.00  0.00    -0.051 Br
HETATM   17  C   UNL     1      -8.465 -13.403 -38.112  1.00  0.00     0.035 A 
ENDBRANCH   2   5
BRANCH   1  18
HETATM   18  C   UNL     1      -5.646 -15.211 -32.258  1.00  0.00     0.121 A 
HETATM   19  N   UNL     1      -6.020 -15.290 -30.942  1.00  0.00    -0.272 N 
HETATM   20  N   UNL     1      -5.008 -15.539 -30.095  1.00  0.00    -0.172 NA
HETATM   21  H   UNL     1      -6.960 -15.179 -30.574  1.00  0.00     0.189 HD
HETATM   22  C   UNL     1      -3.939 -15.625 -30.895  1.00  0.00     0.113 A 
HETATM   23  C   UNL     1      -4.282 -15.429 -32.253  1.00  0.00     0.073 A 
BRANCH  22  24
HETATM   24  C   UNL     1      -2.566 -15.896 -30.381  1.00  0.00     0.105 A 
HETATM   25  O   UNL     1      -1.843 -15.038 -29.597  1.00  0.00    -0.320 OA
HETATM   26  C   UNL     1      -0.651 -15.636 -29.337  1.00  0.00     0.142 A 
HETATM   27  C   UNL     1      -0.590 -16.870 -29.939  1.00  0.00     0.027 A 
HETATM   28  C   UNL     1      -1.822 -17.039 -30.613  1.00  0.00     0.041 A 
ENDBRANCH  22  24
ENDBRANCH   1  18
TORSDOF 3
ENDMDL
MODEL 8
REMARK VINA RESULT:      -7.8      5.139      9.166
REMARK  3 active torsions:
REMARK  status: ('A' for Active; 'I' for Inactive)
REMARK    1  A    between atoms: C_4  and  C_5 
REMARK    2  A    between atoms: C_9  and  C_10 
REMARK       I    between atoms: C_10  and  N_11 
REMARK    3  A    between atoms: N_11  and  N_12 
ROOT
HETATM    1  C   UNL     1      -6.521   2.790 -32.183  1.00  0.00     0.289 C 
HETATM    2  N   UNL     1      -5.367   2.949 -32.933  1.00  0.00    -0.241 N 
HETATM    3  O   UNL     1      -6.596   3.020 -30.979  1.00  0.00    -0.264 OA
HETATM    4  H   UNL     1      -5.359   2.744 -33.932  1.00  0.00     0.192 HD
ENDROOT
BRANCH   2   5
HETATM    5  N   UNL     1      -4.216   3.389 -32.335  1.00  0.00    -0.165 NA
HETATM    6  C   UNL     1      -3.623   4.400 -32.881  1.00  0.00     0.157 A 
HETATM    7  C   UNL     1      -4.032   5.192 -34.126  1.00  0.00     0.277 A 
HETATM    8  C   UNL     1      -2.394   5.017 -32.401  1.00  0.00     0.028 A 
HETATM    9  O   UNL     1      -5.017   4.962 -34.795  1.00  0.00    -0.266 OA
HETATM   10  N   UNL     1      -3.067   6.163 -34.280  1.00  0.00    -0.321 N 
HETATM   11  C   UNL     1      -2.106   6.065 -33.275  1.00  0.00     0.048 A 
HETATM   12  H   UNL     1      -3.078   6.842 -35.028  1.00  0.00     0.169 HD
HETATM   13  C   UNL     1      -0.993   6.859 -33.098  1.00  0.00     0.032 A 
HETATM   14  C   UNL     1      -0.165   6.568 -32.006  1.00  0.00     0.021 A 
HETATM   15  C   UNL     1      -0.468   5.503 -31.130  1.00  0.00     0.012 A 
HETATM   16 BR   UNL     1       0.683   5.152 -29.670  1.00  0.00    -0.051 Br
HETATM   17  C   UNL     1      -1.597   4.707 -31.319  1.00  0.00     0.035 A 
ENDBRANCH   2   5
BRANCH   1  18
HETATM   18  C   UNL     1      -7.668   2.323 -32.920  1.00  0.00     0.121 A 
HETATM   19  N   UNL     1      -7.563   1.264 -33.783  1.00  0.00    -0.272 N 
HETATM   20  N   UNL     1      -8.710   0.938 -34.400  1.00  0.00    -0.172 NA
HETATM   21  H   UNL     1      -6.721   0.731 -33.984  1.00  0.00     0.189 HD
HETATM   22  C   UNL     1      -9.592   1.820 -33.916  1.00  0.00     0.113 A 
HETATM   23  C   UNL     1      -8.994   2.706 -32.989  1.00  0.00     0.073 A 
BRANCH  22  24
HETATM   24  C   UNL     1     -11.024   1.838 -34.328  1.00  0.00     0.105 A 
HETATM   25  O   UNL     1     -11.595   2.791 -35.128  1.00  0.00    -0.320 OA
HETATM   26  C   UNL     1     -12.905   2.464 -35.273  1.00  0.00     0.142 A 
HETATM   27  C   UNL     1     -13.195   1.313 -34.580  1.00  0.00     0.027 A 
HETATM   28  C   UNL     1     -11.984   0.909 -33.970  1.00  0.00     0.041 A 
ENDBRANCH  22  24
ENDBRANCH   1  18
TORSDOF 3
ENDMDL
MODEL 9
REMARK VINA RESULT:      -7.7      3.916      9.109
REMARK  3 active torsions:
REMARK  status: ('A' for Active; 'I' for Inactive)
REMARK    1  A    between atoms: C_4  and  C_5 
REMARK    2  A    between atoms: C_9  and  C_10 
REMARK       I    between atoms: C_10  and  N_11 
REMARK    3  A    between atoms: N_11  and  N_12 
ROOT
HETATM    1  C   UNL     1      -6.136   2.684 -33.161  1.00  0.00     0.289 C 
HETATM    2  N   UNL     1      -5.530   3.041 -31.968  1.00  0.00    -0.241 N 
HETATM    3  O   UNL     1      -6.474   3.487 -34.028  1.00  0.00    -0.264 OA
HETATM    4  H   UNL     1      -5.269   2.333 -31.282  1.00  0.00     0.192 HD
ENDROOT
BRANCH   2   5
HETATM    5  N   UNL     1      -5.274   4.357 -31.696  1.00  0.00    -0.165 NA
HETATM    6  C   UNL     1      -4.032   4.705 -31.606  1.00  0.00     0.157 A 
HETATM    7  C   UNL     1      -2.781   3.837 -31.763  1.00  0.00     0.277 A 
HETATM    8  C   UNL     1      -3.551   6.051 -31.325  1.00  0.00     0.028 A 
HETATM    9  O   UNL     1      -2.795   2.649 -32.006  1.00  0.00    -0.266 OA
HETATM   10  N   UNL     1      -1.714   4.687 -31.574  1.00  0.00    -0.321 N 
HETATM   11  C   UNL     1      -2.158   5.983 -31.317  1.00  0.00     0.048 A 
HETATM   12  H   UNL     1      -0.750   4.388 -31.621  1.00  0.00     0.169 HD
HETATM   13  C   UNL     1      -1.389   7.101 -31.077  1.00  0.00     0.032 A 
HETATM   14  C   UNL     1      -2.064   8.307 -30.842  1.00  0.00     0.021 A 
HETATM   15  C   UNL     1      -3.475   8.361 -30.853  1.00  0.00     0.012 A 
HETATM   16 BR   UNL     1      -4.338  10.013 -30.530  1.00  0.00    -0.051 Br
HETATM   17  C   UNL     1      -4.242   7.223 -31.097  1.00  0.00     0.035 A 
ENDBRANCH   2   5
BRANCH   1  18
HETATM   18  C   UNL     1      -6.354   1.270 -33.338  1.00  0.00     0.121 A 
HETATM   19  N   UNL     1      -7.545   0.696 -32.979  1.00  0.00    -0.272 N 
HETATM   20  N   UNL     1      -7.609  -0.627 -33.199  1.00  0.00    -0.172 NA
HETATM   21  H   UNL     1      -8.348   1.172 -32.576  1.00  0.00     0.189 HD
HETATM   22  C   UNL     1      -6.413  -0.920 -33.721  1.00  0.00     0.113 A 
HETATM   23  C   UNL     1      -5.592   0.228 -33.829  1.00  0.00     0.073 A 
BRANCH  22  24
HETATM   24  C   UNL     1      -6.026  -2.300 -34.129  1.00  0.00     0.105 A 
HETATM   25  O   UNL     1      -4.770  -2.830 -33.997  1.00  0.00    -0.320 OA
HETATM   26  C   UNL     1      -4.816  -4.100 -34.476  1.00  0.00     0.142 A 
HETATM   27  C   UNL     1      -6.082  -4.404 -34.917  1.00  0.00     0.027 A 
HETATM   28  C   UNL     1      -6.862  -3.245 -34.694  1.00  0.00     0.041 A 
ENDBRANCH  22  24
ENDBRANCH   1  18
TORSDOF 3
ENDMDL
MODEL 10
REMARK VINA RESULT:      -7.6      6.096      7.811
REMARK  3 active torsions:
REMARK  status: ('A' for Active; 'I' for Inactive)
REMARK    1  A    between atoms: C_4  and  C_5 
REMARK    2  A    between atoms: C_9  and  C_10 
REMARK       I    between atoms: C_10  and  N_11 
REMARK    3  A    between atoms: N_11  and  N_12 
ROOT
HETATM    1  C   UNL     1     -10.759   1.782 -34.107  1.00  0.00     0.289 C 
HETATM    2  N   UNL     1      -9.495   1.744 -34.673  1.00  0.00    -0.241 N 
HETATM    3  O   UNL     1     -11.331   0.802 -33.636  1.00  0.00    -0.264 OA
HETATM    4  H   UNL     1      -9.065   2.589 -35.050  1.00  0.00     0.192 HD
ENDROOT
BRANCH   2   5
HETATM    5  N   UNL     1      -8.805   0.563 -34.731  1.00  0.00    -0.165 NA
HETATM    6  C   UNL     1      -7.593   0.571 -34.281  1.00  0.00     0.157 A 
HETATM    7  C   UNL     1      -6.803   1.736 -33.680  1.00  0.00     0.277 A 
HETATM    8  C   UNL     1      -6.696  -0.577 -34.253  1.00  0.00     0.028 A 
HETATM    9  O   UNL     1      -7.235   2.861 -33.540  1.00  0.00    -0.266 OA
HETATM   10  N   UNL     1      -5.567   1.219 -33.359  1.00  0.00    -0.321 N 
HETATM   11  C   UNL     1      -5.498  -0.132 -33.693  1.00  0.00     0.048 A 
HETATM   12  H   UNL     1      -4.828   1.766 -32.941  1.00  0.00     0.169 HD
HETATM   13  C   UNL     1      -4.429  -0.986 -33.524  1.00  0.00     0.032 A 
HETATM   14  C   UNL     1      -4.596  -2.314 -33.938  1.00  0.00     0.021 A 
HETATM   15  C   UNL     1      -5.814  -2.749 -34.503  1.00  0.00     0.012 A 
HETATM   16 BR   UNL     1      -5.988  -4.553 -35.046  1.00  0.00    -0.051 Br
HETATM   17  C   UNL     1      -6.889  -1.877 -34.669  1.00  0.00     0.035 A 
ENDBRANCH   2   5
BRANCH   1  18
HETATM   18  C   UNL     1     -11.387   3.080 -34.100  1.00  0.00     0.121 A 
HETATM   19  N   UNL     1     -12.262   3.428 -33.105  1.00  0.00    -0.272 N 
HETATM   20  N   UNL     1     -12.771   4.664 -33.225  1.00  0.00    -0.172 NA
HETATM   21  H   UNL     1     -12.544   2.848 -32.319  1.00  0.00     0.189 HD
HETATM   22  C   UNL     1     -12.202   5.135 -34.341  1.00  0.00     0.113 A 
HETATM   23  C   UNL     1     -11.330   4.186 -34.926  1.00  0.00     0.073 A 
BRANCH  22  24
HETATM   24  C   UNL     1     -12.477   6.499 -34.875  1.00  0.00     0.105 A 
HETATM   25  O   UNL     1     -12.816   6.776 -36.172  1.00  0.00    -0.320 OA
HETATM   26  C   UNL     1     -12.984   8.120 -36.267  1.00  0.00     0.142 A 
HETATM   27  C   UNL     1     -12.762   8.721 -35.051  1.00  0.00     0.027 A 
HETATM   28  C   UNL     1     -12.434   7.678 -34.153  1.00  0.00     0.041 A 
ENDBRANCH  22  24
ENDBRANCH   1  18
TORSDOF 3
ENDMDL
