MODEL 1
REMARK VINA RESULT:      -8.3      0.000      0.000
REMARK  7 active torsions:
REMARK  status: ('A' for Active; 'I' for Inactive)
REMARK    1  A    between atoms: C_4  and  C_5 
REMARK    2  A    between atoms: C_5  and  N_6 
REMARK       I    between atoms: N_6  and  C_7 
REMARK    3  A    between atoms: N_6  and  C_22 
REMARK    4  A    between atoms: C_7  and  C_8 
REMARK    5  A    between atoms: C_13  and  C_14 
REMARK    6  A    between atoms: C_15  and  O_16 
REMARK    7  A    between atoms: C_22  and  C_23 
ROOT
HETATM    1  N   UNL     1      -6.024 -13.686 -39.782  1.00  0.00    -0.343 N 
HETATM    2  C   UNL     1      -5.882 -12.972 -38.595  1.00  0.00     0.235 C 
HETATM    3  O   UNL     1      -6.194 -11.779 -38.529  1.00  0.00    -0.272 OA
ENDROOT
BRANCH   2   4
HETATM    4  C   UNL     1      -5.380 -13.675 -37.346  1.00  0.00     0.195 C 
HETATM    5  C   UNL     1      -6.382 -13.574 -36.235  1.00  0.00     0.247 C 
HETATM    6  O   UNL     1      -7.590 -13.712 -36.318  1.00  0.00    -0.271 OA
HETATM    7  N   UNL     1      -5.678 -13.394 -35.061  1.00  0.00    -0.290 N 
HETATM    8  N   UNL     1      -4.305 -13.210 -35.253  1.00  0.00    -0.228 NA
HETATM    9  H   UNL     1      -6.158 -13.206 -34.185  1.00  0.00     0.183 HD
HETATM   10  C   UNL     1      -4.159 -12.962 -36.721  1.00  0.00     0.134 C 
HETATM   11  H   UNL     1      -3.853 -14.110 -35.041  1.00  0.00     0.147 HD
BRANCH  10  12
HETATM   12  C   UNL     1      -2.784 -13.391 -37.222  1.00  0.00    -0.004 A 
HETATM   13  C   UNL     1      -2.059 -12.618 -38.148  1.00  0.00     0.073 A 
HETATM   14  C   UNL     1      -0.806 -13.015 -38.614  1.00  0.00     0.037 A 
HETATM   15  C   UNL     1      -0.247 -14.212 -38.178  1.00  0.00     0.003 A 
HETATM   16  C   UNL     1      -0.952 -15.013 -37.287  1.00  0.00     0.001 A 
HETATM   17  C   UNL     1      -2.208 -14.610 -36.821  1.00  0.00     0.012 A 
BRANCH  13  18
HETATM   18  O   UNL     1      -2.525 -11.431 -38.646  1.00  0.00    -0.360 OA
HETATM   19  H   UNL     1      -2.176 -11.310 -39.551  1.00  0.00     0.217 HD
ENDBRANCH  13  18
ENDBRANCH  10  12
ENDBRANCH   2   4
BRANCH   1  20
HETATM   20  C   UNL     1      -6.835 -13.066 -40.844  1.00  0.00     0.164 C 
BRANCH  20  21
HETATM   21  C   UNL     1      -8.323 -13.227 -40.622  1.00  0.00    -0.040 A 
HETATM   22  C   UNL     1      -8.933 -14.481 -40.757  1.00  0.00     0.009 A 
HETATM   23  C   UNL     1     -10.309 -14.622 -40.571  1.00  0.00     0.001 A 
HETATM   24  C   UNL     1     -11.087 -13.514 -40.243  1.00  0.00     0.000 A 
HETATM   25  C   UNL     1     -10.491 -12.263 -40.096  1.00  0.00     0.001 A 
HETATM   26  C   UNL     1      -9.115 -12.119 -40.281  1.00  0.00     0.009 A 
ENDBRANCH  20  21
ENDBRANCH   1  20
BRANCH   1  27
HETATM   27  C   UNL     1      -5.603 -15.082 -39.989  1.00  0.00     0.164 C 
BRANCH  27  28
HETATM   28  C   UNL     1      -4.161 -15.250 -40.418  1.00  0.00    -0.040 A 
HETATM   29  C   UNL     1      -3.425 -16.394 -40.068  1.00  0.00     0.009 A 
HETATM   30  C   UNL     1      -2.104 -16.545 -40.491  1.00  0.00     0.001 A 
HETATM   31  C   UNL     1      -1.507 -15.563 -41.279  1.00  0.00     0.000 A 
HETATM   32  C   UNL     1      -2.230 -14.431 -41.646  1.00  0.00     0.001 A 
HETATM   33  C   UNL     1      -3.551 -14.276 -41.223  1.00  0.00     0.009 A 
ENDBRANCH  27  28
ENDBRANCH   1  27
TORSDOF 7
ENDMDL
MODEL 2
REMARK VINA RESULT:      -8.3     16.090     17.610
REMARK  7 active torsions:
REMARK  status: ('A' for Active; 'I' for Inactive)
REMARK    1  A    between atoms: C_4  and  C_5 
REMARK    2  A    between atoms: C_5  and  N_6 
REMARK       I    between atoms: N_6  and  C_7 
REMARK    3  A    between atoms: N_6  and  C_22 
REMARK    4  A    between atoms: C_7  and  C_8 
REMARK    5  A    between atoms: C_13  and  C_14 
REMARK    6  A    between atoms: C_15  and  O_16 
REMARK    7  A    between atoms: C_22  and  C_23 
ROOT
HETATM    1  N   UNL     1      -8.965   3.063 -32.708  1.00  0.00    -0.343 N 
HETATM    2  C   UNL     1      -8.233   3.968 -31.942  1.00  0.00     0.235 C 
HETATM    3  O   UNL     1      -8.119   5.147 -32.289  1.00  0.00    -0.272 OA
ENDROOT
BRANCH   2   4
HETATM    4  C   UNL     1      -7.603   3.517 -30.637  1.00  0.00     0.195 C 
HETATM    5  C   UNL     1      -7.762   4.563 -29.575  1.00  0.00     0.247 C 
HETATM    6  O   UNL     1      -8.758   5.224 -29.335  1.00  0.00    -0.271 OA
HETATM    7  N   UNL     1      -6.596   4.580 -28.836  1.00  0.00    -0.290 N 
HETATM    8  N   UNL     1      -5.589   3.764 -29.359  1.00  0.00    -0.228 NA
HETATM    9  H   UNL     1      -6.441   5.281 -28.115  1.00  0.00     0.183 HD
HETATM   10  C   UNL     1      -6.064   3.412 -30.733  1.00  0.00     0.134 C 
HETATM   11  H   UNL     1      -5.585   2.901 -28.798  1.00  0.00     0.147 HD
BRANCH  10  12
HETATM   12  C   UNL     1      -5.495   2.073 -31.190  1.00  0.00    -0.004 A 
HETATM   13  C   UNL     1      -5.588   0.918 -30.390  1.00  0.00     0.073 A 
HETATM   14  C   UNL     1      -5.059  -0.305 -30.803  1.00  0.00     0.037 A 
HETATM   15  C   UNL     1      -4.405  -0.404 -32.026  1.00  0.00     0.003 A 
HETATM   16  C   UNL     1      -4.271   0.725 -32.826  1.00  0.00     0.001 A 
HETATM   17  C   UNL     1      -4.804   1.949 -32.409  1.00  0.00     0.012 A 
BRANCH  13  18
HETATM   18  O   UNL     1      -6.201   0.913 -29.167  1.00  0.00    -0.360 OA
HETATM   19  H   UNL     1      -6.606   0.036 -29.020  1.00  0.00     0.217 HD
ENDBRANCH  13  18
ENDBRANCH  10  12
ENDBRANCH   2   4
BRANCH   1  20
HETATM   20  C   UNL     1      -9.838   3.623 -33.755  1.00  0.00     0.164 C 
BRANCH  20  21
HETATM   21  C   UNL     1     -11.203   2.972 -33.798  1.00  0.00    -0.040 A 
HETATM   22  C   UNL     1     -11.515   2.035 -34.793  1.00  0.00     0.009 A 
HETATM   23  C   UNL     1     -12.782   1.451 -34.841  1.00  0.00     0.001 A 
HETATM   24  C   UNL     1     -13.746   1.793 -33.895  1.00  0.00     0.000 A 
HETATM   25  C   UNL     1     -13.444   2.716 -32.895  1.00  0.00     0.001 A 
HETATM   26  C   UNL     1     -12.178   3.301 -32.844  1.00  0.00     0.009 A 
ENDBRANCH  20  21
ENDBRANCH   1  20
BRANCH   1  27
HETATM   27  C   UNL     1      -9.091   1.623 -32.430  1.00  0.00     0.164 C 
BRANCH  27  28
HETATM   28  C   UNL     1      -8.295   0.729 -33.356  1.00  0.00    -0.040 A 
HETATM   29  C   UNL     1      -7.738   1.224 -34.546  1.00  0.00     0.009 A 
HETATM   30  C   UNL     1      -6.987   0.394 -35.379  1.00  0.00     0.001 A 
HETATM   31  C   UNL     1      -6.772  -0.937 -35.026  1.00  0.00     0.000 A 
HETATM   32  C   UNL     1      -7.306  -1.438 -33.840  1.00  0.00     0.001 A 
HETATM   33  C   UNL     1      -8.059  -0.609 -33.007  1.00  0.00     0.009 A 
ENDBRANCH  27  28
ENDBRANCH   1  27
TORSDOF 7
ENDMDL
MODEL 3
REMARK VINA RESULT:      -8.1     16.743     18.895
REMARK  7 active torsions:
REMARK  status: ('A' for Active; 'I' for Inactive)
REMARK    1  A    between atoms: C_4  and  C_5 
REMARK    2  A    between atoms: C_5  and  N_6 
REMARK       I    between atoms: N_6  and  C_7 
REMARK    3  A    between atoms: N_6  and  C_22 
REMARK    4  A    between atoms: C_7  and  C_8 
REMARK    5  A    between atoms: C_13  and  C_14 
REMARK    6  A    between atoms: C_15  and  O_16 
REMARK    7  A    between atoms: C_22  and  C_23 
ROOT
HETATM    1  N   UNL     1      -5.198   2.856 -32.195  1.00  0.00    -0.343 N 
HETATM    2  C   UNL     1      -5.826   3.446 -31.101  1.00  0.00     0.235 C 
HETATM    3  O   UNL     1      -5.295   3.444 -29.986  1.00  0.00    -0.272 OA
ENDROOT
BRANCH   2   4
HETATM    4  C   UNL     1      -7.162   4.144 -31.282  1.00  0.00     0.195 C 
HETATM    5  C   UNL     1      -7.219   5.410 -30.480  1.00  0.00     0.247 C 
HETATM    6  O   UNL     1      -6.340   6.245 -30.358  1.00  0.00    -0.271 OA
HETATM    7  N   UNL     1      -8.498   5.517 -29.972  1.00  0.00    -0.290 N 
HETATM    8  N   UNL     1      -9.293   4.392 -30.212  1.00  0.00    -0.228 NA
HETATM    9  H   UNL     1      -8.743   6.255 -29.316  1.00  0.00     0.183 HD
HETATM   10  C   UNL     1      -8.332   3.342 -30.669  1.00  0.00     0.134 C 
HETATM   11  H   UNL     1      -9.905   4.625 -31.006  1.00  0.00     0.147 HD
BRANCH  10  12
HETATM   12  C   UNL     1      -9.014   2.324 -31.577  1.00  0.00    -0.004 A 
HETATM   13  C   UNL     1      -9.864   2.721 -32.627  1.00  0.00     0.073 A 
HETATM   14  C   UNL     1     -10.497   1.791 -33.451  1.00  0.00     0.037 A 
HETATM   15  C   UNL     1     -10.309   0.430 -33.238  1.00  0.00     0.003 A 
HETATM   16  C   UNL     1      -9.500   0.004 -32.191  1.00  0.00     0.001 A 
HETATM   17  C   UNL     1      -8.867   0.941 -31.367  1.00  0.00     0.012 A 
BRANCH  13  18
HETATM   18  O   UNL     1     -10.122   4.034 -32.913  1.00  0.00    -0.360 OA
HETATM   19  H   UNL     1     -10.000   4.565 -32.101  1.00  0.00     0.217 HD
ENDBRANCH  13  18
ENDBRANCH  10  12
ENDBRANCH   2   4
BRANCH   1  20
HETATM   20  C   UNL     1      -3.771   2.517 -32.046  1.00  0.00     0.164 C 
BRANCH  20  21
HETATM   21  C   UNL     1      -2.851   3.672 -32.374  1.00  0.00    -0.040 A 
HETATM   22  C   UNL     1      -2.650   4.070 -33.703  1.00  0.00     0.009 A 
HETATM   23  C   UNL     1      -1.785   5.123 -34.003  1.00  0.00     0.001 A 
HETATM   24  C   UNL     1      -1.117   5.792 -32.980  1.00  0.00     0.000 A 
HETATM   25  C   UNL     1      -1.315   5.412 -31.654  1.00  0.00     0.001 A 
HETATM   26  C   UNL     1      -2.180   4.359 -31.351  1.00  0.00     0.009 A 
ENDBRANCH  20  21
ENDBRANCH   1  20
BRANCH   1  27
HETATM   27  C   UNL     1      -5.780   2.729 -33.541  1.00  0.00     0.164 C 
BRANCH  27  28
HETATM   28  C   UNL     1      -6.194   1.323 -33.920  1.00  0.00    -0.040 A 
HETATM   29  C   UNL     1      -5.748   0.211 -33.188  1.00  0.00     0.009 A 
HETATM   30  C   UNL     1      -6.157  -1.078 -33.535  1.00  0.00     0.001 A 
HETATM   31  C   UNL     1      -7.027  -1.269 -34.607  1.00  0.00     0.000 A 
HETATM   32  C   UNL     1      -7.490  -0.172 -35.331  1.00  0.00     0.001 A 
HETATM   33  C   UNL     1      -7.080   1.117 -34.987  1.00  0.00     0.009 A 
ENDBRANCH  27  28
ENDBRANCH   1  27
TORSDOF 7
ENDMDL
MODEL 4
REMARK VINA RESULT:      -8.0     14.577     16.050
REMARK  7 active torsions:
REMARK  status: ('A' for Active; 'I' for Inactive)
REMARK    1  A    between atoms: C_4  and  C_5 
REMARK    2  A    between atoms: C_5  and  N_6 
REMARK       I    between atoms: N_6  and  C_7 
REMARK    3  A    between atoms: N_6  and  C_22 
REMARK    4  A    between atoms: C_7  and  C_8 
REMARK    5  A    between atoms: C_13  and  C_14 
REMARK    6  A    between atoms: C_15  and  O_16 
REMARK    7  A    between atoms: C_22  and  C_23 
ROOT
HETATM    1  N   UNL     1      -6.779  -0.014 -33.186  1.00  0.00    -0.343 N 
HETATM    2  C   UNL     1      -6.067   0.620 -32.170  1.00  0.00     0.235 C 
HETATM    3  O   UNL     1      -6.640   1.052 -31.166  1.00  0.00    -0.272 OA
ENDROOT
BRANCH   2   4
HETATM    4  C   UNL     1      -4.557   0.744 -32.271  1.00  0.00     0.195 C 
HETATM    5  C   UNL     1      -3.877  -0.339 -31.486  1.00  0.00     0.247 C 
HETATM    6  O   UNL     1      -4.184  -1.518 -31.438  1.00  0.00    -0.271 OA
HETATM    7  N   UNL     1      -2.763   0.221 -30.894  1.00  0.00    -0.290 N 
HETATM    8  N   UNL     1      -2.675   1.606 -31.060  1.00  0.00    -0.228 NA
HETATM    9  H   UNL     1      -2.198  -0.308 -30.234  1.00  0.00     0.183 HD
HETATM   10  C   UNL     1      -4.023   2.011 -31.566  1.00  0.00     0.134 C 
HETATM   11  H   UNL     1      -1.994   1.772 -31.814  1.00  0.00     0.147 HD
BRANCH  10  12
HETATM   12  C   UNL     1      -3.941   3.280 -32.409  1.00  0.00    -0.004 A 
HETATM   13  C   UNL     1      -5.059   4.112 -32.604  1.00  0.00     0.073 A 
HETATM   14  C   UNL     1      -4.987   5.267 -33.384  1.00  0.00     0.037 A 
HETATM   15  C   UNL     1      -3.792   5.614 -34.006  1.00  0.00     0.003 A 
HETATM   16  C   UNL     1      -2.678   4.797 -33.857  1.00  0.00     0.001 A 
HETATM   17  C   UNL     1      -2.755   3.640 -33.075  1.00  0.00     0.012 A 
BRANCH  13  18
HETATM   18  O   UNL     1      -6.281   3.854 -32.045  1.00  0.00    -0.360 OA
HETATM   19  H   UNL     1      -6.760   4.698 -31.929  1.00  0.00     0.217 HD
ENDBRANCH  13  18
ENDBRANCH  10  12
ENDBRANCH   2   4
BRANCH   1  20
HETATM   20  C   UNL     1      -8.162  -0.420 -32.880  1.00  0.00     0.164 C 
BRANCH  20  21
HETATM   21  C   UNL     1      -9.193   0.575 -33.368  1.00  0.00    -0.040 A 
HETATM   22  C   UNL     1      -8.795   1.786 -33.951  1.00  0.00     0.009 A 
HETATM   23  C   UNL     1      -9.748   2.710 -34.382  1.00  0.00     0.001 A 
HETATM   24  C   UNL     1     -11.106   2.431 -34.239  1.00  0.00     0.000 A 
HETATM   25  C   UNL     1     -11.513   1.227 -33.670  1.00  0.00     0.001 A 
HETATM   26  C   UNL     1     -10.562   0.301 -33.238  1.00  0.00     0.009 A 
ENDBRANCH  20  21
ENDBRANCH   1  20
BRANCH   1  27
HETATM   27  C   UNL     1      -6.206  -0.487 -34.457  1.00  0.00     0.164 C 
BRANCH  27  28
HETATM   28  C   UNL     1      -5.931  -1.974 -34.511  1.00  0.00    -0.040 A 
HETATM   29  C   UNL     1      -6.962  -2.898 -34.747  1.00  0.00     0.009 A 
HETATM   30  C   UNL     1      -6.688  -4.264 -34.817  1.00  0.00     0.001 A 
HETATM   31  C   UNL     1      -5.381  -4.723 -34.667  1.00  0.00     0.000 A 
HETATM   32  C   UNL     1      -4.346  -3.816 -34.449  1.00  0.00     0.001 A 
HETATM   33  C   UNL     1      -4.618  -2.449 -34.376  1.00  0.00     0.009 A 
ENDBRANCH  27  28
ENDBRANCH   1  27
TORSDOF 7
ENDMDL
MODEL 5
REMARK VINA RESULT:      -8.0     16.276     17.836
REMARK  7 active torsions:
REMARK  status: ('A' for Active; 'I' for Inactive)
REMARK    1  A    between atoms: C_4  and  C_5 
REMARK    2  A    between atoms: C_5  and  N_6 
REMARK       I    between atoms: N_6  and  C_7 
REMARK    3  A    between atoms: N_6  and  C_22 
REMARK    4  A    between atoms: C_7  and  C_8 
REMARK    5  A    between atoms: C_13  and  C_14 
REMARK    6  A    between atoms: C_15  and  O_16 
REMARK    7  A    between atoms: C_22  and  C_23 
ROOT
HETATM    1  N   UNL     1     -10.350   2.236 -33.332  1.00  0.00    -0.343 N 
HETATM    2  C   UNL     1     -10.096   3.464 -32.726  1.00  0.00     0.235 C 
HETATM    3  O   UNL     1     -10.423   4.522 -33.272  1.00  0.00    -0.272 OA
ENDROOT
BRANCH   2   4
HETATM    4  C   UNL     1      -9.450   3.509 -31.353  1.00  0.00     0.195 C 
HETATM    5  C   UNL     1     -10.205   4.424 -30.435  1.00  0.00     0.247 C 
HETATM    6  O   UNL     1     -11.415   4.515 -30.316  1.00  0.00    -0.271 OA
HETATM    7  N   UNL     1      -9.274   5.090 -29.663  1.00  0.00    -0.290 N 
HETATM    8  N   UNL     1      -7.952   4.846 -30.044  1.00  0.00    -0.228 NA
HETATM    9  H   UNL     1      -9.554   5.835 -29.030  1.00  0.00     0.183 HD
HETATM   10  C   UNL     1      -8.060   4.182 -31.380  1.00  0.00     0.134 C 
HETATM   11  H   UNL     1      -7.574   4.156 -29.380  1.00  0.00     0.147 HD
BRANCH  10  12
HETATM   12  C   UNL     1      -6.864   3.274 -31.646  1.00  0.00    -0.004 A 
HETATM   13  C   UNL     1      -6.372   2.392 -30.664  1.00  0.00     0.073 A 
HETATM   14  C   UNL     1      -5.271   1.569 -30.903  1.00  0.00     0.037 A 
HETATM   15  C   UNL     1      -4.619   1.615 -32.130  1.00  0.00     0.003 A 
HETATM   16  C   UNL     1      -5.063   2.497 -33.110  1.00  0.00     0.001 A 
HETATM   17  C   UNL     1      -6.167   3.321 -32.866  1.00  0.00     0.012 A 
BRANCH  13  18
HETATM   18  O   UNL     1      -6.935   2.279 -29.422  1.00  0.00    -0.360 OA
HETATM   19  H   UNL     1      -7.454   3.086 -29.236  1.00  0.00     0.217 HD
ENDBRANCH  13  18
ENDBRANCH  10  12
ENDBRANCH   2   4
BRANCH   1  20
HETATM   20  C   UNL     1     -11.283   2.233 -34.474  1.00  0.00     0.164 C 
BRANCH  20  21
HETATM   21  C   UNL     1     -12.712   1.942 -34.070  1.00  0.00    -0.040 A 
HETATM   22  C   UNL     1     -13.353   2.726 -33.100  1.00  0.00     0.009 A 
HETATM   23  C   UNL     1     -14.664   2.443 -32.716  1.00  0.00     0.001 A 
HETATM   24  C   UNL     1     -15.349   1.379 -33.300  1.00  0.00     0.000 A 
HETATM   25  C   UNL     1     -14.726   0.599 -34.271  1.00  0.00     0.001 A 
HETATM   26  C   UNL     1     -13.414   0.880 -34.658  1.00  0.00     0.009 A 
ENDBRANCH  20  21
ENDBRANCH   1  20
BRANCH   1  27
HETATM   27  C   UNL     1      -9.927   0.927 -32.809  1.00  0.00     0.164 C 
BRANCH  27  28
HETATM   28  C   UNL     1      -8.652   0.385 -33.419  1.00  0.00    -0.040 A 
HETATM   29  C   UNL     1      -7.835  -0.517 -32.718  1.00  0.00     0.009 A 
HETATM   30  C   UNL     1      -6.675  -1.026 -33.302  1.00  0.00     0.001 A 
HETATM   31  C   UNL     1      -6.325  -0.653 -34.599  1.00  0.00     0.000 A 
HETATM   32  C   UNL     1      -7.136   0.228 -35.312  1.00  0.00     0.001 A 
HETATM   33  C   UNL     1      -8.295   0.741 -34.728  1.00  0.00     0.009 A 
ENDBRANCH  27  28
ENDBRANCH   1  27
TORSDOF 7
ENDMDL
MODEL 6
REMARK VINA RESULT:      -7.8     16.017     18.608
REMARK  7 active torsions:
REMARK  status: ('A' for Active; 'I' for Inactive)
REMARK    1  A    between atoms: C_4  and  C_5 
REMARK    2  A    between atoms: C_5  and  N_6 
REMARK       I    between atoms: N_6  and  C_7 
REMARK    3  A    between atoms: N_6  and  C_22 
REMARK    4  A    between atoms: C_7  and  C_8 
REMARK    5  A    between atoms: C_13  and  C_14 
REMARK    6  A    between atoms: C_15  and  O_16 
REMARK    7  A    between atoms: C_22  and  C_23 
ROOT
HETATM    1  N   UNL     1      -9.460   2.200 -32.033  1.00  0.00    -0.343 N 
HETATM    2  C   UNL     1      -9.747   3.483 -32.493  1.00  0.00     0.235 C 
HETATM    3  O   UNL     1      -9.470   4.477 -31.816  1.00  0.00    -0.272 OA
ENDROOT
BRANCH   2   4
HETATM    4  C   UNL     1     -10.367   3.671 -33.866  1.00  0.00     0.195 C 
HETATM    5  C   UNL     1      -9.728   4.818 -34.590  1.00  0.00     0.247 C 
HETATM    6  O   UNL     1      -8.540   5.085 -34.643  1.00  0.00    -0.271 OA
HETATM    7  N   UNL     1     -10.726   5.475 -35.281  1.00  0.00    -0.290 N 
HETATM    8  N   UNL     1     -12.010   5.000 -35.000  1.00  0.00    -0.228 NA
HETATM    9  H   UNL     1     -10.538   6.346 -35.772  1.00  0.00     0.183 HD
HETATM   10  C   UNL     1     -11.837   4.142 -33.786  1.00  0.00     0.134 C 
HETATM   11  H   UNL     1     -12.278   4.387 -35.782  1.00  0.00     0.147 HD
BRANCH  10  12
HETATM   12  C   UNL     1     -12.903   3.053 -33.721  1.00  0.00    -0.004 A 
HETATM   13  C   UNL     1     -13.099   2.146 -34.779  1.00  0.00     0.073 A 
HETATM   14  C   UNL     1     -14.080   1.156 -34.725  1.00  0.00     0.037 A 
HETATM   15  C   UNL     1     -14.909   1.056 -33.612  1.00  0.00     0.003 A 
HETATM   16  C   UNL     1     -14.760   1.957 -32.564  1.00  0.00     0.001 A 
HETATM   17  C   UNL     1     -13.774   2.947 -32.622  1.00  0.00     0.012 A 
BRANCH  13  18
HETATM   18  O   UNL     1     -12.345   2.166 -35.921  1.00  0.00    -0.360 OA
HETATM   19  H   UNL     1     -11.463   2.531 -35.711  1.00  0.00     0.217 HD
ENDBRANCH  13  18
ENDBRANCH  10  12
ENDBRANCH   2   4
BRANCH   1  20
HETATM   20  C   UNL     1      -8.550   2.090 -30.878  1.00  0.00     0.164 C 
BRANCH  20  21
HETATM   21  C   UNL     1      -7.119   1.804 -31.277  1.00  0.00    -0.040 A 
HETATM   22  C   UNL     1      -6.442   2.654 -32.163  1.00  0.00     0.009 A 
HETATM   23  C   UNL     1      -5.128   2.376 -32.544  1.00  0.00     0.001 A 
HETATM   24  C   UNL     1      -4.478   1.251 -32.041  1.00  0.00     0.000 A 
HETATM   25  C   UNL     1      -5.138   0.404 -31.153  1.00  0.00     0.001 A 
HETATM   26  C   UNL     1      -6.451   0.680 -30.769  1.00  0.00     0.009 A 
ENDBRANCH  20  21
ENDBRANCH   1  20
BRANCH   1  27
HETATM   27  C   UNL     1      -9.825   0.950 -32.719  1.00  0.00     0.164 C 
BRANCH  27  28
HETATM   28  C   UNL     1      -8.718   0.340 -33.553  1.00  0.00    -0.040 A 
HETATM   29  C   UNL     1      -8.180   1.019 -34.658  1.00  0.00     0.009 A 
HETATM   30  C   UNL     1      -7.144   0.455 -35.402  1.00  0.00     0.001 A 
HETATM   31  C   UNL     1      -6.623  -0.787 -35.044  1.00  0.00     0.000 A 
HETATM   32  C   UNL     1      -7.137  -1.465 -33.940  1.00  0.00     0.001 A 
HETATM   33  C   UNL     1      -8.175  -0.903 -33.195  1.00  0.00     0.009 A 
ENDBRANCH  27  28
ENDBRANCH   1  27
TORSDOF 7
ENDMDL
MODEL 7
REMARK VINA RESULT:      -7.7     17.268     18.758
REMARK  7 active torsions:
REMARK  status: ('A' for Active; 'I' for Inactive)
REMARK    1  A    between atoms: C_4  and  C_5 
REMARK    2  A    between atoms: C_5  and  N_6 
REMARK       I    between atoms: N_6  and  C_7 
REMARK    3  A    between atoms: N_6  and  C_22 
REMARK    4  A    between atoms: C_7  and  C_8 
REMARK    5  A    between atoms: C_13  and  C_14 
REMARK    6  A    between atoms: C_15  and  O_16 
REMARK    7  A    between atoms: C_22  and  C_23 
ROOT
HETATM    1  N   UNL     1      -7.377   3.112 -31.679  1.00  0.00    -0.343 N 
HETATM    2  C   UNL     1      -7.298   4.460 -32.018  1.00  0.00     0.235 C 
HETATM    3  O   UNL     1      -7.943   4.916 -32.967  1.00  0.00    -0.272 OA
ENDROOT
BRANCH   2   4
HETATM    4  C   UNL     1      -6.442   5.399 -31.186  1.00  0.00     0.195 C 
HETATM    5  C   UNL     1      -7.292   6.407 -30.471  1.00  0.00     0.247 C 
HETATM    6  O   UNL     1      -8.348   6.205 -29.897  1.00  0.00    -0.271 OA
HETATM    7  N   UNL     1      -6.611   7.607 -30.492  1.00  0.00    -0.290 N 
HETATM    8  N   UNL     1      -5.450   7.580 -31.270  1.00  0.00    -0.228 NA
HETATM    9  H   UNL     1      -7.041   8.461 -30.146  1.00  0.00     0.183 HD
HETATM   10  C   UNL     1      -5.554   6.313 -32.059  1.00  0.00     0.134 C 
HETATM   11  H   UNL     1      -4.659   7.480 -30.619  1.00  0.00     0.147 HD
BRANCH  10  12
HETATM   12  C   UNL     1      -4.175   5.777 -32.430  1.00  0.00    -0.004 A 
HETATM   13  C   UNL     1      -3.160   5.616 -31.468  1.00  0.00     0.073 A 
HETATM   14  C   UNL     1      -1.896   5.135 -31.809  1.00  0.00     0.037 A 
HETATM   15  C   UNL     1      -1.605   4.816 -33.130  1.00  0.00     0.003 A 
HETATM   16  C   UNL     1      -2.576   4.992 -34.109  1.00  0.00     0.001 A 
HETATM   17  C   UNL     1      -3.843   5.474 -33.763  1.00  0.00     0.012 A 
BRANCH  13  18
HETATM   18  O   UNL     1      -3.342   5.911 -30.144  1.00  0.00    -0.360 OA
HETATM   19  H   UNL     1      -2.582   6.441 -29.831  1.00  0.00     0.217 HD
ENDBRANCH  13  18
ENDBRANCH  10  12
ENDBRANCH   2   4
BRANCH   1  20
HETATM   20  C   UNL     1      -8.475   2.334 -32.281  1.00  0.00     0.164 C 
BRANCH  20  21
HETATM   21  C   UNL     1      -7.988   1.248 -33.215  1.00  0.00    -0.040 A 
HETATM   22  C   UNL     1      -8.196  -0.104 -32.908  1.00  0.00     0.009 A 
HETATM   23  C   UNL     1      -7.727  -1.103 -33.763  1.00  0.00     0.001 A 
HETATM   24  C   UNL     1      -7.053  -0.762 -34.934  1.00  0.00     0.000 A 
HETATM   25  C   UNL     1      -6.849   0.579 -35.254  1.00  0.00     0.001 A 
HETATM   26  C   UNL     1      -7.316   1.580 -34.402  1.00  0.00     0.009 A 
ENDBRANCH  20  21
ENDBRANCH   1  20
BRANCH   1  27
HETATM   27  C   UNL     1      -6.587   2.453 -30.626  1.00  0.00     0.164 C 
BRANCH  27  28
HETATM   28  C   UNL     1      -5.431   1.619 -31.133  1.00  0.00    -0.040 A 
HETATM   29  C   UNL     1      -5.312   0.260 -30.801  1.00  0.00     0.009 A 
HETATM   30  C   UNL     1      -4.253  -0.503 -31.295  1.00  0.00     0.001 A 
HETATM   31  C   UNL     1      -3.307   0.080 -32.137  1.00  0.00     0.000 A 
HETATM   32  C   UNL     1      -3.422   1.423 -32.488  1.00  0.00     0.001 A 
HETATM   33  C   UNL     1      -4.480   2.188 -31.993  1.00  0.00     0.009 A 
ENDBRANCH  27  28
ENDBRANCH   1  27
TORSDOF 7
ENDMDL
MODEL 8
REMARK VINA RESULT:      -7.7     16.936     18.826
REMARK  7 active torsions:
REMARK  status: ('A' for Active; 'I' for Inactive)
REMARK    1  A    between atoms: C_4  and  C_5 
REMARK    2  A    between atoms: C_5  and  N_6 
REMARK       I    between atoms: N_6  and  C_7 
REMARK    3  A    between atoms: N_6  and  C_22 
REMARK    4  A    between atoms: C_7  and  C_8 
REMARK    5  A    between atoms: C_13  and  C_14 
REMARK    6  A    between atoms: C_15  and  O_16 
REMARK    7  A    between atoms: C_22  and  C_23 
ROOT
HETATM    1  N   UNL     1      -8.119   4.348 -32.632  1.00  0.00    -0.343 N 
HETATM    2  C   UNL     1      -9.058   3.438 -32.152  1.00  0.00     0.235 C 
HETATM    3  O   UNL     1      -9.643   3.633 -31.082  1.00  0.00    -0.272 OA
ENDROOT
BRANCH   2   4
HETATM    4  C   UNL     1      -9.406   2.208 -32.971  1.00  0.00     0.195 C 
HETATM    5  C   UNL     1     -10.887   2.104 -33.180  1.00  0.00     0.247 C 
HETATM    6  O   UNL     1     -11.657   3.007 -33.459  1.00  0.00    -0.271 OA
HETATM    7  N   UNL     1     -11.221   0.767 -33.096  1.00  0.00    -0.290 N 
HETATM    8  N   UNL     1     -10.159  -0.053 -32.707  1.00  0.00    -0.228 NA
HETATM    9  H   UNL     1     -12.193   0.466 -33.113  1.00  0.00     0.183 HD
HETATM   10  C   UNL     1      -9.112   0.894 -32.212  1.00  0.00     0.134 C 
HETATM   11  H   UNL     1      -9.799  -0.499 -33.562  1.00  0.00     0.147 HD
BRANCH  10  12
HETATM   12  C   UNL     1      -7.713   0.308 -32.374  1.00  0.00    -0.004 A 
HETATM   13  C   UNL     1      -7.234  -0.129 -33.624  1.00  0.00     0.073 A 
HETATM   14  C   UNL     1      -5.958  -0.675 -33.771  1.00  0.00     0.037 A 
HETATM   15  C   UNL     1      -5.128  -0.814 -32.663  1.00  0.00     0.003 A 
HETATM   16  C   UNL     1      -5.584  -0.420 -31.411  1.00  0.00     0.001 A 
HETATM   17  C   UNL     1      -6.863   0.127 -31.268  1.00  0.00     0.012 A 
BRANCH  13  18
HETATM   18  O   UNL     1      -7.975  -0.045 -34.771  1.00  0.00    -0.360 OA
HETATM   19  H   UNL     1      -7.918   0.867 -35.118  1.00  0.00     0.217 HD
ENDBRANCH  13  18
ENDBRANCH  10  12
ENDBRANCH   2   4
BRANCH   1  20
HETATM   20  C   UNL     1      -8.082   5.674 -31.990  1.00  0.00     0.164 C 
BRANCH  20  21
HETATM   21  C   UNL     1      -6.827   5.903 -31.177  1.00  0.00    -0.040 A 
HETATM   22  C   UNL     1      -5.945   6.942 -31.504  1.00  0.00     0.009 A 
HETATM   23  C   UNL     1      -4.778   7.138 -30.763  1.00  0.00     0.001 A 
HETATM   24  C   UNL     1      -4.485   6.303 -29.687  1.00  0.00     0.000 A 
HETATM   25  C   UNL     1      -5.360   5.273 -29.346  1.00  0.00     0.001 A 
HETATM   26  C   UNL     1      -6.527   5.075 -30.085  1.00  0.00     0.009 A 
ENDBRANCH  20  21
ENDBRANCH   1  20
BRANCH   1  27
HETATM   27  C   UNL     1      -7.306   4.168 -33.846  1.00  0.00     0.164 C 
BRANCH  27  28
HETATM   28  C   UNL     1      -5.818   4.048 -33.598  1.00  0.00    -0.040 A 
HETATM   29  C   UNL     1      -4.907   4.938 -34.190  1.00  0.00     0.009 A 
HETATM   30  C   UNL     1      -3.540   4.830 -33.934  1.00  0.00     0.001 A 
HETATM   31  C   UNL     1      -3.068   3.842 -33.072  1.00  0.00     0.000 A 
HETATM   32  C   UNL     1      -3.962   2.963 -32.465  1.00  0.00     0.001 A 
HETATM   33  C   UNL     1      -5.330   3.067 -32.722  1.00  0.00     0.009 A 
ENDBRANCH  27  28
ENDBRANCH   1  27
TORSDOF 7
ENDMDL
MODEL 9
REMARK VINA RESULT:      -7.6     16.314     17.821
REMARK  7 active torsions:
REMARK  status: ('A' for Active; 'I' for Inactive)
REMARK    1  A    between atoms: C_4  and  C_5 
REMARK    2  A    between atoms: C_5  and  N_6 
REMARK       I    between atoms: N_6  and  C_7 
REMARK    3  A    between atoms: N_6  and  C_22 
REMARK    4  A    between atoms: C_7  and  C_8 
REMARK    5  A    between atoms: C_13  and  C_14 
REMARK    6  A    between atoms: C_15  and  O_16 
REMARK    7  A    between atoms: C_22  and  C_23 
ROOT
HETATM    1  N   UNL     1      -9.446   1.949 -33.074  1.00  0.00    -0.343 N 
HETATM    2  C   UNL     1      -9.039   3.223 -32.687  1.00  0.00     0.235 C 
HETATM    3  O   UNL     1      -9.237   4.202 -33.414  1.00  0.00    -0.272 OA
ENDROOT
BRANCH   2   4
HETATM    4  C   UNL     1      -8.384   3.428 -31.332  1.00  0.00     0.195 C 
HETATM    5  C   UNL     1      -9.331   4.086 -30.373  1.00  0.00     0.247 C 
HETATM    6  O   UNL     1     -10.513   3.836 -30.217  1.00  0.00    -0.271 OA
HETATM    7  N   UNL     1      -8.595   4.974 -29.614  1.00  0.00    -0.290 N 
HETATM    8  N   UNL     1      -7.270   5.112 -30.039  1.00  0.00    -0.228 NA
HETATM    9  H   UNL     1      -9.048   5.604 -28.957  1.00  0.00     0.183 HD
HETATM   10  C   UNL     1      -7.236   4.461 -31.386  1.00  0.00     0.134 C 
HETATM   11  H   UNL     1      -6.694   4.545 -29.402  1.00  0.00     0.147 HD
BRANCH  10  12
HETATM   12  C   UNL     1      -5.845   3.924 -31.706  1.00  0.00    -0.004 A 
HETATM   13  C   UNL     1      -5.076   3.243 -30.745  1.00  0.00     0.073 A 
HETATM   14  C   UNL     1      -3.799   2.760 -31.034  1.00  0.00     0.037 A 
HETATM   15  C   UNL     1      -3.248   2.961 -32.295  1.00  0.00     0.003 A 
HETATM   16  C   UNL     1      -3.971   3.657 -33.257  1.00  0.00     0.001 A 
HETATM   17  C   UNL     1      -5.250   4.138 -32.963  1.00  0.00     0.012 A 
BRANCH  13  18
HETATM   18  O   UNL     1      -5.522   3.003 -29.474  1.00  0.00    -0.360 OA
HETATM   19  H   UNL     1      -5.222   2.116 -29.195  1.00  0.00     0.217 HD
ENDBRANCH  13  18
ENDBRANCH  10  12
ENDBRANCH   2   4
BRANCH   1  20
HETATM   20  C   UNL     1     -10.379   1.860 -34.212  1.00  0.00     0.164 C 
BRANCH  20  21
HETATM   21  C   UNL     1     -11.825   1.736 -33.783  1.00  0.00    -0.040 A 
HETATM   22  C   UNL     1     -12.484   2.813 -33.174  1.00  0.00     0.009 A 
HETATM   23  C   UNL     1     -13.811   2.688 -32.762  1.00  0.00     0.001 A 
HETATM   24  C   UNL     1     -14.495   1.490 -32.960  1.00  0.00     0.000 A 
HETATM   25  C   UNL     1     -13.853   0.416 -33.573  1.00  0.00     0.001 A 
HETATM   26  C   UNL     1     -12.526   0.538 -33.986  1.00  0.00     0.009 A 
ENDBRANCH  20  21
ENDBRANCH   1  20
BRANCH   1  27
HETATM   27  C   UNL     1      -9.184   0.710 -32.324  1.00  0.00     0.164 C 
BRANCH  27  28
HETATM   28  C   UNL     1      -7.877   0.028 -32.668  1.00  0.00    -0.040 A 
HETATM   29  C   UNL     1      -7.734  -0.720 -33.848  1.00  0.00     0.009 A 
HETATM   30  C   UNL     1      -6.517  -1.324 -34.163  1.00  0.00     0.001 A 
HETATM   31  C   UNL     1      -5.423  -1.176 -33.311  1.00  0.00     0.000 A 
HETATM   32  C   UNL     1      -5.547  -0.423 -32.145  1.00  0.00     0.001 A 
HETATM   33  C   UNL     1      -6.765   0.179 -31.827  1.00  0.00     0.009 A 
ENDBRANCH  27  28
ENDBRANCH   1  27
TORSDOF 7
ENDMDL
MODEL 10
REMARK VINA RESULT:      -7.5     16.538     18.601
REMARK  7 active torsions:
REMARK  status: ('A' for Active; 'I' for Inactive)
REMARK    1  A    between atoms: C_4  and  C_5 
REMARK    2  A    between atoms: C_5  and  N_6 
REMARK       I    between atoms: N_6  and  C_7 
REMARK    3  A    between atoms: N_6  and  C_22 
REMARK    4  A    between atoms: C_7  and  C_8 
REMARK    5  A    between atoms: C_13  and  C_14 
REMARK    6  A    between atoms: C_15  and  O_16 
REMARK    7  A    between atoms: C_22  and  C_23 
ROOT
HETATM    1  N   UNL     1      -6.646   1.361 -32.056  1.00  0.00    -0.343 N 
HETATM    2  C   UNL     1      -5.778   1.963 -31.148  1.00  0.00     0.235 C 
HETATM    3  O   UNL     1      -5.496   1.415 -30.079  1.00  0.00    -0.272 OA
ENDROOT
BRANCH   2   4
HETATM    4  C   UNL     1      -5.128   3.292 -31.492  1.00  0.00     0.195 C 
HETATM    5  C   UNL     1      -3.637   3.209 -31.364  1.00  0.00     0.247 C 
HETATM    6  O   UNL     1      -2.915   2.298 -31.734  1.00  0.00    -0.271 OA
HETATM    7  N   UNL     1      -3.202   4.407 -30.834  1.00  0.00    -0.290 N 
HETATM    8  N   UNL     1      -4.241   5.257 -30.443  1.00  0.00    -0.228 NA
HETATM    9  H   UNL     1      -2.229   4.542 -30.571  1.00  0.00     0.183 HD
HETATM   10  C   UNL     1      -5.462   4.393 -30.460  1.00  0.00     0.134 C 
HETATM   11  H   UNL     1      -4.344   5.961 -31.186  1.00  0.00     0.147 HD
BRANCH  10  12
HETATM   12  C   UNL     1      -6.719   5.216 -30.719  1.00  0.00    -0.004 A 
HETATM   13  C   UNL     1      -6.800   6.127 -31.790  1.00  0.00     0.073 A 
HETATM   14  C   UNL     1      -7.946   6.888 -32.022  1.00  0.00     0.037 A 
HETATM   15  C   UNL     1      -9.043   6.771 -31.175  1.00  0.00     0.003 A 
HETATM   16  C   UNL     1      -8.983   5.903 -30.091  1.00  0.00     0.001 A 
HETATM   17  C   UNL     1      -7.833   5.141 -29.863  1.00  0.00     0.012 A 
BRANCH  13  18
HETATM   18  O   UNL     1      -5.773   6.323 -32.673  1.00  0.00    -0.360 OA
HETATM   19  H   UNL     1      -5.057   6.812 -32.221  1.00  0.00     0.217 HD
ENDBRANCH  13  18
ENDBRANCH  10  12
ENDBRANCH   2   4
BRANCH   1  20
HETATM   20  C   UNL     1      -6.960  -0.063 -31.839  1.00  0.00     0.164 C 
BRANCH  20  21
HETATM   21  C   UNL     1      -6.329  -0.972 -32.871  1.00  0.00    -0.040 A 
HETATM   22  C   UNL     1      -7.122  -1.629 -33.822  1.00  0.00     0.009 A 
HETATM   23  C   UNL     1      -6.539  -2.482 -34.761  1.00  0.00     0.001 A 
HETATM   24  C   UNL     1      -5.160  -2.682 -34.761  1.00  0.00     0.000 A 
HETATM   25  C   UNL     1      -4.361  -2.028 -33.826  1.00  0.00     0.001 A 
HETATM   26  C   UNL     1      -4.941  -1.173 -32.887  1.00  0.00     0.009 A 
ENDBRANCH  20  21
ENDBRANCH   1  20
BRANCH   1  27
HETATM   27  C   UNL     1      -7.113   1.966 -33.314  1.00  0.00     0.164 C 
BRANCH  27  28
HETATM   28  C   UNL     1      -8.611   2.160 -33.404  1.00  0.00    -0.040 A 
HETATM   29  C   UNL     1      -9.408   1.317 -34.196  1.00  0.00     0.009 A 
HETATM   30  C   UNL     1     -10.791   1.493 -34.250  1.00  0.00     0.001 A 
HETATM   31  C   UNL     1     -11.396   2.503 -33.505  1.00  0.00     0.000 A 
HETATM   32  C   UNL     1     -10.619   3.337 -32.703  1.00  0.00     0.001 A 
HETATM   33  C   UNL     1      -9.235   3.163 -32.648  1.00  0.00     0.009 A 
ENDBRANCH  27  28
ENDBRANCH   1  27
TORSDOF 7
ENDMDL
