MODEL 1
REMARK VINA RESULT:      -7.8      0.000      0.000
REMARK  8 active torsions:
REMARK  status: ('A' for Active; 'I' for Inactive)
REMARK    1  A    between atoms: C_2  and  N_3 
REMARK    2  A    between atoms: N_3  and  C_5 
REMARK    3  A    between atoms: N_3  and  C_30 
REMARK    4  A    between atoms: C_5  and  C_6 
REMARK    5  A    between atoms: C_6  and  N_7 
REMARK       I    between atoms: N_7  and  C_8 
REMARK    6  A    between atoms: C_8  and  C_9 
REMARK    7  A    between atoms: C_9  and  O_10 
REMARK    8  A    between atoms: N_11  and  C_12 
ROOT
HETATM    1  C   UNL     1      -6.246   2.607 -31.727  1.00  0.00     0.256 C 
HETATM    2  N   UNL     1      -5.730   3.719 -32.558  1.00  0.00    -0.254 N 
HETATM    3  C   UNL     1      -6.539   4.317 -33.518  1.00  0.00     0.330 C 
HETATM    4  O   UNL     1      -6.290   5.362 -34.117  1.00  0.00    -0.246 OA
HETATM    5  N   UNL     1      -7.700   3.697 -33.854  1.00  0.00    -0.308 N 
HETATM    6  C   UNL     1      -8.207   2.545 -33.286  1.00  0.00     0.048 A 
HETATM    7  C   UNL     1      -7.532   1.972 -32.222  1.00  0.00     0.034 A 
HETATM    8  C   UNL     1      -9.398   2.001 -33.772  1.00  0.00     0.030 A 
HETATM    9  C   UNL     1      -9.929   0.857 -33.179  1.00  0.00     0.002 A 
HETATM   10  C   UNL     1      -9.281   0.278 -32.091  1.00  0.00     0.001 A 
HETATM   11  C   UNL     1      -8.097   0.838 -31.608  1.00  0.00     0.015 A 
HETATM   12  H   UNL     1      -8.229   4.176 -34.574  1.00  0.00     0.170 HD
ENDROOT
BRANCH   1  13
HETATM   13  C   UNL     1      -5.155   1.424 -31.698  1.00  0.00     0.279 C 
HETATM   14  N   UNL     1      -4.968   0.739 -32.898  1.00  0.00    -0.355 N 
HETATM   15  H   UNL     1      -5.279   1.212 -33.744  1.00  0.00     0.162 HD
HETATM   16  O   UNL     1      -4.594   1.020 -30.676  1.00  0.00    -0.268 OA
BRANCH  14  17
HETATM   17  C   UNL     1      -3.947  -0.284 -32.985  1.00  0.00     0.150 C 
BRANCH  17  18
HETATM   18  C   UNL     1      -4.543  -1.704 -32.923  1.00  0.00     0.254 C 
BRANCH  18  19
HETATM   19  N   UNL     1      -5.249  -2.140 -34.202  1.00  0.00    -0.070 N 
HETATM   20  H   UNL     1      -4.910  -1.498 -34.931  1.00  0.00     0.279 HD
BRANCH  19  21
HETATM   21  C   UNL     1      -6.758  -1.927 -34.148  1.00  0.00     0.230 C 
HETATM   22  C   UNL     1      -7.173  -0.778 -35.051  1.00  0.00     0.034 C 
ENDBRANCH  19  21
BRANCH  19  23
HETATM   23  C   UNL     1      -4.901  -3.531 -34.691  1.00  0.00     0.230 C 
HETATM   24  C   UNL     1      -6.150  -4.353 -34.950  1.00  0.00     0.034 C 
ENDBRANCH  19  23
ENDBRANCH  18  19
ENDBRANCH  17  18
ENDBRANCH  14  17
ENDBRANCH   1  13
BRANCH   1  25
HETATM   25  O   UNL     1      -6.572   3.143 -30.458  1.00  0.00    -0.359 OA
HETATM   26  H   UNL     1      -6.227   4.052 -30.471  1.00  0.00     0.213 HD
ENDBRANCH   1  25
BRANCH   2  27
HETATM   27  C   UNL     1      -4.384   4.228 -32.317  1.00  0.00     0.043 A 
HETATM   28  C   UNL     1      -4.138   5.162 -31.295  1.00  0.00     0.037 A 
HETATM   29  C   UNL     1      -2.866   5.728 -31.072  1.00  0.00    -0.054 A 
HETATM   30  C   UNL     1      -2.694   6.718 -29.950  1.00  0.00     0.049 C 
HETATM   31  C   UNL     1      -1.799   5.371 -31.907  1.00  0.00    -0.056 A 
HETATM   32  C   UNL     1      -0.416   5.925 -31.703  1.00  0.00     0.049 C 
HETATM   33  C   UNL     1      -2.026   4.440 -32.927  1.00  0.00     0.009 A 
HETATM   34  C   UNL     1      -3.296   3.885 -33.133  1.00  0.00     0.030 A 
ENDBRANCH   2  27
TORSDOF 8
ENDMDL
MODEL 2
REMARK VINA RESULT:      -7.7      2.446      6.145
REMARK  8 active torsions:
REMARK  status: ('A' for Active; 'I' for Inactive)
REMARK    1  A    between atoms: C_2  and  N_3 
REMARK    2  A    between atoms: N_3  and  C_5 
REMARK    3  A    between atoms: N_3  and  C_30 
REMARK    4  A    between atoms: C_5  and  C_6 
REMARK    5  A    between atoms: C_6  and  N_7 
REMARK       I    between atoms: N_7  and  C_8 
REMARK    6  A    between atoms: C_8  and  C_9 
REMARK    7  A    between atoms: C_9  and  O_10 
REMARK    8  A    between atoms: N_11  and  C_12 
ROOT
HETATM    1  C   UNL     1      -6.501   2.847 -30.314  1.00  0.00     0.256 C 
HETATM    2  N   UNL     1      -5.460   2.416 -31.274  1.00  0.00    -0.254 N 
HETATM    3  C   UNL     1      -4.248   3.095 -31.354  1.00  0.00     0.330 C 
HETATM    4  O   UNL     1      -3.250   2.711 -31.960  1.00  0.00    -0.246 OA
HETATM    5  N   UNL     1      -4.147   4.298 -30.732  1.00  0.00    -0.308 N 
HETATM    6  C   UNL     1      -5.116   4.905 -29.957  1.00  0.00     0.048 A 
HETATM    7  C   UNL     1      -6.295   4.224 -29.710  1.00  0.00     0.034 A 
HETATM    8  C   UNL     1      -4.877   6.171 -29.419  1.00  0.00     0.030 A 
HETATM    9  C   UNL     1      -5.840   6.771 -28.610  1.00  0.00     0.002 A 
HETATM   10  C   UNL     1      -7.023   6.095 -28.326  1.00  0.00     0.001 A 
HETATM   11  C   UNL     1      -7.245   4.825 -28.862  1.00  0.00     0.015 A 
HETATM   12  H   UNL     1      -3.244   4.746 -30.849  1.00  0.00     0.170 HD
ENDROOT
BRANCH   1  13
HETATM   13  C   UNL     1      -7.920   2.908 -31.071  1.00  0.00     0.279 C 
HETATM   14  N   UNL     1      -8.071   3.935 -32.001  1.00  0.00    -0.355 N 
HETATM   15  H   UNL     1      -7.214   4.358 -32.353  1.00  0.00     0.162 HD
HETATM   16  O   UNL     1      -8.891   2.202 -30.785  1.00  0.00    -0.268 OA
BRANCH  14  17
HETATM   17  C   UNL     1      -9.283   4.015 -32.788  1.00  0.00     0.150 C 
BRANCH  17  18
HETATM   18  C   UNL     1      -9.131   3.327 -34.158  1.00  0.00     0.254 C 
BRANCH  18  19
HETATM   19  N   UNL     1     -10.374   2.572 -34.618  1.00  0.00    -0.070 N 
HETATM   20  H   UNL     1     -10.045   1.927 -35.348  1.00  0.00     0.279 HD
BRANCH  19  21
HETATM   21  C   UNL     1     -11.394   3.473 -35.305  1.00  0.00     0.230 C 
HETATM   22  C   UNL     1     -12.749   2.790 -35.386  1.00  0.00     0.034 C 
ENDBRANCH  19  21
BRANCH  19  23
HETATM   23  C   UNL     1     -11.024   1.697 -33.566  1.00  0.00     0.230 C 
HETATM   24  C   UNL     1     -10.211   0.439 -33.316  1.00  0.00     0.034 C 
ENDBRANCH  19  23
ENDBRANCH  18  19
ENDBRANCH  17  18
ENDBRANCH  14  17
ENDBRANCH   1  13
BRANCH   1  25
HETATM   25  O   UNL     1      -6.455   1.959 -29.212  1.00  0.00    -0.359 OA
HETATM   26  H   UNL     1      -7.147   2.272 -28.606  1.00  0.00     0.213 HD
ENDBRANCH   1  25
BRANCH   2  27
HETATM   27  C   UNL     1      -5.689   1.231 -32.094  1.00  0.00     0.043 A 
HETATM   28  C   UNL     1      -6.252   1.339 -33.377  1.00  0.00     0.037 A 
HETATM   29  C   UNL     1      -6.550   0.215 -34.174  1.00  0.00    -0.054 A 
HETATM   30  C   UNL     1      -7.148   0.426 -35.541  1.00  0.00     0.049 C 
HETATM   31  C   UNL     1      -6.301  -1.070 -33.672  1.00  0.00    -0.056 A 
HETATM   32  C   UNL     1      -6.578  -2.303 -34.485  1.00  0.00     0.049 C 
HETATM   33  C   UNL     1      -5.738  -1.195 -32.398  1.00  0.00     0.009 A 
HETATM   34  C   UNL     1      -5.445  -0.067 -31.619  1.00  0.00     0.030 A 
ENDBRANCH   2  27
TORSDOF 8
ENDMDL
MODEL 3
REMARK VINA RESULT:      -7.7      2.426      5.459
REMARK  8 active torsions:
REMARK  status: ('A' for Active; 'I' for Inactive)
REMARK    1  A    between atoms: C_2  and  N_3 
REMARK    2  A    between atoms: N_3  and  C_5 
REMARK    3  A    between atoms: N_3  and  C_30 
REMARK    4  A    between atoms: C_5  and  C_6 
REMARK    5  A    between atoms: C_6  and  N_7 
REMARK       I    between atoms: N_7  and  C_8 
REMARK    6  A    between atoms: C_8  and  C_9 
REMARK    7  A    between atoms: C_9  and  O_10 
REMARK    8  A    between atoms: N_11  and  C_12 
ROOT
HETATM    1  C   UNL     1      -6.267   0.810 -33.376  1.00  0.00     0.256 C 
HETATM    2  N   UNL     1      -5.264   1.419 -32.473  1.00  0.00    -0.254 N 
HETATM    3  C   UNL     1      -4.012   0.834 -32.312  1.00  0.00     0.330 C 
HETATM    4  O   UNL     1      -3.045   1.351 -31.755  1.00  0.00    -0.246 OA
HETATM    5  N   UNL     1      -3.828  -0.426 -32.784  1.00  0.00    -0.308 N 
HETATM    6  C   UNL     1      -4.750  -1.182 -33.482  1.00  0.00     0.048 A 
HETATM    7  C   UNL     1      -5.968  -0.613 -33.810  1.00  0.00     0.034 A 
HETATM    8  C   UNL     1      -4.426  -2.485 -33.864  1.00  0.00     0.030 A 
HETATM    9  C   UNL     1      -5.341  -3.239 -34.596  1.00  0.00     0.002 A 
HETATM   10  C   UNL     1      -6.563  -2.679 -34.960  1.00  0.00     0.001 A 
HETATM   11  C   UNL     1      -6.870  -1.372 -34.581  1.00  0.00     0.015 A 
HETATM   12  H   UNL     1      -2.900  -0.797 -32.614  1.00  0.00     0.170 HD
ENDROOT
BRANCH   1  13
HETATM   13  C   UNL     1      -7.686   0.749 -32.619  1.00  0.00     0.279 C 
HETATM   14  N   UNL     1      -8.708   1.515 -33.178  1.00  0.00    -0.355 N 
HETATM   15  H   UNL     1      -8.588   1.791 -34.150  1.00  0.00     0.162 HD
HETATM   16  O   UNL     1      -7.872   0.187 -31.536  1.00  0.00    -0.268 OA
BRANCH  14  17
HETATM   17  C   UNL     1     -10.038   1.454 -32.611  1.00  0.00     0.150 C 
BRANCH  17  18
HETATM   18  C   UNL     1     -11.024   0.699 -33.523  1.00  0.00     0.254 C 
BRANCH  18  19
HETATM   19  N   UNL     1     -12.473   1.151 -33.383  1.00  0.00    -0.070 N 
HETATM   20  H   UNL     1     -12.607   1.326 -32.379  1.00  0.00     0.279 HD
BRANCH  19  21
HETATM   21  C   UNL     1     -13.473   0.056 -33.738  1.00  0.00     0.230 C 
HETATM   22  C   UNL     1     -14.818   0.654 -34.114  1.00  0.00     0.034 C 
ENDBRANCH  19  21
BRANCH  19  23
HETATM   23  C   UNL     1     -12.812   2.458 -34.071  1.00  0.00     0.230 C 
HETATM   24  C   UNL     1     -12.141   2.556 -35.429  1.00  0.00     0.034 C 
ENDBRANCH  19  23
ENDBRANCH  18  19
ENDBRANCH  17  18
ENDBRANCH  14  17
ENDBRANCH   1  13
BRANCH   1  25
HETATM   25  O   UNL     1      -6.268   1.561 -34.576  1.00  0.00    -0.359 OA
HETATM   26  H   UNL     1      -5.574   1.161 -35.126  1.00  0.00     0.213 HD
ENDBRANCH   1  25
BRANCH   2  27
HETATM   27  C   UNL     1      -5.575   2.676 -31.802  1.00  0.00     0.043 A 
HETATM   28  C   UNL     1      -5.596   3.888 -32.514  1.00  0.00     0.037 A 
HETATM   29  C   UNL     1      -5.827   5.132 -31.892  1.00  0.00    -0.054 A 
HETATM   30  C   UNL     1      -5.836   6.381 -32.735  1.00  0.00     0.049 C 
HETATM   31  C   UNL     1      -6.024   5.181 -30.505  1.00  0.00    -0.056 A 
HETATM   32  C   UNL     1      -6.297   6.475 -29.791  1.00  0.00     0.049 C 
HETATM   33  C   UNL     1      -6.010   3.984 -29.782  1.00  0.00     0.009 A 
HETATM   34  C   UNL     1      -5.782   2.755 -30.416  1.00  0.00     0.030 A 
ENDBRANCH   2  27
TORSDOF 8
ENDMDL
MODEL 4
REMARK VINA RESULT:      -7.6      2.215      6.746
REMARK  8 active torsions:
REMARK  status: ('A' for Active; 'I' for Inactive)
REMARK    1  A    between atoms: C_2  and  N_3 
REMARK    2  A    between atoms: N_3  and  C_5 
REMARK    3  A    between atoms: N_3  and  C_30 
REMARK    4  A    between atoms: C_5  and  C_6 
REMARK    5  A    between atoms: C_6  and  N_7 
REMARK       I    between atoms: N_7  and  C_8 
REMARK    6  A    between atoms: C_8  and  C_9 
REMARK    7  A    between atoms: C_9  and  O_10 
REMARK    8  A    between atoms: N_11  and  C_12 
ROOT
HETATM    1  C   UNL     1      -6.941   2.812 -32.098  1.00  0.00     0.256 C 
HETATM    2  N   UNL     1      -6.357   1.617 -31.448  1.00  0.00    -0.254 N 
HETATM    3  C   UNL     1      -6.392   1.477 -30.064  1.00  0.00     0.330 C 
HETATM    4  O   UNL     1      -6.124   0.453 -29.440  1.00  0.00    -0.246 OA
HETATM    5  N   UNL     1      -6.729   2.563 -29.320  1.00  0.00    -0.308 N 
HETATM    6  C   UNL     1      -7.112   3.800 -29.801  1.00  0.00     0.048 A 
HETATM    7  C   UNL     1      -7.244   3.973 -31.168  1.00  0.00     0.034 A 
HETATM    8  C   UNL     1      -7.386   4.835 -28.905  1.00  0.00     0.030 A 
HETATM    9  C   UNL     1      -7.805   6.074 -29.386  1.00  0.00     0.002 A 
HETATM   10  C   UNL     1      -7.969   6.263 -30.755  1.00  0.00     0.001 A 
HETATM   11  C   UNL     1      -7.702   5.217 -31.640  1.00  0.00     0.015 A 
HETATM   12  H   UNL     1      -6.713   2.396 -28.320  1.00  0.00     0.170 HD
ENDROOT
BRANCH   1  13
HETATM   13  C   UNL     1      -5.897   3.382 -33.184  1.00  0.00     0.279 C 
HETATM   14  N   UNL     1      -4.777   4.031 -32.669  1.00  0.00    -0.355 N 
HETATM   15  H   UNL     1      -4.543   3.834 -31.698  1.00  0.00     0.162 HD
HETATM   16  O   UNL     1      -6.096   3.390 -34.402  1.00  0.00    -0.268 OA
BRANCH  14  17
HETATM   17  C   UNL     1      -3.746   4.501 -33.570  1.00  0.00     0.150 C 
BRANCH  17  18
HETATM   18  C   UNL     1      -2.340   4.051 -33.128  1.00  0.00     0.254 C 
BRANCH  18  19
HETATM   19  N   UNL     1      -1.330   5.187 -33.012  1.00  0.00    -0.070 N 
HETATM   20  H   UNL     1      -0.429   4.780 -33.297  1.00  0.00     0.279 HD
BRANCH  19  21
HETATM   21  C   UNL     1      -1.123   5.652 -31.574  1.00  0.00     0.230 C 
HETATM   22  C   UNL     1       0.287   5.339 -31.103  1.00  0.00     0.034 C 
ENDBRANCH  19  21
BRANCH  19  23
HETATM   23  C   UNL     1      -1.561   6.356 -33.947  1.00  0.00     0.230 C 
HETATM   24  C   UNL     1      -1.748   7.650 -33.177  1.00  0.00     0.034 C 
ENDBRANCH  19  23
ENDBRANCH  18  19
ENDBRANCH  17  18
ENDBRANCH  14  17
ENDBRANCH   1  13
BRANCH   1  25
HETATM   25  O   UNL     1      -8.198   2.435 -32.627  1.00  0.00    -0.359 OA
HETATM   26  H   UNL     1      -8.794   3.172 -32.414  1.00  0.00     0.213 HD
ENDBRANCH   1  25
BRANCH   2  27
HETATM   27  C   UNL     1      -5.800   0.552 -32.276  1.00  0.00     0.043 A 
HETATM   28  C   UNL     1      -6.639  -0.371 -32.923  1.00  0.00     0.037 A 
HETATM   29  C   UNL     1      -6.140  -1.453 -33.678  1.00  0.00    -0.054 A 
HETATM   30  C   UNL     1      -7.114  -2.392 -34.341  1.00  0.00     0.049 C 
HETATM   31  C   UNL     1      -4.755  -1.641 -33.778  1.00  0.00    -0.056 A 
HETATM   32  C   UNL     1      -4.166  -2.763 -34.586  1.00  0.00     0.049 C 
HETATM   33  C   UNL     1      -3.906  -0.728 -33.143  1.00  0.00     0.009 A 
HETATM   34  C   UNL     1      -4.418   0.343 -32.399  1.00  0.00     0.030 A 
ENDBRANCH   2  27
TORSDOF 8
ENDMDL
MODEL 5
REMARK VINA RESULT:      -7.5      2.101      7.045
REMARK  8 active torsions:
REMARK  status: ('A' for Active; 'I' for Inactive)
REMARK    1  A    between atoms: C_2  and  N_3 
REMARK    2  A    between atoms: N_3  and  C_5 
REMARK    3  A    between atoms: N_3  and  C_30 
REMARK    4  A    between atoms: C_5  and  C_6 
REMARK    5  A    between atoms: C_6  and  N_7 
REMARK       I    between atoms: N_7  and  C_8 
REMARK    6  A    between atoms: C_8  and  C_9 
REMARK    7  A    between atoms: C_9  and  O_10 
REMARK    8  A    between atoms: N_11  and  C_12 
ROOT
HETATM    1  C   UNL     1      -7.087   0.878 -32.138  1.00  0.00     0.256 C 
HETATM    2  N   UNL     1      -7.758   0.664 -33.441  1.00  0.00    -0.254 N 
HETATM    3  C   UNL     1      -7.210  -0.201 -34.383  1.00  0.00     0.330 C 
HETATM    4  O   UNL     1      -7.773  -0.604 -35.399  1.00  0.00    -0.246 OA
HETATM    5  N   UNL     1      -5.936  -0.630 -34.193  1.00  0.00    -0.308 N 
HETATM    6  C   UNL     1      -5.129  -0.349 -33.108  1.00  0.00     0.048 A 
HETATM    7  C   UNL     1      -5.654   0.385 -32.058  1.00  0.00     0.034 A 
HETATM    8  C   UNL     1      -3.819  -0.830 -33.078  1.00  0.00     0.030 A 
HETATM    9  C   UNL     1      -3.013  -0.575 -31.970  1.00  0.00     0.002 A 
HETATM   10  C   UNL     1      -3.528   0.138 -30.891  1.00  0.00     0.001 A 
HETATM   11  C   UNL     1      -4.843   0.605 -30.929  1.00  0.00     0.015 A 
HETATM   12  H   UNL     1      -5.594  -1.240 -34.928  1.00  0.00     0.170 HD
ENDROOT
BRANCH   1  13
HETATM   13  C   UNL     1      -7.025   2.458 -31.833  1.00  0.00     0.279 C 
HETATM   14  N   UNL     1      -6.150   3.197 -32.629  1.00  0.00    -0.355 N 
HETATM   15  H   UNL     1      -5.866   2.771 -33.508  1.00  0.00     0.162 HD
HETATM   16  O   UNL     1      -7.588   3.005 -30.882  1.00  0.00    -0.268 OA
BRANCH  14  17
HETATM   17  C   UNL     1      -6.092   4.635 -32.480  1.00  0.00     0.150 C 
BRANCH  17  18
HETATM   18  C   UNL     1      -5.311   5.306 -33.627  1.00  0.00     0.254 C 
BRANCH  18  19
HETATM   19  N   UNL     1      -3.817   5.002 -33.624  1.00  0.00    -0.070 N 
HETATM   20  H   UNL     1      -3.742   4.007 -33.870  1.00  0.00     0.279 HD
BRANCH  19  21
HETATM   21  C   UNL     1      -3.190   5.123 -32.240  1.00  0.00     0.230 C 
HETATM   22  C   UNL     1      -2.718   3.768 -31.741  1.00  0.00     0.034 C 
ENDBRANCH  19  21
BRANCH  19  23
HETATM   23  C   UNL     1      -3.005   5.741 -34.669  1.00  0.00     0.230 C 
HETATM   24  C   UNL     1      -1.654   5.083 -34.884  1.00  0.00     0.034 C 
ENDBRANCH  19  23
ENDBRANCH  18  19
ENDBRANCH  17  18
ENDBRANCH  14  17
ENDBRANCH   1  13
BRANCH   1  25
HETATM   25  O   UNL     1      -7.787   0.116 -31.171  1.00  0.00    -0.359 OA
HETATM   26  H   UNL     1      -7.129  -0.502 -30.813  1.00  0.00     0.213 HD
ENDBRANCH   1  25
BRANCH   2  27
HETATM   27  C   UNL     1      -9.034   1.319 -33.704  1.00  0.00     0.043 A 
HETATM   28  C   UNL     1     -10.248   0.634 -33.516  1.00  0.00     0.037 A 
HETATM   29  C   UNL     1     -11.499   1.207 -33.821  1.00  0.00    -0.054 A 
HETATM   30  C   UNL     1     -12.750   0.402 -33.583  1.00  0.00     0.049 C 
HETATM   31  C   UNL     1     -11.551   2.503 -34.355  1.00  0.00    -0.056 A 
HETATM   32  C   UNL     1     -12.857   3.172 -34.679  1.00  0.00     0.049 C 
HETATM   33  C   UNL     1     -10.352   3.198 -34.546  1.00  0.00     0.009 A 
HETATM   34  C   UNL     1      -9.117   2.615 -34.235  1.00  0.00     0.030 A 
ENDBRANCH   2  27
TORSDOF 8
ENDMDL
MODEL 6
REMARK VINA RESULT:      -7.5      2.532      5.602
REMARK  8 active torsions:
REMARK  status: ('A' for Active; 'I' for Inactive)
REMARK    1  A    between atoms: C_2  and  N_3 
REMARK    2  A    between atoms: N_3  and  C_5 
REMARK    3  A    between atoms: N_3  and  C_30 
REMARK    4  A    between atoms: C_5  and  C_6 
REMARK    5  A    between atoms: C_6  and  N_7 
REMARK       I    between atoms: N_7  and  C_8 
REMARK    6  A    between atoms: C_8  and  C_9 
REMARK    7  A    between atoms: C_9  and  O_10 
REMARK    8  A    between atoms: N_11  and  C_12 
ROOT
HETATM    1  C   UNL     1      -6.208  -0.331 -33.786  1.00  0.00     0.256 C 
HETATM    2  N   UNL     1      -5.102   0.312 -33.041  1.00  0.00    -0.254 N 
HETATM    3  C   UNL     1      -3.860  -0.308 -32.947  1.00  0.00     0.330 C 
HETATM    4  O   UNL     1      -2.827   0.215 -32.533  1.00  0.00    -0.246 OA
HETATM    5  N   UNL     1      -3.765  -1.610 -33.320  1.00  0.00    -0.308 N 
HETATM    6  C   UNL     1      -4.774  -2.385 -33.856  1.00  0.00     0.048 A 
HETATM    7  C   UNL     1      -6.000  -1.797 -34.118  1.00  0.00     0.034 A 
HETATM    8  C   UNL     1      -4.532  -3.729 -34.150  1.00  0.00     0.030 A 
HETATM    9  C   UNL     1      -5.539  -4.504 -34.722  1.00  0.00     0.002 A 
HETATM   10  C   UNL     1      -6.772  -3.928 -35.017  1.00  0.00     0.001 A 
HETATM   11  C   UNL     1      -6.997  -2.581 -34.728  1.00  0.00     0.015 A 
HETATM   12  H   UNL     1      -2.837  -2.003 -33.206  1.00  0.00     0.170 HD
ENDROOT
BRANCH   1  13
HETATM   13  C   UNL     1      -7.547  -0.268 -32.895  1.00  0.00     0.279 C 
HETATM   14  N   UNL     1      -8.680   0.235 -33.533  1.00  0.00    -0.355 N 
HETATM   15  H   UNL     1      -8.668   0.230 -34.551  1.00  0.00     0.162 HD
HETATM   16  O   UNL     1      -7.589  -0.509 -31.685  1.00  0.00    -0.268 OA
BRANCH  14  17
HETATM   17  C   UNL     1      -9.947   0.250 -32.833  1.00  0.00     0.150 C 
BRANCH  17  18
HETATM   18  C   UNL     1     -10.775   1.508 -33.159  1.00  0.00     0.254 C 
BRANCH  18  19
HETATM   19  N   UNL     1     -10.582   2.653 -32.171  1.00  0.00    -0.070 N 
HETATM   20  H   UNL     1     -11.471   2.725 -31.661  1.00  0.00     0.279 HD
BRANCH  19  21
HETATM   21  C   UNL     1     -10.402   4.003 -32.857  1.00  0.00     0.230 C 
HETATM   22  C   UNL     1      -9.735   3.836 -34.212  1.00  0.00     0.034 C 
ENDBRANCH  19  21
BRANCH  19  23
HETATM   23  C   UNL     1      -9.523   2.422 -31.112  1.00  0.00     0.230 C 
HETATM   24  C   UNL     1      -9.060   3.732 -30.501  1.00  0.00     0.034 C 
ENDBRANCH  19  23
ENDBRANCH  18  19
ENDBRANCH  17  18
ENDBRANCH  14  17
ENDBRANCH   1  13
BRANCH   1  25
HETATM   25  O   UNL     1      -6.303   0.314 -35.043  1.00  0.00    -0.359 OA
HETATM   26  H   UNL     1      -5.738   1.101 -34.966  1.00  0.00     0.213 HD
ENDBRANCH   1  25
BRANCH   2  27
HETATM   27  C   UNL     1      -5.305   1.634 -32.458  1.00  0.00     0.043 A 
HETATM   28  C   UNL     1      -5.579   2.747 -33.272  1.00  0.00     0.037 A 
HETATM   29  C   UNL     1      -5.716   4.051 -32.756  1.00  0.00    -0.054 A 
HETATM   30  C   UNL     1      -6.013   5.185 -33.703  1.00  0.00     0.049 C 
HETATM   31  C   UNL     1      -5.555   4.267 -31.380  1.00  0.00    -0.056 A 
HETATM   32  C   UNL     1      -5.711   5.632 -30.771  1.00  0.00     0.049 C 
HETATM   33  C   UNL     1      -5.286   3.170 -30.555  1.00  0.00     0.009 A 
HETATM   34  C   UNL     1      -5.155   1.879 -31.084  1.00  0.00     0.030 A 
ENDBRANCH   2  27
TORSDOF 8
ENDMDL
MODEL 7
REMARK VINA RESULT:      -7.4      2.252      6.444
REMARK  8 active torsions:
REMARK  status: ('A' for Active; 'I' for Inactive)
REMARK    1  A    between atoms: C_2  and  N_3 
REMARK    2  A    between atoms: N_3  and  C_5 
REMARK    3  A    between atoms: N_3  and  C_30 
REMARK    4  A    between atoms: C_5  and  C_6 
REMARK    5  A    between atoms: C_6  and  N_7 
REMARK       I    between atoms: N_7  and  C_8 
REMARK    6  A    between atoms: C_8  and  C_9 
REMARK    7  A    between atoms: C_9  and  O_10 
REMARK    8  A    between atoms: N_11  and  C_12 
ROOT
HETATM    1  C   UNL     1      -7.700   2.795 -32.966  1.00  0.00     0.256 C 
HETATM    2  N   UNL     1      -7.945   1.417 -32.483  1.00  0.00    -0.254 N 
HETATM    3  C   UNL     1      -8.914   1.170 -31.515  1.00  0.00     0.330 C 
HETATM    4  O   UNL     1      -9.337   0.063 -31.190  1.00  0.00    -0.246 OA
HETATM    5  N   UNL     1      -9.435   2.231 -30.845  1.00  0.00    -0.308 N 
HETATM    6  C   UNL     1      -9.148   3.564 -31.070  1.00  0.00     0.048 A 
HETATM    7  C   UNL     1      -8.305   3.898 -32.116  1.00  0.00     0.034 A 
HETATM    8  C   UNL     1      -9.734   4.542 -30.264  1.00  0.00     0.030 A 
HETATM    9  C   UNL     1      -9.472   5.888 -30.511  1.00  0.00     0.002 A 
HETATM   10  C   UNL     1      -8.647   6.249 -31.572  1.00  0.00     0.001 A 
HETATM   11  C   UNL     1      -8.077   5.262 -32.377  1.00  0.00     0.015 A 
HETATM   12  H   UNL     1     -10.118   1.977 -30.141  1.00  0.00     0.170 HD
ENDROOT
BRANCH   1  13
HETATM   13  C   UNL     1      -6.115   3.072 -32.981  1.00  0.00     0.279 C 
HETATM   14  N   UNL     1      -5.504   3.181 -31.732  1.00  0.00    -0.355 N 
HETATM   15  H   UNL     1      -6.010   2.784 -30.943  1.00  0.00     0.162 HD
HETATM   16  O   UNL     1      -5.461   3.315 -33.999  1.00  0.00    -0.268 OA
BRANCH  14  17
HETATM   17  C   UNL     1      -4.069   3.347 -31.651  1.00  0.00     0.150 C 
BRANCH  17  18
HETATM   18  C   UNL     1      -3.662   4.826 -31.503  1.00  0.00     0.254 C 
BRANCH  18  19
HETATM   19  N   UNL     1      -2.395   5.203 -32.261  1.00  0.00    -0.070 N 
HETATM   20  H   UNL     1      -2.552   6.163 -32.593  1.00  0.00     0.279 HD
BRANCH  19  21
HETATM   21  C   UNL     1      -2.189   4.371 -33.522  1.00  0.00     0.230 C 
HETATM   22  C   UNL     1      -1.935   5.265 -34.724  1.00  0.00     0.034 C 
ENDBRANCH  19  21
BRANCH  19  23
HETATM   23  C   UNL     1      -1.134   5.264 -31.424  1.00  0.00     0.230 C 
HETATM   24  C   UNL     1      -0.456   6.617 -31.546  1.00  0.00     0.034 C 
ENDBRANCH  19  23
ENDBRANCH  18  19
ENDBRANCH  17  18
ENDBRANCH  14  17
ENDBRANCH   1  13
BRANCH   1  25
HETATM   25  O   UNL     1      -8.335   2.921 -34.226  1.00  0.00    -0.359 OA
HETATM   26  H   UNL     1      -8.775   3.786 -34.202  1.00  0.00     0.213 HD
ENDBRANCH   1  25
BRANCH   2  27
HETATM   27  C   UNL     1      -7.207   0.308 -33.076  1.00  0.00     0.043 A 
HETATM   28  C   UNL     1      -6.034  -0.182 -32.475  1.00  0.00     0.037 A 
HETATM   29  C   UNL     1      -5.256  -1.207 -33.050  1.00  0.00    -0.054 A 
HETATM   30  C   UNL     1      -4.016  -1.673 -32.332  1.00  0.00     0.049 C 
HETATM   31  C   UNL     1      -5.641  -1.755 -34.281  1.00  0.00    -0.056 A 
HETATM   32  C   UNL     1      -4.862  -2.864 -34.931  1.00  0.00     0.049 C 
HETATM   33  C   UNL     1      -6.807  -1.280 -34.892  1.00  0.00     0.009 A 
HETATM   34  C   UNL     1      -7.571  -0.263 -34.305  1.00  0.00     0.030 A 
ENDBRANCH   2  27
TORSDOF 8
ENDMDL
MODEL 8
REMARK VINA RESULT:      -7.2      2.510      5.968
REMARK  8 active torsions:
REMARK  status: ('A' for Active; 'I' for Inactive)
REMARK    1  A    between atoms: C_2  and  N_3 
REMARK    2  A    between atoms: N_3  and  C_5 
REMARK    3  A    between atoms: N_3  and  C_30 
REMARK    4  A    between atoms: C_5  and  C_6 
REMARK    5  A    between atoms: C_6  and  N_7 
REMARK       I    between atoms: N_7  and  C_8 
REMARK    6  A    between atoms: C_8  and  C_9 
REMARK    7  A    between atoms: C_9  and  O_10 
REMARK    8  A    between atoms: N_11  and  C_12 
ROOT
HETATM    1  C   UNL     1      -8.955   2.195 -34.022  1.00  0.00     0.256 C 
HETATM    2  N   UNL     1      -8.962   0.963 -33.200  1.00  0.00    -0.254 N 
HETATM    3  C   UNL     1     -10.157   0.305 -32.925  1.00  0.00     0.330 C 
HETATM    4  O   UNL     1     -10.260  -0.816 -32.432  1.00  0.00    -0.246 OA
HETATM    5  N   UNL     1     -11.320   0.951 -33.196  1.00  0.00    -0.308 N 
HETATM    6  C   UNL     1     -11.451   2.191 -33.790  1.00  0.00     0.048 A 
HETATM    7  C   UNL     1     -10.312   2.844 -34.228  1.00  0.00     0.034 A 
HETATM    8  C   UNL     1     -12.721   2.744 -33.962  1.00  0.00     0.030 A 
HETATM    9  C   UNL     1     -12.858   3.980 -34.591  1.00  0.00     0.002 A 
HETATM   10  C   UNL     1     -11.728   4.644 -35.063  1.00  0.00     0.001 A 
HETATM   11  C   UNL     1     -10.465   4.075 -34.893  1.00  0.00     0.015 A 
HETATM   12  H   UNL     1     -12.150   0.422 -32.950  1.00  0.00     0.170 HD
ENDROOT
BRANCH   1  13
HETATM   13  C   UNL     1      -8.044   3.305 -33.295  1.00  0.00     0.279 C 
HETATM   14  N   UNL     1      -6.841   3.615 -33.928  1.00  0.00    -0.355 N 
HETATM   15  H   UNL     1      -6.771   3.372 -34.914  1.00  0.00     0.162 HD
HETATM   16  O   UNL     1      -8.282   3.779 -32.181  1.00  0.00    -0.268 OA
BRANCH  14  17
HETATM   17  C   UNL     1      -5.999   4.661 -33.389  1.00  0.00     0.150 C 
BRANCH  17  18
HETATM   18  C   UNL     1      -4.520   4.474 -33.779  1.00  0.00     0.254 C 
BRANCH  18  19
HETATM   19  N   UNL     1      -3.534   5.124 -32.815  1.00  0.00    -0.070 N 
HETATM   20  H   UNL     1      -4.105   5.726 -32.208  1.00  0.00     0.279 HD
BRANCH  19  21
HETATM   21  C   UNL     1      -2.557   6.065 -33.511  1.00  0.00     0.230 C 
HETATM   22  C   UNL     1      -1.874   5.368 -34.676  1.00  0.00     0.034 C 
ENDBRANCH  19  21
BRANCH  19  23
HETATM   23  C   UNL     1      -2.818   4.170 -31.881  1.00  0.00     0.230 C 
HETATM   24  C   UNL     1      -3.322   2.748 -32.052  1.00  0.00     0.034 C 
ENDBRANCH  19  23
ENDBRANCH  18  19
ENDBRANCH  17  18
ENDBRANCH  14  17
ENDBRANCH   1  13
BRANCH   1  25
HETATM   25  O   UNL     1      -8.526   1.835 -35.322  1.00  0.00    -0.359 OA
HETATM   26  H   UNL     1      -8.673   2.627 -35.865  1.00  0.00     0.213 HD
ENDBRANCH   1  25
BRANCH   2  27
HETATM   27  C   UNL     1      -7.697   0.406 -32.735  1.00  0.00     0.043 A 
HETATM   28  C   UNL     1      -7.258   0.615 -31.416  1.00  0.00     0.037 A 
HETATM   29  C   UNL     1      -6.013   0.150 -30.946  1.00  0.00    -0.054 A 
HETATM   30  C   UNL     1      -5.626   0.416 -29.514  1.00  0.00     0.049 C 
HETATM   31  C   UNL     1      -5.157  -0.530 -31.823  1.00  0.00    -0.056 A 
HETATM   32  C   UNL     1      -3.828  -1.067 -31.372  1.00  0.00     0.049 C 
HETATM   33  C   UNL     1      -5.580  -0.749 -33.139  1.00  0.00     0.009 A 
HETATM   34  C   UNL     1      -6.822  -0.283 -33.589  1.00  0.00     0.030 A 
ENDBRANCH   2  27
TORSDOF 8
ENDMDL
MODEL 9
REMARK VINA RESULT:      -7.1      2.464      6.250
REMARK  8 active torsions:
REMARK  status: ('A' for Active; 'I' for Inactive)
REMARK    1  A    between atoms: C_2  and  N_3 
REMARK    2  A    between atoms: N_3  and  C_5 
REMARK    3  A    between atoms: N_3  and  C_30 
REMARK    4  A    between atoms: C_5  and  C_6 
REMARK    5  A    between atoms: C_6  and  N_7 
REMARK       I    between atoms: N_7  and  C_8 
REMARK    6  A    between atoms: C_8  and  C_9 
REMARK    7  A    between atoms: C_9  and  O_10 
REMARK    8  A    between atoms: N_11  and  C_12 
ROOT
HETATM    1  C   UNL     1      -6.711   1.055 -32.252  1.00  0.00     0.256 C 
HETATM    2  N   UNL     1      -8.145   1.389 -32.412  1.00  0.00    -0.254 N 
HETATM    3  C   UNL     1      -9.029   0.466 -32.961  1.00  0.00     0.330 C 
HETATM    4  O   UNL     1     -10.254   0.556 -32.957  1.00  0.00    -0.246 OA
HETATM    5  N   UNL     1      -8.510  -0.627 -33.580  1.00  0.00    -0.308 N 
HETATM    6  C   UNL     1      -7.173  -0.961 -33.668  1.00  0.00     0.048 A 
HETATM    7  C   UNL     1      -6.242  -0.169 -33.019  1.00  0.00     0.034 A 
HETATM    8  C   UNL     1      -6.791  -2.100 -34.380  1.00  0.00     0.030 A 
HETATM    9  C   UNL     1      -5.446  -2.458 -34.443  1.00  0.00     0.002 A 
HETATM   10  C   UNL     1      -4.495  -1.690 -33.776  1.00  0.00     0.001 A 
HETATM   11  C   UNL     1      -4.890  -0.560 -33.059  1.00  0.00     0.015 A 
HETATM   12  H   UNL     1      -9.209  -1.245 -33.975  1.00  0.00     0.170 HD
ENDROOT
BRANCH   1  13
HETATM   13  C   UNL     1      -5.823   2.281 -32.798  1.00  0.00     0.279 C 
HETATM   14  N   UNL     1      -5.066   2.957 -31.842  1.00  0.00    -0.355 N 
HETATM   15  H   UNL     1      -4.886   2.461 -30.971  1.00  0.00     0.162 HD
HETATM   16  O   UNL     1      -5.877   2.721 -33.950  1.00  0.00    -0.268 OA
BRANCH  14  17
HETATM   17  C   UNL     1      -4.175   4.019 -32.256  1.00  0.00     0.150 C 
BRANCH  17  18
HETATM   18  C   UNL     1      -2.752   3.835 -31.694  1.00  0.00     0.254 C 
BRANCH  18  19
HETATM   19  N   UNL     1      -1.679   4.618 -32.443  1.00  0.00    -0.070 N 
HETATM   20  H   UNL     1      -1.131   3.911 -32.950  1.00  0.00     0.279 HD
BRANCH  19  21
HETATM   21  C   UNL     1      -0.687   5.304 -31.510  1.00  0.00     0.230 C 
HETATM   22  C   UNL     1      -0.427   6.733 -31.956  1.00  0.00     0.034 C 
ENDBRANCH  19  21
BRANCH  19  23
HETATM   23  C   UNL     1      -2.196   5.569 -33.503  1.00  0.00     0.230 C 
HETATM   24  C   UNL     1      -1.830   5.092 -34.897  1.00  0.00     0.034 C 
ENDBRANCH  19  23
ENDBRANCH  18  19
ENDBRANCH  17  18
ENDBRANCH  14  17
ENDBRANCH   1  13
BRANCH   1  25
HETATM   25  O   UNL     1      -6.501   0.731 -30.890  1.00  0.00    -0.359 OA
HETATM   26  H   UNL     1      -5.785   1.319 -30.598  1.00  0.00     0.213 HD
ENDBRANCH   1  25
BRANCH   2  27
HETATM   27  C   UNL     1      -8.638   2.674 -31.928  1.00  0.00     0.043 A 
HETATM   28  C   UNL     1      -8.995   3.695 -32.826  1.00  0.00     0.037 A 
HETATM   29  C   UNL     1      -9.413   4.972 -32.400  1.00  0.00    -0.054 A 
HETATM   30  C   UNL     1      -9.780   6.004 -33.433  1.00  0.00     0.049 C 
HETATM   31  C   UNL     1      -9.460   5.257 -31.028  1.00  0.00    -0.056 A 
HETATM   32  C   UNL     1      -9.918   6.593 -30.514  1.00  0.00     0.049 C 
HETATM   33  C   UNL     1      -9.111   4.251 -30.120  1.00  0.00     0.009 A 
HETATM   34  C   UNL     1      -8.700   2.986 -30.561  1.00  0.00     0.030 A 
ENDBRANCH   2  27
TORSDOF 8
ENDMDL
MODEL 10
REMARK VINA RESULT:      -7.1      3.219      6.690
REMARK  8 active torsions:
REMARK  status: ('A' for Active; 'I' for Inactive)
REMARK    1  A    between atoms: C_2  and  N_3 
REMARK    2  A    between atoms: N_3  and  C_5 
REMARK    3  A    between atoms: N_3  and  C_30 
REMARK    4  A    between atoms: C_5  and  C_6 
REMARK    5  A    between atoms: C_6  and  N_7 
REMARK       I    between atoms: N_7  and  C_8 
REMARK    6  A    between atoms: C_8  and  C_9 
REMARK    7  A    between atoms: C_9  and  O_10 
REMARK    8  A    between atoms: N_11  and  C_12 
ROOT
HETATM    1  C   UNL     1      -7.872   1.356 -33.494  1.00  0.00     0.256 C 
HETATM    2  N   UNL     1      -7.645   2.085 -32.226  1.00  0.00    -0.254 N 
HETATM    3  C   UNL     1      -6.525   1.814 -31.447  1.00  0.00     0.330 C 
HETATM    4  O   UNL     1      -6.135   2.486 -30.494  1.00  0.00    -0.246 OA
HETATM    5  N   UNL     1      -5.798   0.704 -31.735  1.00  0.00    -0.308 N 
HETATM    6  C   UNL     1      -6.017  -0.171 -32.782  1.00  0.00     0.048 A 
HETATM    7  C   UNL     1      -7.024   0.113 -33.688  1.00  0.00     0.034 A 
HETATM    8  C   UNL     1      -5.206  -1.298 -32.921  1.00  0.00     0.030 A 
HETATM    9  C   UNL     1      -5.403  -2.164 -33.995  1.00  0.00     0.002 A 
HETATM   10  C   UNL     1      -6.393  -1.886 -34.933  1.00  0.00     0.001 A 
HETATM   11  C   UNL     1      -7.190  -0.750 -34.788  1.00  0.00     0.015 A 
HETATM   12  H   UNL     1      -5.009   0.557 -31.115  1.00  0.00     0.170 HD
ENDROOT
BRANCH   1  13
HETATM   13  C   UNL     1      -9.401   0.857 -33.546  1.00  0.00     0.279 C 
HETATM   14  N   UNL     1     -10.242   1.559 -34.407  1.00  0.00    -0.355 N 
HETATM   15  H   UNL     1      -9.791   2.100 -35.142  1.00  0.00     0.162 HD
HETATM   16  O   UNL     1      -9.880   0.004 -32.793  1.00  0.00    -0.268 OA
BRANCH  14  17
HETATM   17  C   UNL     1     -11.613   1.125 -34.579  1.00  0.00     0.150 C 
BRANCH  17  18
HETATM   18  C   UNL     1     -12.493   2.221 -35.213  1.00  0.00     0.254 C 
BRANCH  18  19
HETATM   19  N   UNL     1     -13.652   2.675 -34.333  1.00  0.00    -0.070 N 
HETATM   20  H   UNL     1     -14.336   3.091 -34.979  1.00  0.00     0.279 HD
BRANCH  19  21
HETATM   21  C   UNL     1     -13.266   3.798 -33.377  1.00  0.00     0.230 C 
HETATM   22  C   UNL     1     -12.362   4.807 -34.066  1.00  0.00     0.034 C 
ENDBRANCH  19  21
BRANCH  19  23
HETATM   23  C   UNL     1     -14.393   1.565 -33.617  1.00  0.00     0.230 C 
HETATM   24  C   UNL     1     -15.072   2.077 -32.359  1.00  0.00     0.034 C 
ENDBRANCH  19  23
ENDBRANCH  18  19
ENDBRANCH  17  18
ENDBRANCH  14  17
ENDBRANCH   1  13
BRANCH   1  25
HETATM   25  O   UNL     1      -7.495   2.219 -34.551  1.00  0.00    -0.359 OA
HETATM   26  H   UNL     1      -8.326   2.616 -34.862  1.00  0.00     0.213 HD
ENDBRANCH   1  25
BRANCH   2  27
HETATM   27  C   UNL     1      -8.574   3.138 -31.829  1.00  0.00     0.043 A 
HETATM   28  C   UNL     1      -8.480   4.428 -32.381  1.00  0.00     0.037 A 
HETATM   29  C   UNL     1      -9.315   5.490 -31.977  1.00  0.00    -0.054 A 
HETATM   30  C   UNL     1      -9.147   6.839 -32.627  1.00  0.00     0.049 C 
HETATM   31  C   UNL     1     -10.266   5.273 -30.971  1.00  0.00    -0.056 A 
HETATM   32  C   UNL     1     -11.197   6.361 -30.516  1.00  0.00     0.049 C 
HETATM   33  C   UNL     1     -10.374   3.994 -30.414  1.00  0.00     0.009 A 
HETATM   34  C   UNL     1      -9.539   2.948 -30.828  1.00  0.00     0.030 A 
ENDBRANCH   2  27
TORSDOF 8
ENDMDL
