MODEL 1
REMARK VINA RESULT:      -8.1      0.000      0.000
REMARK  3 active torsions:
REMARK  status: ('A' for Active; 'I' for Inactive)
REMARK    1  A    between atoms: O_2  and  C_3 
REMARK    2  A    between atoms: C_7  and  C_8 
REMARK    3  A    between atoms: C_19  and  N_20 
ROOT
HETATM    1  C   UNL     1      -5.914   1.931 -31.107  1.00  0.00     0.244 A 
HETATM    2  N   UNL     1      -5.836   2.976 -32.102  1.00  0.00    -0.151 N 
HETATM    3  C   UNL     1      -6.974   3.576 -32.576  1.00  0.00     0.734 A 
HETATM    4  N   UNL     1      -6.649   4.491 -33.463  1.00  0.00    -0.060 NA
HETATM    5  C   UNL     1      -5.279   4.490 -33.541  1.00  0.00     0.103 A 
HETATM    6  C   UNL     1      -4.733   3.551 -32.672  1.00  0.00     0.083 A 
HETATM    7  C   UNL     1      -4.429   5.272 -34.335  1.00  0.00     0.034 A 
HETATM    8  C   UNL     1      -3.047   5.085 -34.225  1.00  0.00     0.002 A 
HETATM    9  C   UNL     1      -2.521   4.142 -33.341  1.00  0.00     0.002 A 
HETATM   10  C   UNL     1      -3.353   3.352 -32.540  1.00  0.00     0.033 A 
HETATM   11  N   UNL     1      -8.213   3.233 -32.159  1.00  0.00    -0.033 NA
HETATM   12  C   UNL     1      -8.340   2.324 -31.262  1.00  0.00     0.193 A 
HETATM   13  N   UNL     1      -7.277   1.631 -30.672  1.00  0.00    -0.339 N 
HETATM   14  H   UNL     1      -7.451   0.850 -30.059  1.00  0.00     0.164 HD
ENDROOT
BRANCH   1  15
HETATM   15  C   UNL     1      -5.301   0.632 -31.600  1.00  0.00    -0.014 A 
HETATM   16  C   UNL     1      -5.910  -0.115 -32.626  1.00  0.00     0.033 A 
HETATM   17  C   UNL     1      -5.327  -1.300 -33.087  1.00  0.00     0.044 A 
HETATM   18  C   UNL     1      -4.124  -1.749 -32.538  1.00  0.00     0.085 A 
HETATM   19 BR   UNL     1      -6.198  -2.249 -34.478  1.00  0.00    -0.048 Br
HETATM   20  C   UNL     1      -3.533  -1.039 -31.492  1.00  0.00     0.039 A 
HETATM   21  C   UNL     1      -4.115   0.144 -31.025  1.00  0.00     0.014 A 
BRANCH  18  22
HETATM   22  O   UNL     1      -3.573  -2.922 -32.978  1.00  0.00    -0.355 OA
HETATM   23  C   UNL     1      -3.018  -3.688 -31.909  1.00  0.00     0.210 C 
ENDBRANCH  18  22
ENDBRANCH   1  15
BRANCH  12  24
HETATM   24  N   UNL     1      -9.540   1.920 -30.796  1.00  0.00    -0.272 NA
HETATM   25  H   UNL     1      -9.654   0.915 -30.906  1.00  0.00     0.127 HD
HETATM   26  H   UNL     1     -10.352   2.415 -31.142  1.00  0.00     0.127 HD
ENDBRANCH  12  24
TORSDOF 3
ENDMDL
MODEL 2
REMARK VINA RESULT:      -8.1      3.696      6.133
REMARK  3 active torsions:
REMARK  status: ('A' for Active; 'I' for Inactive)
REMARK    1  A    between atoms: O_2  and  C_3 
REMARK    2  A    between atoms: C_7  and  C_8 
REMARK    3  A    between atoms: C_19  and  N_20 
ROOT
HETATM    1  C   UNL     1      -7.480   0.667 -31.459  1.00  0.00     0.244 A 
HETATM    2  N   UNL     1      -6.340   0.065 -32.110  1.00  0.00    -0.151 N 
HETATM    3  C   UNL     1      -5.064   0.447 -31.784  1.00  0.00     0.734 A 
HETATM    4  N   UNL     1      -4.203  -0.240 -32.502  1.00  0.00    -0.060 NA
HETATM    5  C   UNL     1      -4.941  -1.090 -33.287  1.00  0.00     0.103 A 
HETATM    6  C   UNL     1      -6.302  -0.934 -33.046  1.00  0.00     0.083 A 
HETATM    7  C   UNL     1      -4.512  -2.032 -34.232  1.00  0.00     0.034 A 
HETATM    8  C   UNL     1      -5.472  -2.794 -34.905  1.00  0.00     0.002 A 
HETATM    9  C   UNL     1      -6.832  -2.625 -34.641  1.00  0.00     0.002 A 
HETATM   10  C   UNL     1      -7.281  -1.690 -33.701  1.00  0.00     0.033 A 
HETATM   11  N   UNL     1      -4.797   1.394 -30.856  1.00  0.00    -0.033 NA
HETATM   12  C   UNL     1      -5.772   1.949 -30.232  1.00  0.00     0.193 A 
HETATM   13  N   UNL     1      -7.124   1.657 -30.443  1.00  0.00    -0.339 N 
HETATM   14  H   UNL     1      -7.842   2.210 -30.003  1.00  0.00     0.164 HD
ENDROOT
BRANCH   1  15
HETATM   15  C   UNL     1      -8.405   1.351 -32.450  1.00  0.00    -0.014 A 
HETATM   16  C   UNL     1      -9.712   0.876 -32.671  1.00  0.00     0.033 A 
HETATM   17  C   UNL     1     -10.563   1.526 -33.571  1.00  0.00     0.044 A 
HETATM   18  C   UNL     1     -10.124   2.662 -34.255  1.00  0.00     0.085 A 
HETATM   19 BR   UNL     1     -12.313   0.837 -33.810  1.00  0.00    -0.048 Br
HETATM   20  C   UNL     1      -8.817   3.117 -34.075  1.00  0.00     0.039 A 
HETATM   21  C   UNL     1      -7.962   2.467 -33.179  1.00  0.00     0.014 A 
BRANCH  18  22
HETATM   22  O   UNL     1     -10.956   3.277 -35.152  1.00  0.00    -0.355 OA
HETATM   23  C   UNL     1     -10.643   4.661 -35.310  1.00  0.00     0.210 C 
ENDBRANCH  18  22
ENDBRANCH   1  15
BRANCH  12  24
HETATM   24  N   UNL     1      -5.591   2.905 -29.298  1.00  0.00    -0.272 NA
HETATM   25  H   UNL     1      -6.439   3.048 -28.754  1.00  0.00     0.127 HD
HETATM   26  H   UNL     1      -5.214   3.788 -29.618  1.00  0.00     0.127 HD
ENDBRANCH  12  24
TORSDOF 3
ENDMDL
MODEL 3
REMARK VINA RESULT:      -7.9      1.714      2.097
REMARK  3 active torsions:
REMARK  status: ('A' for Active; 'I' for Inactive)
REMARK    1  A    between atoms: O_2  and  C_3 
REMARK    2  A    between atoms: C_7  and  C_8 
REMARK    3  A    between atoms: C_19  and  N_20 
ROOT
HETATM    1  C   UNL     1      -6.979   1.028 -32.132  1.00  0.00     0.244 A 
HETATM    2  N   UNL     1      -6.652   2.284 -32.765  1.00  0.00    -0.151 N 
HETATM    3  C   UNL     1      -7.635   3.070 -33.309  1.00  0.00     0.734 A 
HETATM    4  N   UNL     1      -7.096   4.156 -33.820  1.00  0.00    -0.060 NA
HETATM    5  C   UNL     1      -5.747   4.071 -33.579  1.00  0.00     0.103 A 
HETATM    6  C   UNL     1      -5.437   2.902 -32.892  1.00  0.00     0.083 A 
HETATM    7  C   UNL     1      -4.721   4.964 -33.918  1.00  0.00     0.034 A 
HETATM    8  C   UNL     1      -3.409   4.652 -33.548  1.00  0.00     0.002 A 
HETATM    9  C   UNL     1      -3.123   3.476 -32.853  1.00  0.00     0.002 A 
HETATM   10  C   UNL     1      -4.133   2.572 -32.506  1.00  0.00     0.033 A 
HETATM   11  N   UNL     1      -8.942   2.725 -33.294  1.00  0.00    -0.033 NA
HETATM   12  C   UNL     1      -9.292   1.629 -32.727  1.00  0.00     0.193 A 
HETATM   13  N   UNL     1      -8.410   0.729 -32.117  1.00  0.00    -0.339 N 
HETATM   14  H   UNL     1      -8.736  -0.168 -31.793  1.00  0.00     0.164 HD
ENDROOT
BRANCH   1  15
HETATM   15  C   UNL     1      -6.281  -0.143 -32.801  1.00  0.00    -0.014 A 
HETATM   16  C   UNL     1      -5.177  -0.774 -32.195  1.00  0.00     0.033 A 
HETATM   17  C   UNL     1      -4.554  -1.865 -32.810  1.00  0.00     0.044 A 
HETATM   18  C   UNL     1      -5.031  -2.347 -34.031  1.00  0.00     0.085 A 
HETATM   19 BR   UNL     1      -3.080  -2.670 -31.932  1.00  0.00    -0.048 Br
HETATM   20  C   UNL     1      -6.098  -1.705 -34.660  1.00  0.00     0.039 A 
HETATM   21  C   UNL     1      -6.720  -0.611 -34.051  1.00  0.00     0.014 A 
BRANCH  18  22
HETATM   22  O   UNL     1      -4.400  -3.401 -34.637  1.00  0.00    -0.355 OA
HETATM   23  C   UNL     1      -5.205  -4.580 -34.635  1.00  0.00     0.210 C 
ENDBRANCH  18  22
ENDBRANCH   1  15
BRANCH  12  24
HETATM   24  N   UNL     1     -10.573   1.211 -32.674  1.00  0.00    -0.272 NA
HETATM   25  H   UNL     1     -10.808   0.652 -33.492  1.00  0.00     0.127 HD
HETATM   26  H   UNL     1     -11.276   1.919 -32.508  1.00  0.00     0.127 HD
ENDBRANCH  12  24
TORSDOF 3
ENDMDL
MODEL 4
REMARK VINA RESULT:      -7.5      3.820      6.183
REMARK  3 active torsions:
REMARK  status: ('A' for Active; 'I' for Inactive)
REMARK    1  A    between atoms: O_2  and  C_3 
REMARK    2  A    between atoms: C_7  and  C_8 
REMARK    3  A    between atoms: C_19  and  N_20 
ROOT
HETATM    1  C   UNL     1      -4.326   0.638 -31.226  1.00  0.00     0.244 A 
HETATM    2  N   UNL     1      -4.872   0.043 -32.423  1.00  0.00    -0.151 N 
HETATM    3  C   UNL     1      -4.161  -0.897 -33.125  1.00  0.00     0.734 A 
HETATM    4  N   UNL     1      -4.862  -1.291 -34.165  1.00  0.00    -0.060 NA
HETATM    5  C   UNL     1      -6.050  -0.606 -34.117  1.00  0.00     0.103 A 
HETATM    6  C   UNL     1      -6.094   0.235 -33.009  1.00  0.00     0.083 A 
HETATM    7  C   UNL     1      -7.146  -0.654 -34.989  1.00  0.00     0.034 A 
HETATM    8  C   UNL     1      -8.260   0.146 -34.714  1.00  0.00     0.002 A 
HETATM    9  C   UNL     1      -8.284   0.976 -33.592  1.00  0.00     0.002 A 
HETATM   10  C   UNL     1      -7.200   1.039 -32.710  1.00  0.00     0.033 A 
HETATM   11  N   UNL     1      -2.929  -1.313 -32.753  1.00  0.00    -0.033 NA
HETATM   12  C   UNL     1      -2.403  -0.831 -31.686  1.00  0.00     0.193 A 
HETATM   13  N   UNL     1      -3.008   0.122 -30.859  1.00  0.00    -0.339 N 
HETATM   14  H   UNL     1      -2.493   0.543 -30.101  1.00  0.00     0.164 HD
ENDROOT
BRANCH   1  15
HETATM   15  C   UNL     1      -4.201   2.146 -31.348  1.00  0.00    -0.014 A 
HETATM   16  C   UNL     1      -3.331   2.729 -32.290  1.00  0.00     0.033 A 
HETATM   17  C   UNL     1      -3.239   4.120 -32.408  1.00  0.00     0.044 A 
HETATM   18  C   UNL     1      -4.021   4.946 -31.598  1.00  0.00     0.085 A 
HETATM   19 BR   UNL     1      -2.054   4.835 -33.704  1.00  0.00    -0.048 Br
HETATM   20  C   UNL     1      -4.856   4.380 -30.633  1.00  0.00     0.039 A 
HETATM   21  C   UNL     1      -4.947   2.991 -30.508  1.00  0.00     0.014 A 
BRANCH  18  22
HETATM   22  O   UNL     1      -3.906   6.306 -31.705  1.00  0.00    -0.355 OA
HETATM   23  C   UNL     1      -3.200   6.873 -30.601  1.00  0.00     0.210 C 
ENDBRANCH  18  22
ENDBRANCH   1  15
BRANCH  12  24
HETATM   24  N   UNL     1      -1.178  -1.189 -31.251  1.00  0.00    -0.272 NA
HETATM   25  H   UNL     1      -0.700  -0.399 -30.820  1.00  0.00     0.127 HD
HETATM   26  H   UNL     1      -0.576  -1.655 -31.917  1.00  0.00     0.127 HD
ENDBRANCH  12  24
TORSDOF 3
ENDMDL
MODEL 5
REMARK VINA RESULT:      -7.3     15.738     16.721
REMARK  3 active torsions:
REMARK  status: ('A' for Active; 'I' for Inactive)
REMARK    1  A    between atoms: O_2  and  C_3 
REMARK    2  A    between atoms: C_7  and  C_8 
REMARK    3  A    between atoms: C_19  and  N_20 
ROOT
HETATM    1  C   UNL     1      -4.222 -12.858 -36.587  1.00  0.00     0.244 A 
HETATM    2  N   UNL     1      -5.460 -13.235 -37.228  1.00  0.00    -0.151 N 
HETATM    3  C   UNL     1      -6.389 -13.994 -36.564  1.00  0.00     0.734 A 
HETATM    4  N   UNL     1      -7.426 -14.203 -37.347  1.00  0.00    -0.060 NA
HETATM    5  C   UNL     1      -7.163 -13.547 -38.524  1.00  0.00     0.103 A 
HETATM    6  C   UNL     1      -5.929 -12.906 -38.472  1.00  0.00     0.083 A 
HETATM    7  C   UNL     1      -7.940 -13.454 -39.687  1.00  0.00     0.034 A 
HETATM    8  C   UNL     1      -7.449 -12.710 -40.765  1.00  0.00     0.002 A 
HETATM    9  C   UNL     1      -6.212 -12.069 -40.686  1.00  0.00     0.002 A 
HETATM   10  C   UNL     1      -5.422 -12.150 -39.535  1.00  0.00     0.033 A 
HETATM   11  N   UNL     1      -6.208 -14.434 -35.299  1.00  0.00    -0.033 NA
HETATM   12  C   UNL     1      -5.134 -14.112 -34.674  1.00  0.00     0.193 A 
HETATM   13  N   UNL     1      -4.102 -13.334 -35.210  1.00  0.00    -0.339 N 
HETATM   14  H   UNL     1      -3.236 -13.215 -34.708  1.00  0.00     0.164 HD
ENDROOT
BRANCH   1  15
HETATM   15  C   UNL     1      -3.011 -13.368 -37.348  1.00  0.00    -0.014 A 
HETATM   16  C   UNL     1      -2.723 -14.745 -37.416  1.00  0.00     0.033 A 
HETATM   17  C   UNL     1      -1.616 -15.206 -38.137  1.00  0.00     0.044 A 
HETATM   18  C   UNL     1      -0.790 -14.301 -38.807  1.00  0.00     0.085 A 
HETATM   19 BR   UNL     1      -1.295 -17.073 -38.193  1.00  0.00    -0.048 Br
HETATM   20  C   UNL     1      -1.042 -12.932 -38.712  1.00  0.00     0.039 A 
HETATM   21  C   UNL     1      -2.144 -12.467 -37.989  1.00  0.00     0.014 A 
BRANCH  18  22
HETATM   22  O   UNL     1       0.305 -14.760 -39.490  1.00  0.00    -0.355 OA
HETATM   23  C   UNL     1       1.511 -14.588 -38.745  1.00  0.00     0.210 C 
ENDBRANCH  18  22
ENDBRANCH   1  15
BRANCH  12  24
HETATM   24  N   UNL     1      -4.875 -14.514 -33.413  1.00  0.00    -0.272 NA
HETATM   25  H   UNL     1      -5.693 -14.953 -32.995  1.00  0.00     0.127 HD
HETATM   26  H   UNL     1      -4.477 -13.825 -32.788  1.00  0.00     0.127 HD
ENDBRANCH  12  24
TORSDOF 3
ENDMDL
MODEL 6
REMARK VINA RESULT:      -7.3      3.840      6.164
REMARK  3 active torsions:
REMARK  status: ('A' for Active; 'I' for Inactive)
REMARK    1  A    between atoms: O_2  and  C_3 
REMARK    2  A    between atoms: C_7  and  C_8 
REMARK    3  A    between atoms: C_19  and  N_20 
ROOT
HETATM    1  C   UNL     1      -4.331   1.136 -31.413  1.00  0.00     0.244 A 
HETATM    2  N   UNL     1      -5.012   0.529 -32.533  1.00  0.00    -0.151 N 
HETATM    3  C   UNL     1      -4.481  -0.566 -33.165  1.00  0.00     0.734 A 
HETATM    4  N   UNL     1      -5.278  -0.937 -34.144  1.00  0.00    -0.060 NA
HETATM    5  C   UNL     1      -6.347  -0.075 -34.124  1.00  0.00     0.103 A 
HETATM    6  C   UNL     1      -6.215   0.855 -33.098  1.00  0.00     0.083 A 
HETATM    7  C   UNL     1      -7.474  -0.031 -34.955  1.00  0.00     0.034 A 
HETATM    8  C   UNL     1      -8.442   0.952 -34.724  1.00  0.00     0.002 A 
HETATM    9  C   UNL     1      -8.292   1.871 -33.684  1.00  0.00     0.002 A 
HETATM   10  C   UNL     1      -7.174   1.843 -32.843  1.00  0.00     0.033 A 
HETATM   11  N   UNL     1      -3.311  -1.132 -32.792  1.00  0.00    -0.033 NA
HETATM   12  C   UNL     1      -2.674  -0.646 -31.791  1.00  0.00     0.193 A 
HETATM   13  N   UNL     1      -3.092   0.457 -31.038  1.00  0.00    -0.339 N 
HETATM   14  H   UNL     1      -2.488   0.858 -30.338  1.00  0.00     0.164 HD
ENDROOT
BRANCH   1  15
HETATM   15  C   UNL     1      -3.986   2.590 -31.679  1.00  0.00    -0.014 A 
HETATM   16  C   UNL     1      -4.573   3.626 -30.926  1.00  0.00     0.033 A 
HETATM   17  C   UNL     1      -4.233   4.961 -31.166  1.00  0.00     0.044 A 
HETATM   18  C   UNL     1      -3.295   5.280 -32.150  1.00  0.00     0.085 A 
HETATM   19 BR   UNL     1      -5.056   6.301 -30.107  1.00  0.00    -0.048 Br
HETATM   20  C   UNL     1      -2.738   4.265 -32.930  1.00  0.00     0.039 A 
HETATM   21  C   UNL     1      -3.079   2.930 -32.697  1.00  0.00     0.014 A 
BRANCH  18  22
HETATM   22  O   UNL     1      -2.986   6.591 -32.393  1.00  0.00    -0.355 OA
HETATM   23  C   UNL     1      -2.336   6.764 -33.653  1.00  0.00     0.210 C 
ENDBRANCH  18  22
ENDBRANCH   1  15
BRANCH  12  24
HETATM   24  N   UNL     1      -1.499  -1.149 -31.360  1.00  0.00    -0.272 NA
HETATM   25  H   UNL     1      -1.022  -1.652 -32.106  1.00  0.00     0.127 HD
HETATM   26  H   UNL     1      -1.523  -1.700 -30.512  1.00  0.00     0.127 HD
ENDBRANCH  12  24
TORSDOF 3
ENDMDL
MODEL 7
REMARK VINA RESULT:      -7.1      4.009      5.712
REMARK  3 active torsions:
REMARK  status: ('A' for Active; 'I' for Inactive)
REMARK    1  A    between atoms: O_2  and  C_3 
REMARK    2  A    between atoms: C_7  and  C_8 
REMARK    3  A    between atoms: C_19  and  N_20 
ROOT
HETATM    1  C   UNL     1      -6.591   0.273 -34.590  1.00  0.00     0.244 A 
HETATM    2  N   UNL     1      -5.637   0.511 -33.532  1.00  0.00    -0.151 N 
HETATM    3  C   UNL     1      -4.872  -0.513 -33.035  1.00  0.00     0.734 A 
HETATM    4  N   UNL     1      -4.082  -0.052 -32.090  1.00  0.00    -0.060 NA
HETATM    5  C   UNL     1      -4.332   1.294 -31.995  1.00  0.00     0.103 A 
HETATM    6  C   UNL     1      -5.301   1.686 -32.914  1.00  0.00     0.083 A 
HETATM    7  C   UNL     1      -3.761   2.251 -31.145  1.00  0.00     0.034 A 
HETATM    8  C   UNL     1      -4.184   3.580 -31.249  1.00  0.00     0.002 A 
HETATM    9  C   UNL     1      -5.152   3.951 -32.183  1.00  0.00     0.002 A 
HETATM   10  C   UNL     1      -5.734   3.011 -33.041  1.00  0.00     0.033 A 
HETATM   11  N   UNL     1      -4.965  -1.784 -33.488  1.00  0.00    -0.033 NA
HETATM   12  C   UNL     1      -5.783  -2.049 -34.441  1.00  0.00     0.193 A 
HETATM   13  N   UNL     1      -6.618  -1.111 -35.059  1.00  0.00    -0.339 N 
HETATM   14  H   UNL     1      -7.319  -1.407 -35.720  1.00  0.00     0.164 HD
ENDROOT
BRANCH   1  15
HETATM   15  C   UNL     1      -8.005   0.635 -34.170  1.00  0.00    -0.014 A 
HETATM   16  C   UNL     1      -8.621   1.814 -34.632  1.00  0.00     0.033 A 
HETATM   17  C   UNL     1      -9.931   2.127 -34.256  1.00  0.00     0.044 A 
HETATM   18  C   UNL     1     -10.646   1.264 -33.424  1.00  0.00     0.085 A 
HETATM   19 BR   UNL     1     -10.699   3.726 -34.924  1.00  0.00    -0.048 Br
HETATM   20  C   UNL     1     -10.032   0.114 -32.926  1.00  0.00     0.039 A 
HETATM   21  C   UNL     1      -8.721  -0.200 -33.296  1.00  0.00     0.014 A 
BRANCH  18  22
HETATM   22  O   UNL     1     -11.920   1.591 -33.041  1.00  0.00    -0.355 OA
HETATM   23  C   UNL     1     -12.899   0.774 -33.683  1.00  0.00     0.210 C 
ENDBRANCH  18  22
ENDBRANCH   1  15
BRANCH  12  24
HETATM   24  N   UNL     1      -5.939  -3.289 -34.945  1.00  0.00    -0.272 NA
HETATM   25  H   UNL     1      -6.727  -3.764 -34.507  1.00  0.00     0.127 HD
HETATM   26  H   UNL     1      -5.120  -3.884 -34.953  1.00  0.00     0.127 HD
ENDBRANCH  12  24
TORSDOF 3
ENDMDL
MODEL 8
REMARK VINA RESULT:      -7.0     15.634     17.023
REMARK  3 active torsions:
REMARK  status: ('A' for Active; 'I' for Inactive)
REMARK    1  A    between atoms: O_2  and  C_3 
REMARK    2  A    between atoms: C_7  and  C_8 
REMARK    3  A    between atoms: C_19  and  N_20 
ROOT
HETATM    1  C   UNL     1      -4.633 -12.475 -38.681  1.00  0.00     0.244 A 
HETATM    2  N   UNL     1      -3.722 -13.151 -39.574  1.00  0.00    -0.151 N 
HETATM    3  C   UNL     1      -4.090 -13.443 -40.863  1.00  0.00     0.734 A 
HETATM    4  N   UNL     1      -3.098 -14.051 -41.476  1.00  0.00    -0.060 NA
HETATM    5  C   UNL     1      -2.071 -14.132 -40.570  1.00  0.00     0.103 A 
HETATM    6  C   UNL     1      -2.430 -13.550 -39.358  1.00  0.00     0.083 A 
HETATM    7  C   UNL     1      -0.793 -14.689 -40.715  1.00  0.00     0.034 A 
HETATM    8  C   UNL     1       0.089 -14.639 -39.631  1.00  0.00     0.002 A 
HETATM    9  C   UNL     1      -0.291 -14.043 -38.427  1.00  0.00     0.002 A 
HETATM   10  C   UNL     1      -1.562 -13.482 -38.262  1.00  0.00     0.033 A 
HETATM   11  N   UNL     1      -5.305 -13.128 -41.367  1.00  0.00    -0.033 NA
HETATM   12  C   UNL     1      -6.148 -12.509 -40.624  1.00  0.00     0.193 A 
HETATM   13  N   UNL     1      -5.915 -12.132 -39.296  1.00  0.00    -0.339 N 
HETATM   14  H   UNL     1      -6.660 -11.751 -38.733  1.00  0.00     0.164 HD
ENDROOT
BRANCH   1  15
HETATM   15  C   UNL     1      -4.934 -13.302 -37.444  1.00  0.00    -0.014 A 
HETATM   16  C   UNL     1      -5.807 -14.406 -37.502  1.00  0.00     0.033 A 
HETATM   17  C   UNL     1      -6.061 -15.173 -36.361  1.00  0.00     0.044 A 
HETATM   18  C   UNL     1      -5.440 -14.857 -35.151  1.00  0.00     0.085 A 
HETATM   19 BR   UNL     1      -7.240 -16.650 -36.516  1.00  0.00    -0.048 Br
HETATM   20  C   UNL     1      -4.605 -13.741 -35.072  1.00  0.00     0.039 A 
HETATM   21  C   UNL     1      -4.353 -12.969 -36.209  1.00  0.00     0.014 A 
BRANCH  18  22
HETATM   22  O   UNL     1      -5.714 -15.600 -34.034  1.00  0.00    -0.355 OA
HETATM   23  C   UNL     1      -6.560 -14.901 -33.120  1.00  0.00     0.210 C 
ENDBRANCH  18  22
ENDBRANCH   1  15
BRANCH  12  24
HETATM   24  N   UNL     1      -7.380 -12.164 -41.048  1.00  0.00    -0.272 NA
HETATM   25  H   UNL     1      -7.864 -11.606 -40.348  1.00  0.00     0.127 HD
HETATM   26  H   UNL     1      -7.972 -12.913 -41.384  1.00  0.00     0.127 HD
ENDBRANCH  12  24
TORSDOF 3
ENDMDL
MODEL 9
REMARK VINA RESULT:      -6.9      3.457      5.765
REMARK  3 active torsions:
REMARK  status: ('A' for Active; 'I' for Inactive)
REMARK    1  A    between atoms: O_2  and  C_3 
REMARK    2  A    between atoms: C_7  and  C_8 
REMARK    3  A    between atoms: C_19  and  N_20 
ROOT
HETATM    1  C   UNL     1      -5.008   3.763 -33.706  1.00  0.00     0.244 A 
HETATM    2  N   UNL     1      -5.605   2.624 -33.046  1.00  0.00    -0.151 N 
HETATM    3  C   UNL     1      -6.954   2.585 -32.802  1.00  0.00     0.734 A 
HETATM    4  N   UNL     1      -7.257   1.455 -32.200  1.00  0.00    -0.060 NA
HETATM    5  C   UNL     1      -6.085   0.752 -32.076  1.00  0.00     0.103 A 
HETATM    6  C   UNL     1      -5.020   1.461 -32.623  1.00  0.00     0.083 A 
HETATM    7  C   UNL     1      -5.855  -0.507 -31.506  1.00  0.00     0.034 A 
HETATM    8  C   UNL     1      -4.553  -1.018 -31.509  1.00  0.00     0.002 A 
HETATM    9  C   UNL     1      -3.501  -0.292 -32.071  1.00  0.00     0.002 A 
HETATM   10  C   UNL     1      -3.710   0.967 -32.644  1.00  0.00     0.033 A 
HETATM   11  N   UNL     1      -7.791   3.587 -33.150  1.00  0.00    -0.033 NA
HETATM   12  C   UNL     1      -7.318   4.614 -33.756  1.00  0.00     0.193 A 
HETATM   13  N   UNL     1      -5.970   4.795 -34.087  1.00  0.00    -0.339 N 
HETATM   14  H   UNL     1      -5.648   5.675 -34.459  1.00  0.00     0.164 HD
ENDROOT
BRANCH   1  15
HETATM   15  C   UNL     1      -3.950   4.428 -32.843  1.00  0.00    -0.014 A 
HETATM   16  C   UNL     1      -4.309   5.223 -31.738  1.00  0.00     0.033 A 
HETATM   17  C   UNL     1      -3.326   5.814 -30.937  1.00  0.00     0.044 A 
HETATM   18  C   UNL     1      -1.974   5.613 -31.223  1.00  0.00     0.085 A 
HETATM   19 BR   UNL     1      -3.882   6.863 -29.459  1.00  0.00    -0.048 Br
HETATM   20  C   UNL     1      -1.607   4.861 -32.341  1.00  0.00     0.039 A 
HETATM   21  C   UNL     1      -2.587   4.272 -33.146  1.00  0.00     0.014 A 
BRANCH  18  22
HETATM   22  O   UNL     1      -1.020   6.215 -30.449  1.00  0.00    -0.355 OA
HETATM   23  C   UNL     1       0.041   5.320 -30.112  1.00  0.00     0.210 C 
ENDBRANCH  18  22
ENDBRANCH   1  15
BRANCH  12  24
HETATM   24  N   UNL     1      -8.085   5.658 -34.131  1.00  0.00    -0.272 NA
HETATM   25  H   UNL     1      -8.666   5.415 -34.931  1.00  0.00     0.127 HD
HETATM   26  H   UNL     1      -7.612   6.539 -34.284  1.00  0.00     0.127 HD
ENDBRANCH  12  24
TORSDOF 3
ENDMDL
MODEL 10
REMARK VINA RESULT:      -6.8      3.430      5.445
REMARK  3 active torsions:
REMARK  status: ('A' for Active; 'I' for Inactive)
REMARK    1  A    between atoms: O_2  and  C_3 
REMARK    2  A    between atoms: C_7  and  C_8 
REMARK    3  A    between atoms: C_19  and  N_20 
ROOT
HETATM    1  C   UNL     1      -6.886   4.512 -33.847  1.00  0.00     0.244 A 
HETATM    2  N   UNL     1      -7.652   3.358 -33.438  1.00  0.00    -0.151 N 
HETATM    3  C   UNL     1      -8.788   3.503 -32.683  1.00  0.00     0.734 A 
HETATM    4  N   UNL     1      -9.309   2.320 -32.443  1.00  0.00    -0.060 NA
HETATM    5  C   UNL     1      -8.504   1.404 -33.073  1.00  0.00     0.103 A 
HETATM    6  C   UNL     1      -7.453   2.035 -33.731  1.00  0.00     0.083 A 
HETATM    7  C   UNL     1      -8.612   0.008 -33.127  1.00  0.00     0.034 A 
HETATM    8  C   UNL     1      -7.656  -0.713 -33.852  1.00  0.00     0.002 A 
HETATM    9  C   UNL     1      -6.615  -0.056 -34.511  1.00  0.00     0.002 A 
HETATM   10  C   UNL     1      -6.490   1.336 -34.468  1.00  0.00     0.033 A 
HETATM   11  N   UNL     1      -9.249   4.707 -32.277  1.00  0.00    -0.033 NA
HETATM   12  C   UNL     1      -8.618   5.768 -32.627  1.00  0.00     0.193 A 
HETATM   13  N   UNL     1      -7.455   5.784 -33.406  1.00  0.00    -0.339 N 
HETATM   14  H   UNL     1      -6.946   6.642 -33.548  1.00  0.00     0.164 HD
ENDROOT
BRANCH   1  15
HETATM   15  C   UNL     1      -5.458   4.455 -33.335  1.00  0.00    -0.014 A 
HETATM   16  C   UNL     1      -4.372   4.770 -34.173  1.00  0.00     0.033 A 
HETATM   17  C   UNL     1      -3.061   4.735 -33.685  1.00  0.00     0.044 A 
HETATM   18  C   UNL     1      -2.819   4.395 -32.353  1.00  0.00     0.085 A 
HETATM   19 BR   UNL     1      -1.650   5.181 -34.869  1.00  0.00    -0.048 Br
HETATM   20  C   UNL     1      -3.884   4.041 -31.523  1.00  0.00     0.039 A 
HETATM   21  C   UNL     1      -5.195   4.071 -32.009  1.00  0.00     0.014 A 
BRANCH  18  22
HETATM   22  O   UNL     1      -1.531   4.340 -31.890  1.00  0.00    -0.355 OA
HETATM   23  C   UNL     1      -1.310   5.248 -30.810  1.00  0.00     0.210 C 
ENDBRANCH  18  22
ENDBRANCH   1  15
BRANCH  12  24
HETATM   24  N   UNL     1      -9.009   7.005 -32.259  1.00  0.00    -0.272 NA
HETATM   25  H   UNL     1      -9.808   6.962 -31.629  1.00  0.00     0.127 HD
HETATM   26  H   UNL     1      -9.172   7.671 -33.003  1.00  0.00     0.127 HD
ENDBRANCH  12  24
TORSDOF 3
ENDMDL
