MODEL 1
REMARK VINA RESULT:      -9.8      0.000      0.000
REMARK  7 active torsions:
REMARK  status: ('A' for Active; 'I' for Inactive)
REMARK    1  A    between atoms: C_4  and  C_5 
REMARK    2  A    between atoms: C_5  and  N_6 
REMARK    3  A    between atoms: C_14  and  C_15 
REMARK    4  A    between atoms: C_18  and  O_19 
REMARK    5  A    between atoms: O_19  and  C_20 
REMARK    6  A    between atoms: C_20  and  C_21 
REMARK    7  A    between atoms: C_22  and  C_23 
ROOT
HETATM    1  N   UNL     1      -0.563   8.769 -27.995  1.00  0.00    -0.063 N 
HETATM    2  H   UNL     1      -1.066   7.961 -27.611  1.00  0.00     0.280 HD
HETATM    3  C   UNL     1      -1.492   9.344 -29.057  1.00  0.00     0.282 C 
HETATM    4  C   UNL     1      -1.646   8.372 -30.176  1.00  0.00     0.018 A 
HETATM    5  C   UNL     1      -0.810   7.294 -30.410  1.00  0.00    -0.023 A 
HETATM    6  C   UNL     1      -1.241   6.547 -31.554  1.00  0.00     0.073 A 
HETATM    7  C   UNL     1      -2.314   7.140 -32.174  1.00  0.00     0.088 A 
HETATM    8  N   UNL     1      -2.867   6.672 -33.309  1.00  0.00    -0.358 N 
HETATM    9  C   UNL     1      -2.572   5.325 -33.758  1.00  0.00     0.219 C 
HETATM   10  N   UNL     1      -1.339   4.830 -33.204  1.00  0.00    -0.332 N 
HETATM   11  C   UNL     1      -0.697   5.321 -32.105  1.00  0.00     0.256 C 
HETATM   12  O   UNL     1       0.272   4.753 -31.614  1.00  0.00    -0.267 OA
HETATM   13  S   UNL     1      -2.867   8.522 -31.351  1.00  0.00    -0.074 SA
HETATM   14  C   UNL     1       0.362   6.999 -29.520  1.00  0.00     0.068 C 
HETATM   15  C   UNL     1       0.705   8.206 -28.625  1.00  0.00     0.240 C 
HETATM   16  H   UNL     1      -3.770   7.027 -33.608  1.00  0.00     0.162 HD
HETATM   17  H   UNL     1      -0.992   3.945 -33.544  1.00  0.00     0.165 HD
ENDROOT
BRANCH   9  18
HETATM   18  C   UNL     1      -3.757   4.421 -33.475  1.00  0.00    -0.016 A 
HETATM   19  C   UNL     1      -3.577   3.263 -32.696  1.00  0.00     0.014 A 
HETATM   20  C   UNL     1      -4.626   2.362 -32.505  1.00  0.00     0.038 A 
HETATM   21  C   UNL     1      -5.867   2.613 -33.088  1.00  0.00     0.079 A 
HETATM   22  C   UNL     1      -6.073   3.755 -33.856  1.00  0.00     0.038 A 
HETATM   23  C   UNL     1      -5.023   4.658 -34.041  1.00  0.00     0.014 A 
BRANCH  21  24
HETATM   24  O   UNL     1      -6.819   1.580 -32.970  1.00  0.00    -0.276 OA
BRANCH  24  25
HETATM   25  C   UNL     1      -7.180   0.783 -34.046  1.00  0.00     0.288 C 
HETATM   26  O   UNL     1      -8.005   1.042 -34.909  1.00  0.00    -0.260 OA
BRANCH  25  27
HETATM   27  C   UNL     1      -6.379  -0.460 -34.064  1.00  0.00     0.085 C 
HETATM   28  C   UNL     1      -6.747  -1.581 -34.704  1.00  0.00     0.043 C 
BRANCH  28  29
HETATM   29  C   UNL     1      -5.964  -2.764 -34.614  1.00  0.00     0.075 A 
HETATM   30  O   UNL     1      -4.644  -2.791 -34.219  1.00  0.00    -0.323 OA
HETATM   31  C   UNL     1      -4.223  -4.079 -34.221  1.00  0.00     0.142 A 
HETATM   32  C   UNL     1      -5.237  -4.914 -34.613  1.00  0.00     0.027 A 
HETATM   33  C   UNL     1      -6.348  -4.076 -34.867  1.00  0.00     0.039 A 
ENDBRANCH  28  29
ENDBRANCH  25  27
ENDBRANCH  24  25
ENDBRANCH  21  24
ENDBRANCH   9  18
BRANCH   1  34
HETATM   34  C   UNL     1      -0.329   9.690 -26.824  1.00  0.00     0.273 C 
BRANCH  34  35
HETATM   35  C   UNL     1      -1.105   9.375 -25.575  1.00  0.00    -0.033 A 
HETATM   36  C   UNL     1      -2.190   8.481 -25.624  1.00  0.00     0.009 A 
HETATM   37  C   UNL     1      -2.934   8.207 -24.476  1.00  0.00     0.001 A 
HETATM   38  C   UNL     1      -2.603   8.815 -23.268  1.00  0.00     0.000 A 
HETATM   39  C   UNL     1      -1.524   9.693 -23.203  1.00  0.00     0.001 A 
HETATM   40  C   UNL     1      -0.775   9.971 -24.349  1.00  0.00     0.009 A 
ENDBRANCH  34  35
ENDBRANCH   1  34
TORSDOF 7
ENDMDL
MODEL 2
REMARK VINA RESULT:      -9.7      3.100     11.774
REMARK  7 active torsions:
REMARK  status: ('A' for Active; 'I' for Inactive)
REMARK    1  A    between atoms: C_4  and  C_5 
REMARK    2  A    between atoms: C_5  and  N_6 
REMARK    3  A    between atoms: C_14  and  C_15 
REMARK    4  A    between atoms: C_18  and  O_19 
REMARK    5  A    between atoms: O_19  and  C_20 
REMARK    6  A    between atoms: C_20  and  C_21 
REMARK    7  A    between atoms: C_22  and  C_23 
ROOT
HETATM    1  N   UNL     1      -6.817  -0.142 -33.930  1.00  0.00    -0.063 N 
HETATM    2  H   UNL     1      -5.866  -0.278 -33.571  1.00  0.00     0.280 HD
HETATM    3  C   UNL     1      -6.775   1.187 -34.674  1.00  0.00     0.282 C 
HETATM    4  C   UNL     1      -6.524   2.297 -33.711  1.00  0.00     0.018 A 
HETATM    5  C   UNL     1      -6.675   2.206 -32.339  1.00  0.00    -0.023 A 
HETATM    6  C   UNL     1      -6.340   3.444 -31.701  1.00  0.00     0.073 A 
HETATM    7  C   UNL     1      -6.044   4.424 -32.616  1.00  0.00     0.088 A 
HETATM    8  N   UNL     1      -5.759   5.696 -32.276  1.00  0.00    -0.358 N 
HETATM    9  C   UNL     1      -5.424   6.023 -30.904  1.00  0.00     0.219 C 
HETATM   10  N   UNL     1      -5.919   5.037 -29.979  1.00  0.00    -0.332 N 
HETATM   11  C   UNL     1      -6.297   3.762 -30.287  1.00  0.00     0.256 C 
HETATM   12  O   UNL     1      -6.572   2.941 -29.419  1.00  0.00    -0.267 OA
HETATM   13  S   UNL     1      -6.069   3.856 -34.219  1.00  0.00    -0.074 SA
HETATM   14  C   UNL     1      -7.114   0.932 -31.678  1.00  0.00     0.068 C 
HETATM   15  C   UNL     1      -7.714  -0.054 -32.700  1.00  0.00     0.240 C 
HETATM   16  H   UNL     1      -5.355   6.320 -32.968  1.00  0.00     0.162 HD
HETATM   17  H   UNL     1      -5.833   5.232 -28.992  1.00  0.00     0.165 HD
ENDROOT
BRANCH   9  18
HETATM   18  C   UNL     1      -3.929   6.252 -30.784  1.00  0.00    -0.016 A 
HETATM   19  C   UNL     1      -3.035   5.277 -31.262  1.00  0.00     0.014 A 
HETATM   20  C   UNL     1      -1.659   5.416 -31.073  1.00  0.00     0.038 A 
HETATM   21  C   UNL     1      -1.163   6.535 -30.407  1.00  0.00     0.079 A 
HETATM   22  C   UNL     1      -2.026   7.519 -29.932  1.00  0.00     0.038 A 
HETATM   23  C   UNL     1      -3.402   7.380 -30.128  1.00  0.00     0.014 A 
BRANCH  21  24
HETATM   24  O   UNL     1       0.218   6.520 -30.129  1.00  0.00    -0.276 OA
BRANCH  24  25
HETATM   25  C   UNL     1       0.751   5.786 -29.079  1.00  0.00     0.288 C 
HETATM   26  O   UNL     1       1.116   4.620 -29.107  1.00  0.00    -0.260 OA
BRANCH  25  27
HETATM   27  C   UNL     1       0.882   6.628 -27.870  1.00  0.00     0.085 C 
HETATM   28  C   UNL     1       1.216   7.927 -27.891  1.00  0.00     0.043 C 
BRANCH  28  29
HETATM   29  C   UNL     1       1.400   8.654 -26.684  1.00  0.00     0.075 A 
HETATM   30  O   UNL     1       2.298   8.306 -25.699  1.00  0.00    -0.323 OA
HETATM   31  C   UNL     1       2.228   9.230 -24.710  1.00  0.00     0.142 A 
HETATM   32  C   UNL     1       1.296  10.187 -25.014  1.00  0.00     0.027 A 
HETATM   33  C   UNL     1       0.764   9.820 -26.273  1.00  0.00     0.039 A 
ENDBRANCH  28  29
ENDBRANCH  25  27
ENDBRANCH  24  25
ENDBRANCH  21  24
ENDBRANCH   9  18
BRANCH   1  34
HETATM   34  C   UNL     1      -7.084  -1.331 -34.819  1.00  0.00     0.273 C 
BRANCH  34  35
HETATM   35  C   UNL     1      -6.189  -2.522 -34.610  1.00  0.00    -0.033 A 
HETATM   36  C   UNL     1      -4.911  -2.355 -34.049  1.00  0.00     0.009 A 
HETATM   37  C   UNL     1      -4.063  -3.449 -33.880  1.00  0.00     0.001 A 
HETATM   38  C   UNL     1      -4.480  -4.721 -34.263  1.00  0.00     0.000 A 
HETATM   39  C   UNL     1      -5.748  -4.903 -34.808  1.00  0.00     0.001 A 
HETATM   40  C   UNL     1      -6.602  -3.811 -34.979  1.00  0.00     0.009 A 
ENDBRANCH  34  35
ENDBRANCH   1  34
TORSDOF 7
ENDMDL
MODEL 3
REMARK VINA RESULT:      -9.6      1.382      2.087
REMARK  7 active torsions:
REMARK  status: ('A' for Active; 'I' for Inactive)
REMARK    1  A    between atoms: C_4  and  C_5 
REMARK    2  A    between atoms: C_5  and  N_6 
REMARK    3  A    between atoms: C_14  and  C_15 
REMARK    4  A    between atoms: C_18  and  O_19 
REMARK    5  A    between atoms: O_19  and  C_20 
REMARK    6  A    between atoms: C_20  and  C_21 
REMARK    7  A    between atoms: C_22  and  C_23 
ROOT
HETATM    1  N   UNL     1      -0.692   8.916 -27.595  1.00  0.00    -0.063 N 
HETATM    2  H   UNL     1      -1.082   8.056 -27.194  1.00  0.00     0.280 HD
HETATM    3  C   UNL     1      -1.701   9.356 -28.648  1.00  0.00     0.282 C 
HETATM    4  C   UNL     1      -1.745   8.358 -29.755  1.00  0.00     0.018 A 
HETATM    5  C   UNL     1      -0.782   7.392 -29.990  1.00  0.00    -0.023 A 
HETATM    6  C   UNL     1      -1.130   6.583 -31.119  1.00  0.00     0.073 A 
HETATM    7  C   UNL     1      -2.277   7.027 -31.730  1.00  0.00     0.088 A 
HETATM    8  N   UNL     1      -2.782   6.478 -32.851  1.00  0.00    -0.358 N 
HETATM    9  C   UNL     1      -2.324   5.174 -33.291  1.00  0.00     0.219 C 
HETATM   10  N   UNL     1      -1.031   4.847 -32.750  1.00  0.00    -0.332 N 
HETATM   11  C   UNL     1      -0.442   5.429 -31.665  1.00  0.00     0.256 C 
HETATM   12  O   UNL     1       0.598   4.994 -31.183  1.00  0.00    -0.267 OA
HETATM   13  S   UNL     1      -2.991   8.338 -30.914  1.00  0.00    -0.074 SA
HETATM   14  C   UNL     1       0.430   7.259 -29.115  1.00  0.00     0.068 C 
HETATM   15  C   UNL     1       0.629   8.510 -28.237  1.00  0.00     0.240 C 
HETATM   16  H   UNL     1      -3.727   6.712 -33.141  1.00  0.00     0.162 HD
HETATM   17  H   UNL     1      -0.579   4.009 -33.085  1.00  0.00     0.165 HD
ENDROOT
BRANCH   9  18
HETATM   18  C   UNL     1      -3.381   4.130 -32.980  1.00  0.00    -0.016 A 
HETATM   19  C   UNL     1      -4.662   4.248 -33.548  1.00  0.00     0.014 A 
HETATM   20  C   UNL     1      -5.682   3.359 -33.199  1.00  0.00     0.038 A 
HETATM   21  C   UNL     1      -5.426   2.342 -32.282  1.00  0.00     0.079 A 
HETATM   22  C   UNL     1      -4.164   2.199 -31.712  1.00  0.00     0.038 A 
HETATM   23  C   UNL     1      -3.145   3.086 -32.068  1.00  0.00     0.014 A 
BRANCH  21  24
HETATM   24  O   UNL     1      -6.547   1.589 -31.875  1.00  0.00    -0.276 OA
BRANCH  24  25
HETATM   25  C   UNL     1      -7.293   0.836 -32.769  1.00  0.00     0.288 C 
HETATM   26  O   UNL     1      -8.364   1.139 -33.272  1.00  0.00    -0.260 OA
BRANCH  25  27
HETATM   27  C   UNL     1      -6.590  -0.421 -33.104  1.00  0.00     0.085 C 
HETATM   28  C   UNL     1      -6.877  -1.182 -34.171  1.00  0.00     0.043 C 
BRANCH  28  29
HETATM   29  C   UNL     1      -6.211  -2.418 -34.388  1.00  0.00     0.075 A 
HETATM   30  O   UNL     1      -4.872  -2.630 -34.145  1.00  0.00    -0.323 OA
HETATM   31  C   UNL     1      -4.583  -3.922 -34.433  1.00  0.00     0.142 A 
HETATM   32  C   UNL     1      -5.705  -4.578 -34.869  1.00  0.00     0.027 A 
HETATM   33  C   UNL     1      -6.745  -3.619 -34.843  1.00  0.00     0.039 A 
ENDBRANCH  28  29
ENDBRANCH  25  27
ENDBRANCH  24  25
ENDBRANCH  21  24
ENDBRANCH   9  18
BRANCH   1  34
HETATM   34  C   UNL     1      -0.561   9.874 -26.437  1.00  0.00     0.273 C 
BRANCH  34  35
HETATM   35  C   UNL     1       0.719   9.785 -25.652  1.00  0.00    -0.033 A 
HETATM   36  C   UNL     1       1.311  10.950 -25.134  1.00  0.00     0.009 A 
HETATM   37  C   UNL     1       2.514  10.882 -24.431  1.00  0.00     0.001 A 
HETATM   38  C   UNL     1       3.137   9.652 -24.233  1.00  0.00     0.000 A 
HETATM   39  C   UNL     1       2.555   8.489 -24.730  1.00  0.00     0.001 A 
HETATM   40  C   UNL     1       1.350   8.552 -25.434  1.00  0.00     0.009 A 
ENDBRANCH  34  35
ENDBRANCH   1  34
TORSDOF 7
ENDMDL
MODEL 4
REMARK VINA RESULT:      -9.5      7.043     10.260
REMARK  7 active torsions:
REMARK  status: ('A' for Active; 'I' for Inactive)
REMARK    1  A    between atoms: C_4  and  C_5 
REMARK    2  A    between atoms: C_5  and  N_6 
REMARK    3  A    between atoms: C_14  and  C_15 
REMARK    4  A    between atoms: C_18  and  O_19 
REMARK    5  A    between atoms: O_19  and  C_20 
REMARK    6  A    between atoms: C_20  and  C_21 
REMARK    7  A    between atoms: C_22  and  C_23 
ROOT
HETATM    1  N   UNL     1     -12.282   6.731 -35.156  1.00  0.00    -0.063 N 
HETATM    2  H   UNL     1     -11.401   6.571 -35.658  1.00  0.00     0.280 HD
HETATM    3  C   UNL     1     -11.891   6.813 -33.686  1.00  0.00     0.282 C 
HETATM    4  C   UNL     1     -11.376   5.492 -33.225  1.00  0.00     0.018 A 
HETATM    5  C   UNL     1     -11.561   4.293 -33.889  1.00  0.00    -0.023 A 
HETATM    6  C   UNL     1     -10.927   3.215 -33.192  1.00  0.00     0.073 A 
HETATM    7  C   UNL     1     -10.378   3.631 -32.003  1.00  0.00     0.088 A 
HETATM    8  N   UNL     1      -9.781   2.797 -31.129  1.00  0.00    -0.358 N 
HETATM    9  C   UNL     1      -9.389   1.466 -31.548  1.00  0.00     0.219 C 
HETATM   10  N   UNL     1     -10.132   1.022 -32.699  1.00  0.00    -0.332 N 
HETATM   11  C   UNL     1     -10.820   1.818 -33.568  1.00  0.00     0.256 C 
HETATM   12  O   UNL     1     -11.307   1.377 -34.603  1.00  0.00    -0.267 OA
HETATM   13  S   UNL     1     -10.530   5.307 -31.760  1.00  0.00    -0.074 SA
HETATM   14  C   UNL     1     -12.320   4.218 -35.182  1.00  0.00     0.068 C 
HETATM   15  C   UNL     1     -13.140   5.500 -35.427  1.00  0.00     0.240 C 
HETATM   16  H   UNL     1      -9.222   3.182 -30.374  1.00  0.00     0.162 HD
HETATM   17  H   UNL     1     -10.009   0.066 -32.998  1.00  0.00     0.165 HD
ENDROOT
BRANCH   9  18
HETATM   18  C   UNL     1      -7.887   1.416 -31.755  1.00  0.00    -0.016 A 
HETATM   19  C   UNL     1      -7.365   1.397 -33.061  1.00  0.00     0.014 A 
HETATM   20  C   UNL     1      -5.994   1.249 -33.279  1.00  0.00     0.038 A 
HETATM   21  C   UNL     1      -5.131   1.124 -32.192  1.00  0.00     0.079 A 
HETATM   22  C   UNL     1      -5.621   1.149 -30.890  1.00  0.00     0.038 A 
HETATM   23  C   UNL     1      -6.993   1.303 -30.674  1.00  0.00     0.014 A 
BRANCH  21  24
HETATM   24  O   UNL     1      -3.789   0.828 -32.507  1.00  0.00    -0.276 OA
BRANCH  24  25
HETATM   25  C   UNL     1      -3.127  -0.261 -31.960  1.00  0.00     0.288 C 
HETATM   26  O   UNL     1      -2.240  -0.237 -31.120  1.00  0.00    -0.260 OA
BRANCH  25  27
HETATM   27  C   UNL     1      -3.673  -1.525 -32.498  1.00  0.00     0.085 C 
HETATM   28  C   UNL     1      -4.164  -1.665 -33.739  1.00  0.00     0.043 C 
BRANCH  28  29
HETATM   29  C   UNL     1      -4.744  -2.892 -34.161  1.00  0.00     0.075 A 
HETATM   30  O   UNL     1      -4.140  -4.122 -34.024  1.00  0.00    -0.323 OA
HETATM   31  C   UNL     1      -4.982  -5.069 -34.504  1.00  0.00     0.142 A 
HETATM   32  C   UNL     1      -6.137  -4.493 -34.964  1.00  0.00     0.027 A 
HETATM   33  C   UNL     1      -5.987  -3.103 -34.748  1.00  0.00     0.039 A 
ENDBRANCH  28  29
ENDBRANCH  25  27
ENDBRANCH  24  25
ENDBRANCH  21  24
ENDBRANCH   9  18
BRANCH   1  34
HETATM   34  C   UNL     1     -12.835   8.018 -35.714  1.00  0.00     0.273 C 
BRANCH  34  35
HETATM   35  C   UNL     1     -12.086   8.604 -36.880  1.00  0.00    -0.033 A 
HETATM   36  C   UNL     1     -12.779   8.999 -38.038  1.00  0.00     0.009 A 
HETATM   37  C   UNL     1     -12.090   9.515 -39.135  1.00  0.00     0.001 A 
HETATM   38  C   UNL     1     -10.704   9.648 -39.089  1.00  0.00     0.000 A 
HETATM   39  C   UNL     1     -10.007   9.272 -37.944  1.00  0.00     0.001 A 
HETATM   40  C   UNL     1     -10.692   8.755 -36.842  1.00  0.00     0.009 A 
ENDBRANCH  34  35
ENDBRANCH   1  34
TORSDOF 7
ENDMDL
MODEL 5
REMARK VINA RESULT:      -9.5      3.177      6.106
REMARK  7 active torsions:
REMARK  status: ('A' for Active; 'I' for Inactive)
REMARK    1  A    between atoms: C_4  and  C_5 
REMARK    2  A    between atoms: C_5  and  N_6 
REMARK    3  A    between atoms: C_14  and  C_15 
REMARK    4  A    between atoms: C_18  and  O_19 
REMARK    5  A    between atoms: O_19  and  C_20 
REMARK    6  A    between atoms: C_20  and  C_21 
REMARK    7  A    between atoms: C_22  and  C_23 
ROOT
HETATM    1  N   UNL     1      -4.744   6.527 -30.011  1.00  0.00    -0.063 N 
HETATM    2  H   UNL     1      -4.126   5.986 -30.626  1.00  0.00     0.280 HD
HETATM    3  C   UNL     1      -5.591   5.487 -29.288  1.00  0.00     0.282 C 
HETATM    4  C   UNL     1      -6.474   4.786 -30.264  1.00  0.00     0.018 A 
HETATM    5  C   UNL     1      -6.763   5.238 -31.539  1.00  0.00    -0.023 A 
HETATM    6  C   UNL     1      -7.628   4.326 -32.225  1.00  0.00     0.073 A 
HETATM    7  C   UNL     1      -8.018   3.288 -31.415  1.00  0.00     0.088 A 
HETATM    8  N   UNL     1      -8.883   2.330 -31.801  1.00  0.00    -0.358 N 
HETATM    9  C   UNL     1      -9.193   2.155 -33.206  1.00  0.00     0.219 C 
HETATM   10  N   UNL     1      -8.922   3.345 -33.970  1.00  0.00    -0.332 N 
HETATM   11  C   UNL     1      -8.119   4.380 -33.589  1.00  0.00     0.256 C 
HETATM   12  O   UNL     1      -7.827   5.290 -34.357  1.00  0.00    -0.267 OA
HETATM   13  S   UNL     1      -7.289   3.342 -29.880  1.00  0.00    -0.074 SA
HETATM   14  C   UNL     1      -6.185   6.518 -32.070  1.00  0.00     0.068 C 
HETATM   15  C   UNL     1      -5.600   7.384 -30.936  1.00  0.00     0.240 C 
HETATM   16  H   UNL     1      -8.979   1.488 -31.241  1.00  0.00     0.162 HD
HETATM   17  H   UNL     1      -9.209   3.359 -34.938  1.00  0.00     0.165 HD
ENDROOT
BRANCH   9  18
HETATM   18  C   UNL     1      -8.474   0.930 -33.740  1.00  0.00    -0.016 A 
HETATM   19  C   UNL     1      -8.477  -0.260 -32.989  1.00  0.00     0.014 A 
HETATM   20  C   UNL     1      -7.740  -1.369 -33.407  1.00  0.00     0.038 A 
HETATM   21  C   UNL     1      -6.996  -1.300 -34.583  1.00  0.00     0.079 A 
HETATM   22  C   UNL     1      -6.983  -0.137 -35.348  1.00  0.00     0.038 A 
HETATM   23  C   UNL     1      -7.726   0.969 -34.931  1.00  0.00     0.014 A 
BRANCH  21  24
HETATM   24  O   UNL     1      -6.165  -2.408 -34.848  1.00  0.00    -0.276 OA
BRANCH  24  25
HETATM   25  C   UNL     1      -4.890  -2.518 -34.315  1.00  0.00     0.288 C 
HETATM   26  O   UNL     1      -4.194  -3.522 -34.273  1.00  0.00    -0.260 OA
BRANCH  25  27
HETATM   27  C   UNL     1      -4.417  -1.207 -33.821  1.00  0.00     0.085 C 
HETATM   28  C   UNL     1      -4.534  -0.797 -32.549  1.00  0.00     0.043 C 
BRANCH  28  29
HETATM   29  C   UNL     1      -4.126   0.509 -32.162  1.00  0.00     0.075 A 
HETATM   30  O   UNL     1      -3.024   0.777 -31.382  1.00  0.00    -0.323 OA
HETATM   31  C   UNL     1      -2.918   2.120 -31.235  1.00  0.00     0.142 A 
HETATM   32  C   UNL     1      -3.935   2.755 -31.901  1.00  0.00     0.027 A 
HETATM   33  C   UNL     1      -4.708   1.728 -32.491  1.00  0.00     0.039 A 
ENDBRANCH  28  29
ENDBRANCH  25  27
ENDBRANCH  24  25
ENDBRANCH  21  24
ENDBRANCH   9  18
BRANCH   1  34
HETATM   34  C   UNL     1      -3.826   7.305 -29.103  1.00  0.00     0.273 C 
BRANCH  34  35
HETATM   35  C   UNL     1      -2.357   7.203 -29.409  1.00  0.00    -0.033 A 
HETATM   36  C   UNL     1      -1.415   7.809 -28.559  1.00  0.00     0.009 A 
HETATM   37  C   UNL     1      -0.053   7.745 -28.851  1.00  0.00     0.001 A 
HETATM   38  C   UNL     1       0.386   7.073 -29.988  1.00  0.00     0.000 A 
HETATM   39  C   UNL     1      -0.535   6.457 -30.832  1.00  0.00     0.001 A 
HETATM   40  C   UNL     1      -1.900   6.518 -30.544  1.00  0.00     0.009 A 
ENDBRANCH  34  35
ENDBRANCH   1  34
TORSDOF 7
ENDMDL
MODEL 6
REMARK VINA RESULT:      -9.2      6.032     11.180
REMARK  7 active torsions:
REMARK  status: ('A' for Active; 'I' for Inactive)
REMARK    1  A    between atoms: C_4  and  C_5 
REMARK    2  A    between atoms: C_5  and  N_6 
REMARK    3  A    between atoms: C_14  and  C_15 
REMARK    4  A    between atoms: C_18  and  O_19 
REMARK    5  A    between atoms: O_19  and  C_20 
REMARK    6  A    between atoms: C_20  and  C_21 
REMARK    7  A    between atoms: C_22  and  C_23 
ROOT
HETATM    1  N   UNL     1     -12.096   7.348 -35.511  1.00  0.00    -0.063 N 
HETATM    2  H   UNL     1     -11.290   7.056 -36.075  1.00  0.00     0.280 HD
HETATM    3  C   UNL     1     -11.693   7.065 -34.069  1.00  0.00     0.282 C 
HETATM    4  C   UNL     1     -11.545   5.596 -33.864  1.00  0.00     0.018 A 
HETATM    5  C   UNL     1     -12.043   4.622 -34.712  1.00  0.00    -0.023 A 
HETATM    6  C   UNL     1     -11.715   3.311 -34.239  1.00  0.00     0.073 A 
HETATM    7  C   UNL     1     -11.072   3.354 -33.026  1.00  0.00     0.088 A 
HETATM    8  N   UNL     1     -10.715   2.253 -32.336  1.00  0.00    -0.358 N 
HETATM    9  C   UNL     1     -10.691   0.961 -32.993  1.00  0.00     0.219 C 
HETATM   10  N   UNL     1     -11.527   0.936 -34.164  1.00  0.00    -0.332 N 
HETATM   11  C   UNL     1     -11.982   2.024 -34.851  1.00  0.00     0.256 C 
HETATM   12  O   UNL     1     -12.571   1.914 -35.921  1.00  0.00    -0.267 OA
HETATM   13  S   UNL     1     -10.774   4.942 -32.495  1.00  0.00    -0.074 SA
HETATM   14  C   UNL     1     -12.797   4.977 -35.960  1.00  0.00     0.068 C 
HETATM   15  C   UNL     1     -13.250   6.451 -35.944  1.00  0.00     0.240 C 
HETATM   16  H   UNL     1     -10.072   2.340 -31.554  1.00  0.00     0.162 HD
HETATM   17  H   UNL     1     -11.663   0.049 -34.627  1.00  0.00     0.165 HD
ENDROOT
BRANCH   9  18
HETATM   18  C   UNL     1      -9.256   0.560 -33.278  1.00  0.00    -0.016 A 
HETATM   19  C   UNL     1      -8.405   0.216 -32.212  1.00  0.00     0.014 A 
HETATM   20  C   UNL     1      -7.054  -0.058 -32.437  1.00  0.00     0.038 A 
HETATM   21  C   UNL     1      -6.544   0.004 -33.732  1.00  0.00     0.079 A 
HETATM   22  C   UNL     1      -7.366   0.333 -34.805  1.00  0.00     0.038 A 
HETATM   23  C   UNL     1      -8.718   0.602 -34.578  1.00  0.00     0.014 A 
BRANCH  21  24
HETATM   24  O   UNL     1      -5.146  -0.138 -33.846  1.00  0.00    -0.276 OA
BRANCH  24  25
HETATM   25  C   UNL     1      -4.325  -0.268 -32.737  1.00  0.00     0.288 C 
HETATM   26  O   UNL     1      -4.257  -1.225 -31.980  1.00  0.00    -0.260 OA
BRANCH  25  27
HETATM   27  C   UNL     1      -3.458   0.921 -32.588  1.00  0.00     0.085 C 
HETATM   28  C   UNL     1      -3.917   2.165 -32.387  1.00  0.00     0.043 C 
BRANCH  28  29
HETATM   29  C   UNL     1      -3.026   3.272 -32.331  1.00  0.00     0.075 A 
HETATM   30  O   UNL     1      -2.279   3.610 -31.224  1.00  0.00    -0.323 OA
HETATM   31  C   UNL     1      -1.526   4.694 -31.530  1.00  0.00     0.142 A 
HETATM   32  C   UNL     1      -1.759   5.090 -32.821  1.00  0.00     0.027 A 
HETATM   33  C   UNL     1      -2.719   4.185 -33.334  1.00  0.00     0.039 A 
ENDBRANCH  28  29
ENDBRANCH  25  27
ENDBRANCH  24  25
ENDBRANCH  21  24
ENDBRANCH   9  18
BRANCH   1  34
HETATM   34  C   UNL     1     -12.289   8.812 -35.816  1.00  0.00     0.273 C 
BRANCH  34  35
HETATM   35  C   UNL     1     -11.919   9.249 -37.206  1.00  0.00    -0.033 A 
HETATM   36  C   UNL     1     -12.898   9.297 -38.215  1.00  0.00     0.009 A 
HETATM   37  C   UNL     1     -12.558   9.672 -39.515  1.00  0.00     0.001 A 
HETATM   38  C   UNL     1     -11.242  10.006 -39.823  1.00  0.00     0.000 A 
HETATM   39  C   UNL     1     -10.265   9.975 -38.831  1.00  0.00     0.001 A 
HETATM   40  C   UNL     1     -10.600   9.600 -37.528  1.00  0.00     0.009 A 
ENDBRANCH  34  35
ENDBRANCH   1  34
TORSDOF 7
ENDMDL
MODEL 7
REMARK VINA RESULT:      -9.1      3.854     10.134
REMARK  7 active torsions:
REMARK  status: ('A' for Active; 'I' for Inactive)
REMARK    1  A    between atoms: C_4  and  C_5 
REMARK    2  A    between atoms: C_5  and  N_6 
REMARK    3  A    between atoms: C_14  and  C_15 
REMARK    4  A    between atoms: C_18  and  O_19 
REMARK    5  A    between atoms: O_19  and  C_20 
REMARK    6  A    between atoms: C_20  and  C_21 
REMARK    7  A    between atoms: C_22  and  C_23 
ROOT
HETATM    1  N   UNL     1      -7.782   0.983 -32.925  1.00  0.00    -0.063 N 
HETATM    2  H   UNL     1      -7.141   0.926 -32.126  1.00  0.00     0.280 HD
HETATM    3  C   UNL     1      -7.138   1.979 -33.881  1.00  0.00     0.282 C 
HETATM    4  C   UNL     1      -7.115   3.334 -33.260  1.00  0.00     0.018 A 
HETATM    5  C   UNL     1      -7.875   3.720 -32.170  1.00  0.00    -0.023 A 
HETATM    6  C   UNL     1      -7.609   5.080 -31.812  1.00  0.00     0.073 A 
HETATM    7  C   UNL     1      -6.739   5.677 -32.692  1.00  0.00     0.088 A 
HETATM    8  N   UNL     1      -6.377   6.973 -32.615  1.00  0.00    -0.358 N 
HETATM    9  C   UNL     1      -6.627   7.725 -31.401  1.00  0.00     0.219 C 
HETATM   10  N   UNL     1      -7.675   7.137 -30.608  1.00  0.00    -0.332 N 
HETATM   11  C   UNL     1      -8.132   5.855 -30.703  1.00  0.00     0.256 C 
HETATM   12  O   UNL     1      -8.929   5.390 -29.895  1.00  0.00    -0.267 OA
HETATM   13  S   UNL     1      -6.168   4.604 -33.881  1.00  0.00    -0.074 SA
HETATM   14  C   UNL     1      -8.817   2.769 -31.491  1.00  0.00     0.068 C 
HETATM   15  C   UNL     1      -9.091   1.529 -32.366  1.00  0.00     0.240 C 
HETATM   16  H   UNL     1      -5.588   7.304 -33.161  1.00  0.00     0.162 HD
HETATM   17  H   UNL     1      -7.997   7.648 -29.800  1.00  0.00     0.165 HD
ENDROOT
BRANCH   9  18
HETATM   18  C   UNL     1      -5.329   7.902 -30.634  1.00  0.00    -0.016 A 
HETATM   19  C   UNL     1      -4.467   8.963 -30.963  1.00  0.00     0.014 A 
HETATM   20  C   UNL     1      -3.222   9.088 -30.343  1.00  0.00     0.038 A 
HETATM   21  C   UNL     1      -2.831   8.156 -29.384  1.00  0.00     0.079 A 
HETATM   22  C   UNL     1      -3.670   7.102 -29.035  1.00  0.00     0.038 A 
HETATM   23  C   UNL     1      -4.917   6.982 -29.652  1.00  0.00     0.014 A 
BRANCH  21  24
HETATM   24  O   UNL     1      -1.504   8.272 -28.923  1.00  0.00    -0.276 OA
BRANCH  24  25
HETATM   25  C   UNL     1      -0.465   7.534 -29.471  1.00  0.00     0.288 C 
HETATM   26  O   UNL     1       0.695   7.500 -29.089  1.00  0.00    -0.260 OA
BRANCH  25  27
HETATM   27  C   UNL     1      -0.951   6.711 -30.599  1.00  0.00     0.085 C 
HETATM   28  C   UNL     1      -0.569   6.883 -31.874  1.00  0.00     0.043 C 
BRANCH  28  29
HETATM   29  C   UNL     1      -1.137   6.104 -32.918  1.00  0.00     0.075 A 
HETATM   30  O   UNL     1      -1.028   6.405 -34.258  1.00  0.00    -0.323 OA
HETATM   31  C   UNL     1      -1.659   5.440 -34.968  1.00  0.00     0.142 A 
HETATM   32  C   UNL     1      -2.193   4.499 -34.126  1.00  0.00     0.027 A 
HETATM   33  C   UNL     1      -1.863   4.922 -32.817  1.00  0.00     0.039 A 
ENDBRANCH  28  29
ENDBRANCH  25  27
ENDBRANCH  24  25
ENDBRANCH  21  24
ENDBRANCH   9  18
BRANCH   1  34
HETATM   34  C   UNL     1      -7.868  -0.420 -33.471  1.00  0.00     0.273 C 
BRANCH  34  35
HETATM   35  C   UNL     1      -6.566  -1.166 -33.574  1.00  0.00    -0.033 A 
HETATM   36  C   UNL     1      -6.427  -2.220 -34.494  1.00  0.00     0.009 A 
HETATM   37  C   UNL     1      -5.234  -2.938 -34.575  1.00  0.00     0.001 A 
HETATM   38  C   UNL     1      -4.165  -2.610 -33.745  1.00  0.00     0.000 A 
HETATM   39  C   UNL     1      -4.284  -1.560 -32.838  1.00  0.00     0.001 A 
HETATM   40  C   UNL     1      -5.477  -0.838 -32.753  1.00  0.00     0.009 A 
ENDBRANCH  34  35
ENDBRANCH   1  34
TORSDOF 7
ENDMDL
MODEL 8
REMARK VINA RESULT:      -9.0      5.978      9.977
REMARK  7 active torsions:
REMARK  status: ('A' for Active; 'I' for Inactive)
REMARK    1  A    between atoms: C_4  and  C_5 
REMARK    2  A    between atoms: C_5  and  N_6 
REMARK    3  A    between atoms: C_14  and  C_15 
REMARK    4  A    between atoms: C_18  and  O_19 
REMARK    5  A    between atoms: O_19  and  C_20 
REMARK    6  A    between atoms: C_20  and  C_21 
REMARK    7  A    between atoms: C_22  and  C_23 
ROOT
HETATM    1  N   UNL     1      -4.336  -0.533 -32.722  1.00  0.00    -0.063 N 
HETATM    2  H   UNL     1      -4.491  -0.123 -33.650  1.00  0.00     0.280 HD
HETATM    3  C   UNL     1      -5.716  -0.596 -32.081  1.00  0.00     0.282 C 
HETATM    4  C   UNL     1      -6.231   0.784 -31.851  1.00  0.00     0.018 A 
HETATM    5  C   UNL     1      -5.458   1.932 -31.863  1.00  0.00    -0.023 A 
HETATM    6  C   UNL     1      -6.259   3.094 -31.625  1.00  0.00     0.073 A 
HETATM    7  C   UNL     1      -7.566   2.767 -31.358  1.00  0.00     0.088 A 
HETATM    8  N   UNL     1      -8.508   3.674 -31.037  1.00  0.00    -0.358 N 
HETATM    9  C   UNL     1      -8.272   5.084 -31.280  1.00  0.00     0.219 C 
HETATM   10  N   UNL     1      -6.867   5.386 -31.376  1.00  0.00    -0.332 N 
HETATM   11  C   UNL     1      -5.866   4.491 -31.619  1.00  0.00     0.256 C 
HETATM   12  O   UNL     1      -4.713   4.850 -31.827  1.00  0.00    -0.267 OA
HETATM   13  S   UNL     1      -7.863   1.097 -31.483  1.00  0.00    -0.074 SA
HETATM   14  C   UNL     1      -3.981   1.882 -32.124  1.00  0.00     0.068 C 
HETATM   15  C   UNL     1      -3.433   0.448 -31.983  1.00  0.00     0.240 C 
HETATM   16  H   UNL     1      -9.487   3.403 -31.048  1.00  0.00     0.162 HD
HETATM   17  H   UNL     1      -6.598   6.357 -31.434  1.00  0.00     0.165 HD
ENDROOT
BRANCH   9  18
HETATM   18  C   UNL     1      -9.060   5.531 -32.497  1.00  0.00    -0.016 A 
HETATM   19  C   UNL     1     -10.113   6.451 -32.343  1.00  0.00     0.014 A 
HETATM   20  C   UNL     1     -10.919   6.801 -33.429  1.00  0.00     0.038 A 
HETATM   21  C   UNL     1     -10.675   6.237 -34.680  1.00  0.00     0.079 A 
HETATM   22  C   UNL     1      -9.633   5.331 -34.860  1.00  0.00     0.038 A 
HETATM   23  C   UNL     1      -8.825   4.988 -33.774  1.00  0.00     0.014 A 
BRANCH  21  24
HETATM   24  O   UNL     1     -11.625   6.529 -35.679  1.00  0.00    -0.276 OA
BRANCH  24  25
HETATM   25  C   UNL     1     -12.874   5.927 -35.707  1.00  0.00     0.288 C 
HETATM   26  O   UNL     1     -13.886   6.354 -36.244  1.00  0.00    -0.260 OA
BRANCH  25  27
HETATM   27  C   UNL     1     -12.836   4.617 -35.021  1.00  0.00     0.085 C 
HETATM   28  C   UNL     1     -12.717   3.441 -35.654  1.00  0.00     0.043 C 
BRANCH  28  29
HETATM   29  C   UNL     1     -12.766   2.216 -34.935  1.00  0.00     0.075 A 
HETATM   30  O   UNL     1     -13.851   1.368 -34.920  1.00  0.00    -0.323 OA
HETATM   31  C   UNL     1     -13.543   0.289 -34.161  1.00  0.00     0.142 A 
HETATM   32  C   UNL     1     -12.270   0.402 -33.664  1.00  0.00     0.027 A 
HETATM   33  C   UNL     1     -11.773   1.632 -34.154  1.00  0.00     0.039 A 
ENDBRANCH  28  29
ENDBRANCH  25  27
ENDBRANCH  24  25
ENDBRANCH  21  24
ENDBRANCH   9  18
BRANCH   1  34
HETATM   34  C   UNL     1      -3.719  -1.885 -32.979  1.00  0.00     0.273 C 
BRANCH  34  35
HETATM   35  C   UNL     1      -4.558  -2.850 -33.770  1.00  0.00    -0.033 A 
HETATM   36  C   UNL     1      -5.698  -2.397 -34.456  1.00  0.00     0.009 A 
HETATM   37  C   UNL     1      -6.500  -3.290 -35.168  1.00  0.00     0.001 A 
HETATM   38  C   UNL     1      -6.171  -4.643 -35.205  1.00  0.00     0.000 A 
HETATM   39  C   UNL     1      -5.038  -5.104 -34.541  1.00  0.00     0.001 A 
HETATM   40  C   UNL     1      -4.232  -4.213 -33.828  1.00  0.00     0.009 A 
ENDBRANCH  34  35
ENDBRANCH   1  34
TORSDOF 7
ENDMDL
MODEL 9
REMARK VINA RESULT:      -8.9      3.837     10.971
REMARK  7 active torsions:
REMARK  status: ('A' for Active; 'I' for Inactive)
REMARK    1  A    between atoms: C_4  and  C_5 
REMARK    2  A    between atoms: C_5  and  N_6 
REMARK    3  A    between atoms: C_14  and  C_15 
REMARK    4  A    between atoms: C_18  and  O_19 
REMARK    5  A    between atoms: O_19  and  C_20 
REMARK    6  A    between atoms: C_20  and  C_21 
REMARK    7  A    between atoms: C_22  and  C_23 
ROOT
HETATM    1  N   UNL     1      -7.374   0.221 -33.995  1.00  0.00    -0.063 N 
HETATM    2  H   UNL     1      -6.799   0.070 -33.158  1.00  0.00     0.280 HD
HETATM    3  C   UNL     1      -6.941   1.579 -34.533  1.00  0.00     0.282 C 
HETATM    4  C   UNL     1      -7.316   2.650 -33.565  1.00  0.00     0.018 A 
HETATM    5  C   UNL     1      -8.227   2.503 -32.534  1.00  0.00    -0.023 A 
HETATM    6  C   UNL     1      -8.349   3.713 -31.779  1.00  0.00     0.073 A 
HETATM    7  C   UNL     1      -7.602   4.730 -32.323  1.00  0.00     0.088 A 
HETATM    8  N   UNL     1      -7.594   5.987 -31.838  1.00  0.00    -0.358 N 
HETATM    9  C   UNL     1      -8.117   6.257 -30.513  1.00  0.00     0.219 C 
HETATM   10  N   UNL     1      -9.032   5.235 -30.076  1.00  0.00    -0.332 N 
HETATM   11  C   UNL     1      -9.134   3.974 -30.588  1.00  0.00     0.256 C 
HETATM   12  O   UNL     1      -9.840   3.119 -30.066  1.00  0.00    -0.267 OA
HETATM   13  S   UNL     1      -6.687   4.228 -33.666  1.00  0.00    -0.074 SA
HETATM   14  C   UNL     1      -8.937   1.203 -32.290  1.00  0.00     0.068 C 
HETATM   15  C   UNL     1      -8.816   0.260 -33.504  1.00  0.00     0.240 C 
HETATM   16  H   UNL     1      -6.880   6.638 -32.149  1.00  0.00     0.162 HD
HETATM   17  H   UNL     1      -9.534   5.390 -29.214  1.00  0.00     0.165 HD
ENDROOT
BRANCH   9  18
HETATM   18  C   UNL     1      -6.970   6.480 -29.546  1.00  0.00    -0.016 A 
HETATM   19  C   UNL     1      -6.706   5.525 -28.548  1.00  0.00     0.014 A 
HETATM   20  C   UNL     1      -5.722   5.754 -27.584  1.00  0.00     0.038 A 
HETATM   21  C   UNL     1      -4.990   6.939 -27.612  1.00  0.00     0.079 A 
HETATM   22  C   UNL     1      -5.226   7.897 -28.594  1.00  0.00     0.038 A 
HETATM   23  C   UNL     1      -6.207   7.662 -29.561  1.00  0.00     0.014 A 
BRANCH  21  24
HETATM   24  O   UNL     1      -4.128   7.152 -26.517  1.00  0.00    -0.276 OA
BRANCH  24  25
HETATM   25  C   UNL     1      -2.928   7.835 -26.646  1.00  0.00     0.288 C 
HETATM   26  O   UNL     1      -2.653   8.933 -26.185  1.00  0.00    -0.260 OA
BRANCH  25  27
HETATM   27  C   UNL     1      -1.947   7.026 -27.400  1.00  0.00     0.085 C 
HETATM   28  C   UNL     1      -1.402   7.402 -28.567  1.00  0.00     0.043 C 
BRANCH  28  29
HETATM   29  C   UNL     1      -0.523   6.537 -29.275  1.00  0.00     0.075 A 
HETATM   30  O   UNL     1       0.222   5.539 -28.687  1.00  0.00    -0.323 OA
HETATM   31  C   UNL     1       0.920   4.898 -29.655  1.00  0.00     0.142 A 
HETATM   32  C   UNL     1       0.657   5.452 -30.881  1.00  0.00     0.027 A 
HETATM   33  C   UNL     1      -0.262   6.500 -30.641  1.00  0.00     0.039 A 
ENDBRANCH  28  29
ENDBRANCH  25  27
ENDBRANCH  24  25
ENDBRANCH  21  24
ENDBRANCH   9  18
BRANCH   1  34
HETATM   34  C   UNL     1      -7.053  -0.930 -34.914  1.00  0.00     0.273 C 
BRANCH  34  35
HETATM   35  C   UNL     1      -5.951  -1.848 -34.460  1.00  0.00    -0.033 A 
HETATM   36  C   UNL     1      -5.898  -3.173 -34.927  1.00  0.00     0.009 A 
HETATM   37  C   UNL     1      -4.897  -4.040 -34.487  1.00  0.00     0.001 A 
HETATM   38  C   UNL     1      -3.938  -3.595 -33.581  1.00  0.00     0.000 A 
HETATM   39  C   UNL     1      -3.971  -2.282 -33.120  1.00  0.00     0.001 A 
HETATM   40  C   UNL     1      -4.971  -1.410 -33.558  1.00  0.00     0.009 A 
ENDBRANCH  34  35
ENDBRANCH   1  34
TORSDOF 7
ENDMDL
MODEL 10
REMARK VINA RESULT:      -8.9      3.731     10.035
REMARK  7 active torsions:
REMARK  status: ('A' for Active; 'I' for Inactive)
REMARK    1  A    between atoms: C_4  and  C_5 
REMARK    2  A    between atoms: C_5  and  N_6 
REMARK    3  A    between atoms: C_14  and  C_15 
REMARK    4  A    between atoms: C_18  and  O_19 
REMARK    5  A    between atoms: O_19  and  C_20 
REMARK    6  A    between atoms: C_20  and  C_21 
REMARK    7  A    between atoms: C_22  and  C_23 
ROOT
HETATM    1  N   UNL     1      -7.166   2.001 -32.572  1.00  0.00    -0.063 N 
HETATM    2  H   UNL     1      -7.452   2.890 -32.147  1.00  0.00     0.280 HD
HETATM    3  C   UNL     1      -5.873   1.621 -31.861  1.00  0.00     0.282 C 
HETATM    4  C   UNL     1      -4.806   2.609 -32.191  1.00  0.00     0.018 A 
HETATM    5  C   UNL     1      -4.851   3.504 -33.245  1.00  0.00    -0.023 A 
HETATM    6  C   UNL     1      -3.677   4.323 -33.276  1.00  0.00     0.073 A 
HETATM    7  C   UNL     1      -2.773   3.953 -32.311  1.00  0.00     0.088 A 
HETATM    8  N   UNL     1      -1.561   4.524 -32.171  1.00  0.00    -0.358 N 
HETATM    9  C   UNL     1      -1.275   5.788 -32.821  1.00  0.00     0.219 C 
HETATM   10  N   UNL     1      -2.152   6.031 -33.936  1.00  0.00    -0.332 N 
HETATM   11  C   UNL     1      -3.351   5.421 -34.165  1.00  0.00     0.256 C 
HETATM   12  O   UNL     1      -4.103   5.787 -35.061  1.00  0.00    -0.267 OA
HETATM   13  S   UNL     1      -3.351   2.703 -31.313  1.00  0.00    -0.074 SA
HETATM   14  C   UNL     1      -6.026   3.562 -34.178  1.00  0.00     0.068 C 
HETATM   15  C   UNL     1      -6.913   2.308 -34.043  1.00  0.00     0.240 C 
HETATM   16  H   UNL     1      -1.022   4.353 -31.328  1.00  0.00     0.162 HD
HETATM   17  H   UNL     1      -1.960   6.833 -34.520  1.00  0.00     0.165 HD
ENDROOT
BRANCH   9  18
HETATM   18  C   UNL     1      -1.295   6.906 -31.795  1.00  0.00    -0.016 A 
HETATM   19  C   UNL     1      -0.620   6.738 -30.572  1.00  0.00     0.014 A 
HETATM   20  C   UNL     1      -0.706   7.708 -29.570  1.00  0.00     0.038 A 
HETATM   21  C   UNL     1      -1.465   8.856 -29.786  1.00  0.00     0.079 A 
HETATM   22  C   UNL     1      -2.135   9.050 -30.990  1.00  0.00     0.038 A 
HETATM   23  C   UNL     1      -2.042   8.081 -31.992  1.00  0.00     0.014 A 
BRANCH  21  24
HETATM   24  O   UNL     1      -1.620   9.705 -28.671  1.00  0.00    -0.276 OA
BRANCH  24  25
HETATM   25  C   UNL     1      -2.126   9.251 -27.463  1.00  0.00     0.288 C 
HETATM   26  O   UNL     1      -1.581   9.303 -26.370  1.00  0.00    -0.260 OA
BRANCH  25  27
HETATM   27  C   UNL     1      -3.491   8.712 -27.640  1.00  0.00     0.085 C 
HETATM   28  C   UNL     1      -3.806   7.412 -27.529  1.00  0.00     0.043 C 
BRANCH  28  29
HETATM   29  C   UNL     1      -5.127   6.956 -27.790  1.00  0.00     0.075 A 
HETATM   30  O   UNL     1      -6.159   7.768 -28.205  1.00  0.00    -0.323 OA
HETATM   31  C   UNL     1      -7.263   7.002 -28.383  1.00  0.00     0.142 A 
HETATM   32  C   UNL     1      -6.987   5.691 -28.090  1.00  0.00     0.027 A 
HETATM   33  C   UNL     1      -5.625   5.660 -27.709  1.00  0.00     0.039 A 
ENDBRANCH  28  29
ENDBRANCH  25  27
ENDBRANCH  24  25
ENDBRANCH  21  24
ENDBRANCH   9  18
BRANCH   1  34
HETATM   34  C   UNL     1      -8.306   1.049 -32.315  1.00  0.00     0.273 C 
BRANCH  34  35
HETATM   35  C   UNL     1      -9.678   1.553 -32.671  1.00  0.00    -0.033 A 
HETATM   36  C   UNL     1     -10.529   0.776 -33.477  1.00  0.00     0.009 A 
HETATM   37  C   UNL     1     -11.791   1.250 -33.837  1.00  0.00     0.001 A 
HETATM   38  C   UNL     1     -12.219   2.499 -33.396  1.00  0.00     0.000 A 
HETATM   39  C   UNL     1     -11.391   3.274 -32.588  1.00  0.00     0.001 A 
HETATM   40  C   UNL     1     -10.127   2.804 -32.223  1.00  0.00     0.009 A 
ENDBRANCH  34  35
ENDBRANCH   1  34
TORSDOF 7
ENDMDL
