MODEL 1
REMARK VINA RESULT:      -8.8      0.000      0.000
REMARK  6 active torsions:
REMARK  status: ('A' for Active; 'I' for Inactive)
REMARK    1  A    between atoms: C_2  and  N_3 
REMARK    2  A    between atoms: C_2  and  C_25 
REMARK       I    between atoms: N_3  and  C_4 
REMARK    3  A    between atoms: C_4  and  C_5 
REMARK    4  A    between atoms: C_5  and  N_6 
REMARK    5  A    between atoms: C_10  and  N_11 
REMARK       I    between atoms: N_11  and  C_12 
REMARK       I    between atoms: C_12  and  N_13 
REMARK    6  A    between atoms: N_13  and  C_14 
ROOT
HETATM    1  N   UNL     1      -3.810   5.016 -32.899  1.00  0.00    -0.063 N 
HETATM    2  H   UNL     1      -3.712   5.487 -31.993  1.00  0.00     0.280 HD
HETATM    3  C   UNL     1      -5.294   4.919 -33.194  1.00  0.00     0.237 C 
HETATM    4  C   UNL     1      -5.957   4.182 -32.042  1.00  0.00     0.053 C 
HETATM    5  C   UNL     1      -5.383   2.770 -31.861  1.00  0.00     0.089 C 
HETATM    6  C   UNL     1      -3.869   2.883 -31.627  1.00  0.00     0.053 C 
HETATM    7  C   UNL     1      -3.183   3.647 -32.759  1.00  0.00     0.237 C 
ENDROOT
BRANCH   1   8
HETATM    8  C   UNL     1      -3.076   5.919 -33.898  1.00  0.00     0.337 C 
BRANCH   8   9
HETATM    9  C   UNL     1      -2.187   7.015 -33.296  1.00  0.00     0.244 C 
HETATM   10  N   UNL     1      -2.122   7.006 -31.924  1.00  0.00    -0.351 N 
HETATM   11  H   UNL     1      -2.679   6.366 -31.367  1.00  0.00     0.163 HD
HETATM   12  O   UNL     1      -1.578   7.821 -33.993  1.00  0.00    -0.272 OA
BRANCH  10  13
HETATM   13  C   UNL     1      -1.366   8.000 -31.172  1.00  0.00     0.120 C 
HETATM   14  C   UNL     1      -2.285   9.055 -30.559  1.00  0.00     0.038 C 
BRANCH  13  15
HETATM   15  C   UNL     1      -0.553   7.291 -30.116  1.00  0.00     0.005 A 
HETATM   16  S   UNL     1      -0.244   5.600 -30.198  1.00  0.00    -0.104 SA
HETATM   17  C   UNL     1       0.652   5.623 -28.743  1.00  0.00     0.050 A 
HETATM   18  C   UNL     1       0.712   6.884 -28.194  1.00  0.00     0.008 A 
HETATM   19  C   UNL     1       0.017   7.845 -28.984  1.00  0.00     0.017 A 
ENDBRANCH  13  15
ENDBRANCH  10  13
ENDBRANCH   8   9
ENDBRANCH   1   8
BRANCH   5  20
HETATM   20  N   UNL     1      -5.623   1.794 -32.932  1.00  0.00    -0.338 N 
HETATM   21  C   UNL     1      -5.651   0.420 -32.772  1.00  0.00     0.321 C 
HETATM   22  N   UNL     1      -5.719  -0.212 -33.994  1.00  0.00    -0.309 N 
HETATM   23  O   UNL     1      -5.665  -0.115 -31.674  1.00  0.00    -0.247 OA
HETATM   24  H   UNL     1      -5.965   0.364 -34.785  1.00  0.00     0.170 HD
HETATM   25  H   UNL     1      -5.215   2.054 -33.823  1.00  0.00     0.164 HD
BRANCH  22  26
HETATM   26  C   UNL     1      -5.662  -1.600 -34.242  1.00  0.00     0.036 A 
HETATM   27  C   UNL     1      -6.771  -2.374 -34.596  1.00  0.00     0.032 A 
HETATM   28  C   UNL     1      -6.634  -3.749 -34.812  1.00  0.00     0.044 A 
HETATM   29  C   UNL     1      -5.389  -4.349 -34.670  1.00  0.00     0.116 A 
HETATM   30  F   UNL     1      -5.260  -5.665 -34.878  1.00  0.00    -0.206 F 
HETATM   31  C   UNL     1      -4.277  -3.599 -34.311  1.00  0.00     0.044 A 
HETATM   32  C   UNL     1      -4.414  -2.225 -34.095  1.00  0.00     0.032 A 
ENDBRANCH  22  26
ENDBRANCH   5  20
TORSDOF 6
ENDMDL
MODEL 2
REMARK VINA RESULT:      -8.5      4.263     10.169
REMARK  6 active torsions:
REMARK  status: ('A' for Active; 'I' for Inactive)
REMARK    1  A    between atoms: C_2  and  N_3 
REMARK    2  A    between atoms: C_2  and  C_25 
REMARK       I    between atoms: N_3  and  C_4 
REMARK    3  A    between atoms: C_4  and  C_5 
REMARK    4  A    between atoms: C_5  and  N_6 
REMARK    5  A    between atoms: C_10  and  N_11 
REMARK       I    between atoms: N_11  and  C_12 
REMARK       I    between atoms: C_12  and  N_13 
REMARK    6  A    between atoms: N_13  and  C_14 
ROOT
HETATM    1  N   UNL     1      -5.392   3.189 -32.137  1.00  0.00    -0.063 N 
HETATM    2  H   UNL     1      -5.234   2.498 -32.879  1.00  0.00     0.280 HD
HETATM    3  C   UNL     1      -5.013   4.545 -32.702  1.00  0.00     0.237 C 
HETATM    4  C   UNL     1      -3.571   4.471 -33.178  1.00  0.00     0.053 C 
HETATM    5  C   UNL     1      -2.610   4.110 -32.036  1.00  0.00     0.089 C 
HETATM    6  C   UNL     1      -3.048   2.765 -31.435  1.00  0.00     0.053 C 
HETATM    7  C   UNL     1      -4.504   2.805 -30.975  1.00  0.00     0.237 C 
ENDROOT
BRANCH   1   8
HETATM    8  C   UNL     1      -6.889   3.091 -31.815  1.00  0.00     0.337 C 
BRANCH   8   9
HETATM    9  C   UNL     1      -7.605   1.824 -32.298  1.00  0.00     0.244 C 
HETATM   10  N   UNL     1      -6.893   1.078 -33.206  1.00  0.00    -0.351 N 
HETATM   11  H   UNL     1      -6.000   1.390 -33.570  1.00  0.00     0.163 HD
HETATM   12  O   UNL     1      -8.719   1.506 -31.892  1.00  0.00    -0.272 OA
BRANCH  10  13
HETATM   13  C   UNL     1      -7.431  -0.134 -33.813  1.00  0.00     0.120 C 
HETATM   14  C   UNL     1      -8.036   0.151 -35.186  1.00  0.00     0.038 C 
BRANCH  13  15
HETATM   15  C   UNL     1      -6.330  -1.163 -33.893  1.00  0.00     0.005 A 
HETATM   16  S   UNL     1      -4.864  -0.990 -33.009  1.00  0.00    -0.104 SA
HETATM   17  C   UNL     1      -4.235  -2.452 -33.628  1.00  0.00     0.050 A 
HETATM   18  C   UNL     1      -5.110  -3.063 -34.498  1.00  0.00     0.008 A 
HETATM   19  C   UNL     1      -6.317  -2.320 -34.651  1.00  0.00     0.017 A 
ENDBRANCH  13  15
ENDBRANCH  10  13
ENDBRANCH   8   9
ENDBRANCH   1   8
BRANCH   5  20
HETATM   20  N   UNL     1      -2.448   5.083 -30.948  1.00  0.00    -0.338 N 
HETATM   21  C   UNL     1      -1.238   5.518 -30.437  1.00  0.00     0.321 C 
HETATM   22  N   UNL     1      -1.432   6.287 -29.311  1.00  0.00    -0.309 N 
HETATM   23  O   UNL     1      -0.169   5.273 -30.975  1.00  0.00    -0.247 OA
HETATM   24  H   UNL     1      -2.373   6.614 -29.147  1.00  0.00     0.170 HD
HETATM   25  H   UNL     1      -3.150   5.006 -30.220  1.00  0.00     0.164 HD
BRANCH  22  26
HETATM   26  C   UNL     1      -0.442   6.818 -28.458  1.00  0.00     0.036 A 
HETATM   27  C   UNL     1      -0.272   6.431 -27.125  1.00  0.00     0.032 A 
HETATM   28  C   UNL     1       0.726   7.016 -26.340  1.00  0.00     0.044 A 
HETATM   29  C   UNL     1       1.551   7.991 -26.888  1.00  0.00     0.116 A 
HETATM   30  F   UNL     1       2.506   8.549 -26.135  1.00  0.00    -0.206 F 
HETATM   31  C   UNL     1       1.394   8.395 -28.206  1.00  0.00     0.044 A 
HETATM   32  C   UNL     1       0.396   7.810 -28.991  1.00  0.00     0.032 A 
ENDBRANCH  22  26
ENDBRANCH   5  20
TORSDOF 6
ENDMDL
MODEL 3
REMARK VINA RESULT:      -7.9      1.812      2.112
REMARK  6 active torsions:
REMARK  status: ('A' for Active; 'I' for Inactive)
REMARK    1  A    between atoms: C_2  and  N_3 
REMARK    2  A    between atoms: C_2  and  C_25 
REMARK       I    between atoms: N_3  and  C_4 
REMARK    3  A    between atoms: C_4  and  C_5 
REMARK    4  A    between atoms: C_5  and  N_6 
REMARK    5  A    between atoms: C_10  and  N_11 
REMARK       I    between atoms: N_11  and  C_12 
REMARK       I    between atoms: C_12  and  N_13 
REMARK    6  A    between atoms: N_13  and  C_14 
ROOT
HETATM    1  N   UNL     1      -3.908   5.375 -32.085  1.00  0.00    -0.063 N 
HETATM    2  H   UNL     1      -4.504   6.209 -32.128  1.00  0.00     0.280 HD
HETATM    3  C   UNL     1      -3.922   4.744 -33.463  1.00  0.00     0.237 C 
HETATM    4  C   UNL     1      -5.366   4.450 -33.834  1.00  0.00     0.053 C 
HETATM    5  C   UNL     1      -6.030   3.494 -32.832  1.00  0.00     0.089 C 
HETATM    6  C   UNL     1      -5.951   4.121 -31.432  1.00  0.00     0.053 C 
HETATM    7  C   UNL     1      -4.510   4.453 -31.048  1.00  0.00     0.237 C 
ENDROOT
BRANCH   1   8
HETATM    8  C   UNL     1      -2.519   5.898 -31.697  1.00  0.00     0.337 C 
BRANCH   8   9
HETATM    9  C   UNL     1      -2.484   7.026 -30.659  1.00  0.00     0.244 C 
HETATM   10  N   UNL     1      -2.175   6.617 -29.384  1.00  0.00    -0.351 N 
HETATM   11  H   UNL     1      -2.054   5.637 -29.152  1.00  0.00     0.163 HD
HETATM   12  O   UNL     1      -2.704   8.196 -30.955  1.00  0.00    -0.272 OA
BRANCH  10  13
HETATM   13  C   UNL     1      -2.142   7.539 -28.255  1.00  0.00     0.120 C 
HETATM   14  C   UNL     1      -3.066   7.078 -27.129  1.00  0.00     0.038 C 
BRANCH  13  15
HETATM   15  C   UNL     1      -0.714   7.672 -27.783  1.00  0.00     0.005 A 
HETATM   16  S   UNL     1      -0.101   6.727 -26.482  1.00  0.00    -0.104 SA
HETATM   17  C   UNL     1       1.442   7.450 -26.592  1.00  0.00     0.050 A 
HETATM   18  C   UNL     1       1.498   8.399 -27.587  1.00  0.00     0.008 A 
HETATM   19  C   UNL     1       0.255   8.528 -28.274  1.00  0.00     0.017 A 
ENDBRANCH  13  15
ENDBRANCH  10  13
ENDBRANCH   8   9
ENDBRANCH   1   8
BRANCH   5  20
HETATM   20  N   UNL     1      -5.522   2.118 -32.763  1.00  0.00    -0.338 N 
HETATM   21  C   UNL     1      -5.852   1.099 -33.639  1.00  0.00     0.321 C 
HETATM   22  N   UNL     1      -5.352  -0.106 -33.194  1.00  0.00    -0.309 N 
HETATM   23  O   UNL     1      -6.460   1.295 -34.680  1.00  0.00    -0.247 OA
HETATM   24  H   UNL     1      -4.655  -0.062 -32.466  1.00  0.00     0.170 HD
HETATM   25  H   UNL     1      -5.406   1.770 -31.818  1.00  0.00     0.164 HD
BRANCH  22  26
HETATM   26  C   UNL     1      -5.568  -1.380 -33.759  1.00  0.00     0.036 A 
HETATM   27  C   UNL     1      -6.828  -1.870 -34.117  1.00  0.00     0.032 A 
HETATM   28  C   UNL     1      -6.961  -3.152 -34.661  1.00  0.00     0.044 A 
HETATM   29  C   UNL     1      -5.834  -3.944 -34.841  1.00  0.00     0.116 A 
HETATM   30  F   UNL     1      -5.963  -5.170 -35.361  1.00  0.00    -0.206 F 
HETATM   31  C   UNL     1      -4.576  -3.480 -34.485  1.00  0.00     0.044 A 
HETATM   32  C   UNL     1      -4.443  -2.198 -33.942  1.00  0.00     0.032 A 
ENDBRANCH  22  26
ENDBRANCH   5  20
TORSDOF 6
ENDMDL
MODEL 4
REMARK VINA RESULT:      -7.7      7.025     10.424
REMARK  6 active torsions:
REMARK  status: ('A' for Active; 'I' for Inactive)
REMARK    1  A    between atoms: C_2  and  N_3 
REMARK    2  A    between atoms: C_2  and  C_25 
REMARK       I    between atoms: N_3  and  C_4 
REMARK    3  A    between atoms: C_4  and  C_5 
REMARK    4  A    between atoms: C_5  and  N_6 
REMARK    5  A    between atoms: C_10  and  N_11 
REMARK       I    between atoms: N_11  and  C_12 
REMARK       I    between atoms: C_12  and  N_13 
REMARK    6  A    between atoms: N_13  and  C_14 
ROOT
HETATM    1  N   UNL     1      -7.871   1.404 -32.616  1.00  0.00    -0.063 N 
HETATM    2  H   UNL     1      -7.265   1.578 -33.426  1.00  0.00     0.280 HD
HETATM    3  C   UNL     1      -8.933   0.416 -33.057  1.00  0.00     0.237 C 
HETATM    4  C   UNL     1      -9.660   1.007 -34.255  1.00  0.00     0.053 C 
HETATM    5  C   UNL     1     -10.325   2.348 -33.915  1.00  0.00     0.089 C 
HETATM    6  C   UNL     1      -9.244   3.316 -33.410  1.00  0.00     0.053 C 
HETATM    7  C   UNL     1      -8.480   2.732 -32.223  1.00  0.00     0.237 C 
ENDROOT
BRANCH   1   8
HETATM    8  C   UNL     1      -6.944   0.821 -31.543  1.00  0.00     0.337 C 
BRANCH   8   9
HETATM    9  C   UNL     1      -5.593   0.284 -32.032  1.00  0.00     0.244 C 
HETATM   10  N   UNL     1      -5.660  -0.932 -32.669  1.00  0.00    -0.351 N 
HETATM   11  H   UNL     1      -6.528  -1.451 -32.738  1.00  0.00     0.163 HD
HETATM   12  O   UNL     1      -4.545   0.903 -31.873  1.00  0.00    -0.272 OA
BRANCH  10  13
HETATM   13  C   UNL     1      -4.473  -1.622 -33.160  1.00  0.00     0.120 C 
HETATM   14  C   UNL     1      -3.507  -1.949 -32.023  1.00  0.00     0.038 C 
BRANCH  13  15
HETATM   15  C   UNL     1      -4.908  -2.866 -33.895  1.00  0.00     0.005 A 
HETATM   16  S   UNL     1      -3.987  -4.318 -33.838  1.00  0.00    -0.104 SA
HETATM   17  C   UNL     1      -5.087  -5.140 -34.854  1.00  0.00     0.050 A 
HETATM   18  C   UNL     1      -6.132  -4.332 -35.242  1.00  0.00     0.008 A 
HETATM   19  C   UNL     1      -6.030  -3.022 -34.690  1.00  0.00     0.017 A 
ENDBRANCH  13  15
ENDBRANCH  10  13
ENDBRANCH   8   9
ENDBRANCH   1   8
BRANCH   5  20
HETATM   20  N   UNL     1     -11.434   2.335 -32.952  1.00  0.00    -0.338 N 
HETATM   21  C   UNL     1     -12.753   2.631 -33.247  1.00  0.00     0.321 C 
HETATM   22  N   UNL     1     -13.505   2.704 -32.095  1.00  0.00    -0.309 N 
HETATM   23  O   UNL     1     -13.161   2.752 -34.391  1.00  0.00    -0.247 OA
HETATM   24  H   UNL     1     -13.086   2.323 -31.259  1.00  0.00     0.170 HD
HETATM   25  H   UNL     1     -11.179   2.664 -32.028  1.00  0.00     0.164 HD
BRANCH  22  26
HETATM   26  C   UNL     1     -14.859   3.083 -31.981  1.00  0.00     0.036 A 
HETATM   27  C   UNL     1     -15.931   2.195 -32.117  1.00  0.00     0.032 A 
HETATM   28  C   UNL     1     -17.247   2.652 -32.004  1.00  0.00     0.044 A 
HETATM   29  C   UNL     1     -17.491   3.998 -31.760  1.00  0.00     0.116 A 
HETATM   30  F   UNL     1     -18.752   4.434 -31.652  1.00  0.00    -0.206 F 
HETATM   31  C   UNL     1     -16.442   4.897 -31.631  1.00  0.00     0.044 A 
HETATM   32  C   UNL     1     -15.125   4.440 -31.743  1.00  0.00     0.032 A 
ENDBRANCH  22  26
ENDBRANCH   5  20
TORSDOF 6
ENDMDL
MODEL 5
REMARK VINA RESULT:      -7.6      2.307      3.485
REMARK  6 active torsions:
REMARK  status: ('A' for Active; 'I' for Inactive)
REMARK    1  A    between atoms: C_2  and  N_3 
REMARK    2  A    between atoms: C_2  and  C_25 
REMARK       I    between atoms: N_3  and  C_4 
REMARK    3  A    between atoms: C_4  and  C_5 
REMARK    4  A    between atoms: C_5  and  N_6 
REMARK    5  A    between atoms: C_10  and  N_11 
REMARK       I    between atoms: N_11  and  C_12 
REMARK       I    between atoms: C_12  and  N_13 
REMARK    6  A    between atoms: N_13  and  C_14 
ROOT
HETATM    1  N   UNL     1      -5.957   5.956 -29.754  1.00  0.00    -0.063 N 
HETATM    2  H   UNL     1      -6.635   6.726 -29.798  1.00  0.00     0.280 HD
HETATM    3  C   UNL     1      -5.584   5.609 -31.182  1.00  0.00     0.237 C 
HETATM    4  C   UNL     1      -6.859   5.264 -31.933  1.00  0.00     0.053 C 
HETATM    5  C   UNL     1      -7.593   4.075 -31.297  1.00  0.00     0.089 C 
HETATM    6  C   UNL     1      -7.907   4.420 -29.833  1.00  0.00     0.053 C 
HETATM    7  C   UNL     1      -6.643   4.799 -29.064  1.00  0.00     0.237 C 
ENDROOT
BRANCH   1   8
HETATM    8  C   UNL     1      -4.769   6.517 -28.962  1.00  0.00     0.337 C 
BRANCH   8   9
HETATM    9  C   UNL     1      -3.566   6.991 -29.787  1.00  0.00     0.244 C 
HETATM   10  N   UNL     1      -2.571   6.054 -29.932  1.00  0.00    -0.351 N 
HETATM   11  H   UNL     1      -2.612   5.155 -29.466  1.00  0.00     0.163 HD
HETATM   12  O   UNL     1      -3.512   8.113 -30.281  1.00  0.00    -0.272 OA
BRANCH  10  13
HETATM   13  C   UNL     1      -1.330   6.339 -30.642  1.00  0.00     0.120 C 
HETATM   14  C   UNL     1      -0.137   5.652 -29.979  1.00  0.00     0.038 C 
BRANCH  13  15
HETATM   15  C   UNL     1      -1.488   5.911 -32.081  1.00  0.00     0.005 A 
HETATM   16  S   UNL     1      -1.157   6.985 -33.384  1.00  0.00    -0.104 SA
HETATM   17  C   UNL     1      -1.566   5.806 -34.551  1.00  0.00     0.050 A 
HETATM   18  C   UNL     1      -1.957   4.620 -33.971  1.00  0.00     0.008 A 
HETATM   19  C   UNL     1      -1.912   4.680 -32.548  1.00  0.00     0.017 A 
ENDBRANCH  13  15
ENDBRANCH  10  13
ENDBRANCH   8   9
ENDBRANCH   1   8
BRANCH   5  20
HETATM   20  N   UNL     1      -6.933   2.763 -31.342  1.00  0.00    -0.338 N 
HETATM   21  C   UNL     1      -6.802   1.972 -32.470  1.00  0.00     0.321 C 
HETATM   22  N   UNL     1      -6.298   0.733 -32.139  1.00  0.00    -0.309 N 
HETATM   23  O   UNL     1      -7.059   2.377 -33.593  1.00  0.00    -0.247 OA
HETATM   24  H   UNL     1      -5.892   0.643 -31.220  1.00  0.00     0.170 HD
HETATM   25  H   UNL     1      -7.081   2.201 -30.512  1.00  0.00     0.164 HD
BRANCH  22  26
HETATM   26  C   UNL     1      -6.123  -0.373 -32.997  1.00  0.00     0.036 A 
HETATM   27  C   UNL     1      -7.168  -1.001 -33.682  1.00  0.00     0.032 A 
HETATM   28  C   UNL     1      -6.914  -2.103 -34.504  1.00  0.00     0.044 A 
HETATM   29  C   UNL     1      -5.616  -2.579 -34.637  1.00  0.00     0.116 A 
HETATM   30  F   UNL     1      -5.375  -3.634 -35.425  1.00  0.00    -0.206 F 
HETATM   31  C   UNL     1      -4.566  -1.976 -33.960  1.00  0.00     0.044 A 
HETATM   32  C   UNL     1      -4.819  -0.874 -33.138  1.00  0.00     0.032 A 
ENDBRANCH  22  26
ENDBRANCH   5  20
TORSDOF 6
ENDMDL
MODEL 6
REMARK VINA RESULT:      -7.6      1.909      2.335
REMARK  6 active torsions:
REMARK  status: ('A' for Active; 'I' for Inactive)
REMARK    1  A    between atoms: C_2  and  N_3 
REMARK    2  A    between atoms: C_2  and  C_25 
REMARK       I    between atoms: N_3  and  C_4 
REMARK    3  A    between atoms: C_4  and  C_5 
REMARK    4  A    between atoms: C_5  and  N_6 
REMARK    5  A    between atoms: C_10  and  N_11 
REMARK       I    between atoms: N_11  and  C_12 
REMARK       I    between atoms: C_12  and  N_13 
REMARK    6  A    between atoms: N_13  and  C_14 
ROOT
HETATM    1  N   UNL     1      -6.212   5.274 -31.926  1.00  0.00    -0.063 N 
HETATM    2  H   UNL     1      -6.907   5.984 -32.185  1.00  0.00     0.280 HD
HETATM    3  C   UNL     1      -5.643   4.714 -33.215  1.00  0.00     0.237 C 
HETATM    4  C   UNL     1      -6.796   4.172 -34.043  1.00  0.00     0.053 C 
HETATM    5  C   UNL     1      -7.561   3.066 -33.303  1.00  0.00     0.089 C 
HETATM    6  C   UNL     1      -8.076   3.633 -31.971  1.00  0.00     0.053 C 
HETATM    7  C   UNL     1      -6.937   4.211 -31.132  1.00  0.00     0.237 C 
ENDROOT
BRANCH   1   8
HETATM    8  C   UNL     1      -5.159   6.030 -31.105  1.00  0.00     0.337 C 
BRANCH   8   9
HETATM    9  C   UNL     1      -3.715   5.530 -31.228  1.00  0.00     0.244 C 
HETATM   10  N   UNL     1      -2.808   6.493 -31.601  1.00  0.00    -0.351 N 
HETATM   11  H   UNL     1      -3.097   7.435 -31.840  1.00  0.00     0.163 HD
HETATM   12  O   UNL     1      -3.403   4.365 -30.999  1.00  0.00    -0.272 OA
BRANCH  10  13
HETATM   13  C   UNL     1      -1.397   6.195 -31.815  1.00  0.00     0.120 C 
HETATM   14  C   UNL     1      -0.777   7.137 -32.845  1.00  0.00     0.038 C 
BRANCH  13  15
HETATM   15  C   UNL     1      -0.680   6.273 -30.489  1.00  0.00     0.005 A 
HETATM   16  S   UNL     1      -0.848   7.635 -29.450  1.00  0.00    -0.104 SA
HETATM   17  C   UNL     1       0.207   6.965 -28.286  1.00  0.00     0.050 A 
HETATM   18  C   UNL     1       0.690   5.736 -28.674  1.00  0.00     0.008 A 
HETATM   19  C   UNL     1       0.180   5.337 -29.943  1.00  0.00     0.017 A 
ENDBRANCH  13  15
ENDBRANCH  10  13
ENDBRANCH   8   9
ENDBRANCH   1   8
BRANCH   5  20
HETATM   20  N   UNL     1      -6.852   1.807 -33.037  1.00  0.00    -0.338 N 
HETATM   21  C   UNL     1      -6.746   0.747 -33.920  1.00  0.00     0.321 C 
HETATM   22  N   UNL     1      -6.177  -0.346 -33.304  1.00  0.00    -0.309 N 
HETATM   23  O   UNL     1      -7.077   0.831 -35.093  1.00  0.00    -0.247 OA
HETATM   24  H   UNL     1      -5.721  -0.176 -32.419  1.00  0.00     0.170 HD
HETATM   25  H   UNL     1      -6.935   1.484 -32.080  1.00  0.00     0.164 HD
BRANCH  22  26
HETATM   26  C   UNL     1      -6.001  -1.636 -33.845  1.00  0.00     0.036 A 
HETATM   27  C   UNL     1      -7.051  -2.437 -34.308  1.00  0.00     0.032 A 
HETATM   28  C   UNL     1      -6.795  -3.712 -34.820  1.00  0.00     0.044 A 
HETATM   29  C   UNL     1      -5.491  -4.189 -34.865  1.00  0.00     0.116 A 
HETATM   30  F   UNL     1      -5.248  -5.410 -35.355  1.00  0.00    -0.206 F 
HETATM   31  C   UNL     1      -4.436  -3.413 -34.403  1.00  0.00     0.044 A 
HETATM   32  C   UNL     1      -4.691  -2.138 -33.892  1.00  0.00     0.032 A 
ENDBRANCH  22  26
ENDBRANCH   5  20
TORSDOF 6
ENDMDL
MODEL 7
REMARK VINA RESULT:      -7.5      5.388      8.443
REMARK  6 active torsions:
REMARK  status: ('A' for Active; 'I' for Inactive)
REMARK    1  A    between atoms: C_2  and  N_3 
REMARK    2  A    between atoms: C_2  and  C_25 
REMARK       I    between atoms: N_3  and  C_4 
REMARK    3  A    between atoms: C_4  and  C_5 
REMARK    4  A    between atoms: C_5  and  N_6 
REMARK    5  A    between atoms: C_10  and  N_11 
REMARK       I    between atoms: N_11  and  C_12 
REMARK       I    between atoms: C_12  and  N_13 
REMARK    6  A    between atoms: N_13  and  C_14 
ROOT
HETATM    1  N   UNL     1      -8.501   4.821 -32.618  1.00  0.00    -0.063 N 
HETATM    2  H   UNL     1      -8.148   5.537 -31.973  1.00  0.00     0.280 HD
HETATM    3  C   UNL     1      -8.561   3.516 -31.847  1.00  0.00     0.237 C 
HETATM    4  C   UNL     1      -7.172   3.225 -31.303  1.00  0.00     0.053 C 
HETATM    5  C   UNL     1      -6.132   3.103 -32.426  1.00  0.00     0.089 C 
HETATM    6  C   UNL     1      -6.130   4.410 -33.234  1.00  0.00     0.053 C 
HETATM    7  C   UNL     1      -7.523   4.740 -33.769  1.00  0.00     0.237 C 
ENDROOT
BRANCH   1   8
HETATM    8  C   UNL     1      -9.891   5.314 -33.038  1.00  0.00     0.337 C 
BRANCH   8   9
HETATM    9  C   UNL     1     -10.729   4.345 -33.881  1.00  0.00     0.244 C 
HETATM   10  N   UNL     1     -11.285   3.307 -33.172  1.00  0.00    -0.351 N 
HETATM   11  H   UNL     1     -11.089   3.168 -32.188  1.00  0.00     0.163 HD
HETATM   12  O   UNL     1     -10.893   4.500 -35.088  1.00  0.00    -0.272 OA
BRANCH  10  13
HETATM   13  C   UNL     1     -12.073   2.260 -33.811  1.00  0.00     0.120 C 
HETATM   14  C   UNL     1     -11.419   0.890 -33.646  1.00  0.00     0.038 C 
BRANCH  13  15
HETATM   15  C   UNL     1     -13.467   2.284 -33.232  1.00  0.00     0.005 A 
HETATM   16  S   UNL     1     -14.687   1.197 -33.770  1.00  0.00    -0.104 SA
HETATM   17  C   UNL     1     -15.844   1.856 -32.699  1.00  0.00     0.050 A 
HETATM   18  C   UNL     1     -15.325   2.889 -31.951  1.00  0.00     0.008 A 
HETATM   19  C   UNL     1     -13.956   3.136 -32.258  1.00  0.00     0.017 A 
ENDBRANCH  13  15
ENDBRANCH  10  13
ENDBRANCH   8   9
ENDBRANCH   1   8
BRANCH   5  20
HETATM   20  N   UNL     1      -6.261   1.973 -33.356  1.00  0.00    -0.338 N 
HETATM   21  C   UNL     1      -6.017   0.648 -33.042  1.00  0.00     0.321 C 
HETATM   22  N   UNL     1      -6.053  -0.135 -34.175  1.00  0.00    -0.309 N 
HETATM   23  O   UNL     1      -5.849   0.262 -31.896  1.00  0.00    -0.247 OA
HETATM   24  H   UNL     1      -6.460   0.283 -34.998  1.00  0.00     0.170 HD
HETATM   25  H   UNL     1      -5.975   2.188 -34.304  1.00  0.00     0.164 HD
BRANCH  22  26
HETATM   26  C   UNL     1      -5.752  -1.510 -34.273  1.00  0.00     0.036 A 
HETATM   27  C   UNL     1      -4.514  -2.062 -33.928  1.00  0.00     0.032 A 
HETATM   28  C   UNL     1      -4.289  -3.435 -34.066  1.00  0.00     0.044 A 
HETATM   29  C   UNL     1      -5.300  -4.254 -34.554  1.00  0.00     0.116 A 
HETATM   30  F   UNL     1      -5.083  -5.568 -34.685  1.00  0.00    -0.206 F 
HETATM   31  C   UNL     1      -6.532  -3.724 -34.910  1.00  0.00     0.044 A 
HETATM   32  C   UNL     1      -6.758  -2.352 -34.772  1.00  0.00     0.032 A 
ENDBRANCH  22  26
ENDBRANCH   5  20
TORSDOF 6
ENDMDL
MODEL 8
REMARK VINA RESULT:      -7.5      3.034      4.094
REMARK  6 active torsions:
REMARK  status: ('A' for Active; 'I' for Inactive)
REMARK    1  A    between atoms: C_2  and  N_3 
REMARK    2  A    between atoms: C_2  and  C_25 
REMARK       I    between atoms: N_3  and  C_4 
REMARK    3  A    between atoms: C_4  and  C_5 
REMARK    4  A    between atoms: C_5  and  N_6 
REMARK    5  A    between atoms: C_10  and  N_11 
REMARK       I    between atoms: N_11  and  C_12 
REMARK       I    between atoms: C_12  and  N_13 
REMARK    6  A    between atoms: N_13  and  C_14 
ROOT
HETATM    1  N   UNL     1      -8.246   4.658 -31.180  1.00  0.00    -0.063 N 
HETATM    2  H   UNL     1      -9.153   4.873 -30.748  1.00  0.00     0.280 HD
HETATM    3  C   UNL     1      -8.419   4.804 -32.679  1.00  0.00     0.237 C 
HETATM    4  C   UNL     1      -9.543   3.879 -33.116  1.00  0.00     0.053 C 
HETATM    5  C   UNL     1      -9.240   2.411 -32.780  1.00  0.00     0.089 C 
HETATM    6  C   UNL     1      -9.005   2.295 -31.266  1.00  0.00     0.053 C 
HETATM    7  C   UNL     1      -7.898   3.237 -30.797  1.00  0.00     0.237 C 
ENDROOT
BRANCH   1   8
HETATM    8  C   UNL     1      -7.276   5.696 -30.602  1.00  0.00     0.337 C 
BRANCH   8   9
HETATM    9  C   UNL     1      -5.849   5.209 -30.322  1.00  0.00     0.244 C 
HETATM   10  N   UNL     1      -5.075   5.038 -31.445  1.00  0.00    -0.351 N 
HETATM   11  H   UNL     1      -5.453   5.158 -32.378  1.00  0.00     0.163 HD
HETATM   12  O   UNL     1      -5.438   5.004 -29.184  1.00  0.00    -0.272 OA
BRANCH  10  13
HETATM   13  C   UNL     1      -3.708   4.535 -31.381  1.00  0.00     0.120 C 
HETATM   14  C   UNL     1      -3.671   3.009 -31.420  1.00  0.00     0.038 C 
BRANCH  13  15
HETATM   15  C   UNL     1      -2.918   5.139 -32.516  1.00  0.00     0.005 A 
HETATM   16  S   UNL     1      -2.719   6.841 -32.674  1.00  0.00    -0.104 SA
HETATM   17  C   UNL     1      -1.790   6.671 -34.097  1.00  0.00     0.050 A 
HETATM   18  C   UNL     1      -1.637   5.352 -34.459  1.00  0.00     0.008 A 
HETATM   19  C   UNL     1      -2.287   4.469 -33.549  1.00  0.00     0.017 A 
ENDBRANCH  13  15
ENDBRANCH  10  13
ENDBRANCH   8   9
ENDBRANCH   1   8
BRANCH   5  20
HETATM   20  N   UNL     1      -8.121   1.768 -33.483  1.00  0.00    -0.338 N 
HETATM   21  C   UNL     1      -7.852   0.411 -33.485  1.00  0.00     0.321 C 
HETATM   22  N   UNL     1      -6.638   0.156 -34.084  1.00  0.00    -0.309 N 
HETATM   23  O   UNL     1      -8.638  -0.417 -33.052  1.00  0.00    -0.247 OA
HETATM   24  H   UNL     1      -6.235   0.909 -34.622  1.00  0.00     0.170 HD
HETATM   25  H   UNL     1      -7.267   2.315 -33.480  1.00  0.00     0.164 HD
BRANCH  22  26
HETATM   26  C   UNL     1      -5.979  -1.087 -34.182  1.00  0.00     0.036 A 
HETATM   27  C   UNL     1      -6.445  -2.157 -34.953  1.00  0.00     0.032 A 
HETATM   28  C   UNL     1      -5.740  -3.364 -34.988  1.00  0.00     0.044 A 
HETATM   29  C   UNL     1      -4.572  -3.501 -34.248  1.00  0.00     0.116 A 
HETATM   30  F   UNL     1      -3.898  -4.658 -34.283  1.00  0.00    -0.206 F 
HETATM   31  C   UNL     1      -4.097  -2.455 -33.471  1.00  0.00     0.044 A 
HETATM   32  C   UNL     1      -4.801  -1.248 -33.436  1.00  0.00     0.032 A 
ENDBRANCH  22  26
ENDBRANCH   5  20
TORSDOF 6
ENDMDL
MODEL 9
REMARK VINA RESULT:      -7.5      4.169      6.403
REMARK  6 active torsions:
REMARK  status: ('A' for Active; 'I' for Inactive)
REMARK    1  A    between atoms: C_2  and  N_3 
REMARK    2  A    between atoms: C_2  and  C_25 
REMARK       I    between atoms: N_3  and  C_4 
REMARK    3  A    between atoms: C_4  and  C_5 
REMARK    4  A    between atoms: C_5  and  N_6 
REMARK    5  A    between atoms: C_10  and  N_11 
REMARK       I    between atoms: N_11  and  C_12 
REMARK       I    between atoms: C_12  and  N_13 
REMARK    6  A    between atoms: N_13  and  C_14 
ROOT
HETATM    1  N   UNL     1      -6.021   5.071 -31.196  1.00  0.00    -0.063 N 
HETATM    2  H   UNL     1      -5.387   5.526 -30.529  1.00  0.00     0.280 HD
HETATM    3  C   UNL     1      -6.529   3.804 -30.536  1.00  0.00     0.237 C 
HETATM    4  C   UNL     1      -5.327   2.956 -30.153  1.00  0.00     0.053 C 
HETATM    5  C   UNL     1      -4.477   2.585 -31.376  1.00  0.00     0.089 C 
HETATM    6  C   UNL     1      -4.024   3.880 -32.068  1.00  0.00     0.053 C 
HETATM    7  C   UNL     1      -5.214   4.763 -32.437  1.00  0.00     0.237 C 
ENDROOT
BRANCH   1   8
HETATM    8  C   UNL     1      -7.141   6.091 -31.439  1.00  0.00     0.337 C 
BRANCH   8   9
HETATM    9  C   UNL     1      -8.528   5.515 -31.750  1.00  0.00     0.244 C 
HETATM   10  N   UNL     1      -8.608   4.837 -32.943  1.00  0.00    -0.351 N 
HETATM   11  H   UNL     1      -7.825   4.791 -33.585  1.00  0.00     0.163 HD
HETATM   12  O   UNL     1      -9.478   5.645 -30.985  1.00  0.00    -0.272 OA
BRANCH  10  13
HETATM   13  C   UNL     1      -9.856   4.261 -33.431  1.00  0.00     0.120 C 
HETATM   14  C   UNL     1     -10.112   4.638 -34.888  1.00  0.00     0.038 C 
BRANCH  13  15
HETATM   15  C   UNL     1      -9.802   2.764 -33.245  1.00  0.00     0.005 A 
HETATM   16  S   UNL     1     -11.161   1.763 -33.578  1.00  0.00    -0.104 SA
HETATM   17  C   UNL     1     -10.315   0.347 -33.133  1.00  0.00     0.050 A 
HETATM   18  C   UNL     1      -9.028   0.621 -32.728  1.00  0.00     0.008 A 
HETATM   19  C   UNL     1      -8.732   2.013 -32.793  1.00  0.00     0.017 A 
ENDBRANCH  13  15
ENDBRANCH  10  13
ENDBRANCH   8   9
ENDBRANCH   1   8
BRANCH   5  20
HETATM   20  N   UNL     1      -5.078   1.698 -32.381  1.00  0.00    -0.338 N 
HETATM   21  C   UNL     1      -4.994   0.317 -32.381  1.00  0.00     0.321 C 
HETATM   22  N   UNL     1      -5.506  -0.202 -33.551  1.00  0.00    -0.309 N 
HETATM   23  O   UNL     1      -4.565  -0.318 -31.430  1.00  0.00    -0.247 OA
HETATM   24  H   UNL     1      -6.058   0.426 -34.117  1.00  0.00     0.170 HD
HETATM   25  H   UNL     1      -5.054   2.070 -33.323  1.00  0.00     0.164 HD
BRANCH  22  26
HETATM   26  C   UNL     1      -5.500  -1.551 -33.960  1.00  0.00     0.036 A 
HETATM   27  C   UNL     1      -4.348  -2.343 -34.019  1.00  0.00     0.032 A 
HETATM   28  C   UNL     1      -4.424  -3.671 -34.449  1.00  0.00     0.044 A 
HETATM   29  C   UNL     1      -5.650  -4.205 -34.825  1.00  0.00     0.116 A 
HETATM   30  F   UNL     1      -5.720  -5.477 -35.236  1.00  0.00    -0.206 F 
HETATM   31  C   UNL     1      -6.803  -3.435 -34.782  1.00  0.00     0.044 A 
HETATM   32  C   UNL     1      -6.728  -2.107 -34.352  1.00  0.00     0.032 A 
ENDBRANCH  22  26
ENDBRANCH   5  20
TORSDOF 6
ENDMDL
MODEL 10
REMARK VINA RESULT:      -7.4      5.192     10.706
REMARK  6 active torsions:
REMARK  status: ('A' for Active; 'I' for Inactive)
REMARK    1  A    between atoms: C_2  and  N_3 
REMARK    2  A    between atoms: C_2  and  C_25 
REMARK       I    between atoms: N_3  and  C_4 
REMARK    3  A    between atoms: C_4  and  C_5 
REMARK    4  A    between atoms: C_5  and  N_6 
REMARK    5  A    between atoms: C_10  and  N_11 
REMARK       I    between atoms: N_11  and  C_12 
REMARK       I    between atoms: C_12  and  N_13 
REMARK    6  A    between atoms: N_13  and  C_14 
ROOT
HETATM    1  N   UNL     1      -5.341   3.210 -32.266  1.00  0.00    -0.063 N 
HETATM    2  H   UNL     1      -5.195   2.750 -33.171  1.00  0.00     0.280 HD
HETATM    3  C   UNL     1      -5.279   4.706 -32.510  1.00  0.00     0.237 C 
HETATM    4  C   UNL     1      -3.939   5.024 -33.153  1.00  0.00     0.053 C 
HETATM    5  C   UNL     1      -2.762   4.606 -32.259  1.00  0.00     0.089 C 
HETATM    6  C   UNL     1      -2.877   3.101 -31.971  1.00  0.00     0.053 C 
HETATM    7  C   UNL     1      -4.228   2.752 -31.350  1.00  0.00     0.237 C 
ENDROOT
BRANCH   1   8
HETATM    8  C   UNL     1      -6.731   2.752 -31.807  1.00  0.00     0.337 C 
BRANCH   8   9
HETATM    9  C   UNL     1      -7.466   1.779 -32.736  1.00  0.00     0.244 C 
HETATM   10  N   UNL     1      -8.787   2.090 -32.957  1.00  0.00    -0.351 N 
HETATM   11  H   UNL     1      -9.240   2.861 -32.481  1.00  0.00     0.163 HD
HETATM   12  O   UNL     1      -6.909   0.811 -33.245  1.00  0.00    -0.272 OA
BRANCH  10  13
HETATM   13  C   UNL     1      -9.659   1.255 -33.774  1.00  0.00     0.120 C 
HETATM   14  C   UNL     1     -10.308   0.148 -32.946  1.00  0.00     0.038 C 
BRANCH  13  15
HETATM   15  C   UNL     1     -10.693   2.136 -34.432  1.00  0.00     0.005 A 
HETATM   16  S   UNL     1     -10.504   3.844 -34.515  1.00  0.00    -0.104 SA
HETATM   17  C   UNL     1     -11.990   4.039 -35.334  1.00  0.00     0.050 A 
HETATM   18  C   UNL     1     -12.629   2.837 -35.537  1.00  0.00     0.008 A 
HETATM   19  C   UNL     1     -11.882   1.740 -35.017  1.00  0.00     0.017 A 
ENDBRANCH  13  15
ENDBRANCH  10  13
ENDBRANCH   8   9
ENDBRANCH   1   8
BRANCH   5  20
HETATM   20  N   UNL     1      -2.585   5.319 -30.987  1.00  0.00    -0.338 N 
HETATM   21  C   UNL     1      -1.399   5.870 -30.537  1.00  0.00     0.321 C 
HETATM   22  N   UNL     1      -1.527   6.305 -29.236  1.00  0.00    -0.309 N 
HETATM   23  O   UNL     1      -0.413   5.983 -31.249  1.00  0.00    -0.247 OA
HETATM   24  H   UNL     1      -2.467   6.382 -28.878  1.00  0.00     0.170 HD
HETATM   25  H   UNL     1      -3.128   4.933 -30.223  1.00  0.00     0.164 HD
BRANCH  22  26
HETATM   26  C   UNL     1      -0.511   6.824 -28.406  1.00  0.00     0.036 A 
HETATM   27  C   UNL     1      -0.299   6.415 -27.086  1.00  0.00     0.032 A 
HETATM   28  C   UNL     1       0.722   6.989 -26.323  1.00  0.00     0.044 A 
HETATM   29  C   UNL     1       1.527   7.975 -26.879  1.00  0.00     0.116 A 
HETATM   30  F   UNL     1       2.504   8.524 -26.146  1.00  0.00    -0.206 F 
HETATM   31  C   UNL     1       1.328   8.401 -28.184  1.00  0.00     0.044 A 
HETATM   32  C   UNL     1       0.307   7.827 -28.948  1.00  0.00     0.032 A 
ENDBRANCH  22  26
ENDBRANCH   5  20
TORSDOF 6
ENDMDL
