MODEL 1
REMARK VINA RESULT:      -8.7      0.000      0.000
REMARK  7 active torsions:
REMARK  status: ('A' for Active; 'I' for Inactive)
REMARK    1  A    between atoms: C_2  and  O_3 
REMARK    2  A    between atoms: O_3  and  C_4 
REMARK    3  A    between atoms: C_4  and  C_5 
REMARK    4  A    between atoms: C_6  and  C_7 
REMARK    5  A    between atoms: C_18  and  S_19 
REMARK    6  A    between atoms: S_19  and  C_20 
REMARK    7  A    between atoms: C_20  and  C_21 
ROOT
HETATM    1  C   UNL     1      -5.657   4.622 -31.192  1.00  0.00     0.070 A 
HETATM    2  C   UNL     1      -4.884   3.769 -32.191  1.00  0.00     0.203 A 
HETATM    3  N   UNL     1      -4.719   2.393 -31.709  1.00  0.00    -0.082 N 
HETATM    4  C   UNL     1      -5.224   1.927 -30.529  1.00  0.00     0.726 A 
HETATM    5  N   UNL     1      -5.909   2.765 -29.729  1.00  0.00    -0.192 N 
HETATM    6  N   UNL     1      -4.111   1.409 -32.405  1.00  0.00    -0.128 NA
HETATM    7  C   UNL     1      -4.226   0.389 -31.545  1.00  0.00     0.226 A 
HETATM    8  N   UNL     1      -4.923   0.663 -30.395  1.00  0.00    -0.035 NA
HETATM    9  C   UNL     1      -6.133   4.103 -30.031  1.00  0.00     0.037 A 
HETATM   10  C   UNL     1      -6.943   4.872 -29.016  1.00  0.00     0.070 C 
HETATM   11  H   UNL     1      -6.278   2.409 -28.850  1.00  0.00     0.184 HD
ENDROOT
BRANCH   7  12
HETATM   12  S   UNL     1      -3.572  -1.190 -31.878  1.00  0.00    -0.083 SA
BRANCH  12  13
HETATM   13  C   UNL     1      -3.812  -1.260 -33.676  1.00  0.00     0.123 C 
BRANCH  13  14
HETATM   14  C   UNL     1      -4.715  -2.404 -34.074  1.00  0.00    -0.027 A 
HETATM   15  C   UNL     1      -6.047  -2.222 -34.477  1.00  0.00     0.041 A 
HETATM   16 CL   UNL     1      -6.781  -0.658 -34.539  1.00  0.00    -0.084 Cl
HETATM   17  C   UNL     1      -6.835  -3.318 -34.846  1.00  0.00     0.024 A 
HETATM   18  C   UNL     1      -6.302  -4.607 -34.822  1.00  0.00     0.002 A 
HETATM   19  C   UNL     1      -4.981  -4.803 -34.434  1.00  0.00     0.001 A 
HETATM   20  C   UNL     1      -4.192  -3.711 -34.065  1.00  0.00     0.009 A 
ENDBRANCH  13  14
ENDBRANCH  12  13
ENDBRANCH   7  12
BRANCH   2  21
HETATM   21  C   UNL     1      -3.523   4.348 -32.571  1.00  0.00    -0.026 A 
HETATM   22  C   UNL     1      -2.525   4.477 -31.588  1.00  0.00     0.033 A 
HETATM   23  C   UNL     1      -1.275   4.998 -31.915  1.00  0.00     0.034 A 
HETATM   24 CL   UNL     1      -0.065   5.135 -30.700  1.00  0.00    -0.084 Cl
HETATM   25  C   UNL     1      -0.997   5.402 -33.217  1.00  0.00     0.024 A 
HETATM   26  C   UNL     1      -1.979   5.289 -34.201  1.00  0.00     0.002 A 
HETATM   27  C   UNL     1      -3.236   4.768 -33.882  1.00  0.00     0.010 A 
ENDBRANCH   2  21
BRANCH   1  28
HETATM   28  C   UNL     1      -5.810   6.053 -31.521  1.00  0.00     0.293 C 
HETATM   29  O   UNL     1      -6.554   6.482 -32.389  1.00  0.00    -0.259 OA
BRANCH  28  30
HETATM   30  O   UNL     1      -5.027   6.796 -30.699  1.00  0.00    -0.318 OA
BRANCH  30  31
HETATM   31  C   UNL     1      -4.687   8.103 -31.188  1.00  0.00     0.174 C 
HETATM   32  C   UNL     1      -3.230   8.141 -31.614  1.00  0.00     0.034 C 
ENDBRANCH  30  31
ENDBRANCH  28  30
ENDBRANCH   1  28
TORSDOF 7
ENDMDL
MODEL 2
REMARK VINA RESULT:      -8.4      3.508      8.851
REMARK  7 active torsions:
REMARK  status: ('A' for Active; 'I' for Inactive)
REMARK    1  A    between atoms: C_2  and  O_3 
REMARK    2  A    between atoms: O_3  and  C_4 
REMARK    3  A    between atoms: C_4  and  C_5 
REMARK    4  A    between atoms: C_6  and  C_7 
REMARK    5  A    between atoms: C_18  and  S_19 
REMARK    6  A    between atoms: S_19  and  C_20 
REMARK    7  A    between atoms: C_20  and  C_21 
ROOT
HETATM    1  C   UNL     1      -4.155  -1.466 -33.264  1.00  0.00     0.070 A 
HETATM    2  C   UNL     1      -4.574  -0.049 -33.639  1.00  0.00     0.203 A 
HETATM    3  N   UNL     1      -4.084   0.932 -32.663  1.00  0.00    -0.082 N 
HETATM    4  C   UNL     1      -3.322   0.617 -31.575  1.00  0.00     0.726 A 
HETATM    5  N   UNL     1      -2.993  -0.668 -31.350  1.00  0.00    -0.192 N 
HETATM    6  N   UNL     1      -4.271   2.265 -32.763  1.00  0.00    -0.128 NA
HETATM    7  C   UNL     1      -3.649   2.687 -31.655  1.00  0.00     0.226 A 
HETATM    8  N   UNL     1      -3.035   1.707 -30.914  1.00  0.00    -0.035 NA
HETATM    9  C   UNL     1      -3.397  -1.718 -32.167  1.00  0.00     0.037 A 
HETATM   10  C   UNL     1      -2.907  -3.086 -31.758  1.00  0.00     0.070 C 
HETATM   11  H   UNL     1      -2.428  -0.892 -30.535  1.00  0.00     0.184 HD
ENDROOT
BRANCH   7  12
HETATM   12  S   UNL     1      -3.587   4.367 -31.202  1.00  0.00    -0.083 SA
BRANCH  12  13
HETATM   13  C   UNL     1      -1.840   4.723 -31.545  1.00  0.00     0.123 C 
BRANCH  13  14
HETATM   14  C   UNL     1      -1.318   5.843 -30.675  1.00  0.00    -0.027 A 
HETATM   15  C   UNL     1       0.030   5.958 -30.304  1.00  0.00     0.041 A 
HETATM   16 CL   UNL     1       1.221   4.808 -30.803  1.00  0.00    -0.084 Cl
HETATM   17  C   UNL     1       0.460   7.023 -29.505  1.00  0.00     0.024 A 
HETATM   18  C   UNL     1      -0.449   7.989 -29.072  1.00  0.00     0.002 A 
HETATM   19  C   UNL     1      -1.787   7.894 -29.438  1.00  0.00     0.001 A 
HETATM   20  C   UNL     1      -2.219   6.832 -30.235  1.00  0.00     0.009 A 
ENDBRANCH  13  14
ENDBRANCH  12  13
ENDBRANCH   7  12
BRANCH   2  21
HETATM   21  C   UNL     1      -6.081   0.118 -33.826  1.00  0.00    -0.026 A 
HETATM   22  C   UNL     1      -6.920   0.148 -32.698  1.00  0.00     0.033 A 
HETATM   23  C   UNL     1      -8.297   0.305 -32.846  1.00  0.00     0.034 A 
HETATM   24 CL   UNL     1      -9.304   0.352 -31.452  1.00  0.00    -0.084 Cl
HETATM   25  C   UNL     1      -8.861   0.431 -34.112  1.00  0.00     0.024 A 
HETATM   26  C   UNL     1      -8.042   0.393 -35.241  1.00  0.00     0.002 A 
HETATM   27  C   UNL     1      -6.661   0.235 -35.101  1.00  0.00     0.010 A 
ENDBRANCH   2  21
BRANCH   1  28
HETATM   28  C   UNL     1      -4.665  -2.556 -34.121  1.00  0.00     0.293 C 
HETATM   29  O   UNL     1      -4.066  -3.010 -35.083  1.00  0.00    -0.259 OA
BRANCH  28  30
HETATM   30  O   UNL     1      -5.866  -2.977 -33.654  1.00  0.00    -0.318 OA
BRANCH  30  31
HETATM   31  C   UNL     1      -6.854  -3.258 -34.659  1.00  0.00     0.174 C 
HETATM   32  C   UNL     1      -6.683  -4.673 -35.182  1.00  0.00     0.034 C 
ENDBRANCH  30  31
ENDBRANCH  28  30
ENDBRANCH   1  28
TORSDOF 7
ENDMDL
MODEL 3
REMARK VINA RESULT:      -8.2      3.067      7.620
REMARK  7 active torsions:
REMARK  status: ('A' for Active; 'I' for Inactive)
REMARK    1  A    between atoms: C_2  and  O_3 
REMARK    2  A    between atoms: O_3  and  C_4 
REMARK    3  A    between atoms: C_4  and  C_5 
REMARK    4  A    between atoms: C_6  and  C_7 
REMARK    5  A    between atoms: C_18  and  S_19 
REMARK    6  A    between atoms: S_19  and  C_20 
REMARK    7  A    between atoms: C_20  and  C_21 
ROOT
HETATM    1  C   UNL     1      -7.383   3.822 -32.067  1.00  0.00     0.070 A 
HETATM    2  C   UNL     1      -5.931   3.364 -31.982  1.00  0.00     0.203 A 
HETATM    3  N   UNL     1      -5.071   4.137 -32.884  1.00  0.00    -0.082 N 
HETATM    4  C   UNL     1      -5.510   5.159 -33.676  1.00  0.00     0.726 A 
HETATM    5  N   UNL     1      -6.813   5.494 -33.657  1.00  0.00    -0.192 N 
HETATM    6  N   UNL     1      -3.735   3.975 -32.988  1.00  0.00    -0.128 NA
HETATM    7  C   UNL     1      -3.444   4.893 -33.918  1.00  0.00     0.226 A 
HETATM    8  N   UNL     1      -4.503   5.655 -34.346  1.00  0.00    -0.035 NA
HETATM    9  C   UNL     1      -7.761   4.845 -32.874  1.00  0.00     0.037 A 
HETATM   10  C   UNL     1      -9.168   5.382 -32.978  1.00  0.00     0.070 C 
HETATM   11  H   UNL     1      -7.131   6.255 -34.253  1.00  0.00     0.184 HD
ENDROOT
BRANCH   7  12
HETATM   12  S   UNL     1      -1.828   5.135 -34.519  1.00  0.00    -0.083 SA
BRANCH  12  13
HETATM   13  C   UNL     1      -1.439   6.732 -33.748  1.00  0.00     0.123 C 
BRANCH  13  14
HETATM   14  C   UNL     1      -0.937   6.560 -32.333  1.00  0.00    -0.027 A 
HETATM   15  C   UNL     1      -1.173   7.501 -31.319  1.00  0.00     0.041 A 
HETATM   16 CL   UNL     1      -2.054   8.960 -31.607  1.00  0.00    -0.084 Cl
HETATM   17  C   UNL     1      -0.693   7.285 -30.022  1.00  0.00     0.024 A 
HETATM   18  C   UNL     1       0.022   6.125 -29.720  1.00  0.00     0.002 A 
HETATM   19  C   UNL     1       0.256   5.179 -30.712  1.00  0.00     0.001 A 
HETATM   20  C   UNL     1      -0.222   5.393 -32.007  1.00  0.00     0.009 A 
ENDBRANCH  13  14
ENDBRANCH  12  13
ENDBRANCH   7  12
BRANCH   2  21
HETATM   21  C   UNL     1      -5.741   1.871 -32.241  1.00  0.00    -0.026 A 
HETATM   22  C   UNL     1      -6.157   1.322 -33.468  1.00  0.00     0.033 A 
HETATM   23  C   UNL     1      -5.987  -0.037 -33.727  1.00  0.00     0.034 A 
HETATM   24 CL   UNL     1      -6.490  -0.685 -35.239  1.00  0.00    -0.084 Cl
HETATM   25  C   UNL     1      -5.408  -0.870 -32.775  1.00  0.00     0.024 A 
HETATM   26  C   UNL     1      -5.001  -0.342 -31.550  1.00  0.00     0.002 A 
HETATM   27  C   UNL     1      -5.168   1.019 -31.281  1.00  0.00     0.010 A 
ENDBRANCH   2  21
BRANCH   1  28
HETATM   28  C   UNL     1      -8.366   3.059 -31.272  1.00  0.00     0.293 C 
HETATM   29  O   UNL     1      -8.492   3.154 -30.061  1.00  0.00    -0.259 OA
BRANCH  28  30
HETATM   30  O   UNL     1      -9.107   2.275 -32.094  1.00  0.00    -0.318 OA
BRANCH  30  31
HETATM   31  C   UNL     1      -9.269   0.913 -31.666  1.00  0.00     0.174 C 
HETATM   32  C   UNL     1      -9.616   0.029 -32.850  1.00  0.00     0.034 C 
ENDBRANCH  30  31
ENDBRANCH  28  30
ENDBRANCH   1  28
TORSDOF 7
ENDMDL
MODEL 4
REMARK VINA RESULT:      -8.1      3.435      8.322
REMARK  7 active torsions:
REMARK  status: ('A' for Active; 'I' for Inactive)
REMARK    1  A    between atoms: C_2  and  O_3 
REMARK    2  A    between atoms: O_3  and  C_4 
REMARK    3  A    between atoms: C_4  and  C_5 
REMARK    4  A    between atoms: C_6  and  C_7 
REMARK    5  A    between atoms: C_18  and  S_19 
REMARK    6  A    between atoms: S_19  and  C_20 
REMARK    7  A    between atoms: C_20  and  C_21 
ROOT
HETATM    1  C   UNL     1      -4.243  -1.497 -33.261  1.00  0.00     0.070 A 
HETATM    2  C   UNL     1      -4.697  -0.075 -33.568  1.00  0.00     0.203 A 
HETATM    3  N   UNL     1      -4.279   0.860 -32.517  1.00  0.00    -0.082 N 
HETATM    4  C   UNL     1      -3.548   0.506 -31.419  1.00  0.00     0.726 A 
HETATM    5  N   UNL     1      -3.183  -0.780 -31.258  1.00  0.00    -0.192 N 
HETATM    6  N   UNL     1      -4.509   2.190 -32.544  1.00  0.00    -0.128 NA
HETATM    7  C   UNL     1      -3.944   2.564 -31.389  1.00  0.00     0.226 A 
HETATM    8  N   UNL     1      -3.324   1.562 -30.684  1.00  0.00    -0.035 NA
HETATM    9  C   UNL     1      -3.518  -1.790 -32.152  1.00  0.00     0.037 A 
HETATM   10  C   UNL     1      -2.996  -3.164 -31.805  1.00  0.00     0.070 C 
HETATM   11  H   UNL     1      -2.641  -1.034 -30.436  1.00  0.00     0.184 HD
ENDROOT
BRANCH   7  12
HETATM   12  S   UNL     1      -3.958   4.214 -30.834  1.00  0.00    -0.083 SA
BRANCH  12  13
HETATM   13  C   UNL     1      -4.377   5.065 -32.383  1.00  0.00     0.123 C 
BRANCH  13  14
HETATM   14  C   UNL     1      -3.153   5.659 -33.041  1.00  0.00    -0.027 A 
HETATM   15  C   UNL     1      -2.666   6.939 -32.735  1.00  0.00     0.041 A 
HETATM   16 CL   UNL     1      -3.440   7.964 -31.579  1.00  0.00    -0.084 Cl
HETATM   17  C   UNL     1      -1.520   7.434 -33.369  1.00  0.00     0.024 A 
HETATM   18  C   UNL     1      -0.845   6.656 -34.310  1.00  0.00     0.002 A 
HETATM   19  C   UNL     1      -1.310   5.382 -34.617  1.00  0.00     0.001 A 
HETATM   20  C   UNL     1      -2.453   4.885 -33.986  1.00  0.00     0.009 A 
ENDBRANCH  13  14
ENDBRANCH  12  13
ENDBRANCH   7  12
BRANCH   2  21
HETATM   21  C   UNL     1      -6.200   0.054 -33.804  1.00  0.00    -0.026 A 
HETATM   22  C   UNL     1      -7.078   0.046 -32.705  1.00  0.00     0.033 A 
HETATM   23  C   UNL     1      -8.453   0.168 -32.899  1.00  0.00     0.034 A 
HETATM   24 CL   UNL     1      -9.508   0.169 -31.540  1.00  0.00    -0.084 Cl
HETATM   25  C   UNL     1      -8.977   0.295 -34.182  1.00  0.00     0.024 A 
HETATM   26  C   UNL     1      -8.119   0.295 -35.282  1.00  0.00     0.002 A 
HETATM   27  C   UNL     1      -6.739   0.173 -35.097  1.00  0.00     0.010 A 
ENDBRANCH   2  21
BRANCH   1  28
HETATM   28  C   UNL     1      -4.681  -2.549 -34.201  1.00  0.00     0.293 C 
HETATM   29  O   UNL     1      -4.052  -2.892 -35.189  1.00  0.00    -0.259 OA
BRANCH  28  30
HETATM   30  O   UNL     1      -5.856  -3.077 -33.777  1.00  0.00    -0.318 OA
BRANCH  30  31
HETATM   31  C   UNL     1      -6.801  -3.390 -34.813  1.00  0.00     0.174 C 
HETATM   32  C   UNL     1      -6.498  -4.756 -35.403  1.00  0.00     0.034 C 
ENDBRANCH  30  31
ENDBRANCH  28  30
ENDBRANCH   1  28
TORSDOF 7
ENDMDL
MODEL 5
REMARK VINA RESULT:      -8.0      5.268      7.420
REMARK  7 active torsions:
REMARK  status: ('A' for Active; 'I' for Inactive)
REMARK    1  A    between atoms: C_2  and  O_3 
REMARK    2  A    between atoms: O_3  and  C_4 
REMARK    3  A    between atoms: C_4  and  C_5 
REMARK    4  A    between atoms: C_6  and  C_7 
REMARK    5  A    between atoms: C_18  and  S_19 
REMARK    6  A    between atoms: S_19  and  C_20 
REMARK    7  A    between atoms: C_20  and  C_21 
ROOT
HETATM    1  C   UNL     1      -5.762  -0.383 -32.811  1.00  0.00     0.070 A 
HETATM    2  C   UNL     1      -6.078   0.810 -31.916  1.00  0.00     0.203 A 
HETATM    3  N   UNL     1      -7.464   1.261 -32.091  1.00  0.00    -0.082 N 
HETATM    4  C   UNL     1      -8.365   0.666 -32.927  1.00  0.00     0.726 A 
HETATM    5  N   UNL     1      -7.982  -0.397 -33.659  1.00  0.00    -0.192 N 
HETATM    6  N   UNL     1      -8.030   2.271 -31.398  1.00  0.00    -0.128 NA
HETATM    7  C   UNL     1      -9.262   2.273 -31.923  1.00  0.00     0.226 A 
HETATM    8  N   UNL     1      -9.511   1.288 -32.846  1.00  0.00    -0.035 NA
HETATM    9  C   UNL     1      -6.700  -0.932 -33.624  1.00  0.00     0.037 A 
HETATM   10  C   UNL     1      -6.474  -2.138 -34.503  1.00  0.00     0.070 C 
HETATM   11  H   UNL     1      -8.660  -0.831 -34.281  1.00  0.00     0.184 HD
ENDROOT
BRANCH   7  12
HETATM   12  S   UNL     1     -10.480   3.420 -31.442  1.00  0.00    -0.083 SA
BRANCH  12  13
HETATM   13  C   UNL     1     -11.372   3.612 -33.011  1.00  0.00     0.123 C 
BRANCH  13  14
HETATM   14  C   UNL     1     -12.739   2.971 -32.957  1.00  0.00    -0.027 A 
HETATM   15  C   UNL     1     -13.172   2.014 -33.889  1.00  0.00     0.041 A 
HETATM   16 CL   UNL     1     -12.174   1.494 -35.201  1.00  0.00    -0.084 Cl
HETATM   17  C   UNL     1     -14.446   1.444 -33.783  1.00  0.00     0.024 A 
HETATM   18  C   UNL     1     -15.300   1.817 -32.745  1.00  0.00     0.002 A 
HETATM   19  C   UNL     1     -14.882   2.757 -31.809  1.00  0.00     0.001 A 
HETATM   20  C   UNL     1     -13.611   3.327 -31.912  1.00  0.00     0.009 A 
ENDBRANCH  13  14
ENDBRANCH  12  13
ENDBRANCH   7  12
BRANCH   2  21
HETATM   21  C   UNL     1      -5.125   1.989 -32.101  1.00  0.00    -0.026 A 
HETATM   22  C   UNL     1      -5.293   2.848 -33.202  1.00  0.00     0.033 A 
HETATM   23  C   UNL     1      -4.437   3.933 -33.387  1.00  0.00     0.034 A 
HETATM   24 CL   UNL     1      -4.668   4.980 -34.733  1.00  0.00    -0.084 Cl
HETATM   25  C   UNL     1      -3.404   4.179 -32.488  1.00  0.00     0.024 A 
HETATM   26  C   UNL     1      -3.219   3.329 -31.398  1.00  0.00     0.002 A 
HETATM   27  C   UNL     1      -4.072   2.239 -31.205  1.00  0.00     0.010 A 
ENDBRANCH   2  21
BRANCH   1  28
HETATM   28  C   UNL     1      -4.369  -0.873 -32.793  1.00  0.00     0.293 C 
HETATM   29  O   UNL     1      -3.491  -0.474 -33.543  1.00  0.00    -0.259 OA
BRANCH  28  30
HETATM   30  O   UNL     1      -4.224  -1.797 -31.812  1.00  0.00    -0.318 OA
BRANCH  30  31
HETATM   31  C   UNL     1      -3.114  -2.696 -31.970  1.00  0.00     0.174 C 
HETATM   32  C   UNL     1      -3.516  -3.877 -32.836  1.00  0.00     0.034 C 
ENDBRANCH  30  31
ENDBRANCH  28  30
ENDBRANCH   1  28
TORSDOF 7
ENDMDL
MODEL 6
REMARK VINA RESULT:      -8.0      5.346      6.591
REMARK  7 active torsions:
REMARK  status: ('A' for Active; 'I' for Inactive)
REMARK    1  A    between atoms: C_2  and  O_3 
REMARK    2  A    between atoms: O_3  and  C_4 
REMARK    3  A    between atoms: C_4  and  C_5 
REMARK    4  A    between atoms: C_6  and  C_7 
REMARK    5  A    between atoms: C_18  and  S_19 
REMARK    6  A    between atoms: S_19  and  C_20 
REMARK    7  A    between atoms: C_20  and  C_21 
ROOT
HETATM    1  C   UNL     1     -11.577   1.939 -34.438  1.00  0.00     0.070 A 
HETATM    2  C   UNL     1     -10.124   2.382 -34.305  1.00  0.00     0.203 A 
HETATM    3  N   UNL     1      -9.365   1.479 -33.432  1.00  0.00    -0.082 N 
HETATM    4  C   UNL     1      -9.887   0.365 -32.839  1.00  0.00     0.726 A 
HETATM    5  N   UNL     1     -11.182   0.056 -33.041  1.00  0.00    -0.192 N 
HETATM    6  N   UNL     1      -8.048   1.604 -33.166  1.00  0.00    -0.128 NA
HETATM    7  C   UNL     1      -7.860   0.563 -32.346  1.00  0.00     0.226 A 
HETATM    8  N   UNL     1      -8.959  -0.233 -32.141  1.00  0.00    -0.035 NA
HETATM    9  C   UNL     1     -12.040   0.821 -33.823  1.00  0.00     0.037 A 
HETATM   10  C   UNL     1     -13.450   0.297 -33.943  1.00  0.00     0.070 C 
HETATM   11  H   UNL     1     -11.562  -0.774 -32.593  1.00  0.00     0.184 HD
ENDROOT
BRANCH   7  12
HETATM   12  S   UNL     1      -6.317   0.216 -31.617  1.00  0.00    -0.083 SA
BRANCH  12  13
HETATM   13  C   UNL     1      -5.278   0.126 -33.103  1.00  0.00     0.123 C 
BRANCH  13  14
HETATM   14  C   UNL     1      -5.087  -1.300 -33.565  1.00  0.00    -0.027 A 
HETATM   15  C   UNL     1      -4.052  -2.124 -33.096  1.00  0.00     0.041 A 
HETATM   16 CL   UNL     1      -2.884  -1.567 -31.950  1.00  0.00    -0.084 Cl
HETATM   17  C   UNL     1      -3.931  -3.442 -33.551  1.00  0.00     0.024 A 
HETATM   18  C   UNL     1      -4.843  -3.955 -34.473  1.00  0.00     0.002 A 
HETATM   19  C   UNL     1      -5.880  -3.154 -34.940  1.00  0.00     0.001 A 
HETATM   20  C   UNL     1      -6.003  -1.838 -34.488  1.00  0.00     0.009 A 
ENDBRANCH  13  14
ENDBRANCH  12  13
ENDBRANCH   7  12
BRANCH   2  21
HETATM   21  C   UNL     1      -9.961   3.822 -33.824  1.00  0.00    -0.026 A 
HETATM   22  C   UNL     1     -10.217   4.136 -32.477  1.00  0.00     0.033 A 
HETATM   23  C   UNL     1     -10.069   5.443 -32.016  1.00  0.00     0.034 A 
HETATM   24 CL   UNL     1     -10.375   5.802 -30.362  1.00  0.00    -0.084 Cl
HETATM   25  C   UNL     1      -9.670   6.456 -32.883  1.00  0.00     0.024 A 
HETATM   26  C   UNL     1      -9.422   6.161 -34.223  1.00  0.00     0.002 A 
HETATM   27  C   UNL     1      -9.568   4.854 -34.694  1.00  0.00     0.010 A 
ENDBRANCH   2  21
BRANCH   1  28
HETATM   28  C   UNL     1     -12.469   2.819 -35.219  1.00  0.00     0.293 C 
HETATM   29  O   UNL     1     -12.555   2.801 -36.437  1.00  0.00    -0.259 OA
BRANCH  28  30
HETATM   30  O   UNL     1     -13.179   3.611 -34.378  1.00  0.00    -0.318 OA
BRANCH  30  31
HETATM   31  C   UNL     1     -13.221   5.003 -34.731  1.00  0.00     0.174 C 
HETATM   32  C   UNL     1     -13.434   5.852 -33.490  1.00  0.00     0.034 C 
ENDBRANCH  30  31
ENDBRANCH  28  30
ENDBRANCH   1  28
TORSDOF 7
ENDMDL
MODEL 7
REMARK VINA RESULT:      -7.9      1.910      2.254
REMARK  7 active torsions:
REMARK  status: ('A' for Active; 'I' for Inactive)
REMARK    1  A    between atoms: C_2  and  O_3 
REMARK    2  A    between atoms: O_3  and  C_4 
REMARK    3  A    between atoms: C_4  and  C_5 
REMARK    4  A    between atoms: C_6  and  C_7 
REMARK    5  A    between atoms: C_18  and  S_19 
REMARK    6  A    between atoms: S_19  and  C_20 
REMARK    7  A    between atoms: C_20  and  C_21 
ROOT
HETATM    1  C   UNL     1      -5.224   5.654 -30.701  1.00  0.00     0.070 A 
HETATM    2  C   UNL     1      -4.645   4.944 -31.920  1.00  0.00     0.203 A 
HETATM    3  N   UNL     1      -4.460   3.510 -31.668  1.00  0.00    -0.082 N 
HETATM    4  C   UNL     1      -4.795   2.885 -30.501  1.00  0.00     0.726 A 
HETATM    5  N   UNL     1      -5.319   3.608 -29.494  1.00  0.00    -0.192 N 
HETATM    6  N   UNL     1      -4.002   2.630 -32.583  1.00  0.00    -0.128 NA
HETATM    7  C   UNL     1      -4.022   1.497 -31.869  1.00  0.00     0.226 A 
HETATM    8  N   UNL     1      -4.525   1.611 -30.596  1.00  0.00    -0.035 NA
HETATM    9  C   UNL     1      -5.537   4.979 -29.565  1.00  0.00     0.037 A 
HETATM   10  C   UNL     1      -6.153   5.604 -28.337  1.00  0.00     0.070 C 
HETATM   11  H   UNL     1      -5.562   3.134 -28.628  1.00  0.00     0.184 HD
ENDROOT
BRANCH   7  12
HETATM   12  S   UNL     1      -3.486  -0.027 -32.519  1.00  0.00    -0.083 SA
BRANCH  12  13
HETATM   13  C   UNL     1      -4.976  -1.028 -32.253  1.00  0.00     0.123 C 
BRANCH  13  14
HETATM   14  C   UNL     1      -6.131  -0.544 -33.099  1.00  0.00    -0.027 A 
HETATM   15  C   UNL     1      -7.291   0.027 -32.553  1.00  0.00     0.041 A 
HETATM   16 CL   UNL     1      -7.508   0.216 -30.849  1.00  0.00    -0.084 Cl
HETATM   17  C   UNL     1      -8.326   0.469 -33.386  1.00  0.00     0.024 A 
HETATM   18  C   UNL     1      -8.213   0.350 -34.772  1.00  0.00     0.002 A 
HETATM   19  C   UNL     1      -7.066  -0.206 -35.328  1.00  0.00     0.001 A 
HETATM   20  C   UNL     1      -6.032  -0.647 -34.499  1.00  0.00     0.009 A 
ENDBRANCH  13  14
ENDBRANCH  12  13
ENDBRANCH   7  12
BRANCH   2  21
HETATM   21  C   UNL     1      -3.337   5.552 -32.422  1.00  0.00    -0.026 A 
HETATM   22  C   UNL     1      -2.174   5.439 -31.639  1.00  0.00     0.033 A 
HETATM   23  C   UNL     1      -0.970   5.982 -32.082  1.00  0.00     0.034 A 
HETATM   24 CL   UNL     1       0.444   5.820 -31.115  1.00  0.00    -0.084 Cl
HETATM   25  C   UNL     1      -0.901   6.647 -33.302  1.00  0.00     0.024 A 
HETATM   26  C   UNL     1      -2.048   6.776 -34.085  1.00  0.00     0.002 A 
HETATM   27  C   UNL     1      -3.261   6.235 -33.648  1.00  0.00     0.010 A 
ENDBRANCH   2  21
BRANCH   1  28
HETATM   28  C   UNL     1      -5.372   7.120 -30.796  1.00  0.00     0.293 C 
HETATM   29  O   UNL     1      -6.317   7.681 -31.329  1.00  0.00    -0.259 OA
BRANCH  28  30
HETATM   30  O   UNL     1      -4.324   7.724 -30.184  1.00  0.00    -0.318 OA
BRANCH  30  31
HETATM   31  C   UNL     1      -3.776   8.858 -30.875  1.00  0.00     0.174 C 
HETATM   32  C   UNL     1      -2.307   9.022 -30.532  1.00  0.00     0.034 C 
ENDBRANCH  30  31
ENDBRANCH  28  30
ENDBRANCH   1  28
TORSDOF 7
ENDMDL
MODEL 8
REMARK VINA RESULT:      -7.9      2.279      2.787
REMARK  7 active torsions:
REMARK  status: ('A' for Active; 'I' for Inactive)
REMARK    1  A    between atoms: C_2  and  O_3 
REMARK    2  A    between atoms: O_3  and  C_4 
REMARK    3  A    between atoms: C_4  and  C_5 
REMARK    4  A    between atoms: C_6  and  C_7 
REMARK    5  A    between atoms: C_18  and  S_19 
REMARK    6  A    between atoms: S_19  and  C_20 
REMARK    7  A    between atoms: C_20  and  C_21 
ROOT
HETATM    1  C   UNL     1      -7.394   5.224 -31.561  1.00  0.00     0.070 A 
HETATM    2  C   UNL     1      -6.872   4.290 -32.646  1.00  0.00     0.203 A 
HETATM    3  N   UNL     1      -7.509   2.970 -32.570  1.00  0.00    -0.082 N 
HETATM    4  C   UNL     1      -8.471   2.632 -31.662  1.00  0.00     0.726 A 
HETATM    5  N   UNL     1      -8.872   3.545 -30.757  1.00  0.00    -0.192 N 
HETATM    6  N   UNL     1      -7.270   1.958 -33.430  1.00  0.00    -0.128 NA
HETATM    7  C   UNL     1      -8.077   1.012 -32.932  1.00  0.00     0.226 A 
HETATM    8  N   UNL     1      -8.847   1.397 -31.863  1.00  0.00    -0.035 NA
HETATM    9  C   UNL     1      -8.352   4.832 -30.683  1.00  0.00     0.037 A 
HETATM   10  C   UNL     1      -8.948   5.713 -29.612  1.00  0.00     0.070 C 
HETATM   11  H   UNL     1      -9.587   3.283 -30.083  1.00  0.00     0.184 HD
ENDROOT
BRANCH   7  12
HETATM   12  S   UNL     1      -8.176  -0.586 -33.617  1.00  0.00    -0.083 SA
BRANCH  12  13
HETATM   13  C   UNL     1      -6.600  -0.644 -34.516  1.00  0.00     0.123 C 
BRANCH  13  14
HETATM   14  C   UNL     1      -5.976  -2.019 -34.460  1.00  0.00    -0.027 A 
HETATM   15  C   UNL     1      -4.681  -2.251 -33.970  1.00  0.00     0.041 A 
HETATM   16 CL   UNL     1      -3.673  -0.969 -33.399  1.00  0.00    -0.084 Cl
HETATM   17  C   UNL     1      -4.158  -3.548 -33.931  1.00  0.00     0.024 A 
HETATM   18  C   UNL     1      -4.922  -4.629 -34.373  1.00  0.00     0.002 A 
HETATM   19  C   UNL     1      -6.210  -4.416 -34.852  1.00  0.00     0.001 A 
HETATM   20  C   UNL     1      -6.735  -3.122 -34.893  1.00  0.00     0.009 A 
ENDBRANCH  13  14
ENDBRANCH  12  13
ENDBRANCH   7  12
BRANCH   2  21
HETATM   21  C   UNL     1      -5.354   4.130 -32.644  1.00  0.00    -0.026 A 
HETATM   22  C   UNL     1      -4.594   4.712 -33.675  1.00  0.00     0.033 A 
HETATM   23  C   UNL     1      -3.206   4.583 -33.688  1.00  0.00     0.034 A 
HETATM   24 CL   UNL     1      -2.295   5.313 -34.951  1.00  0.00    -0.084 Cl
HETATM   25  C   UNL     1      -2.553   3.874 -32.684  1.00  0.00     0.024 A 
HETATM   26  C   UNL     1      -3.294   3.283 -31.661  1.00  0.00     0.002 A 
HETATM   27  C   UNL     1      -4.686   3.407 -31.640  1.00  0.00     0.010 A 
ENDBRANCH   2  21
BRANCH   1  28
HETATM   28  C   UNL     1      -6.763   6.557 -31.474  1.00  0.00     0.293 C 
HETATM   29  O   UNL     1      -7.037   7.495 -32.207  1.00  0.00    -0.259 OA
BRANCH  28  30
HETATM   30  O   UNL     1      -5.871   6.573 -30.453  1.00  0.00    -0.318 OA
BRANCH  30  31
HETATM   31  C   UNL     1      -4.792   7.510 -30.592  1.00  0.00     0.174 C 
HETATM   32  C   UNL     1      -3.458   6.797 -30.462  1.00  0.00     0.034 C 
ENDBRANCH  30  31
ENDBRANCH  28  30
ENDBRANCH   1  28
TORSDOF 7
ENDMDL
MODEL 9
REMARK VINA RESULT:      -7.8      2.715      4.581
REMARK  7 active torsions:
REMARK  status: ('A' for Active; 'I' for Inactive)
REMARK    1  A    between atoms: C_2  and  O_3 
REMARK    2  A    between atoms: O_3  and  C_4 
REMARK    3  A    between atoms: C_4  and  C_5 
REMARK    4  A    between atoms: C_6  and  C_7 
REMARK    5  A    between atoms: C_18  and  S_19 
REMARK    6  A    between atoms: S_19  and  C_20 
REMARK    7  A    between atoms: C_20  and  C_21 
ROOT
HETATM    1  C   UNL     1      -1.972   5.866 -32.355  1.00  0.00     0.070 A 
HETATM    2  C   UNL     1      -2.837   5.435 -31.176  1.00  0.00     0.203 A 
HETATM    3  N   UNL     1      -3.719   4.319 -31.536  1.00  0.00    -0.082 N 
HETATM    4  C   UNL     1      -3.739   3.722 -32.764  1.00  0.00     0.726 A 
HETATM    5  N   UNL     1      -2.916   4.172 -33.729  1.00  0.00    -0.192 N 
HETATM    6  N   UNL     1      -4.564   3.708 -30.680  1.00  0.00    -0.128 NA
HETATM    7  C   UNL     1      -5.114   2.791 -31.485  1.00  0.00     0.226 A 
HETATM    8  N   UNL     1      -4.616   2.754 -32.764  1.00  0.00    -0.035 NA
HETATM    9  C   UNL     1      -2.037   5.234 -33.554  1.00  0.00     0.037 A 
HETATM   10  C   UNL     1      -1.183   5.575 -34.751  1.00  0.00     0.070 C 
HETATM   11  H   UNL     1      -2.941   3.723 -34.641  1.00  0.00     0.184 HD
ENDROOT
BRANCH   7  12
HETATM   12  S   UNL     1      -6.350   1.691 -30.941  1.00  0.00    -0.083 SA
BRANCH  12  13
HETATM   13  C   UNL     1      -5.407   0.140 -30.920  1.00  0.00     0.123 C 
BRANCH  13  14
HETATM   14  C   UNL     1      -5.569  -0.628 -32.212  1.00  0.00    -0.027 A 
HETATM   15  C   UNL     1      -4.575  -1.475 -32.726  1.00  0.00     0.041 A 
HETATM   16 CL   UNL     1      -3.061  -1.705 -31.926  1.00  0.00    -0.084 Cl
HETATM   17  C   UNL     1      -4.784  -2.171 -33.922  1.00  0.00     0.024 A 
HETATM   18  C   UNL     1      -5.987  -2.034 -34.616  1.00  0.00     0.002 A 
HETATM   19  C   UNL     1      -6.984  -1.204 -34.114  1.00  0.00     0.001 A 
HETATM   20  C   UNL     1      -6.779  -0.509 -32.921  1.00  0.00     0.009 A 
ENDBRANCH  13  14
ENDBRANCH  12  13
ENDBRANCH   7  12
BRANCH   2  21
HETATM   21  C   UNL     1      -3.661   6.569 -30.570  1.00  0.00    -0.026 A 
HETATM   22  C   UNL     1      -4.710   7.139 -31.316  1.00  0.00     0.033 A 
HETATM   23  C   UNL     1      -5.477   8.170 -30.779  1.00  0.00     0.034 A 
HETATM   24 CL   UNL     1      -6.763   8.844 -31.703  1.00  0.00    -0.084 Cl
HETATM   25  C   UNL     1      -5.216   8.654 -29.501  1.00  0.00     0.024 A 
HETATM   26  C   UNL     1      -4.174   8.106 -28.754  1.00  0.00     0.002 A 
HETATM   27  C   UNL     1      -3.398   7.071 -29.284  1.00  0.00     0.010 A 
ENDBRANCH   2  21
BRANCH   1  28
HETATM   28  C   UNL     1      -1.105   7.043 -32.144  1.00  0.00     0.293 C 
HETATM   29  O   UNL     1      -1.417   8.187 -32.436  1.00  0.00    -0.259 OA
BRANCH  28  30
HETATM   30  O   UNL     1       0.057   6.654 -31.562  1.00  0.00    -0.318 OA
BRANCH  30  31
HETATM   31  C   UNL     1       0.256   7.117 -30.217  1.00  0.00     0.174 C 
HETATM   32  C   UNL     1       0.335   5.939 -29.263  1.00  0.00     0.034 C 
ENDBRANCH  30  31
ENDBRANCH  28  30
ENDBRANCH   1  28
TORSDOF 7
ENDMDL
MODEL 10
REMARK VINA RESULT:      -7.7      5.651      7.382
REMARK  7 active torsions:
REMARK  status: ('A' for Active; 'I' for Inactive)
REMARK    1  A    between atoms: C_2  and  O_3 
REMARK    2  A    between atoms: O_3  and  C_4 
REMARK    3  A    between atoms: C_4  and  C_5 
REMARK    4  A    between atoms: C_6  and  C_7 
REMARK    5  A    between atoms: C_18  and  S_19 
REMARK    6  A    between atoms: S_19  and  C_20 
REMARK    7  A    between atoms: C_20  and  C_21 
ROOT
HETATM    1  C   UNL     1     -11.862   1.582 -33.832  1.00  0.00     0.070 A 
HETATM    2  C   UNL     1     -10.652   2.494 -33.661  1.00  0.00     0.203 A 
HETATM    3  N   UNL     1      -9.558   1.810 -32.962  1.00  0.00    -0.082 N 
HETATM    4  C   UNL     1      -9.607   0.510 -32.546  1.00  0.00     0.726 A 
HETATM    5  N   UNL     1     -10.722  -0.211 -32.767  1.00  0.00    -0.192 N 
HETATM    6  N   UNL     1      -8.353   2.361 -32.709  1.00  0.00    -0.128 NA
HETATM    7  C   UNL     1      -7.746   1.352 -32.072  1.00  0.00     0.226 A 
HETATM    8  N   UNL     1      -8.476   0.193 -31.974  1.00  0.00    -0.035 NA
HETATM    9  C   UNL     1     -11.852   0.297 -33.396  1.00  0.00     0.037 A 
HETATM   10  C   UNL     1     -12.993  -0.677 -33.568  1.00  0.00     0.070 C 
HETATM   11  H   UNL     1     -10.749  -1.177 -32.450  1.00  0.00     0.184 HD
ENDROOT
BRANCH   7  12
HETATM   12  S   UNL     1      -6.128   1.483 -31.443  1.00  0.00    -0.083 SA
BRANCH  12  13
HETATM   13  C   UNL     1      -5.176   1.290 -32.977  1.00  0.00     0.123 C 
BRANCH  13  14
HETATM   14  C   UNL     1      -5.141  -0.149 -33.434  1.00  0.00    -0.027 A 
HETATM   15  C   UNL     1      -5.955  -0.643 -34.466  1.00  0.00     0.041 A 
HETATM   16 CL   UNL     1      -7.089   0.359 -35.300  1.00  0.00    -0.084 Cl
HETATM   17  C   UNL     1      -5.872  -1.985 -34.856  1.00  0.00     0.024 A 
HETATM   18  C   UNL     1      -4.974  -2.847 -34.227  1.00  0.00     0.002 A 
HETATM   19  C   UNL     1      -4.154  -2.370 -33.209  1.00  0.00     0.001 A 
HETATM   20  C   UNL     1      -4.235  -1.032 -32.817  1.00  0.00     0.009 A 
ENDBRANCH  13  14
ENDBRANCH  12  13
ENDBRANCH   7  12
BRANCH   2  21
HETATM   21  C   UNL     1     -10.969   3.812 -32.958  1.00  0.00    -0.026 A 
HETATM   22  C   UNL     1     -10.881   5.019 -33.675  1.00  0.00     0.033 A 
HETATM   23  C   UNL     1     -11.171   6.232 -33.053  1.00  0.00     0.034 A 
HETATM   24 CL   UNL     1     -11.069   7.696 -33.952  1.00  0.00    -0.084 Cl
HETATM   25  C   UNL     1     -11.548   6.267 -31.714  1.00  0.00     0.024 A 
HETATM   26  C   UNL     1     -11.630   5.079 -30.988  1.00  0.00     0.002 A 
HETATM   27  C   UNL     1     -11.340   3.858 -31.603  1.00  0.00     0.010 A 
ENDBRANCH   2  21
BRANCH   1  28
HETATM   28  C   UNL     1     -13.065   2.185 -34.441  1.00  0.00     0.293 C 
HETATM   29  O   UNL     1     -13.280   2.223 -35.643  1.00  0.00    -0.259 OA
BRANCH  28  30
HETATM   30  O   UNL     1     -13.884   2.651 -33.467  1.00  0.00    -0.318 OA
BRANCH  30  31
HETATM   31  C   UNL     1     -15.105   1.916 -33.283  1.00  0.00     0.174 C 
HETATM   32  C   UNL     1     -15.683   2.195 -31.908  1.00  0.00     0.034 C 
ENDBRANCH  30  31
ENDBRANCH  28  30
ENDBRANCH   1  28
TORSDOF 7
ENDMDL
