MODEL 1
REMARK VINA RESULT:      -7.5      0.000      0.000
REMARK  2 active torsions:
REMARK  status: ('A' for Active; 'I' for Inactive)
REMARK    1  A    between atoms: C_8  and  S_9 
REMARK    2  A    between atoms: S_9  and  C_10 
ROOT
HETATM    1  C   UNL     1      -5.650  -4.909 -34.874  1.00  0.00     0.002 A 
HETATM    2  C   UNL     1      -6.261  -3.659 -34.984  1.00  0.00     0.034 A 
HETATM    3  C   UNL     1      -5.695  -2.527 -34.412  1.00  0.00     0.087 A 
HETATM    4  C   UNL     1      -4.470  -2.651 -33.703  1.00  0.00     0.087 A 
HETATM    5  N   UNL     1      -3.881  -1.586 -33.124  1.00  0.00    -0.232 NA
HETATM    6  C   UNL     1      -4.502  -0.400 -33.278  1.00  0.00     0.164 A 
HETATM    7 CL   UNL     1      -3.709   0.911 -32.506  1.00  0.00    -0.059 Cl
HETATM    8  C   UNL     1      -5.696  -0.277 -33.966  1.00  0.00     0.165 A 
HETATM    9  N   UNL     1      -6.318  -1.336 -34.534  1.00  0.00    -0.234 NA
HETATM   10  C   UNL     1      -3.873  -3.901 -33.600  1.00  0.00     0.034 A 
HETATM   11  C   UNL     1      -4.453  -5.030 -34.180  1.00  0.00     0.002 A 
ENDROOT
BRANCH   8  12
HETATM   12  S   UNL     1      -6.571   1.263 -34.180  1.00  0.00     0.078 S 
HETATM   13  O   UNL     1      -7.743   1.045 -35.098  1.00  0.00    -0.251 OA
BRANCH  12  14
HETATM   14  C   UNL     1      -7.298   1.484 -32.501  1.00  0.00     0.112 C 
HETATM   15  C   UNL     1      -8.105   2.794 -32.536  1.00  0.00     0.250 C 
HETATM   16  N   UNL     1      -9.346   2.611 -33.364  1.00  0.00    -0.074 N 
HETATM   17  H   UNL     1      -9.051   2.324 -34.324  1.00  0.00     0.277 HD
HETATM   18  H   UNL     1      -9.841   3.504 -33.487  1.00  0.00     0.277 HD
HETATM   19  C   UNL     1     -10.273   1.568 -32.847  1.00  0.00     0.232 C 
HETATM   20  C   UNL     1      -9.541   0.238 -32.765  1.00  0.00     0.029 C 
HETATM   21  C   UNL     1      -8.207   0.343 -32.017  1.00  0.00     0.021 C 
ENDBRANCH  12  14
ENDBRANCH   8  12
TORSDOF 2
ENDMDL
MODEL 2
REMARK VINA RESULT:      -7.4      1.124      1.466
REMARK  2 active torsions:
REMARK  status: ('A' for Active; 'I' for Inactive)
REMARK    1  A    between atoms: C_8  and  S_9 
REMARK    2  A    between atoms: S_9  and  C_10 
ROOT
HETATM    1  C   UNL     1      -6.263  -4.573 -35.000  1.00  0.00     0.002 A 
HETATM    2  C   UNL     1      -6.806  -3.307 -34.780  1.00  0.00     0.034 A 
HETATM    3  C   UNL     1      -6.050  -2.286 -34.220  1.00  0.00     0.087 A 
HETATM    4  C   UNL     1      -4.697  -2.542 -33.867  1.00  0.00     0.087 A 
HETATM    5  N   UNL     1      -3.922  -1.587 -33.316  1.00  0.00    -0.232 NA
HETATM    6  C   UNL     1      -4.490  -0.378 -33.143  1.00  0.00     0.164 A 
HETATM    7 CL   UNL     1      -3.455   0.786 -32.424  1.00  0.00    -0.059 Cl
HETATM    8  C   UNL     1      -5.808  -0.127 -33.482  1.00  0.00     0.165 A 
HETATM    9  N   UNL     1      -6.613  -1.076 -34.014  1.00  0.00    -0.234 NA
HETATM   10  C   UNL     1      -4.169  -3.806 -34.092  1.00  0.00     0.034 A 
HETATM   11  C   UNL     1      -4.940  -4.823 -34.656  1.00  0.00     0.002 A 
ENDROOT
BRANCH   8  12
HETATM   12  S   UNL     1      -6.615   1.447 -33.253  1.00  0.00     0.078 S 
HETATM   13  O   UNL     1      -6.458   2.272 -34.502  1.00  0.00    -0.251 OA
BRANCH  12  14
HETATM   14  C   UNL     1      -8.384   0.929 -33.229  1.00  0.00     0.112 C 
HETATM   15  C   UNL     1      -8.753   0.683 -31.755  1.00  0.00     0.250 C 
HETATM   16  N   UNL     1      -8.828   1.990 -31.018  1.00  0.00    -0.074 N 
HETATM   17  H   UNL     1      -7.897   2.458 -31.101  1.00  0.00     0.277 HD
HETATM   18  H   UNL     1      -8.967   1.838 -30.011  1.00  0.00     0.277 HD
HETATM   19  C   UNL     1      -9.853   2.930 -31.550  1.00  0.00     0.232 C 
HETATM   20  C   UNL     1      -9.566   3.211 -33.017  1.00  0.00     0.029 C 
HETATM   21  C   UNL     1      -9.377   1.930 -33.838  1.00  0.00     0.021 C 
ENDBRANCH  12  14
ENDBRANCH   8  12
TORSDOF 2
ENDMDL
MODEL 3
REMARK VINA RESULT:      -7.1      3.673      4.685
REMARK  2 active torsions:
REMARK  status: ('A' for Active; 'I' for Inactive)
REMARK    1  A    between atoms: C_8  and  S_9 
REMARK    2  A    between atoms: S_9  and  C_10 
ROOT
HETATM    1  C   UNL     1      -4.886  -3.149 -34.649  1.00  0.00     0.002 A 
HETATM    2  C   UNL     1      -4.251  -2.140 -33.925  1.00  0.00     0.034 A 
HETATM    3  C   UNL     1      -4.974  -1.113 -33.333  1.00  0.00     0.087 A 
HETATM    4  C   UNL     1      -6.388  -1.095 -33.472  1.00  0.00     0.087 A 
HETATM    5  N   UNL     1      -7.136  -0.118 -32.923  1.00  0.00    -0.232 NA
HETATM    6  C   UNL     1      -6.474   0.821 -32.218  1.00  0.00     0.164 A 
HETATM    7 CL   UNL     1      -7.482   2.042 -31.558  1.00  0.00    -0.059 Cl
HETATM    8  C   UNL     1      -5.097   0.807 -32.083  1.00  0.00     0.165 A 
HETATM    9  N   UNL     1      -4.323  -0.150 -32.647  1.00  0.00    -0.234 NA
HETATM   10  C   UNL     1      -7.008  -2.105 -34.195  1.00  0.00     0.034 A 
HETATM   11  C   UNL     1      -6.269  -3.132 -34.785  1.00  0.00     0.002 A 
ENDROOT
BRANCH   8  12
HETATM   12  S   UNL     1      -4.170   2.036 -31.182  1.00  0.00     0.078 S 
HETATM   13  O   UNL     1      -2.734   1.596 -31.076  1.00  0.00    -0.251 OA
BRANCH  12  14
HETATM   14  C   UNL     1      -4.167   3.426 -32.392  1.00  0.00     0.112 C 
HETATM   15  C   UNL     1      -4.868   4.611 -31.707  1.00  0.00     0.250 C 
HETATM   16  N   UNL     1      -3.989   5.173 -30.625  1.00  0.00    -0.074 N 
HETATM   17  H   UNL     1      -3.792   4.406 -29.943  1.00  0.00     0.277 HD
HETATM   18  H   UNL     1      -4.484   5.895 -30.086  1.00  0.00     0.277 HD
HETATM   19  C   UNL     1      -2.682   5.691 -31.113  1.00  0.00     0.232 C 
HETATM   20  C   UNL     1      -1.930   4.575 -31.823  1.00  0.00     0.029 C 
HETATM   21  C   UNL     1      -2.783   3.873 -32.886  1.00  0.00     0.021 C 
ENDBRANCH  12  14
ENDBRANCH   8  12
TORSDOF 2
ENDMDL
MODEL 4
REMARK VINA RESULT:      -6.9      1.976      2.485
REMARK  2 active torsions:
REMARK  status: ('A' for Active; 'I' for Inactive)
REMARK    1  A    between atoms: C_8  and  S_9 
REMARK    2  A    between atoms: S_9  and  C_10 
ROOT
HETATM    1  C   UNL     1      -6.288  -3.640 -34.904  1.00  0.00     0.002 A 
HETATM    2  C   UNL     1      -6.785  -2.373 -34.594  1.00  0.00     0.034 A 
HETATM    3  C   UNL     1      -6.000  -1.430 -33.944  1.00  0.00     0.087 A 
HETATM    4  C   UNL     1      -4.665  -1.768 -33.592  1.00  0.00     0.087 A 
HETATM    5  N   UNL     1      -3.862  -0.891 -32.956  1.00  0.00    -0.232 NA
HETATM    6  C   UNL     1      -4.385   0.324 -32.698  1.00  0.00     0.164 A 
HETATM    7 CL   UNL     1      -3.318   1.385 -31.875  1.00  0.00    -0.059 Cl
HETATM    8  C   UNL     1      -5.686   0.654 -33.037  1.00  0.00     0.165 A 
HETATM    9  N   UNL     1      -6.518  -0.218 -33.654  1.00  0.00    -0.234 NA
HETATM   10  C   UNL     1      -4.183  -3.031 -33.906  1.00  0.00     0.034 A 
HETATM   11  C   UNL     1      -4.983  -3.970 -34.560  1.00  0.00     0.002 A 
ENDROOT
BRANCH   8  12
HETATM   12  S   UNL     1      -6.434   2.237 -32.699  1.00  0.00     0.078 S 
HETATM   13  O   UNL     1      -7.456   2.540 -33.761  1.00  0.00    -0.251 OA
BRANCH  12  14
HETATM   14  C   UNL     1      -7.405   1.845 -31.182  1.00  0.00     0.112 C 
HETATM   15  C   UNL     1      -6.423   1.911 -29.999  1.00  0.00     0.250 C 
HETATM   16  N   UNL     1      -6.038   3.339 -29.730  1.00  0.00    -0.074 N 
HETATM   17  H   UNL     1      -5.605   3.723 -30.601  1.00  0.00     0.277 HD
HETATM   18  H   UNL     1      -5.302   3.393 -29.015  1.00  0.00     0.277 HD
HETATM   19  C   UNL     1      -7.182   4.219 -29.369  1.00  0.00     0.232 C 
HETATM   20  C   UNL     1      -8.212   4.194 -30.489  1.00  0.00     0.029 C 
HETATM   21  C   UNL     1      -8.599   2.769 -30.902  1.00  0.00     0.021 C 
ENDBRANCH  12  14
ENDBRANCH   8  12
TORSDOF 2
ENDMDL
MODEL 5
REMARK VINA RESULT:      -6.7      2.825      3.939
REMARK  2 active torsions:
REMARK  status: ('A' for Active; 'I' for Inactive)
REMARK    1  A    between atoms: C_8  and  S_9 
REMARK    2  A    between atoms: S_9  and  C_10 
ROOT
HETATM    1  C   UNL     1      -5.980  -1.963 -34.773  1.00  0.00     0.002 A 
HETATM    2  C   UNL     1      -7.130  -1.174 -34.832  1.00  0.00     0.034 A 
HETATM    3  C   UNL     1      -7.415  -0.241 -33.844  1.00  0.00     0.087 A 
HETATM    4  C   UNL     1      -6.515  -0.091 -32.754  1.00  0.00     0.087 A 
HETATM    5  N   UNL     1      -6.748   0.795 -31.766  1.00  0.00    -0.232 NA
HETATM    6  C   UNL     1      -7.861   1.545 -31.882  1.00  0.00     0.164 A 
HETATM    7 CL   UNL     1      -8.106   2.642 -30.586  1.00  0.00    -0.059 Cl
HETATM    8  C   UNL     1      -8.741   1.400 -32.941  1.00  0.00     0.165 A 
HETATM    9  N   UNL     1      -8.541   0.499 -33.932  1.00  0.00    -0.234 NA
HETATM   10  C   UNL     1      -5.375  -0.883 -32.707  1.00  0.00     0.034 A 
HETATM   11  C   UNL     1      -5.100  -1.817 -33.707  1.00  0.00     0.002 A 
ENDROOT
BRANCH   8  12
HETATM   12  S   UNL     1     -10.239   2.350 -33.132  1.00  0.00     0.078 S 
HETATM   13  O   UNL     1      -9.925   3.631 -33.856  1.00  0.00    -0.251 OA
BRANCH  12  14
HETATM   14  C   UNL     1     -11.155   1.311 -34.348  1.00  0.00     0.112 C 
HETATM   15  C   UNL     1     -12.076   0.385 -33.535  1.00  0.00     0.250 C 
HETATM   16  N   UNL     1     -13.201   1.179 -32.933  1.00  0.00    -0.074 N 
HETATM   17  H   UNL     1     -12.781   1.920 -32.327  1.00  0.00     0.277 HD
HETATM   18  H   UNL     1     -13.764   0.597 -32.299  1.00  0.00     0.277 HD
HETATM   19  C   UNL     1     -14.072   1.855 -33.933  1.00  0.00     0.232 C 
HETATM   20  C   UNL     1     -13.226   2.781 -34.794  1.00  0.00     0.029 C 
HETATM   21  C   UNL     1     -11.993   2.082 -35.379  1.00  0.00     0.021 C 
ENDBRANCH  12  14
ENDBRANCH   8  12
TORSDOF 2
ENDMDL
MODEL 6
REMARK VINA RESULT:      -6.6      2.542      3.034
REMARK  2 active torsions:
REMARK  status: ('A' for Active; 'I' for Inactive)
REMARK    1  A    between atoms: C_8  and  S_9 
REMARK    2  A    between atoms: S_9  and  C_10 
ROOT
HETATM    1  C   UNL     1      -6.542  -4.107 -35.205  1.00  0.00     0.002 A 
HETATM    2  C   UNL     1      -6.880  -2.915 -34.565  1.00  0.00     0.034 A 
HETATM    3  C   UNL     1      -5.964  -2.239 -33.768  1.00  0.00     0.087 A 
HETATM    4  C   UNL     1      -4.659  -2.779 -33.608  1.00  0.00     0.087 A 
HETATM    5  N   UNL     1      -3.734  -2.166 -32.842  1.00  0.00    -0.232 NA
HETATM    6  C   UNL     1      -4.106  -1.008 -32.263  1.00  0.00     0.164 A 
HETATM    7 CL   UNL     1      -2.889  -0.288 -31.291  1.00  0.00    -0.059 Cl
HETATM    8  C   UNL     1      -5.377  -0.482 -32.415  1.00  0.00     0.165 A 
HETATM    9  N   UNL     1      -6.329  -1.092 -33.159  1.00  0.00    -0.234 NA
HETATM   10  C   UNL     1      -4.336  -3.966 -34.250  1.00  0.00     0.034 A 
HETATM   11  C   UNL     1      -5.266  -4.635 -35.048  1.00  0.00     0.002 A 
ENDROOT
BRANCH   8  12
HETATM   12  S   UNL     1      -5.928   1.034 -31.653  1.00  0.00     0.078 S 
HETATM   13  O   UNL     1      -5.546   1.025 -30.198  1.00  0.00    -0.251 OA
BRANCH  12  14
HETATM   14  C   UNL     1      -4.797   2.253 -32.449  1.00  0.00     0.112 C 
HETATM   15  C   UNL     1      -5.660   3.104 -33.397  1.00  0.00     0.250 C 
HETATM   16  N   UNL     1      -6.550   4.017 -32.601  1.00  0.00    -0.074 N 
HETATM   17  H   UNL     1      -7.145   3.422 -31.981  1.00  0.00     0.277 HD
HETATM   18  H   UNL     1      -7.209   4.515 -33.214  1.00  0.00     0.277 HD
HETATM   19  C   UNL     1      -5.815   4.978 -31.735  1.00  0.00     0.232 C 
HETATM   20  C   UNL     1      -4.920   4.210 -30.774  1.00  0.00     0.029 C 
HETATM   21  C   UNL     1      -4.037   3.179 -31.487  1.00  0.00     0.021 C 
ENDBRANCH  12  14
ENDBRANCH   8  12
TORSDOF 2
ENDMDL
MODEL 7
REMARK VINA RESULT:      -6.6     13.494     14.930
REMARK  2 active torsions:
REMARK  status: ('A' for Active; 'I' for Inactive)
REMARK    1  A    between atoms: C_8  and  S_9 
REMARK    2  A    between atoms: S_9  and  C_10 
ROOT
HETATM    1  C   UNL     1      -9.887 -12.300 -40.468  1.00  0.00     0.002 A 
HETATM    2  C   UNL     1      -8.510 -12.075 -40.478  1.00  0.00     0.034 A 
HETATM    3  C   UNL     1      -7.685 -12.611 -39.497  1.00  0.00     0.087 A 
HETATM    4  C   UNL     1      -8.261 -13.403 -38.467  1.00  0.00     0.087 A 
HETATM    5  N   UNL     1      -7.507 -13.941 -37.489  1.00  0.00    -0.232 NA
HETATM    6  C   UNL     1      -6.181 -13.710 -37.557  1.00  0.00     0.164 A 
HETATM    7 CL   UNL     1      -5.281 -14.410 -36.275  1.00  0.00    -0.059 Cl
HETATM    8  C   UNL     1      -5.618 -12.937 -38.557  1.00  0.00     0.165 A 
HETATM    9  N   UNL     1      -6.359 -12.366 -39.536  1.00  0.00    -0.234 NA
HETATM   10  C   UNL     1      -9.633 -13.618 -38.469  1.00  0.00     0.034 A 
HETATM   11  C   UNL     1     -10.451 -13.074 -39.460  1.00  0.00     0.002 A 
ENDROOT
BRANCH   8  12
HETATM   12  S   UNL     1      -3.874 -12.581 -38.681  1.00  0.00     0.078 S 
HETATM   13  O   UNL     1      -3.357 -12.156 -37.334  1.00  0.00    -0.251 OA
BRANCH  12  14
HETATM   14  C   UNL     1      -3.194 -14.272 -38.956  1.00  0.00     0.112 C 
HETATM   15  C   UNL     1      -3.176 -14.500 -40.478  1.00  0.00     0.250 C 
HETATM   16  N   UNL     1      -2.107 -13.655 -41.112  1.00  0.00    -0.074 N 
HETATM   17  H   UNL     1      -2.312 -12.656 -40.883  1.00  0.00     0.277 HD
HETATM   18  H   UNL     1      -2.152 -13.713 -42.138  1.00  0.00     0.277 HD
HETATM   19  C   UNL     1      -0.731 -13.956 -40.632  1.00  0.00     0.232 C 
HETATM   20  C   UNL     1      -0.670 -13.769 -39.124  1.00  0.00     0.029 C 
HETATM   21  C   UNL     1      -1.788 -14.521 -38.391  1.00  0.00     0.021 C 
ENDBRANCH  12  14
ENDBRANCH   8  12
TORSDOF 2
ENDMDL
MODEL 8
REMARK VINA RESULT:      -6.6      5.510      7.370
REMARK  2 active torsions:
REMARK  status: ('A' for Active; 'I' for Inactive)
REMARK    1  A    between atoms: C_8  and  S_9 
REMARK    2  A    between atoms: S_9  and  C_10 
ROOT
HETATM    1  C   UNL     1       0.367   6.108 -30.699  1.00  0.00     0.002 A 
HETATM    2  C   UNL     1      -0.408   4.948 -30.709  1.00  0.00     0.034 A 
HETATM    3  C   UNL     1      -1.499   4.817 -31.560  1.00  0.00     0.087 A 
HETATM    4  C   UNL     1      -1.825   5.889 -32.434  1.00  0.00     0.087 A 
HETATM    5  N   UNL     1      -2.876   5.815 -33.274  1.00  0.00    -0.232 NA
HETATM    6  C   UNL     1      -3.579   4.666 -33.258  1.00  0.00     0.164 A 
HETATM    7 CL   UNL     1      -4.910   4.643 -34.339  1.00  0.00    -0.059 Cl
HETATM    8  C   UNL     1      -3.265   3.622 -32.406  1.00  0.00     0.165 A 
HETATM    9  N   UNL     1      -2.229   3.682 -31.536  1.00  0.00    -0.234 NA
HETATM   10  C   UNL     1      -1.046   7.038 -32.413  1.00  0.00     0.034 A 
HETATM   11  C   UNL     1       0.047   7.156 -31.554  1.00  0.00     0.002 A 
ENDROOT
BRANCH   8  12
HETATM   12  S   UNL     1      -4.174   2.089 -32.327  1.00  0.00     0.078 S 
HETATM   13  O   UNL     1      -3.273   1.003 -31.805  1.00  0.00    -0.251 OA
BRANCH  12  14
HETATM   14  C   UNL     1      -5.348   2.454 -30.954  1.00  0.00     0.112 C 
HETATM   15  C   UNL     1      -6.631   3.004 -31.602  1.00  0.00     0.250 C 
HETATM   16  N   UNL     1      -7.360   1.902 -32.317  1.00  0.00    -0.074 N 
HETATM   17  H   UNL     1      -6.714   1.505 -33.036  1.00  0.00     0.277 HD
HETATM   18  H   UNL     1      -8.161   2.272 -32.845  1.00  0.00     0.277 HD
HETATM   19  C   UNL     1      -7.790   0.785 -31.432  1.00  0.00     0.232 C 
HETATM   20  C   UNL     1      -6.573   0.194 -30.737  1.00  0.00     0.029 C 
HETATM   21  C   UNL     1      -5.708   1.261 -30.055  1.00  0.00     0.021 C 
ENDBRANCH  12  14
ENDBRANCH   8  12
TORSDOF 2
ENDMDL
MODEL 9
REMARK VINA RESULT:      -6.5      8.905     10.938
REMARK  2 active torsions:
REMARK  status: ('A' for Active; 'I' for Inactive)
REMARK    1  A    between atoms: C_8  and  S_9 
REMARK    2  A    between atoms: S_9  and  C_10 
ROOT
HETATM    1  C   UNL     1       1.504   8.021 -27.339  1.00  0.00     0.002 A 
HETATM    2  C   UNL     1       0.900   8.102 -28.594  1.00  0.00     0.034 A 
HETATM    3  C   UNL     1      -0.455   7.844 -28.760  1.00  0.00     0.087 A 
HETATM    4  C   UNL     1      -1.235   7.492 -27.625  1.00  0.00     0.087 A 
HETATM    5  N   UNL     1      -2.552   7.226 -27.732  1.00  0.00    -0.232 NA
HETATM    6  C   UNL     1      -3.089   7.338 -28.963  1.00  0.00     0.164 A 
HETATM    7 CL   UNL     1      -4.764   6.973 -29.032  1.00  0.00    -0.059 Cl
HETATM    8  C   UNL     1      -2.331   7.678 -30.070  1.00  0.00     0.165 A 
HETATM    9  N   UNL     1      -1.003   7.925 -29.991  1.00  0.00    -0.234 NA
HETATM   10  C   UNL     1      -0.621   7.414 -26.382  1.00  0.00     0.034 A 
HETATM   11  C   UNL     1       0.741   7.676 -26.229  1.00  0.00     0.002 A 
ENDROOT
BRANCH   8  12
HETATM   12  S   UNL     1      -2.986   7.818 -31.723  1.00  0.00     0.078 S 
HETATM   13  O   UNL     1      -1.905   8.314 -32.645  1.00  0.00    -0.251 OA
BRANCH  12  14
HETATM   14  C   UNL     1      -3.220   6.041 -32.154  1.00  0.00     0.112 C 
HETATM   15  C   UNL     1      -3.715   6.000 -33.610  1.00  0.00     0.250 C 
HETATM   16  N   UNL     1      -2.599   6.377 -34.544  1.00  0.00    -0.074 N 
HETATM   17  H   UNL     1      -2.274   7.335 -34.283  1.00  0.00     0.277 HD
HETATM   18  H   UNL     1      -2.940   6.459 -35.511  1.00  0.00     0.277 HD
HETATM   19  C   UNL     1      -1.422   5.468 -34.482  1.00  0.00     0.232 C 
HETATM   20  C   UNL     1      -0.881   5.440 -33.060  1.00  0.00     0.029 C 
HETATM   21  C   UNL     1      -1.971   5.157 -32.020  1.00  0.00     0.021 C 
ENDBRANCH  12  14
ENDBRANCH   8  12
TORSDOF 2
ENDMDL
MODEL 10
REMARK VINA RESULT:      -6.5      3.993      5.863
REMARK  2 active torsions:
REMARK  status: ('A' for Active; 'I' for Inactive)
REMARK    1  A    between atoms: C_8  and  S_9 
REMARK    2  A    between atoms: S_9  and  C_10 
ROOT
HETATM    1  C   UNL     1      -2.167   5.543 -34.768  1.00  0.00     0.002 A 
HETATM    2  C   UNL     1      -3.500   5.133 -34.718  1.00  0.00     0.034 A 
HETATM    3  C   UNL     1      -4.017   4.497 -33.596  1.00  0.00     0.087 A 
HETATM    4  C   UNL     1      -3.167   4.264 -32.482  1.00  0.00     0.087 A 
HETATM    5  N   UNL     1      -3.617   3.647 -31.371  1.00  0.00    -0.232 NA
HETATM    6  C   UNL     1      -4.916   3.289 -31.368  1.00  0.00     0.164 A 
HETATM    7 CL   UNL     1      -5.420   2.496 -29.933  1.00  0.00    -0.059 Cl
HETATM    8  C   UNL     1      -5.745   3.512 -32.453  1.00  0.00     0.165 A 
HETATM    9  N   UNL     1      -5.309   4.108 -33.588  1.00  0.00    -0.234 NA
HETATM   10  C   UNL     1      -1.843   4.677 -32.544  1.00  0.00     0.034 A 
HETATM   11  C   UNL     1      -1.336   5.315 -33.678  1.00  0.00     0.002 A 
ENDROOT
BRANCH   8  12
HETATM   12  S   UNL     1      -7.464   3.039 -32.510  1.00  0.00     0.078 S 
HETATM   13  O   UNL     1      -8.120   3.694 -33.695  1.00  0.00    -0.251 OA
BRANCH  12  14
HETATM   14  C   UNL     1      -7.318   1.257 -32.954  1.00  0.00     0.112 C 
HETATM   15  C   UNL     1      -7.751   0.454 -31.715  1.00  0.00     0.250 C 
HETATM   16  N   UNL     1      -9.235   0.578 -31.514  1.00  0.00    -0.074 N 
HETATM   17  H   UNL     1      -9.459   1.593 -31.404  1.00  0.00     0.277 HD
HETATM   18  H   UNL     1      -9.526   0.138 -30.632  1.00  0.00     0.277 HD
HETATM   19  C   UNL     1     -10.047   0.058 -32.648  1.00  0.00     0.232 C 
HETATM   20  C   UNL     1      -9.663   0.794 -33.923  1.00  0.00     0.029 C 
HETATM   21  C   UNL     1      -8.149   0.805 -34.165  1.00  0.00     0.021 C 
ENDBRANCH  12  14
ENDBRANCH   8  12
TORSDOF 2
ENDMDL
