MODEL 1
REMARK VINA RESULT:      -9.5      0.000      0.000
REMARK  7 active torsions:
REMARK  status: ('A' for Active; 'I' for Inactive)
REMARK    1  A    between atoms: C_2  and  C_3 
REMARK    2  A    between atoms: C_3  and  N_4 
REMARK       I    between atoms: N_4  and  C_5 
REMARK    3  A    between atoms: C_5  and  C_6 
REMARK    4  A    between atoms: C_6  and  C_7 
REMARK    5  A    between atoms: C_7  and  C_8 
REMARK       I    between atoms: C_8  and  N_9 
REMARK    6  A    between atoms: N_9  and  N_10 
REMARK       I    between atoms: N_10  and  C_11 
REMARK    7  A    between atoms: C_11  and  C_12 
ROOT
HETATM    1  C   UNL     1      -2.298   4.854 -32.722  1.00  0.00     0.236 C 
HETATM    2  N   UNL     1      -3.322   4.250 -32.033  1.00  0.00    -0.267 N 
HETATM    3  O   UNL     1      -1.890   4.449 -33.811  1.00  0.00    -0.272 OA
HETATM    4  H   UNL     1      -3.551   4.455 -31.060  1.00  0.00     0.190 HD
ENDROOT
BRANCH   1   5
HETATM    5  C   UNL     1      -1.636   6.007 -32.010  1.00  0.00     0.114 C 
BRANCH   5   6
HETATM    6  C   UNL     1      -0.152   5.719 -31.843  1.00  0.00     0.112 C 
BRANCH   6   7
HETATM    7  C   UNL     1       0.251   5.379 -30.419  1.00  0.00     0.218 C 
HETATM    8  N   UNL     1       0.251   6.429 -29.535  1.00  0.00    -0.357 N 
HETATM    9  H   UNL     1      -0.298   7.262 -29.740  1.00  0.00     0.162 HD
HETATM   10  O   UNL     1       0.628   4.250 -30.116  1.00  0.00    -0.274 OA
BRANCH   8  11
HETATM   11  C   UNL     1       0.661   6.238 -28.162  1.00  0.00     0.161 C 
BRANCH  11  12
HETATM   12  C   UNL     1       0.840   7.536 -27.409  1.00  0.00    -0.038 A 
HETATM   13  C   UNL     1       0.152   8.717 -27.779  1.00  0.00     0.012 A 
HETATM   14  C   UNL     1       0.352   9.921 -27.094  1.00  0.00     0.040 A 
HETATM   15  C   UNL     1       1.263   9.925 -26.062  1.00  0.00     0.105 A 
HETATM   16  C   UNL     1       1.957   8.795 -25.706  1.00  0.00     0.105 A 
HETATM   17  O   UNL     1       1.595  11.001 -25.298  1.00  0.00    -0.323 OA
HETATM   18  C   UNL     1       1.771   7.592 -26.357  1.00  0.00     0.048 A 
HETATM   19  O   UNL     1       2.818   9.016 -24.677  1.00  0.00    -0.323 OA
HETATM   20  C   UNL     1       2.592  10.420 -24.433  1.00  0.00     0.352 A 
ENDBRANCH  11  12
ENDBRANCH   8  11
ENDBRANCH   6   7
ENDBRANCH   5   6
ENDBRANCH   1   5
BRANCH   2  21
HETATM   21  N   UNL     1      -3.857   3.071 -32.563  1.00  0.00    -0.262 N 
HETATM   22  C   UNL     1      -3.515   1.862 -31.998  1.00  0.00     0.286 C 
HETATM   23  O   UNL     1      -2.761   1.791 -31.028  1.00  0.00    -0.264 OA
HETATM   24  H   UNL     1      -4.446   3.163 -33.386  1.00  0.00     0.190 HD
BRANCH  22  25
HETATM   25  C   UNL     1      -4.105   0.695 -32.615  1.00  0.00     0.103 A 
HETATM   26  N   UNL     1      -5.449   0.646 -32.918  1.00  0.00    -0.351 N 
HETATM   27  H   UNL     1      -6.095   1.403 -32.728  1.00  0.00     0.166 HD
HETATM   28  C   UNL     1      -5.778  -0.543 -33.524  1.00  0.00     0.043 A 
HETATM   29  C   UNL     1      -4.609  -1.298 -33.597  1.00  0.00    -0.005 A 
HETATM   30  C   UNL     1      -7.007  -1.001 -34.009  1.00  0.00     0.032 A 
HETATM   31  C   UNL     1      -3.569  -0.516 -33.020  1.00  0.00     0.049 A 
HETATM   32  C   UNL     1      -4.660  -2.578 -34.179  1.00  0.00     0.037 A 
HETATM   33  C   UNL     1      -5.882  -3.048 -34.670  1.00  0.00     0.035 A 
HETATM   34  C   UNL     1      -7.038  -2.274 -34.588  1.00  0.00     0.026 A 
HETATM   35 CL   UNL     1      -5.957  -4.611 -35.391  1.00  0.00    -0.084 Cl
ENDBRANCH  22  25
ENDBRANCH   2  21
TORSDOF 7
ENDMDL
MODEL 2
REMARK VINA RESULT:      -9.4      0.784      1.268
REMARK  7 active torsions:
REMARK  status: ('A' for Active; 'I' for Inactive)
REMARK    1  A    between atoms: C_2  and  C_3 
REMARK    2  A    between atoms: C_3  and  N_4 
REMARK       I    between atoms: N_4  and  C_5 
REMARK    3  A    between atoms: C_5  and  C_6 
REMARK    4  A    between atoms: C_6  and  C_7 
REMARK    5  A    between atoms: C_7  and  C_8 
REMARK       I    between atoms: C_8  and  N_9 
REMARK    6  A    between atoms: N_9  and  N_10 
REMARK       I    between atoms: N_10  and  C_11 
REMARK    7  A    between atoms: C_11  and  C_12 
ROOT
HETATM    1  C   UNL     1      -2.743   4.477 -32.519  1.00  0.00     0.236 C 
HETATM    2  N   UNL     1      -3.772   3.791 -31.920  1.00  0.00    -0.267 N 
HETATM    3  O   UNL     1      -2.212   4.111 -33.568  1.00  0.00    -0.272 OA
HETATM    4  H   UNL     1      -4.099   3.973 -30.970  1.00  0.00     0.190 HD
ENDROOT
BRANCH   1   5
HETATM    5  C   UNL     1      -2.236   5.674 -31.753  1.00  0.00     0.114 C 
BRANCH   5   6
HETATM    6  C   UNL     1      -0.724   5.764 -31.891  1.00  0.00     0.112 C 
BRANCH   6   7
HETATM    7  C   UNL     1       0.030   5.432 -30.616  1.00  0.00     0.218 C 
HETATM    8  N   UNL     1      -0.106   6.336 -29.593  1.00  0.00    -0.357 N 
HETATM    9  H   UNL     1      -0.905   6.969 -29.580  1.00  0.00     0.162 HD
HETATM   10  O   UNL     1       0.774   4.457 -30.552  1.00  0.00    -0.274 OA
BRANCH   8  11
HETATM   11  C   UNL     1       0.601   6.152 -28.345  1.00  0.00     0.161 C 
BRANCH  11  12
HETATM   12  C   UNL     1       0.748   7.428 -27.550  1.00  0.00    -0.038 A 
HETATM   13  C   UNL     1       0.041   8.607 -27.890  1.00  0.00     0.012 A 
HETATM   14  C   UNL     1       0.212   9.792 -27.166  1.00  0.00     0.040 A 
HETATM   15  C   UNL     1       1.112   9.782 -26.125  1.00  0.00     0.105 A 
HETATM   16  C   UNL     1       1.824   8.653 -25.798  1.00  0.00     0.105 A 
HETATM   17  O   UNL     1       1.417  10.839 -25.325  1.00  0.00    -0.323 OA
HETATM   18  C   UNL     1       1.668   7.468 -26.487  1.00  0.00     0.048 A 
HETATM   19  O   UNL     1       2.671   8.858 -24.753  1.00  0.00    -0.323 OA
HETATM   20  C   UNL     1       2.416  10.249 -24.468  1.00  0.00     0.352 A 
ENDBRANCH  11  12
ENDBRANCH   8  11
ENDBRANCH   6   7
ENDBRANCH   5   6
ENDBRANCH   1   5
BRANCH   2  21
HETATM   21  N   UNL     1      -4.166   2.577 -32.493  1.00  0.00    -0.262 N 
HETATM   22  C   UNL     1      -3.660   1.399 -31.990  1.00  0.00     0.286 C 
HETATM   23  O   UNL     1      -2.880   1.383 -31.037  1.00  0.00    -0.264 OA
HETATM   24  H   UNL     1      -4.781   2.628 -33.300  1.00  0.00     0.190 HD
BRANCH  22  25
HETATM   25  C   UNL     1      -4.113   0.194 -32.648  1.00  0.00     0.103 A 
HETATM   26  N   UNL     1      -3.394  -0.980 -32.570  1.00  0.00    -0.351 N 
HETATM   27  H   UNL     1      -2.521  -1.070 -32.065  1.00  0.00     0.166 HD
HETATM   28  C   UNL     1      -4.029  -1.996 -33.244  1.00  0.00     0.043 A 
HETATM   29  C   UNL     1      -5.189  -1.455 -33.794  1.00  0.00    -0.005 A 
HETATM   30  C   UNL     1      -3.668  -3.338 -33.405  1.00  0.00     0.032 A 
HETATM   31  C   UNL     1      -5.230  -0.082 -33.420  1.00  0.00     0.049 A 
HETATM   32  C   UNL     1      -6.038  -2.287 -34.547  1.00  0.00     0.037 A 
HETATM   33  C   UNL     1      -5.691  -3.631 -34.714  1.00  0.00     0.035 A 
HETATM   34  C   UNL     1      -4.527  -4.151 -34.153  1.00  0.00     0.026 A 
HETATM   35 CL   UNL     1      -6.726  -4.663 -35.629  1.00  0.00    -0.084 Cl
ENDBRANCH  22  25
ENDBRANCH   2  21
TORSDOF 7
ENDMDL
MODEL 3
REMARK VINA RESULT:      -9.3      1.511      1.718
REMARK  7 active torsions:
REMARK  status: ('A' for Active; 'I' for Inactive)
REMARK    1  A    between atoms: C_2  and  C_3 
REMARK    2  A    between atoms: C_3  and  N_4 
REMARK       I    between atoms: N_4  and  C_5 
REMARK    3  A    between atoms: C_5  and  C_6 
REMARK    4  A    between atoms: C_6  and  C_7 
REMARK    5  A    between atoms: C_7  and  C_8 
REMARK       I    between atoms: C_8  and  N_9 
REMARK    6  A    between atoms: N_9  and  N_10 
REMARK       I    between atoms: N_10  and  C_11 
REMARK    7  A    between atoms: C_11  and  C_12 
ROOT
HETATM    1  C   UNL     1      -3.580   4.836 -31.762  1.00  0.00     0.236 C 
HETATM    2  N   UNL     1      -2.943   3.620 -31.701  1.00  0.00    -0.267 N 
HETATM    3  O   UNL     1      -4.700   4.984 -32.253  1.00  0.00    -0.272 OA
HETATM    4  H   UNL     1      -1.956   3.507 -31.468  1.00  0.00     0.190 HD
ENDROOT
BRANCH   1   5
HETATM    5  C   UNL     1      -2.775   6.010 -31.264  1.00  0.00     0.114 C 
BRANCH   5   6
HETATM    6  C   UNL     1      -1.410   6.012 -31.934  1.00  0.00     0.112 C 
BRANCH   6   7
HETATM    7  C   UNL     1      -0.251   6.176 -30.966  1.00  0.00     0.218 C 
HETATM    8  N   UNL     1      -0.431   5.619 -29.725  1.00  0.00    -0.357 N 
HETATM    9  H   UNL     1      -1.120   4.879 -29.597  1.00  0.00     0.162 HD
HETATM   10  O   UNL     1       0.740   6.837 -31.264  1.00  0.00    -0.274 OA
BRANCH   8  11
HETATM   11  C   UNL     1       0.583   5.748 -28.702  1.00  0.00     0.161 C 
BRANCH  11  12
HETATM   12  C   UNL     1       0.409   6.980 -27.845  1.00  0.00    -0.038 A 
HETATM   13  C   UNL     1       1.300   8.079 -27.923  1.00  0.00     0.012 A 
HETATM   14  C   UNL     1       1.148   9.199 -27.100  1.00  0.00     0.040 A 
HETATM   15  C   UNL     1       0.116   9.188 -26.189  1.00  0.00     0.105 A 
HETATM   16  C   UNL     1      -0.742   8.121 -26.082  1.00  0.00     0.105 A 
HETATM   17  O   UNL     1      -0.174  10.178 -25.302  1.00  0.00    -0.323 OA
HETATM   18  C   UNL     1      -0.622   7.007 -26.889  1.00  0.00     0.048 A 
HETATM   19  O   UNL     1      -1.677   8.300 -25.112  1.00  0.00    -0.323 OA
HETATM   20  C   UNL     1      -1.302   9.601 -24.613  1.00  0.00     0.352 A 
ENDBRANCH  11  12
ENDBRANCH   8  11
ENDBRANCH   6   7
ENDBRANCH   5   6
ENDBRANCH   1   5
BRANCH   2  21
HETATM   21  N   UNL     1      -3.569   2.526 -32.308  1.00  0.00    -0.262 N 
HETATM   22  C   UNL     1      -3.353   1.262 -31.804  1.00  0.00     0.286 C 
HETATM   23  O   UNL     1      -2.635   1.070 -30.824  1.00  0.00    -0.264 OA
HETATM   24  H   UNL     1      -4.126   2.715 -33.137  1.00  0.00     0.190 HD
BRANCH  22  25
HETATM   25  C   UNL     1      -4.031   0.189 -32.498  1.00  0.00     0.103 A 
HETATM   26  N   UNL     1      -5.387   0.236 -32.742  1.00  0.00    -0.351 N 
HETATM   27  H   UNL     1      -5.982   1.003 -32.454  1.00  0.00     0.166 HD
HETATM   28  C   UNL     1      -5.804  -0.873 -33.439  1.00  0.00     0.043 A 
HETATM   29  C   UNL     1      -4.682  -1.675 -33.634  1.00  0.00    -0.005 A 
HETATM   30  C   UNL     1      -7.076  -1.221 -33.907  1.00  0.00     0.032 A 
HETATM   31  C   UNL     1      -3.578  -1.004 -33.036  1.00  0.00     0.049 A 
HETATM   32  C   UNL     1      -4.827  -2.891 -34.328  1.00  0.00     0.037 A 
HETATM   33  C   UNL     1      -6.091  -3.250 -34.803  1.00  0.00     0.035 A 
HETATM   34  C   UNL     1      -7.199  -2.431 -34.598  1.00  0.00     0.026 A 
HETATM   35 CL   UNL     1      -6.281  -4.734 -35.660  1.00  0.00    -0.084 Cl
ENDBRANCH  22  25
ENDBRANCH   2  21
TORSDOF 7
ENDMDL
MODEL 4
REMARK VINA RESULT:      -9.2      1.575      2.335
REMARK  7 active torsions:
REMARK  status: ('A' for Active; 'I' for Inactive)
REMARK    1  A    between atoms: C_2  and  C_3 
REMARK    2  A    between atoms: C_3  and  N_4 
REMARK       I    between atoms: N_4  and  C_5 
REMARK    3  A    between atoms: C_5  and  C_6 
REMARK    4  A    between atoms: C_6  and  C_7 
REMARK    5  A    between atoms: C_7  and  C_8 
REMARK       I    between atoms: C_8  and  N_9 
REMARK    6  A    between atoms: N_9  and  N_10 
REMARK       I    between atoms: N_10  and  C_11 
REMARK    7  A    between atoms: C_11  and  C_12 
ROOT
HETATM    1  C   UNL     1      -2.359   4.286 -32.069  1.00  0.00     0.236 C 
HETATM    2  N   UNL     1      -2.983   3.328 -31.308  1.00  0.00    -0.267 N 
HETATM    3  O   UNL     1      -2.163   4.161 -33.278  1.00  0.00    -0.272 OA
HETATM    4  H   UNL     1      -2.993   3.330 -30.288  1.00  0.00     0.190 HD
ENDROOT
BRANCH   1   5
HETATM    5  C   UNL     1      -1.841   5.479 -31.304  1.00  0.00     0.114 C 
BRANCH   5   6
HETATM    6  C   UNL     1      -1.883   6.712 -32.192  1.00  0.00     0.112 C 
BRANCH   6   7
HETATM    7  C   UNL     1      -1.827   8.022 -31.427  1.00  0.00     0.218 C 
HETATM    8  N   UNL     1      -1.645   7.911 -30.071  1.00  0.00    -0.357 N 
HETATM    9  H   UNL     1      -1.243   7.059 -29.683  1.00  0.00     0.162 HD
HETATM   10  O   UNL     1      -2.016   9.098 -31.990  1.00  0.00    -0.274 OA
BRANCH   8  11
HETATM   11  C   UNL     1      -1.621   9.086 -29.230  1.00  0.00     0.161 C 
BRANCH  11  12
HETATM   12  C   UNL     1      -0.562   9.026 -28.154  1.00  0.00    -0.038 A 
HETATM   13  C   UNL     1       0.586   8.207 -28.279  1.00  0.00     0.012 A 
HETATM   14  C   UNL     1       1.543   8.134 -27.260  1.00  0.00     0.040 A 
HETATM   15  C   UNL     1       1.318   8.868 -26.118  1.00  0.00     0.105 A 
HETATM   16  C   UNL     1       0.197   9.649 -25.971  1.00  0.00     0.105 A 
HETATM   17  O   UNL     1       2.127   8.909 -25.025  1.00  0.00    -0.323 OA
HETATM   18  C   UNL     1      -0.757   9.748 -26.963  1.00  0.00     0.048 A 
HETATM   19  O   UNL     1       0.156  10.276 -24.765  1.00  0.00    -0.323 OA
HETATM   20  C   UNL     1       1.376   9.791 -24.167  1.00  0.00     0.352 A 
ENDBRANCH  11  12
ENDBRANCH   8  11
ENDBRANCH   6   7
ENDBRANCH   5   6
ENDBRANCH   1   5
BRANCH   2  21
HETATM   21  N   UNL     1      -3.328   2.124 -31.931  1.00  0.00    -0.262 N 
HETATM   22  C   UNL     1      -4.654   1.857 -32.194  1.00  0.00     0.286 C 
HETATM   23  O   UNL     1      -5.544   2.657 -31.909  1.00  0.00    -0.264 OA
HETATM   24  H   UNL     1      -2.573   1.470 -32.119  1.00  0.00     0.190 HD
BRANCH  22  25
HETATM   25  C   UNL     1      -4.920   0.586 -32.831  1.00  0.00     0.103 A 
HETATM   26  N   UNL     1      -4.012  -0.449 -32.776  1.00  0.00    -0.351 N 
HETATM   27  H   UNL     1      -3.118  -0.386 -32.304  1.00  0.00     0.166 HD
HETATM   28  C   UNL     1      -4.490  -1.564 -33.422  1.00  0.00     0.043 A 
HETATM   29  C   UNL     1      -5.744  -1.232 -33.930  1.00  0.00    -0.005 A 
HETATM   30  C   UNL     1      -3.914  -2.827 -33.591  1.00  0.00     0.032 A 
HETATM   31  C   UNL     1      -6.002   0.119 -33.559  1.00  0.00     0.049 A 
HETATM   32  C   UNL     1      -6.468  -2.202 -34.648  1.00  0.00     0.037 A 
HETATM   33  C   UNL     1      -5.905  -3.470 -34.822  1.00  0.00     0.035 A 
HETATM   34  C   UNL     1      -4.650  -3.781 -34.304  1.00  0.00     0.026 A 
HETATM   35 CL   UNL     1      -6.783  -4.671 -35.694  1.00  0.00    -0.084 Cl
ENDBRANCH  22  25
ENDBRANCH   2  21
TORSDOF 7
ENDMDL
MODEL 5
REMARK VINA RESULT:      -9.0      4.443     12.566
REMARK  7 active torsions:
REMARK  status: ('A' for Active; 'I' for Inactive)
REMARK    1  A    between atoms: C_2  and  C_3 
REMARK    2  A    between atoms: C_3  and  N_4 
REMARK       I    between atoms: N_4  and  C_5 
REMARK    3  A    between atoms: C_5  and  C_6 
REMARK    4  A    between atoms: C_6  and  C_7 
REMARK    5  A    between atoms: C_7  and  C_8 
REMARK       I    between atoms: C_8  and  N_9 
REMARK    6  A    between atoms: N_9  and  N_10 
REMARK       I    between atoms: N_10  and  C_11 
REMARK    7  A    between atoms: C_11  and  C_12 
ROOT
HETATM    1  C   UNL     1      -3.878   4.166 -31.256  1.00  0.00     0.236 C 
HETATM    2  N   UNL     1      -2.548   4.493 -31.368  1.00  0.00    -0.267 N 
HETATM    3  O   UNL     1      -4.652   4.749 -30.496  1.00  0.00    -0.272 OA
HETATM    4  H   UNL     1      -1.859   3.914 -31.848  1.00  0.00     0.190 HD
ENDROOT
BRANCH   1   5
HETATM    5  C   UNL     1      -4.317   2.972 -32.067  1.00  0.00     0.114 C 
BRANCH   5   6
HETATM    6  C   UNL     1      -5.804   2.731 -31.855  1.00  0.00     0.112 C 
BRANCH   6   7
HETATM    7  C   UNL     1      -6.488   2.051 -33.028  1.00  0.00     0.218 C 
HETATM    8  N   UNL     1      -6.105   0.756 -33.269  1.00  0.00    -0.357 N 
HETATM    9  H   UNL     1      -5.672   0.210 -32.526  1.00  0.00     0.162 HD
HETATM   10  O   UNL     1      -7.270   2.663 -33.751  1.00  0.00    -0.274 OA
BRANCH   8  11
HETATM   11  C   UNL     1      -6.653   0.019 -34.386  1.00  0.00     0.161 C 
BRANCH  11  12
HETATM   12  C   UNL     1      -6.207  -1.424 -34.423  1.00  0.00    -0.038 A 
HETATM   13  C   UNL     1      -7.020  -2.445 -34.972  1.00  0.00     0.012 A 
HETATM   14  C   UNL     1      -6.609  -3.783 -34.970  1.00  0.00     0.040 A 
HETATM   15  C   UNL     1      -5.396  -4.078 -34.391  1.00  0.00     0.105 A 
HETATM   16  C   UNL     1      -4.606  -3.103 -33.833  1.00  0.00     0.105 A 
HETATM   17  O   UNL     1      -4.845  -5.318 -34.286  1.00  0.00    -0.323 OA
HETATM   18  C   UNL     1      -4.981  -1.775 -33.830  1.00  0.00     0.048 A 
HETATM   19  O   UNL     1      -3.460  -3.606 -33.299  1.00  0.00    -0.323 OA
HETATM   20  C   UNL     1      -3.626  -5.011 -33.579  1.00  0.00     0.352 A 
ENDBRANCH  11  12
ENDBRANCH   8  11
ENDBRANCH   6   7
ENDBRANCH   5   6
ENDBRANCH   1   5
BRANCH   2  21
HETATM   21  N   UNL     1      -2.045   5.478 -30.511  1.00  0.00    -0.262 N 
HETATM   22  C   UNL     1      -0.719   5.437 -30.142  1.00  0.00     0.286 C 
HETATM   23  O   UNL     1       0.042   4.564 -30.559  1.00  0.00    -0.264 OA
HETATM   24  H   UNL     1      -2.709   6.161 -30.156  1.00  0.00     0.190 HD
BRANCH  22  25
HETATM   25  C   UNL     1      -0.287   6.486 -29.246  1.00  0.00     0.103 A 
HETATM   26  N   UNL     1       0.550   6.223 -28.183  1.00  0.00    -0.351 N 
HETATM   27  H   UNL     1       0.903   5.300 -27.962  1.00  0.00     0.166 HD
HETATM   28  C   UNL     1       0.850   7.373 -27.491  1.00  0.00     0.043 A 
HETATM   29  C   UNL     1       0.166   8.413 -28.117  1.00  0.00    -0.005 A 
HETATM   30  C   UNL     1       1.667   7.568 -26.373  1.00  0.00     0.032 A 
HETATM   31  C   UNL     1      -0.548   7.846 -29.212  1.00  0.00     0.049 A 
HETATM   32  C   UNL     1       0.294   9.718 -27.607  1.00  0.00     0.037 A 
HETATM   33  C   UNL     1       1.110   9.928 -26.490  1.00  0.00     0.035 A 
HETATM   34  C   UNL     1       1.786   8.873 -25.882  1.00  0.00     0.026 A 
HETATM   35 CL   UNL     1       1.282  11.522 -25.859  1.00  0.00    -0.084 Cl
ENDBRANCH  22  25
ENDBRANCH   2  21
TORSDOF 7
ENDMDL
MODEL 6
REMARK VINA RESULT:      -8.9      4.451      6.111
REMARK  7 active torsions:
REMARK  status: ('A' for Active; 'I' for Inactive)
REMARK    1  A    between atoms: C_2  and  C_3 
REMARK    2  A    between atoms: C_3  and  N_4 
REMARK       I    between atoms: N_4  and  C_5 
REMARK    3  A    between atoms: C_5  and  C_6 
REMARK    4  A    between atoms: C_6  and  C_7 
REMARK    5  A    between atoms: C_7  and  C_8 
REMARK       I    between atoms: C_8  and  N_9 
REMARK    6  A    between atoms: N_9  and  N_10 
REMARK       I    between atoms: N_10  and  C_11 
REMARK    7  A    between atoms: C_11  and  C_12 
ROOT
HETATM    1  C   UNL     1      -7.596   4.107 -29.809  1.00  0.00     0.236 C 
HETATM    2  N   UNL     1      -7.119   2.907 -29.338  1.00  0.00    -0.267 N 
HETATM    3  O   UNL     1      -8.031   4.255 -30.951  1.00  0.00    -0.272 OA
HETATM    4  H   UNL     1      -6.593   2.806 -28.470  1.00  0.00     0.190 HD
ENDROOT
BRANCH   1   5
HETATM    5  C   UNL     1      -7.468   5.269 -28.856  1.00  0.00     0.114 C 
BRANCH   5   6
HETATM    6  C   UNL     1      -6.057   5.311 -28.290  1.00  0.00     0.112 C 
BRANCH   6   7
HETATM    7  C   UNL     1      -5.247   6.510 -28.751  1.00  0.00     0.218 C 
HETATM    8  N   UNL     1      -5.530   6.969 -30.013  1.00  0.00    -0.357 N 
HETATM    9  H   UNL     1      -6.427   6.746 -30.443  1.00  0.00     0.162 HD
HETATM   10  O   UNL     1      -4.343   6.972 -28.059  1.00  0.00    -0.274 OA
BRANCH   8  11
HETATM   11  C   UNL     1      -4.793   8.075 -30.580  1.00  0.00     0.161 C 
BRANCH  11  12
HETATM   12  C   UNL     1      -3.730   7.641 -31.562  1.00  0.00    -0.038 A 
HETATM   13  C   UNL     1      -2.508   8.342 -31.702  1.00  0.00     0.012 A 
HETATM   14  C   UNL     1      -1.546   7.950 -32.639  1.00  0.00     0.040 A 
HETATM   15  C   UNL     1      -1.839   6.871 -33.443  1.00  0.00     0.105 A 
HETATM   16  C   UNL     1      -3.030   6.195 -33.337  1.00  0.00     0.105 A 
HETATM   17  O   UNL     1      -1.035   6.360 -34.413  1.00  0.00    -0.323 OA
HETATM   18  C   UNL     1      -3.992   6.554 -32.415  1.00  0.00     0.048 A 
HETATM   19  O   UNL     1      -3.130   5.176 -34.232  1.00  0.00    -0.323 OA
HETATM   20  C   UNL     1      -1.866   5.296 -34.919  1.00  0.00     0.352 A 
ENDBRANCH  11  12
ENDBRANCH   8  11
ENDBRANCH   6   7
ENDBRANCH   5   6
ENDBRANCH   1   5
BRANCH   2  21
HETATM   21  N   UNL     1      -7.051   1.836 -30.236  1.00  0.00    -0.262 N 
HETATM   22  C   UNL     1      -5.862   1.571 -30.879  1.00  0.00     0.286 C 
HETATM   23  O   UNL     1      -4.852   2.243 -30.674  1.00  0.00    -0.264 OA
HETATM   24  H   UNL     1      -7.913   1.326 -30.409  1.00  0.00     0.190 HD
BRANCH  22  25
HETATM   25  C   UNL     1      -5.884   0.453 -31.796  1.00  0.00     0.103 A 
HETATM   26  N   UNL     1      -4.732  -0.226 -32.128  1.00  0.00    -0.351 N 
HETATM   27  H   UNL     1      -3.817   0.012 -31.766  1.00  0.00     0.166 HD
HETATM   28  C   UNL     1      -4.998  -1.265 -32.987  1.00  0.00     0.043 A 
HETATM   29  C   UNL     1      -6.369  -1.245 -33.236  1.00  0.00    -0.005 A 
HETATM   30  C   UNL     1      -4.139  -2.212 -33.555  1.00  0.00     0.032 A 
HETATM   31  C   UNL     1      -6.914  -0.161 -32.490  1.00  0.00     0.049 A 
HETATM   32  C   UNL     1      -6.920  -2.213 -34.096  1.00  0.00     0.037 A 
HETATM   33  C   UNL     1      -6.073  -3.166 -34.669  1.00  0.00     0.035 A 
HETATM   34  C   UNL     1      -4.706  -3.169 -34.404  1.00  0.00     0.026 A 
HETATM   35 CL   UNL     1      -6.736  -4.362 -35.719  1.00  0.00    -0.084 Cl
ENDBRANCH  22  25
ENDBRANCH   2  21
TORSDOF 7
ENDMDL
MODEL 7
REMARK VINA RESULT:      -8.9      2.491      2.971
REMARK  7 active torsions:
REMARK  status: ('A' for Active; 'I' for Inactive)
REMARK    1  A    between atoms: C_2  and  C_3 
REMARK    2  A    between atoms: C_3  and  N_4 
REMARK       I    between atoms: N_4  and  C_5 
REMARK    3  A    between atoms: C_5  and  C_6 
REMARK    4  A    between atoms: C_6  and  C_7 
REMARK    5  A    between atoms: C_7  and  C_8 
REMARK       I    between atoms: C_8  and  N_9 
REMARK    6  A    between atoms: N_9  and  N_10 
REMARK       I    between atoms: N_10  and  C_11 
REMARK    7  A    between atoms: C_11  and  C_12 
ROOT
HETATM    1  C   UNL     1      -2.120   4.479 -32.049  1.00  0.00     0.236 C 
HETATM    2  N   UNL     1      -2.821   3.529 -31.345  1.00  0.00    -0.267 N 
HETATM    3  O   UNL     1      -1.874   4.379 -33.251  1.00  0.00    -0.272 OA
HETATM    4  H   UNL     1      -2.878   3.503 -30.327  1.00  0.00     0.190 HD
ENDROOT
BRANCH   1   5
HETATM    5  C   UNL     1      -1.585   5.624 -31.225  1.00  0.00     0.114 C 
BRANCH   5   6
HETATM    6  C   UNL     1      -0.101   5.417 -30.968  1.00  0.00     0.112 C 
BRANCH   6   7
HETATM    7  C   UNL     1       0.263   5.352 -29.495  1.00  0.00     0.218 C 
HETATM    8  N   UNL     1      -0.512   6.114 -28.657  1.00  0.00    -0.357 N 
HETATM    9  H   UNL     1      -1.441   6.407 -28.954  1.00  0.00     0.162 HD
HETATM   10  O   UNL     1       1.241   4.718 -29.108  1.00  0.00    -0.274 OA
BRANCH   8  11
HETATM   11  C   UNL     1      -0.233   6.169 -27.239  1.00  0.00     0.161 C 
BRANCH  11  12
HETATM   12  C   UNL     1      -1.060   7.202 -26.510  1.00  0.00    -0.038 A 
HETATM   13  C   UNL     1      -0.478   8.359 -25.939  1.00  0.00     0.012 A 
HETATM   14  C   UNL     1      -1.250   9.291 -25.236  1.00  0.00     0.040 A 
HETATM   15  C   UNL     1      -2.595   9.031 -25.095  1.00  0.00     0.105 A 
HETATM   16  C   UNL     1      -3.170   7.901 -25.622  1.00  0.00     0.105 A 
HETATM   17  O   UNL     1      -3.492   9.813 -24.436  1.00  0.00    -0.323 OA
HETATM   18  C   UNL     1      -2.435   6.970 -26.328  1.00  0.00     0.048 A 
HETATM   19  O   UNL     1      -4.502   7.824 -25.356  1.00  0.00    -0.323 OA
HETATM   20  C   UNL     1      -4.695   9.033 -24.593  1.00  0.00     0.352 A 
ENDBRANCH  11  12
ENDBRANCH   8  11
ENDBRANCH   6   7
ENDBRANCH   5   6
ENDBRANCH   1   5
BRANCH   2  21
HETATM   21  N   UNL     1      -3.191   2.360 -32.019  1.00  0.00    -0.262 N 
HETATM   22  C   UNL     1      -4.259   1.624 -31.556  1.00  0.00     0.286 C 
HETATM   23  O   UNL     1      -4.908   1.975 -30.572  1.00  0.00    -0.264 OA
HETATM   24  H   UNL     1      -2.610   2.079 -32.806  1.00  0.00     0.190 HD
BRANCH  22  25
HETATM   25  C   UNL     1      -4.563   0.426 -32.307  1.00  0.00     0.103 A 
HETATM   26  N   UNL     1      -3.733  -0.673 -32.273  1.00  0.00    -0.351 N 
HETATM   27  H   UNL     1      -2.873  -0.710 -31.739  1.00  0.00     0.166 HD
HETATM   28  C   UNL     1      -4.237  -1.700 -33.035  1.00  0.00     0.043 A 
HETATM   29  C   UNL     1      -5.427  -1.241 -33.598  1.00  0.00    -0.005 A 
HETATM   30  C   UNL     1      -3.737  -2.986 -33.264  1.00  0.00     0.032 A 
HETATM   31  C   UNL     1      -5.619   0.094 -33.140  1.00  0.00     0.049 A 
HETATM   32  C   UNL     1      -6.160  -2.101 -34.436  1.00  0.00     0.037 A 
HETATM   33  C   UNL     1      -5.673  -3.390 -34.672  1.00  0.00     0.035 A 
HETATM   34  C   UNL     1      -4.482  -3.828 -34.097  1.00  0.00     0.026 A 
HETATM   35 CL   UNL     1      -6.565  -4.456 -35.691  1.00  0.00    -0.084 Cl
ENDBRANCH  22  25
ENDBRANCH   2  21
TORSDOF 7
ENDMDL
MODEL 8
REMARK VINA RESULT:      -8.9      4.522     11.717
REMARK  7 active torsions:
REMARK  status: ('A' for Active; 'I' for Inactive)
REMARK    1  A    between atoms: C_2  and  C_3 
REMARK    2  A    between atoms: C_3  and  N_4 
REMARK       I    between atoms: N_4  and  C_5 
REMARK    3  A    between atoms: C_5  and  C_6 
REMARK    4  A    between atoms: C_6  and  C_7 
REMARK    5  A    between atoms: C_7  and  C_8 
REMARK       I    between atoms: C_8  and  N_9 
REMARK    6  A    between atoms: N_9  and  N_10 
REMARK       I    between atoms: N_10  and  C_11 
REMARK    7  A    between atoms: C_11  and  C_12 
ROOT
HETATM    1  C   UNL     1      -5.082   5.053 -32.816  1.00  0.00     0.236 C 
HETATM    2  N   UNL     1      -3.956   5.800 -33.062  1.00  0.00    -0.267 N 
HETATM    3  O   UNL     1      -5.509   4.835 -31.682  1.00  0.00    -0.272 OA
HETATM    4  H   UNL     1      -3.487   5.840 -33.968  1.00  0.00     0.190 HD
ENDROOT
BRANCH   1   5
HETATM    5  C   UNL     1      -5.722   4.433 -34.033  1.00  0.00     0.114 C 
BRANCH   5   6
HETATM    6  C   UNL     1      -7.231   4.390 -33.850  1.00  0.00     0.112 C 
BRANCH   6   7
HETATM    7  C   UNL     1      -7.776   3.001 -33.568  1.00  0.00     0.218 C 
HETATM    8  N   UNL     1      -7.185   2.331 -32.527  1.00  0.00    -0.357 N 
HETATM    9  H   UNL     1      -6.684   2.853 -31.809  1.00  0.00     0.162 HD
HETATM   10  O   UNL     1      -8.632   2.494 -34.289  1.00  0.00    -0.274 OA
BRANCH   8  11
HETATM   11  C   UNL     1      -7.587   0.983 -32.192  1.00  0.00     0.161 C 
BRANCH  11  12
HETATM   12  C   UNL     1      -6.700  -0.073 -32.811  1.00  0.00    -0.038 A 
HETATM   13  C   UNL     1      -5.288   0.008 -32.753  1.00  0.00     0.012 A 
HETATM   14  C   UNL     1      -4.478  -0.958 -33.359  1.00  0.00     0.040 A 
HETATM   15  C   UNL     1      -5.101  -1.981 -34.038  1.00  0.00     0.105 A 
HETATM   16  C   UNL     1      -6.470  -2.061 -34.124  1.00  0.00     0.105 A 
HETATM   17  O   UNL     1      -4.478  -2.995 -34.696  1.00  0.00    -0.323 OA
HETATM   18  C   UNL     1      -7.293  -1.128 -33.527  1.00  0.00     0.048 A 
HETATM   19  O   UNL     1      -6.882  -3.133 -34.852  1.00  0.00    -0.323 OA
HETATM   20  C   UNL     1      -5.614  -3.712 -35.222  1.00  0.00     0.352 A 
ENDBRANCH  11  12
ENDBRANCH   8  11
ENDBRANCH   6   7
ENDBRANCH   5   6
ENDBRANCH   1   5
BRANCH   2  21
HETATM   21  N   UNL     1      -3.221   6.253 -31.961  1.00  0.00    -0.262 N 
HETATM   22  C   UNL     1      -1.881   5.945 -31.871  1.00  0.00     0.286 C 
HETATM   23  O   UNL     1      -1.308   5.293 -32.743  1.00  0.00    -0.264 OA
HETATM   24  H   UNL     1      -3.734   6.757 -31.242  1.00  0.00     0.190 HD
BRANCH  22  25
HETATM   25  C   UNL     1      -1.203   6.445 -30.697  1.00  0.00     0.103 A 
HETATM   26  N   UNL     1      -1.725   6.262 -29.434  1.00  0.00    -0.351 N 
HETATM   27  H   UNL     1      -2.599   5.783 -29.253  1.00  0.00     0.166 HD
HETATM   28  C   UNL     1      -0.898   6.792 -28.473  1.00  0.00     0.043 A 
HETATM   29  C   UNL     1       0.189   7.356 -29.140  1.00  0.00    -0.005 A 
HETATM   30  C   UNL     1      -1.026   6.813 -27.080  1.00  0.00     0.032 A 
HETATM   31  C   UNL     1      -0.015   7.139 -30.532  1.00  0.00     0.049 A 
HETATM   32  C   UNL     1       1.202   7.978 -28.387  1.00  0.00     0.037 A 
HETATM   33  C   UNL     1       1.087   8.004 -26.994  1.00  0.00     0.035 A 
HETATM   34  C   UNL     1      -0.007   7.432 -26.348  1.00  0.00     0.026 A 
HETATM   35 CL   UNL     1       2.325   8.757 -26.059  1.00  0.00    -0.084 Cl
ENDBRANCH  22  25
ENDBRANCH   2  21
TORSDOF 7
ENDMDL
MODEL 9
REMARK VINA RESULT:      -8.8      4.432     11.715
REMARK  7 active torsions:
REMARK  status: ('A' for Active; 'I' for Inactive)
REMARK    1  A    between atoms: C_2  and  C_3 
REMARK    2  A    between atoms: C_3  and  N_4 
REMARK       I    between atoms: N_4  and  C_5 
REMARK    3  A    between atoms: C_5  and  C_6 
REMARK    4  A    between atoms: C_6  and  C_7 
REMARK    5  A    between atoms: C_7  and  C_8 
REMARK       I    between atoms: C_8  and  N_9 
REMARK    6  A    between atoms: N_9  and  N_10 
REMARK       I    between atoms: N_10  and  C_11 
REMARK    7  A    between atoms: C_11  and  C_12 
ROOT
HETATM    1  C   UNL     1      -1.999   6.089 -33.860  1.00  0.00     0.236 C 
HETATM    2  N   UNL     1      -1.746   5.506 -32.642  1.00  0.00    -0.267 N 
HETATM    3  O   UNL     1      -1.812   7.285 -34.085  1.00  0.00    -0.272 OA
HETATM    4  H   UNL     1      -2.061   4.571 -32.383  1.00  0.00     0.190 HD
ENDROOT
BRANCH   1   5
HETATM    5  C   UNL     1      -2.615   5.178 -34.894  1.00  0.00     0.114 C 
BRANCH   5   6
HETATM    6  C   UNL     1      -4.129   5.303 -34.846  1.00  0.00     0.112 C 
BRANCH   6   7
HETATM    7  C   UNL     1      -4.790   4.375 -33.842  1.00  0.00     0.218 C 
HETATM    8  N   UNL     1      -5.744   3.530 -34.352  1.00  0.00    -0.357 N 
HETATM    9  H   UNL     1      -5.746   3.312 -35.347  1.00  0.00     0.162 HD
HETATM   10  O   UNL     1      -4.536   4.449 -32.642  1.00  0.00    -0.274 OA
BRANCH   8  11
HETATM   11  C   UNL     1      -6.475   2.633 -33.486  1.00  0.00     0.161 C 
BRANCH  11  12
HETATM   12  C   UNL     1      -5.919   1.228 -33.479  1.00  0.00    -0.038 A 
HETATM   13  C   UNL     1      -4.786   0.875 -32.706  1.00  0.00     0.012 A 
HETATM   14  C   UNL     1      -4.261  -0.421 -32.735  1.00  0.00     0.040 A 
HETATM   15  C   UNL     1      -4.868  -1.339 -33.561  1.00  0.00     0.105 A 
HETATM   16  C   UNL     1      -5.953  -1.007 -34.335  1.00  0.00     0.105 A 
HETATM   17  O   UNL     1      -4.488  -2.635 -33.726  1.00  0.00    -0.323 OA
HETATM   18  C   UNL     1      -6.499   0.261 -34.319  1.00  0.00     0.048 A 
HETATM   19  O   UNL     1      -6.391  -2.050 -35.091  1.00  0.00    -0.323 OA
HETATM   20  C   UNL     1      -5.449  -3.074 -34.709  1.00  0.00     0.352 A 
ENDBRANCH  11  12
ENDBRANCH   8  11
ENDBRANCH   6   7
ENDBRANCH   5   6
ENDBRANCH   1   5
BRANCH   2  21
HETATM   21  N   UNL     1      -1.340   6.339 -31.594  1.00  0.00    -0.262 N 
HETATM   22  C   UNL     1      -0.596   5.810 -30.562  1.00  0.00     0.286 C 
HETATM   23  O   UNL     1      -0.265   4.625 -30.544  1.00  0.00    -0.264 OA
HETATM   24  H   UNL     1      -1.662   7.303 -31.620  1.00  0.00     0.190 HD
BRANCH  22  25
HETATM   25  C   UNL     1      -0.229   6.739 -29.517  1.00  0.00     0.103 A 
HETATM   26  N   UNL     1       0.661   6.388 -28.524  1.00  0.00    -0.351 N 
HETATM   27  H   UNL     1       1.099   5.477 -28.461  1.00  0.00     0.166 HD
HETATM   28  C   UNL     1       0.881   7.435 -27.662  1.00  0.00     0.043 A 
HETATM   29  C   UNL     1       0.090   8.495 -28.101  1.00  0.00    -0.005 A 
HETATM   30  C   UNL     1       1.713   7.524 -26.541  1.00  0.00     0.032 A 
HETATM   31  C   UNL     1      -0.606   8.047 -29.259  1.00  0.00     0.049 A 
HETATM   32  C   UNL     1       0.121   9.709 -27.389  1.00  0.00     0.037 A 
HETATM   33  C   UNL     1       0.950   9.812 -26.268  1.00  0.00     0.035 A 
HETATM   34  C   UNL     1       1.734   8.740 -25.849  1.00  0.00     0.026 A 
HETATM   35 CL   UNL     1       1.002  11.295 -25.391  1.00  0.00    -0.084 Cl
ENDBRANCH  22  25
ENDBRANCH   2  21
TORSDOF 7
ENDMDL
MODEL 10
REMARK VINA RESULT:      -8.8      3.808      6.680
REMARK  7 active torsions:
REMARK  status: ('A' for Active; 'I' for Inactive)
REMARK    1  A    between atoms: C_2  and  C_3 
REMARK    2  A    between atoms: C_3  and  N_4 
REMARK       I    between atoms: N_4  and  C_5 
REMARK    3  A    between atoms: C_5  and  C_6 
REMARK    4  A    between atoms: C_6  and  C_7 
REMARK    5  A    between atoms: C_7  and  C_8 
REMARK       I    between atoms: C_8  and  N_9 
REMARK    6  A    between atoms: N_9  and  N_10 
REMARK       I    between atoms: N_10  and  C_11 
REMARK    7  A    between atoms: C_11  and  C_12 
ROOT
HETATM    1  C   UNL     1      -1.361   4.925 -31.326  1.00  0.00     0.236 C 
HETATM    2  N   UNL     1      -2.496   4.313 -30.852  1.00  0.00    -0.267 N 
HETATM    3  O   UNL     1      -0.796   4.582 -32.365  1.00  0.00    -0.272 OA
HETATM    4  H   UNL     1      -2.871   4.459 -29.914  1.00  0.00     0.190 HD
ENDROOT
BRANCH   1   5
HETATM    5  C   UNL     1      -0.790   6.001 -30.435  1.00  0.00     0.114 C 
BRANCH   5   6
HETATM    6  C   UNL     1      -0.664   7.297 -31.219  1.00  0.00     0.112 C 
BRANCH   6   7
HETATM    7  C   UNL     1      -1.971   7.781 -31.822  1.00  0.00     0.218 C 
HETATM    8  N   UNL     1      -3.102   7.480 -31.106  1.00  0.00    -0.357 N 
HETATM    9  H   UNL     1      -3.030   7.268 -30.113  1.00  0.00     0.162 HD
HETATM   10  O   UNL     1      -2.001   8.330 -32.921  1.00  0.00    -0.274 OA
BRANCH   8  11
HETATM   11  C   UNL     1      -4.410   7.847 -31.602  1.00  0.00     0.161 C 
BRANCH  11  12
HETATM   12  C   UNL     1      -5.156   6.691 -32.227  1.00  0.00    -0.038 A 
HETATM   13  C   UNL     1      -4.642   5.982 -33.340  1.00  0.00     0.012 A 
HETATM   14  C   UNL     1      -5.359   4.936 -33.930  1.00  0.00     0.040 A 
HETATM   15  C   UNL     1      -6.596   4.632 -33.407  1.00  0.00     0.105 A 
HETATM   16  C   UNL     1      -7.119   5.325 -32.343  1.00  0.00     0.105 A 
HETATM   17  O   UNL     1      -7.434   3.661 -33.858  1.00  0.00    -0.323 OA
HETATM   18  C   UNL     1      -6.429   6.355 -31.735  1.00  0.00     0.048 A 
HETATM   19  O   UNL     1      -8.356   4.883 -31.992  1.00  0.00    -0.323 OA
HETATM   20  C   UNL     1      -8.554   3.837 -32.966  1.00  0.00     0.352 A 
ENDBRANCH  11  12
ENDBRANCH   8  11
ENDBRANCH   6   7
ENDBRANCH   5   6
ENDBRANCH   1   5
BRANCH   2  21
HETATM   21  N   UNL     1      -2.971   3.194 -31.545  1.00  0.00    -0.262 N 
HETATM   22  C   UNL     1      -4.217   2.692 -31.242  1.00  0.00     0.286 C 
HETATM   23  O   UNL     1      -4.933   3.211 -30.386  1.00  0.00    -0.264 OA
HETATM   24  H   UNL     1      -2.339   2.768 -32.219  1.00  0.00     0.190 HD
BRANCH  22  25
HETATM   25  C   UNL     1      -4.622   1.529 -31.999  1.00  0.00     0.103 A 
HETATM   26  N   UNL     1      -5.918   1.379 -32.446  1.00  0.00    -0.351 N 
HETATM   27  H   UNL     1      -6.652   2.054 -32.272  1.00  0.00     0.166 HD
HETATM   28  C   UNL     1      -6.063   0.218 -33.166  1.00  0.00     0.043 A 
HETATM   29  C   UNL     1      -4.823  -0.417 -33.167  1.00  0.00    -0.005 A 
HETATM   30  C   UNL     1      -7.186  -0.312 -33.811  1.00  0.00     0.032 A 
HETATM   31  C   UNL     1      -3.929   0.410 -32.429  1.00  0.00     0.049 A 
HETATM   32  C   UNL     1      -4.686  -1.645 -33.841  1.00  0.00     0.037 A 
HETATM   33  C   UNL     1      -5.800  -2.185 -34.491  1.00  0.00     0.035 A 
HETATM   34  C   UNL     1      -7.030  -1.532 -34.478  1.00  0.00     0.026 A 
HETATM   35 CL   UNL     1      -5.645  -3.686 -35.325  1.00  0.00    -0.084 Cl
ENDBRANCH  22  25
ENDBRANCH   2  21
TORSDOF 7
ENDMDL
