MODEL 1
REMARK VINA RESULT:      -9.0      0.000      0.000
REMARK  3 active torsions:
REMARK  status: ('A' for Active; 'I' for Inactive)
REMARK    1  A    between atoms: O_2  and  C_3 
REMARK       I    between atoms: N_13  and  C_14 
REMARK       I    between atoms: C_14  and  N_15 
REMARK    2  A    between atoms: N_15  and  C_16 
REMARK    3  A    between atoms: C_22  and  C_23 
ROOT
HETATM    1  C   UNL     1      -6.099  -1.812 -33.833  1.00  0.00     0.069 A 
HETATM    2  C   UNL     1      -6.553  -0.684 -33.137  1.00  0.00     0.051 A 
HETATM    3  C   UNL     1      -5.625   0.247 -32.631  1.00  0.00     0.002 A 
HETATM    4  C   UNL     1      -4.262   0.001 -32.808  1.00  0.00     0.043 A 
HETATM    5  N   UNL     1      -3.577   1.056 -32.243  1.00  0.00    -0.356 N 
HETATM    6  H   UNL     1      -2.571   1.157 -32.261  1.00  0.00     0.166 HD
HETATM    7  C   UNL     1      -4.463   1.992 -31.773  1.00  0.00     0.045 A 
HETATM    8  C   UNL     1      -5.733   1.490 -31.959  1.00  0.00    -0.019 A 
HETATM    9  C   UNL     1      -6.924   2.270 -31.550  1.00  0.00     0.061 C 
HETATM   10  C   UNL     1      -6.509   3.303 -30.494  1.00  0.00     0.133 C 
HETATM   11  N   UNL     1      -5.323   4.110 -30.869  1.00  0.00    -0.320 N 
HETATM   12  C   UNL     1      -5.250   5.321 -30.169  1.00  0.00     0.319 C 
HETATM   13  N   UNL     1      -4.273   6.177 -30.600  1.00  0.00    -0.338 N 
HETATM   14  O   UNL     1      -6.037   5.620 -29.275  1.00  0.00    -0.247 OA
HETATM   15  C   UNL     1      -4.082   3.346 -31.221  1.00  0.00     0.172 C 
HETATM   16  C   UNL     1      -3.787  -1.135 -33.471  1.00  0.00     0.033 A 
HETATM   17  C   UNL     1      -4.730  -2.036 -33.984  1.00  0.00     0.039 A 
HETATM   18  H   UNL     1      -4.082   6.078 -31.584  1.00  0.00     0.164 HD
ENDROOT
BRANCH  15  19
HETATM   19  C   UNL     1      -3.171   4.044 -32.230  1.00  0.00    -0.029 A 
HETATM   20  C   UNL     1      -3.630   4.302 -33.535  1.00  0.00     0.012 A 
HETATM   21  C   UNL     1      -2.806   4.947 -34.459  1.00  0.00     0.043 A 
HETATM   22  C   UNL     1      -1.528   5.340 -34.082  1.00  0.00     0.116 A 
HETATM   23  F   UNL     1      -0.741   5.961 -34.971  1.00  0.00    -0.206 F 
HETATM   24  C   UNL     1      -1.054   5.102 -32.798  1.00  0.00     0.043 A 
HETATM   25  C   UNL     1      -1.872   4.455 -31.872  1.00  0.00     0.012 A 
ENDBRANCH  15  19
BRANCH  13  26
HETATM   26  C   UNL     1      -4.108   7.538 -30.126  1.00  0.00     0.086 C 
HETATM   27  C   UNL     1      -3.041   7.713 -29.050  1.00  0.00     0.025 C 
HETATM   28  C   UNL     1      -2.902   9.226 -28.962  1.00  0.00     0.002 C 
HETATM   29  C   UNL     1      -3.105   9.731 -30.391  1.00  0.00     0.002 C 
HETATM   30  C   UNL     1      -3.747   8.585 -31.177  1.00  0.00     0.025 C 
ENDBRANCH  13  26
BRANCH   1  31
HETATM   31  O   UNL     1      -7.095  -2.624 -34.308  1.00  0.00    -0.356 OA
HETATM   32  C   UNL     1      -6.681  -3.819 -34.958  1.00  0.00     0.210 C 
ENDBRANCH   1  31
TORSDOF 3
ENDMDL
MODEL 2
REMARK VINA RESULT:      -8.9      3.638      4.993
REMARK  3 active torsions:
REMARK  status: ('A' for Active; 'I' for Inactive)
REMARK    1  A    between atoms: O_2  and  C_3 
REMARK       I    between atoms: N_13  and  C_14 
REMARK       I    between atoms: C_14  and  N_15 
REMARK    2  A    between atoms: N_15  and  C_16 
REMARK    3  A    between atoms: C_22  and  C_23 
ROOT
HETATM    1  C   UNL     1      -4.165  -2.832 -33.560  1.00  0.00     0.069 A 
HETATM    2  C   UNL     1      -5.332  -2.229 -34.048  1.00  0.00     0.051 A 
HETATM    3  C   UNL     1      -5.793  -1.028 -33.474  1.00  0.00     0.002 A 
HETATM    4  C   UNL     1      -5.087  -0.482 -32.401  1.00  0.00     0.043 A 
HETATM    5  N   UNL     1      -5.726   0.685 -32.039  1.00  0.00    -0.356 N 
HETATM    6  H   UNL     1      -5.405   1.308 -31.310  1.00  0.00     0.166 HD
HETATM    7  C   UNL     1      -6.774   0.928 -32.889  1.00  0.00     0.045 A 
HETATM    8  C   UNL     1      -6.863  -0.141 -33.755  1.00  0.00    -0.019 A 
HETATM    9  C   UNL     1      -7.905  -0.182 -34.806  1.00  0.00     0.061 C 
HETATM   10  C   UNL     1      -9.054   0.754 -34.410  1.00  0.00     0.133 C 
HETATM   11  N   UNL     1      -8.618   2.112 -34.005  1.00  0.00    -0.320 N 
HETATM   12  C   UNL     1      -9.639   3.064 -34.117  1.00  0.00     0.319 C 
HETATM   13  N   UNL     1      -9.243   4.359 -33.921  1.00  0.00    -0.338 N 
HETATM   14  O   UNL     1     -10.791   2.770 -34.425  1.00  0.00    -0.247 OA
HETATM   15  C   UNL     1      -7.614   2.185 -32.894  1.00  0.00     0.172 C 
HETATM   16  C   UNL     1      -3.939  -1.084 -31.877  1.00  0.00     0.033 A 
HETATM   17  C   UNL     1      -3.488  -2.267 -32.478  1.00  0.00     0.039 A 
HETATM   18  H   UNL     1      -8.287   4.515 -34.201  1.00  0.00     0.164 HD
ENDROOT
BRANCH  15  19
HETATM   19  C   UNL     1      -6.681   3.394 -32.958  1.00  0.00    -0.029 A 
HETATM   20  C   UNL     1      -6.532   4.230 -31.836  1.00  0.00     0.012 A 
HETATM   21  C   UNL     1      -5.676   5.331 -31.885  1.00  0.00     0.043 A 
HETATM   22  C   UNL     1      -4.963   5.596 -33.048  1.00  0.00     0.116 A 
HETATM   23  F   UNL     1      -4.141   6.652 -33.090  1.00  0.00    -0.206 F 
HETATM   24  C   UNL     1      -5.090   4.782 -34.167  1.00  0.00     0.043 A 
HETATM   25  C   UNL     1      -5.947   3.682 -34.124  1.00  0.00     0.012 A 
ENDBRANCH  15  19
BRANCH  13  26
HETATM   26  C   UNL     1     -10.090   5.517 -34.132  1.00  0.00     0.086 C 
HETATM   27  C   UNL     1      -9.706   6.747 -33.315  1.00  0.00     0.025 C 
HETATM   28  C   UNL     1     -10.561   7.840 -33.937  1.00  0.00     0.002 C 
HETATM   29  C   UNL     1     -10.632   7.497 -35.425  1.00  0.00     0.002 C 
HETATM   30  C   UNL     1     -10.184   6.040 -35.563  1.00  0.00     0.025 C 
ENDBRANCH  13  26
BRANCH   1  31
HETATM   31  O   UNL     1      -3.798  -3.973 -34.222  1.00  0.00    -0.356 OA
HETATM   32  C   UNL     1      -4.806  -4.962 -34.385  1.00  0.00     0.210 C 
ENDBRANCH   1  31
TORSDOF 3
ENDMDL
MODEL 3
REMARK VINA RESULT:      -8.8      4.763      6.645
REMARK  3 active torsions:
REMARK  status: ('A' for Active; 'I' for Inactive)
REMARK    1  A    between atoms: O_2  and  C_3 
REMARK       I    between atoms: N_13  and  C_14 
REMARK       I    between atoms: C_14  and  N_15 
REMARK    2  A    between atoms: N_15  and  C_16 
REMARK    3  A    between atoms: C_22  and  C_23 
ROOT
HETATM    1  C   UNL     1      -4.195  -3.391 -33.607  1.00  0.00     0.069 A 
HETATM    2  C   UNL     1      -4.250  -2.037 -33.250  1.00  0.00     0.051 A 
HETATM    3  C   UNL     1      -5.249  -1.208 -33.796  1.00  0.00     0.002 A 
HETATM    4  C   UNL     1      -6.148  -1.755 -34.714  1.00  0.00     0.043 A 
HETATM    5  N   UNL     1      -7.023  -0.754 -35.079  1.00  0.00    -0.356 N 
HETATM    6  H   UNL     1      -7.805  -0.882 -35.708  1.00  0.00     0.166 HD
HETATM    7  C   UNL     1      -6.747   0.389 -34.374  1.00  0.00     0.045 A 
HETATM    8  C   UNL     1      -5.626   0.146 -33.610  1.00  0.00    -0.019 A 
HETATM    9  C   UNL     1      -5.067   1.194 -32.726  1.00  0.00     0.061 C 
HETATM   10  C   UNL     1      -5.542   2.569 -33.216  1.00  0.00     0.133 C 
HETATM   11  N   UNL     1      -7.003   2.655 -33.454  1.00  0.00    -0.320 N 
HETATM   12  C   UNL     1      -7.479   3.972 -33.422  1.00  0.00     0.319 C 
HETATM   13  N   UNL     1      -8.842   4.093 -33.465  1.00  0.00    -0.338 N 
HETATM   14  O   UNL     1      -6.737   4.944 -33.307  1.00  0.00    -0.247 OA
HETATM   15  C   UNL     1      -7.584   1.648 -34.400  1.00  0.00     0.172 C 
HETATM   16  C   UNL     1      -6.091  -3.095 -35.108  1.00  0.00     0.033 A 
HETATM   17  C   UNL     1      -5.101  -3.905 -34.536  1.00  0.00     0.039 A 
HETATM   18  H   UNL     1      -9.310   3.309 -33.039  1.00  0.00     0.164 HD
ENDROOT
BRANCH  15  19
HETATM   19  C   UNL     1      -9.038   1.272 -34.114  1.00  0.00    -0.029 A 
HETATM   20  C   UNL     1      -9.339   0.339 -33.104  1.00  0.00     0.012 A 
HETATM   21  C   UNL     1     -10.665  -0.002 -32.832  1.00  0.00     0.043 A 
HETATM   22  C   UNL     1     -11.690   0.589 -33.561  1.00  0.00     0.116 A 
HETATM   23  F   UNL     1     -12.961   0.260 -33.295  1.00  0.00    -0.206 F 
HETATM   24  C   UNL     1     -11.418   1.516 -34.559  1.00  0.00     0.043 A 
HETATM   25  C   UNL     1     -10.094   1.858 -34.837  1.00  0.00     0.012 A 
ENDBRANCH  15  19
BRANCH  13  26
HETATM   26  C   UNL     1      -9.559   5.342 -33.296  1.00  0.00     0.086 C 
HETATM   27  C   UNL     1      -9.961   6.029 -34.598  1.00  0.00     0.025 C 
HETATM   28  C   UNL     1     -10.909   7.118 -34.120  1.00  0.00     0.002 C 
HETATM   29  C   UNL     1     -11.654   6.510 -32.932  1.00  0.00     0.002 C 
HETATM   30  C   UNL     1     -10.859   5.277 -32.497  1.00  0.00     0.025 C 
ENDBRANCH  13  26
BRANCH   1  31
HETATM   31  O   UNL     1      -3.205  -4.102 -32.983  1.00  0.00    -0.356 OA
HETATM   32  C   UNL     1      -2.813  -3.646 -31.695  1.00  0.00     0.210 C 
ENDBRANCH   1  31
TORSDOF 3
ENDMDL
MODEL 4
REMARK VINA RESULT:      -8.7      2.906      8.669
REMARK  3 active torsions:
REMARK  status: ('A' for Active; 'I' for Inactive)
REMARK    1  A    between atoms: O_2  and  C_3 
REMARK       I    between atoms: N_13  and  C_14 
REMARK       I    between atoms: C_14  and  N_15 
REMARK    2  A    between atoms: N_15  and  C_16 
REMARK    3  A    between atoms: C_22  and  C_23 
ROOT
HETATM    1  C   UNL     1      -5.455   7.034 -29.030  1.00  0.00     0.069 A 
HETATM    2  C   UNL     1      -4.738   6.103 -29.793  1.00  0.00     0.051 A 
HETATM    3  C   UNL     1      -5.257   4.809 -29.991  1.00  0.00     0.002 A 
HETATM    4  C   UNL     1      -6.471   4.474 -29.387  1.00  0.00     0.043 A 
HETATM    5  N   UNL     1      -6.763   3.175 -29.745  1.00  0.00    -0.356 N 
HETATM    6  H   UNL     1      -7.607   2.686 -29.478  1.00  0.00     0.166 HD
HETATM    7  C   UNL     1      -5.808   2.701 -30.608  1.00  0.00     0.045 A 
HETATM    8  C   UNL     1      -4.843   3.677 -30.736  1.00  0.00    -0.019 A 
HETATM    9  C   UNL     1      -3.664   3.469 -31.608  1.00  0.00     0.061 C 
HETATM   10  C   UNL     1      -3.456   1.964 -31.819  1.00  0.00     0.133 C 
HETATM   11  N   UNL     1      -4.681   1.234 -32.227  1.00  0.00    -0.320 N 
HETATM   12  C   UNL     1      -4.399   0.021 -32.868  1.00  0.00     0.319 C 
HETATM   13  N   UNL     1      -5.485  -0.607 -33.416  1.00  0.00    -0.338 N 
HETATM   14  O   UNL     1      -3.259  -0.421 -32.983  1.00  0.00    -0.247 OA
HETATM   15  C   UNL     1      -5.870   1.371 -31.324  1.00  0.00     0.172 C 
HETATM   16  C   UNL     1      -7.187   5.377 -28.595  1.00  0.00     0.033 A 
HETATM   17  C   UNL     1      -6.660   6.665 -28.431  1.00  0.00     0.039 A 
HETATM   18  H   UNL     1      -6.193   0.044 -33.717  1.00  0.00     0.164 HD
ENDROOT
BRANCH  15  19
HETATM   19  C   UNL     1      -7.221   1.261 -32.031  1.00  0.00    -0.029 A 
HETATM   20  C   UNL     1      -7.508   2.086 -33.135  1.00  0.00     0.012 A 
HETATM   21  C   UNL     1      -8.736   1.984 -33.790  1.00  0.00     0.043 A 
HETATM   22  C   UNL     1      -9.675   1.059 -33.350  1.00  0.00     0.116 A 
HETATM   23  F   UNL     1     -10.852   0.964 -33.983  1.00  0.00    -0.206 F 
HETATM   24  C   UNL     1      -9.412   0.231 -32.267  1.00  0.00     0.043 A 
HETATM   25  C   UNL     1      -8.187   0.330 -31.607  1.00  0.00     0.012 A 
ENDBRANCH  15  19
BRANCH  13  26
HETATM   26  C   UNL     1      -5.413  -1.791 -34.250  1.00  0.00     0.086 C 
HETATM   27  C   UNL     1      -4.567  -2.924 -33.677  1.00  0.00     0.025 C 
HETATM   28  C   UNL     1      -4.901  -4.088 -34.598  1.00  0.00     0.002 C 
HETATM   29  C   UNL     1      -6.374  -3.901 -34.962  1.00  0.00     0.002 C 
HETATM   30  C   UNL     1      -6.740  -2.461 -34.596  1.00  0.00     0.025 C 
ENDBRANCH  13  26
BRANCH   1  31
HETATM   31  O   UNL     1      -4.866   8.268 -28.940  1.00  0.00    -0.356 OA
HETATM   32  C   UNL     1      -3.454   8.284 -28.776  1.00  0.00     0.210 C 
ENDBRANCH   1  31
TORSDOF 3
ENDMDL
MODEL 5
REMARK VINA RESULT:      -8.7      3.885      7.952
REMARK  3 active torsions:
REMARK  status: ('A' for Active; 'I' for Inactive)
REMARK    1  A    between atoms: O_2  and  C_3 
REMARK       I    between atoms: N_13  and  C_14 
REMARK       I    between atoms: C_14  and  N_15 
REMARK    2  A    between atoms: N_15  and  C_16 
REMARK    3  A    between atoms: C_22  and  C_23 
ROOT
HETATM    1  C   UNL     1      -2.000   5.485 -31.239  1.00  0.00     0.069 A 
HETATM    2  C   UNL     1      -3.383   5.536 -31.021  1.00  0.00     0.051 A 
HETATM    3  C   UNL     1      -4.258   4.886 -31.913  1.00  0.00     0.002 A 
HETATM    4  C   UNL     1      -3.721   4.229 -33.021  1.00  0.00     0.043 A 
HETATM    5  N   UNL     1      -4.771   3.668 -33.716  1.00  0.00    -0.356 N 
HETATM    6  H   UNL     1      -4.667   3.100 -34.546  1.00  0.00     0.166 HD
HETATM    7  C   UNL     1      -5.948   3.894 -33.049  1.00  0.00     0.045 A 
HETATM    8  C   UNL     1      -5.660   4.685 -31.957  1.00  0.00    -0.019 A 
HETATM    9  C   UNL     1      -6.730   5.109 -31.025  1.00  0.00     0.061 C 
HETATM   10  C   UNL     1      -8.084   5.019 -31.741  1.00  0.00     0.133 C 
HETATM   11  N   UNL     1      -8.321   3.728 -32.429  1.00  0.00    -0.320 N 
HETATM   12  C   UNL     1      -9.681   3.473 -32.648  1.00  0.00     0.319 C 
HETATM   13  N   UNL     1      -9.963   2.221 -33.123  1.00  0.00    -0.338 N 
HETATM   14  O   UNL     1     -10.561   4.287 -32.379  1.00  0.00    -0.247 OA
HETATM   15  C   UNL     1      -7.288   3.307 -33.431  1.00  0.00     0.172 C 
HETATM   16  C   UNL     1      -2.346   4.194 -33.276  1.00  0.00     0.033 A 
HETATM   17  C   UNL     1      -1.494   4.830 -32.363  1.00  0.00     0.039 A 
HETATM   18  H   UNL     1      -9.300   1.532 -32.806  1.00  0.00     0.164 HD
ENDROOT
BRANCH  15  19
HETATM   19  C   UNL     1      -7.131   1.795 -33.586  1.00  0.00    -0.029 A 
HETATM   20  C   UNL     1      -6.866   0.994 -32.458  1.00  0.00     0.012 A 
HETATM   21  C   UNL     1      -6.730  -0.388 -32.592  1.00  0.00     0.043 A 
HETATM   22  C   UNL     1      -6.864  -0.974 -33.845  1.00  0.00     0.116 A 
HETATM   23  F   UNL     1      -6.735  -2.302 -33.967  1.00  0.00    -0.206 F 
HETATM   24  C   UNL     1      -7.130  -0.206 -34.970  1.00  0.00     0.043 A 
HETATM   25  C   UNL     1      -7.264   1.177 -34.843  1.00  0.00     0.012 A 
ENDBRANCH  15  19
BRANCH  13  26
HETATM   26  C   UNL     1     -11.303   1.687 -33.281  1.00  0.00     0.086 C 
HETATM   27  C   UNL     1     -11.947   1.971 -34.635  1.00  0.00     0.025 C 
HETATM   28  C   UNL     1     -13.178   1.079 -34.611  1.00  0.00     0.002 C 
HETATM   29  C   UNL     1     -12.752  -0.174 -33.846  1.00  0.00     0.002 C 
HETATM   30  C   UNL     1     -11.458   0.178 -33.108  1.00  0.00     0.025 C 
ENDBRANCH  13  26
BRANCH   1  31
HETATM   31  O   UNL     1      -1.252   6.123 -30.285  1.00  0.00    -0.356 OA
HETATM   32  C   UNL     1      -0.010   5.519 -29.948  1.00  0.00     0.210 C 
ENDBRANCH   1  31
TORSDOF 3
ENDMDL
MODEL 6
REMARK VINA RESULT:      -8.6      2.655      3.524
REMARK  3 active torsions:
REMARK  status: ('A' for Active; 'I' for Inactive)
REMARK    1  A    between atoms: O_2  and  C_3 
REMARK       I    between atoms: N_13  and  C_14 
REMARK       I    between atoms: C_14  and  N_15 
REMARK    2  A    between atoms: N_15  and  C_16 
REMARK    3  A    between atoms: C_22  and  C_23 
ROOT
HETATM    1  C   UNL     1      -5.323  -2.821 -34.623  1.00  0.00     0.069 A 
HETATM    2  C   UNL     1      -6.427  -2.083 -34.177  1.00  0.00     0.051 A 
HETATM    3  C   UNL     1      -6.249  -1.058 -33.228  1.00  0.00     0.002 A 
HETATM    4  C   UNL     1      -4.967  -0.823 -32.727  1.00  0.00     0.043 A 
HETATM    5  N   UNL     1      -5.058   0.228 -31.839  1.00  0.00    -0.356 N 
HETATM    6  H   UNL     1      -4.270   0.636 -31.354  1.00  0.00     0.166 HD
HETATM    7  C   UNL     1      -6.343   0.708 -31.812  1.00  0.00     0.045 A 
HETATM    8  C   UNL     1      -7.106  -0.103 -32.627  1.00  0.00    -0.019 A 
HETATM    9  C   UNL     1      -8.552   0.154 -32.812  1.00  0.00     0.061 C 
HETATM   10  C   UNL     1      -9.069   0.986 -31.631  1.00  0.00     0.133 C 
HETATM   11  N   UNL     1      -8.249   2.184 -31.329  1.00  0.00    -0.320 N 
HETATM   12  C   UNL     1      -8.958   3.159 -30.615  1.00  0.00     0.319 C 
HETATM   13  N   UNL     1      -8.302   4.350 -30.461  1.00  0.00    -0.338 N 
HETATM   14  O   UNL     1     -10.103   2.982 -30.207  1.00  0.00    -0.247 OA
HETATM   15  C   UNL     1      -6.792   1.944 -31.068  1.00  0.00     0.172 C 
HETATM   16  C   UNL     1      -3.856  -1.568 -33.134  1.00  0.00     0.033 A 
HETATM   17  C   UNL     1      -4.056  -2.569 -34.095  1.00  0.00     0.039 A 
HETATM   18  H   UNL     1      -7.680   4.548 -31.229  1.00  0.00     0.164 HD
ENDROOT
BRANCH  15  19
HETATM   19  C   UNL     1      -5.878   3.105 -31.458  1.00  0.00    -0.029 A 
HETATM   20  C   UNL     1      -5.861   3.576 -32.784  1.00  0.00     0.012 A 
HETATM   21  C   UNL     1      -5.035   4.641 -33.145  1.00  0.00     0.043 A 
HETATM   22  C   UNL     1      -4.230   5.242 -32.184  1.00  0.00     0.116 A 
HETATM   23  F   UNL     1      -3.440   6.266 -32.534  1.00  0.00    -0.206 F 
HETATM   24  C   UNL     1      -4.233   4.799 -30.868  1.00  0.00     0.043 A 
HETATM   25  C   UNL     1      -5.055   3.733 -30.503  1.00  0.00     0.012 A 
ENDBRANCH  15  19
BRANCH  13  26
HETATM   26  C   UNL     1      -8.895   5.544 -29.890  1.00  0.00     0.086 C 
HETATM   27  C   UNL     1      -8.255   6.015 -28.588  1.00  0.00     0.025 C 
HETATM   28  C   UNL     1      -8.874   7.390 -28.391  1.00  0.00     0.002 C 
HETATM   29  C   UNL     1      -9.033   7.964 -29.799  1.00  0.00     0.002 C 
HETATM   30  C   UNL     1      -8.897   6.790 -30.772  1.00  0.00     0.025 C 
ENDBRANCH  13  26
BRANCH   1  31
HETATM   31  O   UNL     1      -5.616  -3.764 -35.572  1.00  0.00    -0.356 OA
HETATM   32  C   UNL     1      -6.784  -4.543 -35.349  1.00  0.00     0.210 C 
ENDBRANCH   1  31
TORSDOF 3
ENDMDL
MODEL 7
REMARK VINA RESULT:      -8.4      1.945      2.611
REMARK  3 active torsions:
REMARK  status: ('A' for Active; 'I' for Inactive)
REMARK    1  A    between atoms: O_2  and  C_3 
REMARK       I    between atoms: N_13  and  C_14 
REMARK       I    between atoms: C_14  and  N_15 
REMARK    2  A    between atoms: N_15  and  C_16 
REMARK    3  A    between atoms: C_22  and  C_23 
ROOT
HETATM    1  C   UNL     1      -9.523   0.272 -32.843  1.00  0.00     0.069 A 
HETATM    2  C   UNL     1      -9.308   1.341 -31.965  1.00  0.00     0.051 A 
HETATM    3  C   UNL     1      -7.994   1.758 -31.676  1.00  0.00     0.002 A 
HETATM    4  C   UNL     1      -6.928   1.067 -32.254  1.00  0.00     0.043 A 
HETATM    5  N   UNL     1      -5.765   1.676 -31.831  1.00  0.00    -0.356 N 
HETATM    6  H   UNL     1      -4.838   1.402 -32.128  1.00  0.00     0.166 HD
HETATM    7  C   UNL     1      -6.063   2.769 -31.058  1.00  0.00     0.045 A 
HETATM    8  C   UNL     1      -7.434   2.811 -30.910  1.00  0.00    -0.019 A 
HETATM    9  C   UNL     1      -8.079   3.885 -30.121  1.00  0.00     0.061 C 
HETATM   10  C   UNL     1      -7.049   4.484 -29.153  1.00  0.00     0.133 C 
HETATM   11  N   UNL     1      -5.762   4.854 -29.791  1.00  0.00    -0.320 N 
HETATM   12  C   UNL     1      -5.047   5.805 -29.052  1.00  0.00     0.319 C 
HETATM   13  N   UNL     1      -3.938   6.306 -29.679  1.00  0.00    -0.338 N 
HETATM   14  O   UNL     1      -5.415   6.204 -27.950  1.00  0.00    -0.247 OA
HETATM   15  C   UNL     1      -5.053   3.766 -30.539  1.00  0.00     0.172 C 
HETATM   16  C   UNL     1      -7.119  -0.024 -33.108  1.00  0.00     0.033 A 
HETATM   17  C   UNL     1      -8.436  -0.407 -33.396  1.00  0.00     0.039 A 
HETATM   18  H   UNL     1      -4.039   6.324 -30.681  1.00  0.00     0.164 HD
ENDROOT
BRANCH  15  19
HETATM   19  C   UNL     1      -4.201   4.251 -31.710  1.00  0.00    -0.029 A 
HETATM   20  C   UNL     1      -4.782   5.026 -32.732  1.00  0.00     0.012 A 
HETATM   21  C   UNL     1      -4.008   5.481 -33.800  1.00  0.00     0.043 A 
HETATM   22  C   UNL     1      -2.654   5.169 -33.850  1.00  0.00     0.116 A 
HETATM   23  F   UNL     1      -1.915   5.608 -34.876  1.00  0.00    -0.206 F 
HETATM   24  C   UNL     1      -2.057   4.410 -32.851  1.00  0.00     0.043 A 
HETATM   25  C   UNL     1      -2.827   3.951 -31.782  1.00  0.00     0.012 A 
ENDBRANCH  15  19
BRANCH  13  26
HETATM   26  C   UNL     1      -3.134   7.401 -29.171  1.00  0.00     0.086 C 
HETATM   27  C   UNL     1      -1.627   7.184 -29.267  1.00  0.00     0.025 C 
HETATM   28  C   UNL     1      -1.071   8.561 -28.939  1.00  0.00     0.002 C 
HETATM   29  C   UNL     1      -2.072   9.551 -29.535  1.00  0.00     0.002 C 
HETATM   30  C   UNL     1      -3.353   8.764 -29.823  1.00  0.00     0.025 C 
ENDBRANCH  13  26
BRANCH   1  31
HETATM   31  O   UNL     1     -10.842  -0.017 -33.074  1.00  0.00    -0.356 OA
HETATM   32  C   UNL     1     -11.622   1.015 -33.661  1.00  0.00     0.210 C 
ENDBRANCH   1  31
TORSDOF 3
ENDMDL
MODEL 8
REMARK VINA RESULT:      -8.3      5.476      7.721
REMARK  3 active torsions:
REMARK  status: ('A' for Active; 'I' for Inactive)
REMARK    1  A    between atoms: O_2  and  C_3 
REMARK       I    between atoms: N_13  and  C_14 
REMARK       I    between atoms: C_14  and  N_15 
REMARK    2  A    between atoms: N_15  and  C_16 
REMARK    3  A    between atoms: C_22  and  C_23 
ROOT
HETATM    1  C   UNL     1      -4.799  -1.720 -33.362  1.00  0.00     0.069 A 
HETATM    2  C   UNL     1      -5.219  -0.445 -32.965  1.00  0.00     0.051 A 
HETATM    3  C   UNL     1      -6.331   0.153 -33.589  1.00  0.00     0.002 A 
HETATM    4  C   UNL     1      -6.972  -0.534 -34.621  1.00  0.00     0.043 A 
HETATM    5  N   UNL     1      -8.024   0.248 -35.047  1.00  0.00    -0.356 N 
HETATM    6  H   UNL     1      -8.684  -0.024 -35.763  1.00  0.00     0.166 HD
HETATM    7  C   UNL     1      -8.110   1.378 -34.273  1.00  0.00     0.045 A 
HETATM    8  C   UNL     1      -7.045   1.363 -33.398  1.00  0.00    -0.019 A 
HETATM    9  C   UNL     1      -6.853   2.457 -32.419  1.00  0.00     0.061 C 
HETATM   10  C   UNL     1      -7.599   3.705 -32.908  1.00  0.00     0.133 C 
HETATM   11  N   UNL     1      -9.005   3.453 -33.306  1.00  0.00    -0.320 N 
HETATM   12  C   UNL     1      -9.790   4.613 -33.280  1.00  0.00     0.319 C 
HETATM   13  N   UNL     1     -11.129   4.406 -33.471  1.00  0.00    -0.338 N 
HETATM   14  O   UNL     1      -9.325   5.725 -33.046  1.00  0.00    -0.247 OA
HETATM   15  C   UNL     1      -9.223   2.397 -34.348  1.00  0.00     0.172 C 
HETATM   16  C   UNL     1      -6.549  -1.795 -35.056  1.00  0.00     0.033 A 
HETATM   17  C   UNL     1      -5.453  -2.378 -34.405  1.00  0.00     0.039 A 
HETATM   18  H   UNL     1     -11.432   3.507 -33.130  1.00  0.00     0.164 HD
ENDROOT
BRANCH  15  19
HETATM   19  C   UNL     1     -10.561   1.667 -34.241  1.00  0.00    -0.029 A 
HETATM   20  C   UNL     1     -11.609   1.981 -35.128  1.00  0.00     0.012 A 
HETATM   21  C   UNL     1     -12.830   1.311 -35.041  1.00  0.00     0.043 A 
HETATM   22  C   UNL     1     -13.007   0.326 -34.078  1.00  0.00     0.116 A 
HETATM   23  F   UNL     1     -14.181  -0.316 -34.000  1.00  0.00    -0.206 F 
HETATM   24  C   UNL     1     -11.987  -0.005 -33.196  1.00  0.00     0.043 A 
HETATM   25  C   UNL     1     -10.765   0.663 -33.276  1.00  0.00     0.012 A 
ENDBRANCH  15  19
BRANCH  13  26
HETATM   26  C   UNL     1     -12.145   5.433 -33.338  1.00  0.00     0.086 C 
HETATM   27  C   UNL     1     -12.569   6.084 -34.651  1.00  0.00     0.025 C 
HETATM   28  C   UNL     1     -13.799   6.882 -34.244  1.00  0.00     0.002 C 
HETATM   29  C   UNL     1     -14.488   6.039 -33.171  1.00  0.00     0.002 C 
HETATM   30  C   UNL     1     -13.462   5.007 -32.695  1.00  0.00     0.025 C 
ENDBRANCH  13  26
BRANCH   1  31
HETATM   31  O   UNL     1      -3.732  -2.211 -32.658  1.00  0.00    -0.356 OA
HETATM   32  C   UNL     1      -2.948  -1.258 -31.952  1.00  0.00     0.210 C 
ENDBRANCH   1  31
TORSDOF 3
ENDMDL
MODEL 9
REMARK VINA RESULT:      -8.3      3.064      7.660
REMARK  3 active torsions:
REMARK  status: ('A' for Active; 'I' for Inactive)
REMARK    1  A    between atoms: O_2  and  C_3 
REMARK       I    between atoms: N_13  and  C_14 
REMARK       I    between atoms: C_14  and  N_15 
REMARK    2  A    between atoms: N_15  and  C_16 
REMARK    3  A    between atoms: C_22  and  C_23 
ROOT
HETATM    1  C   UNL     1      -0.307   6.842 -30.019  1.00  0.00     0.069 A 
HETATM    2  C   UNL     1      -1.704   6.788 -29.935  1.00  0.00     0.051 A 
HETATM    3  C   UNL     1      -2.424   5.916 -30.774  1.00  0.00     0.002 A 
HETATM    4  C   UNL     1      -1.721   5.143 -31.700  1.00  0.00     0.043 A 
HETATM    5  N   UNL     1      -2.643   4.373 -32.377  1.00  0.00    -0.356 N 
HETATM    6  H   UNL     1      -2.406   3.689 -33.083  1.00  0.00     0.166 HD
HETATM    7  C   UNL     1      -3.897   4.584 -31.864  1.00  0.00     0.045 A 
HETATM    8  C   UNL     1      -3.792   5.569 -30.904  1.00  0.00    -0.019 A 
HETATM    9  C   UNL     1      -4.984   6.030 -30.157  1.00  0.00     0.061 C 
HETATM   10  C   UNL     1      -6.245   5.688 -30.962  1.00  0.00     0.133 C 
HETATM   11  N   UNL     1      -6.299   4.284 -31.435  1.00  0.00    -0.320 N 
HETATM   12  C   UNL     1      -7.603   3.860 -31.724  1.00  0.00     0.319 C 
HETATM   13  N   UNL     1      -7.728   2.526 -31.998  1.00  0.00    -0.338 N 
HETATM   14  O   UNL     1      -8.571   4.615 -31.679  1.00  0.00    -0.247 OA
HETATM   15  C   UNL     1      -5.136   3.811 -32.254  1.00  0.00     0.172 C 
HETATM   16  C   UNL     1      -0.330   5.205 -31.824  1.00  0.00     0.033 A 
HETATM   17  C   UNL     1       0.366   6.066 -30.964  1.00  0.00     0.039 A 
HETATM   18  H   UNL     1      -7.044   1.968 -31.510  1.00  0.00     0.164 HD
ENDROOT
BRANCH  15  19
HETATM   19  C   UNL     1      -4.837   2.318 -32.131  1.00  0.00    -0.029 A 
HETATM   20  C   UNL     1      -5.074   1.458 -33.220  1.00  0.00     0.012 A 
HETATM   21  C   UNL     1      -4.795   0.095 -33.117  1.00  0.00     0.043 A 
HETATM   22  C   UNL     1      -4.274  -0.412 -31.933  1.00  0.00     0.116 A 
HETATM   23  F   UNL     1      -4.006  -1.721 -31.839  1.00  0.00    -0.206 F 
HETATM   24  C   UNL     1      -4.027   0.416 -30.846  1.00  0.00     0.043 A 
HETATM   25  C   UNL     1      -4.307   1.780 -30.943  1.00  0.00     0.012 A 
ENDBRANCH  15  19
BRANCH  13  26
HETATM   26  C   UNL     1      -8.993   1.840 -32.178  1.00  0.00     0.086 C 
HETATM   27  C   UNL     1      -9.619   2.008 -33.559  1.00  0.00     0.025 C 
HETATM   28  C   UNL     1     -10.744   0.985 -33.541  1.00  0.00     0.002 C 
HETATM   29  C   UNL     1     -10.207  -0.188 -32.721  1.00  0.00     0.002 C 
HETATM   30  C   UNL     1      -8.986   0.330 -31.957  1.00  0.00     0.025 C 
ENDBRANCH  13  26
BRANCH   1  31
HETATM   31  O   UNL     1       0.283   7.699 -29.128  1.00  0.00    -0.356 OA
HETATM   32  C   UNL     1      -0.461   8.002 -27.955  1.00  0.00     0.210 C 
ENDBRANCH   1  31
TORSDOF 3
ENDMDL
MODEL 10
REMARK VINA RESULT:      -8.3      3.047      4.408
REMARK  3 active torsions:
REMARK  status: ('A' for Active; 'I' for Inactive)
REMARK    1  A    between atoms: O_2  and  C_3 
REMARK       I    between atoms: N_13  and  C_14 
REMARK       I    between atoms: C_14  and  N_15 
REMARK    2  A    between atoms: N_15  and  C_16 
REMARK    3  A    between atoms: C_22  and  C_23 
ROOT
HETATM    1  C   UNL     1      -5.044  -2.826 -34.132  1.00  0.00     0.069 A 
HETATM    2  C   UNL     1      -4.406  -1.799 -33.425  1.00  0.00     0.051 A 
HETATM    3  C   UNL     1      -4.948  -0.499 -33.435  1.00  0.00     0.002 A 
HETATM    4  C   UNL     1      -6.101  -0.258 -34.184  1.00  0.00     0.043 A 
HETATM    5  N   UNL     1      -6.433   1.069 -34.015  1.00  0.00    -0.356 N 
HETATM    6  H   UNL     1      -7.250   1.509 -34.417  1.00  0.00     0.166 HD
HETATM    7  C   UNL     1      -5.565   1.659 -33.132  1.00  0.00     0.045 A 
HETATM    8  C   UNL     1      -4.612   0.721 -32.797  1.00  0.00    -0.019 A 
HETATM    9  C   UNL     1      -3.522   1.052 -31.851  1.00  0.00     0.061 C 
HETATM   10  C   UNL     1      -3.342   2.575 -31.805  1.00  0.00     0.133 C 
HETATM   11  N   UNL     1      -4.603   3.328 -31.604  1.00  0.00    -0.320 N 
HETATM   12  C   UNL     1      -4.388   4.614 -31.092  1.00  0.00     0.319 C 
HETATM   13  N   UNL     1      -5.524   5.285 -30.728  1.00  0.00    -0.338 N 
HETATM   14  O   UNL     1      -3.266   5.085 -30.926  1.00  0.00    -0.247 OA
HETATM   15  C   UNL     1      -5.701   3.064 -32.591  1.00  0.00     0.172 C 
HETATM   16  C   UNL     1      -6.735  -1.262 -34.924  1.00  0.00     0.033 A 
HETATM   17  C   UNL     1      -6.189  -2.551 -34.882  1.00  0.00     0.039 A 
HETATM   18  H   UNL     1      -6.254   4.664 -30.417  1.00  0.00     0.164 HD
ENDROOT
BRANCH  15  19
HETATM   19  C   UNL     1      -7.112   3.237 -32.031  1.00  0.00    -0.029 A 
HETATM   20  C   UNL     1      -8.018   4.111 -32.662  1.00  0.00     0.012 A 
HETATM   21  C   UNL     1      -9.312   4.266 -32.161  1.00  0.00     0.043 A 
HETATM   22  C   UNL     1      -9.705   3.548 -31.038  1.00  0.00     0.116 A 
HETATM   23  F   UNL     1     -10.948   3.700 -30.562  1.00  0.00    -0.206 F 
HETATM   24  C   UNL     1      -8.831   2.677 -30.402  1.00  0.00     0.043 A 
HETATM   25  C   UNL     1      -7.536   2.519 -30.897  1.00  0.00     0.012 A 
ENDBRANCH  15  19
BRANCH  13  26
HETATM   26  C   UNL     1      -5.537   6.563 -30.041  1.00  0.00     0.086 C 
HETATM   27  C   UNL     1      -6.779   7.411 -30.294  1.00  0.00     0.025 C 
HETATM   28  C   UNL     1      -6.644   8.517 -29.258  1.00  0.00     0.002 C 
HETATM   29  C   UNL     1      -6.008   7.849 -28.039  1.00  0.00     0.002 C 
HETATM   30  C   UNL     1      -5.425   6.517 -28.519  1.00  0.00     0.025 C 
ENDBRANCH  13  26
BRANCH   1  31
HETATM   31  O   UNL     1      -4.443  -4.052 -34.017  1.00  0.00    -0.356 OA
HETATM   32  C   UNL     1      -3.420  -4.165 -33.037  1.00  0.00     0.210 C 
ENDBRANCH   1  31
TORSDOF 3
ENDMDL
