MODEL 1
REMARK VINA RESULT:      -9.3      0.000      0.000
REMARK  6 active torsions:
REMARK  status: ('A' for Active; 'I' for Inactive)
REMARK    1  A    between atoms: O_2  and  C_3 
REMARK    2  A    between atoms: C_5  and  O_6 
REMARK    3  A    between atoms: C_8  and  N_9 
REMARK       I    between atoms: N_9  and  C_10 
REMARK    4  A    between atoms: C_10  and  C_11 
REMARK    5  A    between atoms: C_11  and  N_12 
REMARK    6  A    between atoms: C_18  and  C_19 
ROOT
HETATM    1  N   UNL     1      -4.672   4.980 -33.182  1.00  0.00    -0.063 N 
HETATM    2  H   UNL     1      -5.323   5.569 -32.647  1.00  0.00     0.280 HD
HETATM    3  C   UNL     1      -4.119   3.946 -32.230  1.00  0.00     0.240 C 
HETATM    4  C   UNL     1      -3.477   4.649 -31.052  1.00  0.00     0.083 C 
HETATM    5  C   UNL     1      -2.397   5.642 -31.497  1.00  0.00     0.131 A 
HETATM    6  N   UNL     1      -2.044   6.438 -30.296  1.00  0.00    -0.251 NA
HETATM    7  C   UNL     1      -0.796   6.171 -30.014  1.00  0.00     0.132 A 
HETATM    8  C   UNL     1      -0.187   5.217 -31.016  1.00  0.00     0.272 A 
HETATM    9  O   UNL     1       0.922   4.746 -31.018  1.00  0.00    -0.266 OA
HETATM   10  N   UNL     1      -1.194   4.988 -31.905  1.00  0.00    -0.327 N 
HETATM   11  C   UNL     1      -2.921   6.608 -32.566  1.00  0.00     0.083 C 
HETATM   12  C   UNL     1      -3.591   5.880 -33.723  1.00  0.00     0.240 C 
HETATM   13  H   UNL     1      -1.056   4.321 -32.656  1.00  0.00     0.165 HD
ENDROOT
BRANCH   1  14
HETATM   14  C   UNL     1      -5.563   4.336 -34.282  1.00  0.00     0.337 C 
BRANCH  14  15
HETATM   15  C   UNL     1      -7.040   4.175 -33.922  1.00  0.00     0.248 C 
HETATM   16  N   UNL     1      -7.561   2.993 -33.491  1.00  0.00    -0.323 N 
HETATM   17  H   UNL     1      -8.483   3.133 -33.087  1.00  0.00     0.169 HD
HETATM   18  O   UNL     1      -7.784   5.164 -33.908  1.00  0.00    -0.271 OA
BRANCH  16  19
HETATM   19  C   UNL     1      -7.123   1.649 -33.507  1.00  0.00     0.068 A 
HETATM   20  C   UNL     1      -6.597   0.917 -32.425  1.00  0.00     0.097 A 
HETATM   21  C   UNL     1      -6.169  -0.408 -32.627  1.00  0.00     0.075 A 
HETATM   22  C   UNL     1      -6.207  -0.989 -33.895  1.00  0.00     0.070 A 
HETATM   23  C   UNL     1      -6.719  -0.266 -34.964  1.00  0.00     0.039 A 
HETATM   24  C   UNL     1      -7.156   1.045 -34.775  1.00  0.00     0.035 A 
BRANCH  20  25
HETATM   25  O   UNL     1      -6.467   1.552 -31.220  1.00  0.00    -0.354 OA
HETATM   26  C   UNL     1      -5.938   0.798 -30.128  1.00  0.00     0.210 C 
ENDBRANCH  20  25
BRANCH  22  27
HETATM   27  O   UNL     1      -5.798  -2.260 -34.185  1.00  0.00    -0.356 OA
HETATM   28  C   UNL     1      -6.826  -3.157 -34.599  1.00  0.00     0.210 C 
ENDBRANCH  22  27
ENDBRANCH  16  19
ENDBRANCH  14  15
ENDBRANCH   1  14
BRANCH   7  29
HETATM   29  C   UNL     1      -0.091   6.720 -28.840  1.00  0.00    -0.002 A 
HETATM   30  C   UNL     1       0.727   7.847 -29.024  1.00  0.00     0.016 A 
HETATM   31  C   UNL     1       1.402   8.418 -27.941  1.00  0.00     0.024 A 
HETATM   32  C   UNL     1       1.266   7.862 -26.672  1.00  0.00     0.034 A 
HETATM   33 CL   UNL     1       2.092   8.564 -25.338  1.00  0.00    -0.084 Cl
HETATM   34  C   UNL     1       0.463   6.738 -26.480  1.00  0.00     0.024 A 
HETATM   35  C   UNL     1      -0.216   6.166 -27.562  1.00  0.00     0.016 A 
ENDBRANCH   7  29
TORSDOF 6
ENDMDL
MODEL 2
REMARK VINA RESULT:      -9.0      3.923      9.701
REMARK  6 active torsions:
REMARK  status: ('A' for Active; 'I' for Inactive)
REMARK    1  A    between atoms: O_2  and  C_3 
REMARK    2  A    between atoms: C_5  and  O_6 
REMARK    3  A    between atoms: C_8  and  N_9 
REMARK       I    between atoms: N_9  and  C_10 
REMARK    4  A    between atoms: C_10  and  C_11 
REMARK    5  A    between atoms: C_11  and  N_12 
REMARK    6  A    between atoms: C_18  and  C_19 
ROOT
HETATM    1  N   UNL     1      -3.762   5.692 -32.341  1.00  0.00    -0.063 N 
HETATM    2  H   UNL     1      -4.044   5.857 -33.316  1.00  0.00     0.280 HD
HETATM    3  C   UNL     1      -2.667   4.652 -32.361  1.00  0.00     0.240 C 
HETATM    4  C   UNL     1      -3.174   3.412 -33.067  1.00  0.00     0.083 C 
HETATM    5  C   UNL     1      -4.456   2.870 -32.425  1.00  0.00     0.131 A 
HETATM    6  N   UNL     1      -4.982   1.838 -33.352  1.00  0.00    -0.251 NA
HETATM    7  C   UNL     1      -4.928   0.694 -32.722  1.00  0.00     0.132 A 
HETATM    8  C   UNL     1      -4.411   0.857 -31.311  1.00  0.00     0.272 A 
HETATM    9  O   UNL     1      -4.208  -0.001 -30.489  1.00  0.00    -0.266 OA
HETATM   10  N   UNL     1      -4.201   2.197 -31.190  1.00  0.00    -0.327 N 
HETATM   11  C   UNL     1      -5.523   3.961 -32.279  1.00  0.00     0.083 C 
HETATM   12  C   UNL     1      -4.981   5.209 -31.597  1.00  0.00     0.240 C 
HETATM   13  H   UNL     1      -3.790   2.565 -30.339  1.00  0.00     0.165 HD
ENDROOT
BRANCH   1  14
HETATM   14  C   UNL     1      -3.239   7.075 -31.860  1.00  0.00     0.337 C 
BRANCH  14  15
HETATM   15  C   UNL     1      -1.898   7.513 -32.450  1.00  0.00     0.248 C 
HETATM   16  N   UNL     1      -0.725   7.384 -31.772  1.00  0.00    -0.323 N 
HETATM   17  H   UNL     1       0.067   7.507 -32.396  1.00  0.00     0.169 HD
HETATM   18  O   UNL     1      -1.837   7.898 -33.625  1.00  0.00    -0.271 OA
BRANCH  16  19
HETATM   19  C   UNL     1      -0.379   7.148 -30.421  1.00  0.00     0.068 A 
HETATM   20  C   UNL     1       0.159   5.966 -29.879  1.00  0.00     0.097 A 
HETATM   21  C   UNL     1       0.409   5.887 -28.496  1.00  0.00     0.075 A 
HETATM   22  C   UNL     1       0.080   6.944 -27.647  1.00  0.00     0.070 A 
HETATM   23  C   UNL     1      -0.457   8.108 -28.179  1.00  0.00     0.039 A 
HETATM   24  C   UNL     1      -0.700   8.202 -29.550  1.00  0.00     0.035 A 
BRANCH  20  25
HETATM   25  O   UNL     1       0.365   4.907 -30.720  1.00  0.00    -0.354 OA
HETATM   26  C   UNL     1       1.713   4.487 -30.939  1.00  0.00     0.210 C 
ENDBRANCH  20  25
BRANCH  22  27
HETATM   27  O   UNL     1       0.272   6.949 -26.294  1.00  0.00    -0.356 OA
HETATM   28  C   UNL     1       1.369   7.732 -25.831  1.00  0.00     0.210 C 
ENDBRANCH  22  27
ENDBRANCH  16  19
ENDBRANCH  14  15
ENDBRANCH   1  14
BRANCH   7  29
HETATM   29  C   UNL     1      -5.305  -0.593 -33.337  1.00  0.00    -0.002 A 
HETATM   30  C   UNL     1      -6.659  -0.817 -33.631  1.00  0.00     0.016 A 
HETATM   31  C   UNL     1      -7.066  -2.012 -34.232  1.00  0.00     0.024 A 
HETATM   32  C   UNL     1      -6.121  -2.989 -34.535  1.00  0.00     0.034 A 
HETATM   33 CL   UNL     1      -6.618  -4.458 -35.277  1.00  0.00    -0.084 Cl
HETATM   34  C   UNL     1      -4.775  -2.780 -34.239  1.00  0.00     0.024 A 
HETATM   35  C   UNL     1      -4.365  -1.583 -33.640  1.00  0.00     0.016 A 
ENDBRANCH   7  29
TORSDOF 6
ENDMDL
MODEL 3
REMARK VINA RESULT:      -8.9      3.868      8.940
REMARK  6 active torsions:
REMARK  status: ('A' for Active; 'I' for Inactive)
REMARK    1  A    between atoms: O_2  and  C_3 
REMARK    2  A    between atoms: C_5  and  O_6 
REMARK    3  A    between atoms: C_8  and  N_9 
REMARK       I    between atoms: N_9  and  C_10 
REMARK    4  A    between atoms: C_10  and  C_11 
REMARK    5  A    between atoms: C_11  and  N_12 
REMARK    6  A    between atoms: C_18  and  C_19 
ROOT
HETATM    1  N   UNL     1      -4.936   6.486 -31.234  1.00  0.00    -0.063 N 
HETATM    2  H   UNL     1      -4.123   6.494 -31.863  1.00  0.00     0.280 HD
HETATM    3  C   UNL     1      -4.766   5.315 -30.296  1.00  0.00     0.240 C 
HETATM    4  C   UNL     1      -4.613   4.046 -31.110  1.00  0.00     0.083 C 
HETATM    5  C   UNL     1      -5.790   3.835 -32.070  1.00  0.00     0.131 A 
HETATM    6  N   UNL     1      -5.395   2.728 -32.974  1.00  0.00    -0.251 NA
HETATM    7  C   UNL     1      -6.216   1.737 -32.746  1.00  0.00     0.132 A 
HETATM    8  C   UNL     1      -7.257   2.099 -31.712  1.00  0.00     0.272 A 
HETATM    9  O   UNL     1      -8.127   1.401 -31.255  1.00  0.00    -0.266 OA
HETATM   10  N   UNL     1      -6.968   3.391 -31.393  1.00  0.00    -0.327 N 
HETATM   11  C   UNL     1      -6.050   5.077 -32.929  1.00  0.00     0.083 C 
HETATM   12  C   UNL     1      -6.167   6.344 -32.093  1.00  0.00     0.240 C 
HETATM   13  H   UNL     1      -7.495   3.857 -30.663  1.00  0.00     0.165 HD
ENDROOT
BRANCH   1  14
HETATM   14  C   UNL     1      -4.847   7.846 -30.484  1.00  0.00     0.337 C 
BRANCH  14  15
HETATM   15  C   UNL     1      -3.983   8.913 -31.157  1.00  0.00     0.248 C 
HETATM   16  N   UNL     1      -2.770   8.630 -31.707  1.00  0.00    -0.323 N 
HETATM   17  H   UNL     1      -2.456   9.394 -32.299  1.00  0.00     0.169 HD
HETATM   18  O   UNL     1      -4.428  10.056 -31.318  1.00  0.00    -0.271 OA
BRANCH  16  19
HETATM   19  C   UNL     1      -1.866   7.547 -31.616  1.00  0.00     0.068 A 
HETATM   20  C   UNL     1      -1.845   6.390 -32.419  1.00  0.00     0.097 A 
HETATM   21  C   UNL     1      -0.894   5.385 -32.163  1.00  0.00     0.075 A 
HETATM   22  C   UNL     1      -0.007   5.492 -31.091  1.00  0.00     0.070 A 
HETATM   23  C   UNL     1      -0.032   6.628 -30.294  1.00  0.00     0.039 A 
HETATM   24  C   UNL     1      -0.962   7.636 -30.543  1.00  0.00     0.035 A 
BRANCH  20  25
HETATM   25  O   UNL     1      -2.800   6.263 -33.390  1.00  0.00    -0.354 OA
HETATM   26  C   UNL     1      -2.424   5.620 -34.609  1.00  0.00     0.210 C 
ENDBRANCH  20  25
BRANCH  22  27
HETATM   27  O   UNL     1       0.935   4.559 -30.760  1.00  0.00    -0.356 OA
HETATM   28  C   UNL     1       1.245   4.465 -29.372  1.00  0.00     0.210 C 
ENDBRANCH  22  27
ENDBRANCH  16  19
ENDBRANCH  14  15
ENDBRANCH   1  14
BRANCH   7  29
HETATM   29  C   UNL     1      -6.108   0.422 -33.407  1.00  0.00    -0.002 A 
HETATM   30  C   UNL     1      -5.013  -0.395 -33.084  1.00  0.00     0.016 A 
HETATM   31  C   UNL     1      -4.875  -1.658 -33.667  1.00  0.00     0.024 A 
HETATM   32  C   UNL     1      -5.827  -2.105 -34.580  1.00  0.00     0.034 A 
HETATM   33 CL   UNL     1      -5.661  -3.660 -35.297  1.00  0.00    -0.084 Cl
HETATM   34  C   UNL     1      -6.913  -1.298 -34.915  1.00  0.00     0.024 A 
HETATM   35  C   UNL     1      -7.055  -0.034 -34.329  1.00  0.00     0.016 A 
ENDBRANCH   7  29
TORSDOF 6
ENDMDL
MODEL 4
REMARK VINA RESULT:      -8.9      4.005      9.791
REMARK  6 active torsions:
REMARK  status: ('A' for Active; 'I' for Inactive)
REMARK    1  A    between atoms: O_2  and  C_3 
REMARK    2  A    between atoms: C_5  and  O_6 
REMARK    3  A    between atoms: C_8  and  N_9 
REMARK       I    between atoms: N_9  and  C_10 
REMARK    4  A    between atoms: C_10  and  C_11 
REMARK    5  A    between atoms: C_11  and  N_12 
REMARK    6  A    between atoms: C_18  and  C_19 
ROOT
HETATM    1  N   UNL     1      -3.878   5.797 -32.443  1.00  0.00    -0.063 N 
HETATM    2  H   UNL     1      -4.022   5.923 -33.453  1.00  0.00     0.280 HD
HETATM    3  C   UNL     1      -2.820   4.733 -32.271  1.00  0.00     0.240 C 
HETATM    4  C   UNL     1      -3.262   3.473 -32.986  1.00  0.00     0.083 C 
HETATM    5  C   UNL     1      -4.633   2.989 -32.499  1.00  0.00     0.131 A 
HETATM    6  N   UNL     1      -5.059   1.928 -33.445  1.00  0.00    -0.251 NA
HETATM    7  C   UNL     1      -5.122   0.814 -32.765  1.00  0.00     0.132 A 
HETATM    8  C   UNL     1      -4.794   1.029 -31.305  1.00  0.00     0.272 A 
HETATM    9  O   UNL     1      -4.726   0.206 -30.428  1.00  0.00    -0.266 OA
HETATM   10  N   UNL     1      -4.564   2.369 -31.214  1.00  0.00    -0.327 N 
HETATM   11  C   UNL     1      -5.678   4.110 -32.546  1.00  0.00     0.083 C 
HETATM   12  C   UNL     1      -5.199   5.376 -31.850  1.00  0.00     0.240 C 
HETATM   13  H   UNL     1      -4.261   2.766 -30.332  1.00  0.00     0.165 HD
ENDROOT
BRANCH   1  14
HETATM   14  C   UNL     1      -3.385   7.189 -31.955  1.00  0.00     0.337 C 
BRANCH  14  15
HETATM   15  C   UNL     1      -2.023   7.630 -32.491  1.00  0.00     0.248 C 
HETATM   16  N   UNL     1      -0.900   7.625 -31.722  1.00  0.00    -0.323 N 
HETATM   17  H   UNL     1      -0.069   7.724 -32.299  1.00  0.00     0.169 HD
HETATM   18  O   UNL     1      -1.890   7.899 -33.691  1.00  0.00    -0.271 OA
BRANCH  16  19
HETATM   19  C   UNL     1      -0.647   7.541 -30.334  1.00  0.00     0.068 A 
HETATM   20  C   UNL     1      -1.113   8.415 -29.333  1.00  0.00     0.097 A 
HETATM   21  C   UNL     1      -0.728   8.206 -27.995  1.00  0.00     0.075 A 
HETATM   22  C   UNL     1       0.152   7.179 -27.654  1.00  0.00     0.070 A 
HETATM   23  C   UNL     1       0.619   6.321 -28.641  1.00  0.00     0.039 A 
HETATM   24  C   UNL     1       0.237   6.511 -29.969  1.00  0.00     0.035 A 
BRANCH  20  25
HETATM   25  O   UNL     1      -1.883   9.479 -29.714  1.00  0.00    -0.354 OA
HETATM   26  C   UNL     1      -3.148   9.646 -29.070  1.00  0.00     0.210 C 
ENDBRANCH  20  25
BRANCH  22  27
HETATM   27  O   UNL     1       0.591   6.914 -26.387  1.00  0.00    -0.356 OA
HETATM   28  C   UNL     1       1.537   7.840 -25.859  1.00  0.00     0.210 C 
ENDBRANCH  22  27
ENDBRANCH  16  19
ENDBRANCH  14  15
ENDBRANCH   1  14
BRANCH   7  29
HETATM   29  C   UNL     1      -5.448  -0.492 -33.370  1.00  0.00    -0.002 A 
HETATM   30  C   UNL     1      -4.394  -1.381 -33.638  1.00  0.00     0.016 A 
HETATM   31  C   UNL     1      -4.652  -2.638 -34.193  1.00  0.00     0.024 A 
HETATM   32  C   UNL     1      -5.961  -3.008 -34.487  1.00  0.00     0.034 A 
HETATM   33 CL   UNL     1      -6.281  -4.555 -35.167  1.00  0.00    -0.084 Cl
HETATM   34  C   UNL     1      -7.013  -2.129 -34.234  1.00  0.00     0.024 A 
HETATM   35  C   UNL     1      -6.759  -0.871 -33.675  1.00  0.00     0.016 A 
ENDBRANCH   7  29
TORSDOF 6
ENDMDL
MODEL 5
REMARK VINA RESULT:      -8.9      1.947      2.295
REMARK  6 active torsions:
REMARK  status: ('A' for Active; 'I' for Inactive)
REMARK    1  A    between atoms: O_2  and  C_3 
REMARK    2  A    between atoms: C_5  and  O_6 
REMARK    3  A    between atoms: C_8  and  N_9 
REMARK       I    between atoms: N_9  and  C_10 
REMARK    4  A    between atoms: C_10  and  C_11 
REMARK    5  A    between atoms: C_11  and  N_12 
REMARK    6  A    between atoms: C_18  and  C_19 
ROOT
HETATM    1  N   UNL     1      -5.484   3.811 -32.855  1.00  0.00    -0.063 N 
HETATM    2  H   UNL     1      -5.544   3.254 -31.993  1.00  0.00     0.280 HD
HETATM    3  C   UNL     1      -4.030   3.845 -33.264  1.00  0.00     0.240 C 
HETATM    4  C   UNL     1      -3.205   4.399 -32.121  1.00  0.00     0.083 C 
HETATM    5  C   UNL     1      -3.699   5.781 -31.675  1.00  0.00     0.131 A 
HETATM    6  N   UNL     1      -2.993   6.084 -30.406  1.00  0.00    -0.251 NA
HETATM    7  C   UNL     1      -2.231   7.122 -30.631  1.00  0.00     0.132 A 
HETATM    8  C   UNL     1      -2.388   7.635 -32.044  1.00  0.00     0.272 A 
HETATM    9  O   UNL     1      -1.803   8.546 -32.575  1.00  0.00    -0.266 OA
HETATM   10  N   UNL     1      -3.325   6.812 -32.591  1.00  0.00    -0.327 N 
HETATM   11  C   UNL     1      -5.205   5.779 -31.389  1.00  0.00     0.083 C 
HETATM   12  C   UNL     1      -6.010   5.188 -32.537  1.00  0.00     0.240 C 
HETATM   13  H   UNL     1      -3.569   6.911 -33.570  1.00  0.00     0.165 HD
ENDROOT
BRANCH   1  14
HETATM   14  C   UNL     1      -6.355   3.024 -33.874  1.00  0.00     0.337 C 
BRANCH  14  15
HETATM   15  C   UNL     1      -7.523   2.241 -33.276  1.00  0.00     0.248 C 
HETATM   16  N   UNL     1      -7.423   0.926 -32.940  1.00  0.00    -0.323 N 
HETATM   17  H   UNL     1      -8.205   0.643 -32.355  1.00  0.00     0.169 HD
HETATM   18  O   UNL     1      -8.570   2.827 -32.975  1.00  0.00    -0.271 OA
BRANCH  16  19
HETATM   19  C   UNL     1      -6.508  -0.110 -33.239  1.00  0.00     0.068 A 
HETATM   20  C   UNL     1      -5.208  -0.268 -32.722  1.00  0.00     0.097 A 
HETATM   21  C   UNL     1      -4.412  -1.342 -33.162  1.00  0.00     0.075 A 
HETATM   22  C   UNL     1      -4.872  -2.222 -34.143  1.00  0.00     0.070 A 
HETATM   23  C   UNL     1      -6.151  -2.063 -34.659  1.00  0.00     0.039 A 
HETATM   24  C   UNL     1      -6.953  -1.008 -34.224  1.00  0.00     0.035 A 
BRANCH  20  25
HETATM   25  O   UNL     1      -4.745   0.675 -31.846  1.00  0.00    -0.354 OA
HETATM   26  C   UNL     1      -3.423   0.507 -31.330  1.00  0.00     0.210 C 
ENDBRANCH  20  25
BRANCH  22  27
HETATM   27  O   UNL     1      -4.163  -3.278 -34.639  1.00  0.00    -0.356 OA
HETATM   28  C   UNL     1      -3.761  -4.254 -33.680  1.00  0.00     0.210 C 
ENDBRANCH  22  27
ENDBRANCH  16  19
ENDBRANCH  14  15
ENDBRANCH   1  14
BRANCH   7  29
HETATM   29  C   UNL     1      -1.315   7.692 -29.626  1.00  0.00    -0.002 A 
HETATM   30  C   UNL     1       0.009   7.225 -29.593  1.00  0.00     0.016 A 
HETATM   31  C   UNL     1       0.923   7.747 -28.673  1.00  0.00     0.024 A 
HETATM   32  C   UNL     1       0.515   8.733 -27.778  1.00  0.00     0.034 A 
HETATM   33 CL   UNL     1       1.637   9.378 -26.647  1.00  0.00    -0.084 Cl
HETATM   34  C   UNL     1      -0.799   9.197 -27.795  1.00  0.00     0.024 A 
HETATM   35  C   UNL     1      -1.715   8.678 -28.719  1.00  0.00     0.016 A 
ENDBRANCH   7  29
TORSDOF 6
ENDMDL
MODEL 6
REMARK VINA RESULT:      -8.6      4.312      9.351
REMARK  6 active torsions:
REMARK  status: ('A' for Active; 'I' for Inactive)
REMARK    1  A    between atoms: O_2  and  C_3 
REMARK    2  A    between atoms: C_5  and  O_6 
REMARK    3  A    between atoms: C_8  and  N_9 
REMARK       I    between atoms: N_9  and  C_10 
REMARK    4  A    between atoms: C_10  and  C_11 
REMARK    5  A    between atoms: C_11  and  N_12 
REMARK    6  A    between atoms: C_18  and  C_19 
ROOT
HETATM    1  N   UNL     1      -5.395   4.624 -30.463  1.00  0.00    -0.063 N 
HETATM    2  H   UNL     1      -4.553   4.216 -30.037  1.00  0.00     0.280 HD
HETATM    3  C   UNL     1      -6.546   3.695 -30.155  1.00  0.00     0.240 C 
HETATM    4  C   UNL     1      -6.215   2.308 -30.665  1.00  0.00     0.083 C 
HETATM    5  C   UNL     1      -5.878   2.313 -32.161  1.00  0.00     0.131 A 
HETATM    6  N   UNL     1      -5.325   0.970 -32.466  1.00  0.00    -0.251 NA
HETATM    7  C   UNL     1      -6.156   0.395 -33.294  1.00  0.00     0.132 A 
HETATM    8  C   UNL     1      -7.308   1.305 -33.655  1.00  0.00     0.272 A 
HETATM    9  O   UNL     1      -8.256   1.063 -34.359  1.00  0.00    -0.266 OA
HETATM   10  N   UNL     1      -7.041   2.456 -32.978  1.00  0.00    -0.327 N 
HETATM   11  C   UNL     1      -4.803   3.353 -32.496  1.00  0.00     0.083 C 
HETATM   12  C   UNL     1      -5.142   4.731 -31.945  1.00  0.00     0.240 C 
HETATM   13  H   UNL     1      -7.708   3.219 -33.006  1.00  0.00     0.165 HD
ENDROOT
BRANCH   1  14
HETATM   14  C   UNL     1      -5.552   5.997 -29.751  1.00  0.00     0.337 C 
BRANCH  14  15
HETATM   15  C   UNL     1      -4.393   6.402 -28.840  1.00  0.00     0.248 C 
HETATM   16  N   UNL     1      -3.230   6.918 -29.324  1.00  0.00    -0.323 N 
HETATM   17  H   UNL     1      -2.683   7.335 -28.576  1.00  0.00     0.169 HD
HETATM   18  O   UNL     1      -4.534   6.374 -27.611  1.00  0.00    -0.271 OA
BRANCH  16  19
HETATM   19  C   UNL     1      -2.623   6.975 -30.600  1.00  0.00     0.068 A 
HETATM   20  C   UNL     1      -2.670   8.045 -31.513  1.00  0.00     0.097 A 
HETATM   21  C   UNL     1      -2.039   7.917 -32.765  1.00  0.00     0.075 A 
HETATM   22  C   UNL     1      -1.415   6.726 -33.135  1.00  0.00     0.070 A 
HETATM   23  C   UNL     1      -1.374   5.667 -32.239  1.00  0.00     0.039 A 
HETATM   24  C   UNL     1      -1.986   5.785 -30.991  1.00  0.00     0.035 A 
BRANCH  20  25
HETATM   25  O   UNL     1      -3.386   9.157 -31.166  1.00  0.00    -0.354 OA
HETATM   26  C   UNL     1      -2.705  10.185 -30.444  1.00  0.00     0.210 C 
ENDBRANCH  20  25
BRANCH  22  27
HETATM   27  O   UNL     1      -0.794   6.509 -34.333  1.00  0.00    -0.356 OA
HETATM   28  C   UNL     1      -1.178   5.319 -35.017  1.00  0.00     0.210 C 
ENDBRANCH  22  27
ENDBRANCH  16  19
ENDBRANCH  14  15
ENDBRANCH   1  14
BRANCH   7  29
HETATM   29  C   UNL     1      -5.990  -0.987 -33.786  1.00  0.00    -0.002 A 
HETATM   30  C   UNL     1      -4.693  -1.522 -33.835  1.00  0.00     0.016 A 
HETATM   31  C   UNL     1      -4.483  -2.833 -34.274  1.00  0.00     0.024 A 
HETATM   32  C   UNL     1      -5.568  -3.610 -34.671  1.00  0.00     0.034 A 
HETATM   33 CL   UNL     1      -5.313  -5.223 -35.209  1.00  0.00    -0.084 Cl
HETATM   34  C   UNL     1      -6.858  -3.085 -34.635  1.00  0.00     0.024 A 
HETATM   35  C   UNL     1      -7.071  -1.774 -34.193  1.00  0.00     0.016 A 
ENDBRANCH   7  29
TORSDOF 6
ENDMDL
MODEL 7
REMARK VINA RESULT:      -8.6      4.059      9.654
REMARK  6 active torsions:
REMARK  status: ('A' for Active; 'I' for Inactive)
REMARK    1  A    between atoms: O_2  and  C_3 
REMARK    2  A    between atoms: C_5  and  O_6 
REMARK    3  A    between atoms: C_8  and  N_9 
REMARK       I    between atoms: N_9  and  C_10 
REMARK    4  A    between atoms: C_10  and  C_11 
REMARK    5  A    between atoms: C_11  and  N_12 
REMARK    6  A    between atoms: C_18  and  C_19 
ROOT
HETATM    1  N   UNL     1      -5.348   5.084 -30.669  1.00  0.00    -0.063 N 
HETATM    2  H   UNL     1      -6.193   5.253 -31.230  1.00  0.00     0.280 HD
HETATM    3  C   UNL     1      -4.248   4.690 -31.626  1.00  0.00     0.240 C 
HETATM    4  C   UNL     1      -4.697   3.488 -32.431  1.00  0.00     0.083 C 
HETATM    5  C   UNL     1      -5.109   2.317 -31.531  1.00  0.00     0.131 A 
HETATM    6  N   UNL     1      -5.766   1.323 -32.416  1.00  0.00    -0.251 NA
HETATM    7  C   UNL     1      -5.018   0.251 -32.407  1.00  0.00     0.132 A 
HETATM    8  C   UNL     1      -3.828   0.406 -31.489  1.00  0.00     0.272 A 
HETATM    9  O   UNL     1      -2.936  -0.379 -31.287  1.00  0.00    -0.266 OA
HETATM   10  N   UNL     1      -3.982   1.651 -30.959  1.00  0.00    -0.327 N 
HETATM   11  C   UNL     1      -6.127   2.748 -30.470  1.00  0.00     0.083 C 
HETATM   12  C   UNL     1      -5.669   3.977 -29.697  1.00  0.00     0.240 C 
HETATM   13  H   UNL     1      -3.268   2.025 -30.344  1.00  0.00     0.165 HD
ENDROOT
BRANCH   1  14
HETATM   14  C   UNL     1      -5.063   6.454 -29.992  1.00  0.00     0.337 C 
BRANCH  14  15
HETATM   15  C   UNL     1      -4.796   7.618 -30.946  1.00  0.00     0.248 C 
HETATM   16  N   UNL     1      -3.540   8.067 -31.215  1.00  0.00    -0.323 N 
HETATM   17  H   UNL     1      -3.542   8.675 -32.029  1.00  0.00     0.169 HD
HETATM   18  O   UNL     1      -5.728   8.112 -31.593  1.00  0.00    -0.271 OA
BRANCH  16  19
HETATM   19  C   UNL     1      -2.273   7.897 -30.611  1.00  0.00     0.068 A 
HETATM   20  C   UNL     1      -1.217   7.088 -31.070  1.00  0.00     0.097 A 
HETATM   21  C   UNL     1      -0.030   7.003 -30.319  1.00  0.00     0.075 A 
HETATM   22  C   UNL     1       0.095   7.666 -29.097  1.00  0.00     0.070 A 
HETATM   23  C   UNL     1      -0.949   8.458 -28.639  1.00  0.00     0.039 A 
HETATM   24  C   UNL     1      -2.126   8.559 -29.380  1.00  0.00     0.035 A 
BRANCH  20  25
HETATM   25  O   UNL     1      -1.412   6.362 -32.213  1.00  0.00    -0.354 OA
HETATM   26  C   UNL     1      -0.965   6.931 -33.445  1.00  0.00     0.210 C 
ENDBRANCH  20  25
BRANCH  22  27
HETATM   27  O   UNL     1       1.201   7.627 -28.296  1.00  0.00    -0.356 OA
HETATM   28  C   UNL     1       1.501   8.835 -27.603  1.00  0.00     0.210 C 
ENDBRANCH  22  27
ENDBRANCH  16  19
ENDBRANCH  14  15
ENDBRANCH   1  14
BRANCH   7  29
HETATM   29  C   UNL     1      -5.302  -0.946 -33.222  1.00  0.00    -0.002 A 
HETATM   30  C   UNL     1      -6.642  -1.248 -33.514  1.00  0.00     0.016 A 
HETATM   31  C   UNL     1      -6.963  -2.359 -34.299  1.00  0.00     0.024 A 
HETATM   32  C   UNL     1      -5.948  -3.176 -34.788  1.00  0.00     0.034 A 
HETATM   33 CL   UNL     1      -6.340  -4.542 -35.756  1.00  0.00    -0.084 Cl
HETATM   34  C   UNL     1      -4.615  -2.891 -34.497  1.00  0.00     0.024 A 
HETATM   35  C   UNL     1      -4.290  -1.776 -33.714  1.00  0.00     0.016 A 
ENDBRANCH   7  29
TORSDOF 6
ENDMDL
MODEL 8
REMARK VINA RESULT:      -8.3      2.034      2.911
REMARK  6 active torsions:
REMARK  status: ('A' for Active; 'I' for Inactive)
REMARK    1  A    between atoms: O_2  and  C_3 
REMARK    2  A    between atoms: C_5  and  O_6 
REMARK    3  A    between atoms: C_8  and  N_9 
REMARK       I    between atoms: N_9  and  C_10 
REMARK    4  A    between atoms: C_10  and  C_11 
REMARK    5  A    between atoms: C_11  and  N_12 
REMARK    6  A    between atoms: C_18  and  C_19 
ROOT
HETATM    1  N   UNL     1      -6.519   4.273 -32.604  1.00  0.00    -0.063 N 
HETATM    2  H   UNL     1      -6.644   3.819 -31.691  1.00  0.00     0.280 HD
HETATM    3  C   UNL     1      -5.111   3.976 -33.062  1.00  0.00     0.240 C 
HETATM    4  C   UNL     1      -4.134   4.451 -32.006  1.00  0.00     0.083 C 
HETATM    5  C   UNL     1      -4.320   5.938 -31.681  1.00  0.00     0.131 A 
HETATM    6  N   UNL     1      -3.504   6.204 -30.471  1.00  0.00    -0.251 NA
HETATM    7  C   UNL     1      -2.563   7.041 -30.821  1.00  0.00     0.132 A 
HETATM    8  C   UNL     1      -2.687   7.447 -32.272  1.00  0.00     0.272 A 
HETATM    9  O   UNL     1      -1.961   8.169 -32.907  1.00  0.00    -0.266 OA
HETATM   10  N   UNL     1      -3.796   6.786 -32.705  1.00  0.00    -0.327 N 
HETATM   11  C   UNL     1      -5.780   6.267 -31.348  1.00  0.00     0.083 C 
HETATM   12  C   UNL     1      -6.744   5.751 -32.406  1.00  0.00     0.240 C 
HETATM   13  H   UNL     1      -4.065   6.845 -33.680  1.00  0.00     0.165 HD
ENDROOT
BRANCH   1  14
HETATM   14  C   UNL     1      -7.580   3.592 -33.514  1.00  0.00     0.337 C 
BRANCH  14  15
HETATM   15  C   UNL     1      -8.559   2.660 -32.799  1.00  0.00     0.248 C 
HETATM   16  N   UNL     1      -8.151   1.539 -32.144  1.00  0.00    -0.323 N 
HETATM   17  H   UNL     1      -8.893   1.181 -31.548  1.00  0.00     0.169 HD
HETATM   18  O   UNL     1      -9.752   2.972 -32.706  1.00  0.00    -0.271 OA
BRANCH  16  19
HETATM   19  C   UNL     1      -6.965   0.770 -32.131  1.00  0.00     0.068 A 
HETATM   20  C   UNL     1      -6.599  -0.239 -33.042  1.00  0.00     0.097 A 
HETATM   21  C   UNL     1      -5.391  -0.937 -32.857  1.00  0.00     0.075 A 
HETATM   22  C   UNL     1      -4.577  -0.681 -31.754  1.00  0.00     0.070 A 
HETATM   23  C   UNL     1      -4.939   0.309 -30.850  1.00  0.00     0.039 A 
HETATM   24  C   UNL     1      -6.129   1.015 -31.029  1.00  0.00     0.035 A 
BRANCH  20  25
HETATM   25  O   UNL     1      -7.473  -0.545 -34.050  1.00  0.00    -0.354 OA
HETATM   26  C   UNL     1      -7.289   0.108 -35.307  1.00  0.00     0.210 C 
ENDBRANCH  20  25
BRANCH  22  27
HETATM   27  O   UNL     1      -3.399  -1.320 -31.486  1.00  0.00    -0.356 OA
HETATM   28  C   UNL     1      -3.238  -2.595 -32.102  1.00  0.00     0.210 C 
ENDBRANCH  22  27
ENDBRANCH  16  19
ENDBRANCH  14  15
ENDBRANCH   1  14
BRANCH   7  29
HETATM   29  C   UNL     1      -1.501   7.501 -29.906  1.00  0.00    -0.002 A 
HETATM   30  C   UNL     1      -0.250   6.867 -29.969  1.00  0.00     0.016 A 
HETATM   31  C   UNL     1       0.796   7.278 -29.137  1.00  0.00     0.024 A 
HETATM   32  C   UNL     1       0.593   8.320 -28.236  1.00  0.00     0.034 A 
HETATM   33 CL   UNL     1       1.878   8.829 -27.214  1.00  0.00    -0.084 Cl
HETATM   34  C   UNL     1      -0.648   8.950 -28.159  1.00  0.00     0.024 A 
HETATM   35  C   UNL     1      -1.696   8.542 -28.993  1.00  0.00     0.016 A 
ENDBRANCH   7  29
TORSDOF 6
ENDMDL
MODEL 9
REMARK VINA RESULT:      -8.2      2.082      2.932
REMARK  6 active torsions:
REMARK  status: ('A' for Active; 'I' for Inactive)
REMARK    1  A    between atoms: O_2  and  C_3 
REMARK    2  A    between atoms: C_5  and  O_6 
REMARK    3  A    between atoms: C_8  and  N_9 
REMARK       I    between atoms: N_9  and  C_10 
REMARK    4  A    between atoms: C_10  and  C_11 
REMARK    5  A    between atoms: C_11  and  N_12 
REMARK    6  A    between atoms: C_18  and  C_19 
ROOT
HETATM    1  N   UNL     1      -6.840   3.614 -33.094  1.00  0.00    -0.063 N 
HETATM    2  H   UNL     1      -6.965   3.237 -32.145  1.00  0.00     0.280 HD
HETATM    3  C   UNL     1      -5.450   3.234 -33.546  1.00  0.00     0.240 C 
HETATM    4  C   UNL     1      -4.441   3.757 -32.545  1.00  0.00     0.083 C 
HETATM    5  C   UNL     1      -4.573   5.271 -32.335  1.00  0.00     0.131 A 
HETATM    6  N   UNL     1      -3.729   5.603 -31.162  1.00  0.00    -0.251 NA
HETATM    7  C   UNL     1      -2.768   6.378 -31.590  1.00  0.00     0.132 A 
HETATM    8  C   UNL     1      -2.902   6.673 -33.066  1.00  0.00     0.272 A 
HETATM    9  O   UNL     1      -2.164   7.319 -33.767  1.00  0.00    -0.266 OA
HETATM   10  N   UNL     1      -4.039   6.018 -33.430  1.00  0.00    -0.327 N 
HETATM   11  C   UNL     1      -6.016   5.674 -32.009  1.00  0.00     0.083 C 
HETATM   12  C   UNL     1      -7.013   5.109 -33.010  1.00  0.00     0.240 C 
HETATM   13  H   UNL     1      -4.323   6.009 -34.403  1.00  0.00     0.165 HD
ENDROOT
BRANCH   1  14
HETATM   14  C   UNL     1      -7.937   2.900 -33.932  1.00  0.00     0.337 C 
BRANCH  14  15
HETATM   15  C   UNL     1      -8.853   1.956 -33.151  1.00  0.00     0.248 C 
HETATM   16  N   UNL     1      -8.378   1.089 -32.215  1.00  0.00    -0.323 N 
HETATM   17  H   UNL     1      -9.138   0.720 -31.648  1.00  0.00     0.169 HD
HETATM   18  O   UNL     1     -10.080   2.043 -33.276  1.00  0.00    -0.271 OA
BRANCH  16  19
HETATM   19  C   UNL     1      -7.100   0.584 -31.885  1.00  0.00     0.068 A 
HETATM   20  C   UNL     1      -6.249   1.036 -30.859  1.00  0.00     0.097 A 
HETATM   21  C   UNL     1      -4.983   0.442 -30.695  1.00  0.00     0.075 A 
HETATM   22  C   UNL     1      -4.538  -0.551 -31.568  1.00  0.00     0.070 A 
HETATM   23  C   UNL     1      -5.373  -0.992 -32.585  1.00  0.00     0.039 A 
HETATM   24  C   UNL     1      -6.633  -0.419 -32.752  1.00  0.00     0.035 A 
BRANCH  20  25
HETATM   25  O   UNL     1      -6.668   2.087 -30.091  1.00  0.00    -0.354 OA
HETATM   26  C   UNL     1      -5.668   2.945 -29.539  1.00  0.00     0.210 C 
ENDBRANCH  20  25
BRANCH  22  27
HETATM   27  O   UNL     1      -3.322  -1.169 -31.493  1.00  0.00    -0.356 OA
HETATM   28  C   UNL     1      -3.259  -2.473 -32.065  1.00  0.00     0.210 C 
ENDBRANCH  22  27
ENDBRANCH  16  19
ENDBRANCH  14  15
ENDBRANCH   1  14
BRANCH   7  29
HETATM   29  C   UNL     1      -1.676   6.873 -30.729  1.00  0.00    -0.002 A 
HETATM   30  C   UNL     1      -1.994   7.795 -29.719  1.00  0.00     0.016 A 
HETATM   31  C   UNL     1      -1.000   8.280 -28.864  1.00  0.00     0.024 A 
HETATM   32  C   UNL     1       0.315   7.849 -29.019  1.00  0.00     0.034 A 
HETATM   33 CL   UNL     1       1.539   8.442 -27.967  1.00  0.00    -0.084 Cl
HETATM   34  C   UNL     1       0.643   6.941 -30.024  1.00  0.00     0.024 A 
HETATM   35  C   UNL     1      -0.351   6.452 -30.880  1.00  0.00     0.016 A 
ENDBRANCH   7  29
TORSDOF 6
ENDMDL
MODEL 10
REMARK VINA RESULT:      -8.2      6.637      8.654
REMARK  6 active torsions:
REMARK  status: ('A' for Active; 'I' for Inactive)
REMARK    1  A    between atoms: O_2  and  C_3 
REMARK    2  A    between atoms: C_5  and  O_6 
REMARK    3  A    between atoms: C_8  and  N_9 
REMARK       I    between atoms: N_9  and  C_10 
REMARK    4  A    between atoms: C_10  and  C_11 
REMARK    5  A    between atoms: C_11  and  N_12 
REMARK    6  A    between atoms: C_18  and  C_19 
ROOT
HETATM    1  N   UNL     1      -9.151   4.414 -33.846  1.00  0.00    -0.063 N 
HETATM    2  H   UNL     1      -9.234   4.200 -34.848  1.00  0.00     0.280 HD
HETATM    3  C   UNL     1      -7.678   4.492 -33.524  1.00  0.00     0.240 C 
HETATM    4  C   UNL     1      -7.013   3.191 -33.927  1.00  0.00     0.083 C 
HETATM    5  C   UNL     1      -7.674   1.979 -33.259  1.00  0.00     0.131 A 
HETATM    6  N   UNL     1      -7.115   0.780 -33.929  1.00  0.00    -0.251 NA
HETATM    7  C   UNL     1      -6.438   0.119 -33.027  1.00  0.00     0.132 A 
HETATM    8  C   UNL     1      -6.518   0.781 -31.671  1.00  0.00     0.272 A 
HETATM    9  O   UNL     1      -5.979   0.447 -30.646  1.00  0.00    -0.266 OA
HETATM   10  N   UNL     1      -7.321   1.862 -31.879  1.00  0.00    -0.327 N 
HETATM   11  C   UNL     1      -9.192   1.974 -33.471  1.00  0.00     0.083 C 
HETATM   12  C   UNL     1      -9.833   3.301 -33.091  1.00  0.00     0.240 C 
HETATM   13  H   UNL     1      -7.486   2.516 -31.123  1.00  0.00     0.165 HD
ENDROOT
BRANCH   1  14
HETATM   14  C   UNL     1      -9.850   5.795 -33.696  1.00  0.00     0.337 C 
BRANCH  14  15
HETATM   15  C   UNL     1     -10.675   6.250 -34.900  1.00  0.00     0.248 C 
HETATM   16  N   UNL     1     -11.823   5.621 -35.277  1.00  0.00    -0.323 N 
HETATM   17  H   UNL     1     -12.344   6.191 -35.938  1.00  0.00     0.169 HD
HETATM   18  O   UNL     1     -10.371   7.287 -35.501  1.00  0.00    -0.271 OA
BRANCH  16  19
HETATM   19  C   UNL     1     -12.417   4.374 -34.978  1.00  0.00     0.068 A 
HETATM   20  C   UNL     1     -13.146   4.039 -33.821  1.00  0.00     0.097 A 
HETATM   21  C   UNL     1     -13.637   2.729 -33.665  1.00  0.00     0.075 A 
HETATM   22  C   UNL     1     -13.367   1.744 -34.616  1.00  0.00     0.070 A 
HETATM   23  C   UNL     1     -12.642   2.072 -35.754  1.00  0.00     0.039 A 
HETATM   24  C   UNL     1     -12.159   3.369 -35.924  1.00  0.00     0.035 A 
BRANCH  20  25
HETATM   25  O   UNL     1     -13.297   4.995 -32.855  1.00  0.00    -0.354 OA
HETATM   26  C   UNL     1     -13.229   4.577 -31.491  1.00  0.00     0.210 C 
ENDBRANCH  20  25
BRANCH  22  27
HETATM   27  O   UNL     1     -13.788   0.447 -34.539  1.00  0.00    -0.356 OA
HETATM   28  C   UNL     1     -13.174  -0.340 -33.521  1.00  0.00     0.210 C 
ENDBRANCH  22  27
ENDBRANCH  16  19
ENDBRANCH  14  15
ENDBRANCH   1  14
BRANCH   7  29
HETATM   29  C   UNL     1      -5.673  -1.108 -33.320  1.00  0.00    -0.002 A 
HETATM   30  C   UNL     1      -4.468  -1.319 -32.630  1.00  0.00     0.016 A 
HETATM   31  C   UNL     1      -3.715  -2.475 -32.857  1.00  0.00     0.024 A 
HETATM   32  C   UNL     1      -4.159  -3.419 -33.779  1.00  0.00     0.034 A 
HETATM   33 CL   UNL     1      -3.235  -4.842 -34.058  1.00  0.00    -0.084 Cl
HETATM   34  C   UNL     1      -5.348  -3.215 -34.476  1.00  0.00     0.024 A 
HETATM   35  C   UNL     1      -6.106  -2.060 -34.248  1.00  0.00     0.016 A 
ENDBRANCH   7  29
TORSDOF 6
ENDMDL
