MODEL 1
REMARK VINA RESULT:      -8.1      0.000      0.000
REMARK  6 active torsions:
REMARK  status: ('A' for Active; 'I' for Inactive)
REMARK    1  A    between atoms: O_2  and  C_3 
REMARK    2  A    between atoms: C_7  and  C_8 
REMARK    3  A    between atoms: C_8  and  N_9 
REMARK       I    between atoms: N_9  and  C_10 
REMARK       I    between atoms: C_10  and  N_12 
REMARK    4  A    between atoms: N_12  and  C_13 
REMARK    5  A    between atoms: C_16  and  C_21 
REMARK    6  A    between atoms: C_18  and  O_19 
ROOT
HETATM    1  N   UNL     1      -3.680   3.966 -30.900  1.00  0.00    -0.339 N 
HETATM    2  C   UNL     1      -3.923   3.038 -31.889  1.00  0.00     0.321 C 
HETATM    3  O   UNL     1      -3.805   3.315 -33.078  1.00  0.00    -0.247 OA
HETATM    4  N   UNL     1      -4.290   1.822 -31.369  1.00  0.00    -0.306 N 
HETATM    5  H   UNL     1      -4.117   3.819 -30.003  1.00  0.00     0.164 HD
HETATM    6  H   UNL     1      -4.392   1.748 -30.367  1.00  0.00     0.171 HD
ENDROOT
BRANCH   4   7
HETATM    7  C   UNL     1      -4.581   0.636 -32.077  1.00  0.00     0.069 A 
HETATM    8  C   UNL     1      -3.614  -0.203 -32.624  1.00  0.00     0.033 A 
HETATM    9  C   UNL     1      -3.989  -1.369 -33.306  1.00  0.00     0.015 A 
HETATM   10  C   UNL     1      -5.337  -1.725 -33.449  1.00  0.00    -0.020 A 
HETATM   11  C   UNL     1      -6.311  -0.883 -32.897  1.00  0.00     0.051 A 
HETATM   12  C   UNL     1      -5.934   0.293 -32.236  1.00  0.00     0.095 A 
BRANCH  10  13
HETATM   13  C   UNL     1      -5.695  -2.938 -34.167  1.00  0.00     0.010 A 
HETATM   14  C   UNL     1      -4.913  -4.066 -34.519  1.00  0.00     0.152 A 
HETATM   15  N   UNL     1      -5.608  -4.996 -35.179  1.00  0.00    -0.187 NA
HETATM   16  N   UNL     1      -6.842  -4.474 -35.248  1.00  0.00    -0.289 N 
HETATM   17  H   UNL     1      -7.566  -5.013 -35.708  1.00  0.00     0.188 HD
HETATM   18  C   UNL     1      -6.946  -3.245 -34.661  1.00  0.00     0.123 A 
ENDBRANCH  10  13
BRANCH  12  19
HETATM   19  O   UNL     1      -6.884   1.129 -31.696  1.00  0.00    -0.354 OA
HETATM   20  C   UNL     1      -8.136   0.972 -32.367  1.00  0.00     0.210 C 
ENDBRANCH  12  19
ENDBRANCH   4   7
BRANCH   1  21
HETATM   21  C   UNL     1      -3.409   5.337 -31.275  1.00  0.00     0.163 C 
BRANCH  21  22
HETATM   22  C   UNL     1      -2.023   5.780 -30.885  1.00  0.00    -0.038 A 
HETATM   23  C   UNL     1      -0.894   5.262 -31.535  1.00  0.00     0.009 A 
HETATM   24  C   UNL     1       0.380   5.725 -31.214  1.00  0.00     0.003 A 
HETATM   25  C   UNL     1       0.536   6.724 -30.253  1.00  0.00     0.037 A 
HETATM   26  C   UNL     1      -0.577   7.271 -29.611  1.00  0.00     0.068 A 
HETATM   27  C   UNL     1      -1.851   6.793 -29.923  1.00  0.00     0.045 A 
BRANCH  26  28
HETATM   28  O   UNL     1      -0.288   8.258 -28.709  1.00  0.00    -0.356 OA
HETATM   29  C   UNL     1       1.027   8.265 -28.166  1.00  0.00     0.210 C 
ENDBRANCH  26  28
ENDBRANCH  21  22
ENDBRANCH   1  21
TORSDOF 6
ENDMDL
MODEL 2
REMARK VINA RESULT:      -8.0      1.475      1.682
REMARK  6 active torsions:
REMARK  status: ('A' for Active; 'I' for Inactive)
REMARK    1  A    between atoms: O_2  and  C_3 
REMARK    2  A    between atoms: C_7  and  C_8 
REMARK    3  A    between atoms: C_8  and  N_9 
REMARK       I    between atoms: N_9  and  C_10 
REMARK       I    between atoms: C_10  and  N_12 
REMARK    4  A    between atoms: N_12  and  C_13 
REMARK    5  A    between atoms: C_16  and  C_21 
REMARK    6  A    between atoms: C_18  and  O_19 
ROOT
HETATM    1  N   UNL     1      -4.458   4.133 -31.358  1.00  0.00    -0.339 N 
HETATM    2  C   UNL     1      -4.630   3.139 -32.297  1.00  0.00     0.321 C 
HETATM    3  O   UNL     1      -4.592   3.373 -33.499  1.00  0.00    -0.247 OA
HETATM    4  N   UNL     1      -4.835   1.915 -31.711  1.00  0.00    -0.306 N 
HETATM    5  H   UNL     1      -4.838   3.979 -30.438  1.00  0.00     0.164 HD
HETATM    6  H   UNL     1      -4.887   1.876 -30.703  1.00  0.00     0.171 HD
ENDROOT
BRANCH   4   7
HETATM    7  C   UNL     1      -5.014   0.672 -32.356  1.00  0.00     0.069 A 
HETATM    8  C   UNL     1      -3.977  -0.204 -32.664  1.00  0.00     0.033 A 
HETATM    9  C   UNL     1      -4.243  -1.425 -33.299  1.00  0.00     0.015 A 
HETATM   10  C   UNL     1      -5.553  -1.800 -33.631  1.00  0.00    -0.020 A 
HETATM   11  C   UNL     1      -6.598  -0.921 -33.319  1.00  0.00     0.051 A 
HETATM   12  C   UNL     1      -6.325   0.308 -32.706  1.00  0.00     0.095 A 
BRANCH  10  13
HETATM   13  C   UNL     1      -5.797  -3.071 -34.295  1.00  0.00     0.010 A 
HETATM   14  C   UNL     1      -4.942  -4.181 -34.504  1.00  0.00     0.152 A 
HETATM   15  N   UNL     1      -5.538  -5.182 -35.158  1.00  0.00    -0.187 NA
HETATM   16  N   UNL     1      -6.782  -4.723 -35.364  1.00  0.00    -0.289 N 
HETATM   17  H   UNL     1      -7.441  -5.323 -35.846  1.00  0.00     0.188 HD
HETATM   18  C   UNL     1      -6.986  -3.466 -34.870  1.00  0.00     0.123 A 
ENDBRANCH  10  13
BRANCH  12  19
HETATM   19  O   UNL     1      -7.345   1.181 -32.401  1.00  0.00    -0.354 OA
HETATM   20  C   UNL     1      -7.958   1.679 -33.591  1.00  0.00     0.210 C 
ENDBRANCH  12  19
ENDBRANCH   4   7
BRANCH   1  21
HETATM   21  C   UNL     1      -4.361   5.507 -31.801  1.00  0.00     0.163 C 
BRANCH  21  22
HETATM   22  C   UNL     1      -2.935   5.986 -31.893  1.00  0.00    -0.038 A 
HETATM   23  C   UNL     1      -2.644   7.304 -32.275  1.00  0.00     0.009 A 
HETATM   24  C   UNL     1      -1.328   7.759 -32.294  1.00  0.00     0.003 A 
HETATM   25  C   UNL     1      -0.291   6.907 -31.914  1.00  0.00     0.037 A 
HETATM   26  C   UNL     1      -0.561   5.598 -31.508  1.00  0.00     0.068 A 
HETATM   27  C   UNL     1      -1.880   5.140 -31.506  1.00  0.00     0.045 A 
BRANCH  26  28
HETATM   28  O   UNL     1       0.541   4.876 -31.139  1.00  0.00    -0.356 OA
HETATM   29  C   UNL     1       0.841   4.829 -29.749  1.00  0.00     0.210 C 
ENDBRANCH  26  28
ENDBRANCH  21  22
ENDBRANCH   1  21
TORSDOF 6
ENDMDL
MODEL 3
REMARK VINA RESULT:      -7.8      1.389      1.673
REMARK  6 active torsions:
REMARK  status: ('A' for Active; 'I' for Inactive)
REMARK    1  A    between atoms: O_2  and  C_3 
REMARK    2  A    between atoms: C_7  and  C_8 
REMARK    3  A    between atoms: C_8  and  N_9 
REMARK       I    between atoms: N_9  and  C_10 
REMARK       I    between atoms: C_10  and  N_12 
REMARK    4  A    between atoms: N_12  and  C_13 
REMARK    5  A    between atoms: C_16  and  C_21 
REMARK    6  A    between atoms: C_18  and  O_19 
ROOT
HETATM    1  N   UNL     1      -2.605   4.741 -30.924  1.00  0.00    -0.339 N 
HETATM    2  C   UNL     1      -2.855   3.763 -31.863  1.00  0.00     0.321 C 
HETATM    3  O   UNL     1      -2.430   3.844 -33.009  1.00  0.00    -0.247 OA
HETATM    4  N   UNL     1      -3.606   2.739 -31.343  1.00  0.00    -0.306 N 
HETATM    5  H   UNL     1      -3.239   4.816 -30.145  1.00  0.00     0.164 HD
HETATM    6  H   UNL     1      -3.928   2.825 -30.389  1.00  0.00     0.171 HD
ENDROOT
BRANCH   4   7
HETATM    7  C   UNL     1      -4.024   1.560 -31.998  1.00  0.00     0.069 A 
HETATM    8  C   UNL     1      -3.257   0.400 -32.080  1.00  0.00     0.033 A 
HETATM    9  C   UNL     1      -3.751  -0.733 -32.742  1.00  0.00     0.015 A 
HETATM   10  C   UNL     1      -5.024  -0.732 -33.330  1.00  0.00    -0.020 A 
HETATM   11  C   UNL     1      -5.796   0.433 -33.246  1.00  0.00     0.051 A 
HETATM   12  C   UNL     1      -5.290   1.570 -32.604  1.00  0.00     0.095 A 
BRANCH  10  13
HETATM   13  C   UNL     1      -5.505  -1.920 -34.017  1.00  0.00     0.010 A 
HETATM   14  C   UNL     1      -4.801  -3.035 -34.536  1.00  0.00     0.152 A 
HETATM   15  N   UNL     1      -5.604  -3.943 -35.097  1.00  0.00    -0.187 NA
HETATM   16  N   UNL     1      -6.828  -3.420 -34.933  1.00  0.00    -0.289 N 
HETATM   17  H   UNL     1      -7.624  -3.945 -35.279  1.00  0.00     0.188 HD
HETATM   18  C   UNL     1      -6.824  -2.212 -34.296  1.00  0.00     0.123 A 
ENDBRANCH  10  13
BRANCH  12  19
HETATM   19  O   UNL     1      -6.041   2.721 -32.521  1.00  0.00    -0.354 OA
HETATM   20  C   UNL     1      -6.199   3.314 -33.812  1.00  0.00     0.210 C 
ENDBRANCH  12  19
ENDBRANCH   4   7
BRANCH   1  21
HETATM   21  C   UNL     1      -1.937   5.955 -31.340  1.00  0.00     0.163 C 
BRANCH  21  22
HETATM   22  C   UNL     1      -1.196   6.624 -30.211  1.00  0.00    -0.038 A 
HETATM   23  C   UNL     1      -0.053   6.034 -29.653  1.00  0.00     0.009 A 
HETATM   24  C   UNL     1       0.665   6.689 -28.655  1.00  0.00     0.003 A 
HETATM   25  C   UNL     1       0.256   7.948 -28.217  1.00  0.00     0.037 A 
HETATM   26  C   UNL     1      -0.866   8.564 -28.775  1.00  0.00     0.068 A 
HETATM   27  C   UNL     1      -1.592   7.898 -29.764  1.00  0.00     0.045 A 
BRANCH  26  28
HETATM   28  O   UNL     1      -1.144   9.806 -28.273  1.00  0.00    -0.356 OA
HETATM   29  C   UNL     1      -0.481  10.175 -27.070  1.00  0.00     0.210 C 
ENDBRANCH  26  28
ENDBRANCH  21  22
ENDBRANCH   1  21
TORSDOF 6
ENDMDL
MODEL 4
REMARK VINA RESULT:      -7.8      6.101      9.617
REMARK  6 active torsions:
REMARK  status: ('A' for Active; 'I' for Inactive)
REMARK    1  A    between atoms: O_2  and  C_3 
REMARK    2  A    between atoms: C_7  and  C_8 
REMARK    3  A    between atoms: C_8  and  N_9 
REMARK       I    between atoms: N_9  and  C_10 
REMARK       I    between atoms: C_10  and  N_12 
REMARK    4  A    between atoms: N_12  and  C_13 
REMARK    5  A    between atoms: C_16  and  C_21 
REMARK    6  A    between atoms: C_18  and  O_19 
ROOT
HETATM    1  N   UNL     1      -7.253   0.806 -34.595  1.00  0.00    -0.339 N 
HETATM    2  C   UNL     1      -8.387   0.962 -33.827  1.00  0.00     0.321 C 
HETATM    3  O   UNL     1      -8.365   0.832 -32.608  1.00  0.00    -0.247 OA
HETATM    4  N   UNL     1      -9.482   1.274 -34.592  1.00  0.00    -0.306 N 
HETATM    5  H   UNL     1      -7.376   0.572 -35.567  1.00  0.00     0.164 HD
HETATM    6  H   UNL     1      -9.365   1.306 -35.595  1.00  0.00     0.171 HD
ENDROOT
BRANCH   4   7
HETATM    7  C   UNL     1     -10.796   1.537 -34.148  1.00  0.00     0.069 A 
HETATM    8  C   UNL     1     -11.761   0.554 -33.939  1.00  0.00     0.033 A 
HETATM    9  C   UNL     1     -13.042   0.901 -33.488  1.00  0.00     0.015 A 
HETATM   10  C   UNL     1     -13.384   2.235 -33.228  1.00  0.00    -0.020 A 
HETATM   11  C   UNL     1     -12.414   3.225 -33.435  1.00  0.00     0.051 A 
HETATM   12  C   UNL     1     -11.143   2.877 -33.908  1.00  0.00     0.095 A 
BRANCH  10  13
HETATM   13  C   UNL     1     -14.723   2.564 -32.767  1.00  0.00     0.010 A 
HETATM   14  C   UNL     1     -15.922   1.808 -32.801  1.00  0.00     0.152 A 
HETATM   15  N   UNL     1     -16.961   2.456 -32.267  1.00  0.00    -0.187 NA
HETATM   16  N   UNL     1     -16.433   3.626 -31.879  1.00  0.00    -0.289 N 
HETATM   17  H   UNL     1     -17.041   4.300 -31.427  1.00  0.00     0.188 HD
HETATM   18  C   UNL     1     -15.101   3.742 -32.157  1.00  0.00     0.123 A 
ENDBRANCH  10  13
BRANCH  12  19
HETATM   19  O   UNL     1     -10.185   3.843 -34.120  1.00  0.00    -0.354 OA
HETATM   20  C   UNL     1     -10.543   4.675 -35.226  1.00  0.00     0.210 C 
ENDBRANCH  12  19
ENDBRANCH   4   7
BRANCH   1  21
HETATM   21  C   UNL     1      -6.036   0.347 -33.962  1.00  0.00     0.163 C 
BRANCH  21  22
HETATM   22  C   UNL     1      -5.834  -1.139 -34.105  1.00  0.00    -0.038 A 
HETATM   23  C   UNL     1      -6.715  -1.912 -34.874  1.00  0.00     0.009 A 
HETATM   24  C   UNL     1      -6.484  -3.274 -35.056  1.00  0.00     0.003 A 
HETATM   25  C   UNL     1      -5.360  -3.872 -34.486  1.00  0.00     0.037 A 
HETATM   26  C   UNL     1      -4.457  -3.115 -33.736  1.00  0.00     0.068 A 
HETATM   27  C   UNL     1      -4.700  -1.754 -33.542  1.00  0.00     0.045 A 
BRANCH  26  28
HETATM   28  O   UNL     1      -3.387  -3.817 -33.254  1.00  0.00    -0.356 OA
HETATM   29  C   UNL     1      -3.014  -3.571 -31.903  1.00  0.00     0.210 C 
ENDBRANCH  26  28
ENDBRANCH  21  22
ENDBRANCH   1  21
TORSDOF 6
ENDMDL
MODEL 5
REMARK VINA RESULT:      -7.7      2.106      2.741
REMARK  6 active torsions:
REMARK  status: ('A' for Active; 'I' for Inactive)
REMARK    1  A    between atoms: O_2  and  C_3 
REMARK    2  A    between atoms: C_7  and  C_8 
REMARK    3  A    between atoms: C_8  and  N_9 
REMARK       I    between atoms: N_9  and  C_10 
REMARK       I    between atoms: C_10  and  N_12 
REMARK    4  A    between atoms: N_12  and  C_13 
REMARK    5  A    between atoms: C_16  and  C_21 
REMARK    6  A    between atoms: C_18  and  O_19 
ROOT
HETATM    1  N   UNL     1      -5.244   4.255 -31.775  1.00  0.00    -0.339 N 
HETATM    2  C   UNL     1      -4.919   2.916 -31.786  1.00  0.00     0.321 C 
HETATM    3  O   UNL     1      -4.275   2.400 -30.880  1.00  0.00    -0.247 OA
HETATM    4  N   UNL     1      -5.406   2.282 -32.902  1.00  0.00    -0.306 N 
HETATM    5  H   UNL     1      -5.444   4.695 -32.659  1.00  0.00     0.164 HD
HETATM    6  H   UNL     1      -5.884   2.843 -33.594  1.00  0.00     0.171 HD
ENDROOT
BRANCH   4   7
HETATM    7  C   UNL     1      -5.297   0.914 -33.232  1.00  0.00     0.069 A 
HETATM    8  C   UNL     1      -4.160   0.144 -33.000  1.00  0.00     0.033 A 
HETATM    9  C   UNL     1      -4.137  -1.213 -33.351  1.00  0.00     0.015 A 
HETATM   10  C   UNL     1      -5.253  -1.831 -33.933  1.00  0.00    -0.020 A 
HETATM   11  C   UNL     1      -6.398  -1.058 -34.164  1.00  0.00     0.051 A 
HETATM   12  C   UNL     1      -6.409   0.303 -33.834  1.00  0.00     0.095 A 
BRANCH  10  13
HETATM   13  C   UNL     1      -5.197  -3.239 -34.292  1.00  0.00     0.010 A 
HETATM   14  C   UNL     1      -6.136  -4.056 -34.970  1.00  0.00     0.152 A 
HETATM   15  N   UNL     1      -5.716  -5.315 -35.122  1.00  0.00    -0.187 NA
HETATM   16  N   UNL     1      -4.503  -5.311 -34.551  1.00  0.00    -0.289 N 
HETATM   17  H   UNL     1      -3.970  -6.173 -34.549  1.00  0.00     0.188 HD
HETATM   18  C   UNL     1      -4.147  -4.096 -34.037  1.00  0.00     0.123 A 
ENDBRANCH  10  13
BRANCH  12  19
HETATM   19  O   UNL     1      -7.527   1.071 -34.063  1.00  0.00    -0.354 OA
HETATM   20  C   UNL     1      -8.645   0.568 -33.328  1.00  0.00     0.210 C 
ENDBRANCH  12  19
ENDBRANCH   4   7
BRANCH   1  21
HETATM   21  C   UNL     1      -4.698   5.100 -30.735  1.00  0.00     0.163 C 
BRANCH  21  22
HETATM   22  C   UNL     1      -3.646   6.047 -31.251  1.00  0.00    -0.038 A 
HETATM   23  C   UNL     1      -2.988   6.930 -30.384  1.00  0.00     0.009 A 
HETATM   24  C   UNL     1      -1.971   7.757 -30.856  1.00  0.00     0.003 A 
HETATM   25  C   UNL     1      -1.588   7.694 -32.195  1.00  0.00     0.037 A 
HETATM   26  C   UNL     1      -2.214   6.804 -33.071  1.00  0.00     0.068 A 
HETATM   27  C   UNL     1      -3.244   5.989 -32.598  1.00  0.00     0.045 A 
BRANCH  26  28
HETATM   28  O   UNL     1      -1.729   6.826 -34.350  1.00  0.00    -0.356 OA
HETATM   29  C   UNL     1      -1.140   5.624 -34.833  1.00  0.00     0.210 C 
ENDBRANCH  26  28
ENDBRANCH  21  22
ENDBRANCH   1  21
TORSDOF 6
ENDMDL
MODEL 6
REMARK VINA RESULT:      -7.7      1.969      2.731
REMARK  6 active torsions:
REMARK  status: ('A' for Active; 'I' for Inactive)
REMARK    1  A    between atoms: O_2  and  C_3 
REMARK    2  A    between atoms: C_7  and  C_8 
REMARK    3  A    between atoms: C_8  and  N_9 
REMARK       I    between atoms: N_9  and  C_10 
REMARK       I    between atoms: C_10  and  N_12 
REMARK    4  A    between atoms: N_12  and  C_13 
REMARK    5  A    between atoms: C_16  and  C_21 
REMARK    6  A    between atoms: C_18  and  O_19 
ROOT
HETATM    1  N   UNL     1      -5.553   4.394 -32.402  1.00  0.00    -0.339 N 
HETATM    2  C   UNL     1      -5.544   3.273 -33.204  1.00  0.00     0.321 C 
HETATM    3  O   UNL     1      -5.397   3.348 -34.418  1.00  0.00    -0.247 OA
HETATM    4  N   UNL     1      -5.711   2.123 -32.474  1.00  0.00    -0.306 N 
HETATM    5  H   UNL     1      -6.017   4.328 -31.510  1.00  0.00     0.164 HD
HETATM    6  H   UNL     1      -5.868   2.213 -31.480  1.00  0.00     0.171 HD
ENDROOT
BRANCH   4   7
HETATM    7  C   UNL     1      -5.721   0.794 -32.951  1.00  0.00     0.069 A 
HETATM    8  C   UNL     1      -6.845   0.163 -33.479  1.00  0.00     0.033 A 
HETATM    9  C   UNL     1      -6.766  -1.159 -33.939  1.00  0.00     0.015 A 
HETATM   10  C   UNL     1      -5.562  -1.875 -33.888  1.00  0.00    -0.020 A 
HETATM   11  C   UNL     1      -4.431  -1.240 -33.359  1.00  0.00     0.051 A 
HETATM   12  C   UNL     1      -4.519   0.072 -32.879  1.00  0.00     0.095 A 
BRANCH  10  13
HETATM   13  C   UNL     1      -5.514  -3.247 -34.368  1.00  0.00     0.010 A 
HETATM   14  C   UNL     1      -6.467  -4.005 -35.092  1.00  0.00     0.152 A 
HETATM   15  N   UNL     1      -6.051  -5.245 -35.361  1.00  0.00    -0.187 NA
HETATM   16  N   UNL     1      -4.825  -5.287 -34.818  1.00  0.00    -0.289 N 
HETATM   17  H   UNL     1      -4.292  -6.146 -34.901  1.00  0.00     0.188 HD
HETATM   18  C   UNL     1      -4.458  -4.120 -34.210  1.00  0.00     0.123 A 
ENDBRANCH  10  13
BRANCH  12  19
HETATM   19  O   UNL     1      -3.414   0.701 -32.353  1.00  0.00    -0.354 OA
HETATM   20  C   UNL     1      -2.988   0.054 -31.152  1.00  0.00     0.210 C 
ENDBRANCH  12  19
ENDBRANCH   4   7
BRANCH   1  21
HETATM   21  C   UNL     1      -5.520   5.700 -33.024  1.00  0.00     0.163 C 
BRANCH  21  22
HETATM   22  C   UNL     1      -4.165   6.352 -32.929  1.00  0.00    -0.038 A 
HETATM   23  C   UNL     1      -3.199   6.148 -33.925  1.00  0.00     0.009 A 
HETATM   24  C   UNL     1      -1.973   6.806 -33.865  1.00  0.00     0.003 A 
HETATM   25  C   UNL     1      -1.707   7.688 -32.817  1.00  0.00     0.037 A 
HETATM   26  C   UNL     1      -2.664   7.924 -31.828  1.00  0.00     0.068 A 
HETATM   27  C   UNL     1      -3.886   7.251 -31.883  1.00  0.00     0.045 A 
BRANCH  26  28
HETATM   28  O   UNL     1      -2.287   8.828 -30.873  1.00  0.00    -0.356 OA
HETATM   29  C   UNL     1      -1.550   8.322 -29.766  1.00  0.00     0.210 C 
ENDBRANCH  26  28
ENDBRANCH  21  22
ENDBRANCH   1  21
TORSDOF 6
ENDMDL
MODEL 7
REMARK VINA RESULT:      -7.6     16.962     18.172
REMARK  6 active torsions:
REMARK  status: ('A' for Active; 'I' for Inactive)
REMARK    1  A    between atoms: O_2  and  C_3 
REMARK    2  A    between atoms: C_7  and  C_8 
REMARK    3  A    between atoms: C_8  and  N_9 
REMARK       I    between atoms: N_9  and  C_10 
REMARK       I    between atoms: C_10  and  N_12 
REMARK    4  A    between atoms: N_12  and  C_13 
REMARK    5  A    between atoms: C_16  and  C_21 
REMARK    6  A    between atoms: C_18  and  O_19 
ROOT
HETATM    1  N   UNL     1      -1.669 -12.920 -38.844  1.00  0.00    -0.339 N 
HETATM    2  C   UNL     1      -2.906 -13.308 -39.310  1.00  0.00     0.321 C 
HETATM    3  O   UNL     1      -3.081 -14.393 -39.854  1.00  0.00    -0.247 OA
HETATM    4  N   UNL     1      -3.861 -12.349 -39.081  1.00  0.00    -0.306 N 
HETATM    5  H   UNL     1      -1.496 -11.932 -38.741  1.00  0.00     0.164 HD
HETATM    6  H   UNL     1      -3.566 -11.479 -38.661  1.00  0.00     0.171 HD
ENDROOT
BRANCH   4   7
HETATM    7  C   UNL     1      -5.237 -12.414 -39.389  1.00  0.00     0.069 A 
HETATM    8  C   UNL     1      -5.787 -11.984 -40.595  1.00  0.00     0.033 A 
HETATM    9  C   UNL     1      -7.166 -12.092 -40.825  1.00  0.00     0.015 A 
HETATM   10  C   UNL     1      -8.022 -12.637 -39.858  1.00  0.00    -0.020 A 
HETATM   11  C   UNL     1      -7.470 -13.072 -38.646  1.00  0.00     0.051 A 
HETATM   12  C   UNL     1      -6.096 -12.941 -38.411  1.00  0.00     0.095 A 
BRANCH  10  13
HETATM   13  C   UNL     1      -9.449 -12.729 -40.123  1.00  0.00     0.010 A 
HETATM   14  C   UNL     1     -10.316 -13.850 -40.129  1.00  0.00     0.152 A 
HETATM   15  N   UNL     1     -11.581 -13.529 -40.414  1.00  0.00    -0.187 NA
HETATM   16  N   UNL     1     -11.535 -12.199 -40.584  1.00  0.00    -0.289 N 
HETATM   17  H   UNL     1     -12.397 -11.713 -40.805  1.00  0.00     0.188 HD
HETATM   18  C   UNL     1     -10.284 -11.673 -40.424  1.00  0.00     0.123 A 
ENDBRANCH  10  13
BRANCH  12  19
HETATM   19  O   UNL     1      -5.546 -13.360 -37.221  1.00  0.00    -0.354 OA
HETATM   20  C   UNL     1      -6.559 -13.537 -36.230  1.00  0.00     0.210 C 
ENDBRANCH  12  19
ENDBRANCH   4   7
BRANCH   1  21
HETATM   21  C   UNL     1      -0.521 -13.757 -39.121  1.00  0.00     0.163 C 
BRANCH  21  22
HETATM   22  C   UNL     1      -0.113 -14.591 -37.935  1.00  0.00    -0.038 A 
HETATM   23  C   UNL     1      -0.963 -14.729 -36.829  1.00  0.00     0.009 A 
HETATM   24  C   UNL     1      -0.608 -15.555 -35.764  1.00  0.00     0.003 A 
HETATM   25  C   UNL     1       0.592 -16.264 -35.805  1.00  0.00     0.037 A 
HETATM   26  C   UNL     1       1.442 -16.160 -36.908  1.00  0.00     0.068 A 
HETATM   27  C   UNL     1       1.091 -15.319 -37.965  1.00  0.00     0.045 A 
BRANCH  26  28
HETATM   28  O   UNL     1       2.573 -16.925 -36.831  1.00  0.00    -0.356 OA
HETATM   29  C   UNL     1       2.686 -17.793 -35.710  1.00  0.00     0.210 C 
ENDBRANCH  26  28
ENDBRANCH  21  22
ENDBRANCH   1  21
TORSDOF 6
ENDMDL
MODEL 8
REMARK VINA RESULT:      -7.3      4.779      7.870
REMARK  6 active torsions:
REMARK  status: ('A' for Active; 'I' for Inactive)
REMARK    1  A    between atoms: O_2  and  C_3 
REMARK    2  A    between atoms: C_7  and  C_8 
REMARK    3  A    between atoms: C_8  and  N_9 
REMARK       I    between atoms: N_9  and  C_10 
REMARK       I    between atoms: C_10  and  N_12 
REMARK    4  A    between atoms: N_12  and  C_13 
REMARK    5  A    between atoms: C_16  and  C_21 
REMARK    6  A    between atoms: C_18  and  O_19 
ROOT
HETATM    1  N   UNL     1      -8.440   3.761 -33.216  1.00  0.00    -0.339 N 
HETATM    2  C   UNL     1      -8.229   2.409 -33.055  1.00  0.00     0.321 C 
HETATM    3  O   UNL     1      -8.870   1.747 -32.247  1.00  0.00    -0.247 OA
HETATM    4  N   UNL     1      -7.249   1.942 -33.895  1.00  0.00    -0.306 N 
HETATM    5  H   UNL     1      -7.688   4.310 -33.602  1.00  0.00     0.164 HD
HETATM    6  H   UNL     1      -6.769   2.612 -34.480  1.00  0.00     0.171 HD
ENDROOT
BRANCH   4   7
HETATM    7  C   UNL     1      -6.791   0.614 -34.030  1.00  0.00     0.069 A 
HETATM    8  C   UNL     1      -7.421  -0.353 -34.809  1.00  0.00     0.033 A 
HETATM    9  C   UNL     1      -6.896  -1.649 -34.895  1.00  0.00     0.015 A 
HETATM   10  C   UNL     1      -5.725  -2.005 -34.211  1.00  0.00    -0.020 A 
HETATM   11  C   UNL     1      -5.089  -1.033 -33.428  1.00  0.00     0.051 A 
HETATM   12  C   UNL     1      -5.630   0.254 -33.326  1.00  0.00     0.095 A 
BRANCH  10  13
HETATM   13  C   UNL     1      -5.208  -3.360 -34.314  1.00  0.00     0.010 A 
HETATM   14  C   UNL     1      -5.804  -4.538 -34.828  1.00  0.00     0.152 A 
HETATM   15  N   UNL     1      -5.000  -5.602 -34.759  1.00  0.00    -0.187 NA
HETATM   16  N   UNL     1      -3.880  -5.111 -34.208  1.00  0.00    -0.289 N 
HETATM   17  H   UNL     1      -3.101  -5.743 -34.058  1.00  0.00     0.188 HD
HETATM   18  C   UNL     1      -3.953  -3.778 -33.921  1.00  0.00     0.123 A 
ENDBRANCH  10  13
BRANCH  12  19
HETATM   19  O   UNL     1      -5.015   1.214 -32.554  1.00  0.00    -0.354 OA
HETATM   20  C   UNL     1      -5.228   0.959 -31.165  1.00  0.00     0.210 C 
ENDBRANCH  12  19
ENDBRANCH   4   7
BRANCH   1  21
HETATM   21  C   UNL     1      -9.348   4.441 -32.318  1.00  0.00     0.163 C 
BRANCH  21  22
HETATM   22  C   UNL     1     -10.786   4.328 -32.754  1.00  0.00    -0.038 A 
HETATM   23  C   UNL     1     -11.147   4.524 -34.094  1.00  0.00     0.009 A 
HETATM   24  C   UNL     1     -12.468   4.354 -34.502  1.00  0.00     0.003 A 
HETATM   25  C   UNL     1     -13.438   3.968 -33.576  1.00  0.00     0.037 A 
HETATM   26  C   UNL     1     -13.095   3.745 -32.241  1.00  0.00     0.068 A 
HETATM   27  C   UNL     1     -11.773   3.932 -31.833  1.00  0.00     0.045 A 
BRANCH  26  28
HETATM   28  O   UNL     1     -14.134   3.349 -31.444  1.00  0.00    -0.356 OA
HETATM   29  C   UNL     1     -14.966   2.308 -31.944  1.00  0.00     0.210 C 
ENDBRANCH  26  28
ENDBRANCH  21  22
ENDBRANCH   1  21
TORSDOF 6
ENDMDL
MODEL 9
REMARK VINA RESULT:      -7.3      5.355      9.340
REMARK  6 active torsions:
REMARK  status: ('A' for Active; 'I' for Inactive)
REMARK    1  A    between atoms: O_2  and  C_3 
REMARK    2  A    between atoms: C_7  and  C_8 
REMARK    3  A    between atoms: C_8  and  N_9 
REMARK       I    between atoms: N_9  and  C_10 
REMARK       I    between atoms: C_10  and  N_12 
REMARK    4  A    between atoms: N_12  and  C_13 
REMARK    5  A    between atoms: C_16  and  C_21 
REMARK    6  A    between atoms: C_18  and  O_19 
ROOT
HETATM    1  N   UNL     1      -5.898  -0.387 -32.474  1.00  0.00    -0.339 N 
HETATM    2  C   UNL     1      -6.794   0.481 -33.060  1.00  0.00     0.321 C 
HETATM    3  O   UNL     1      -6.581   0.986 -34.156  1.00  0.00    -0.247 OA
HETATM    4  N   UNL     1      -7.902   0.677 -32.274  1.00  0.00    -0.306 N 
HETATM    5  H   UNL     1      -5.932  -0.489 -31.472  1.00  0.00     0.164 HD
HETATM    6  H   UNL     1      -7.924   0.229 -31.368  1.00  0.00     0.171 HD
ENDROOT
BRANCH   4   7
HETATM    7  C   UNL     1      -9.034   1.469 -32.564  1.00  0.00     0.069 A 
HETATM    8  C   UNL     1     -10.147   1.011 -33.265  1.00  0.00     0.033 A 
HETATM    9  C   UNL     1     -11.235   1.863 -33.504  1.00  0.00     0.015 A 
HETATM   10  C   UNL     1     -11.237   3.186 -33.040  1.00  0.00    -0.020 A 
HETATM   11  C   UNL     1     -10.119   3.646 -32.333  1.00  0.00     0.051 A 
HETATM   12  C   UNL     1      -9.024   2.800 -32.117  1.00  0.00     0.095 A 
BRANCH  10  13
HETATM   13  C   UNL     1     -12.378   4.047 -33.310  1.00  0.00     0.010 A 
HETATM   14  C   UNL     1     -13.263   4.709 -32.423  1.00  0.00     0.152 A 
HETATM   15  N   UNL     1     -14.195   5.426 -33.057  1.00  0.00    -0.187 NA
HETATM   16  N   UNL     1     -13.908   5.234 -34.353  1.00  0.00    -0.289 N 
HETATM   17  H   UNL     1     -14.487   5.695 -35.046  1.00  0.00     0.188 HD
HETATM   18  C   UNL     1     -12.834   4.416 -34.558  1.00  0.00     0.123 A 
ENDBRANCH  10  13
BRANCH  12  19
HETATM   19  O   UNL     1      -7.919   3.246 -31.428  1.00  0.00    -0.354 OA
HETATM   20  C   UNL     1      -8.256   3.549 -30.073  1.00  0.00     0.210 C 
ENDBRANCH  12  19
ENDBRANCH   4   7
BRANCH   1  21
HETATM   21  C   UNL     1      -4.615  -0.603 -33.108  1.00  0.00     0.163 C 
BRANCH  21  22
HETATM   22  C   UNL     1      -4.267  -2.064 -33.226  1.00  0.00    -0.038 A 
HETATM   23  C   UNL     1      -3.334  -2.651 -32.360  1.00  0.00     0.009 A 
HETATM   24  C   UNL     1      -3.065  -4.016 -32.431  1.00  0.00     0.003 A 
HETATM   25  C   UNL     1      -3.741  -4.810 -33.357  1.00  0.00     0.037 A 
HETATM   26  C   UNL     1      -4.691  -4.250 -34.213  1.00  0.00     0.068 A 
HETATM   27  C   UNL     1      -4.946  -2.879 -34.150  1.00  0.00     0.045 A 
BRANCH  26  28
HETATM   28  O   UNL     1      -5.297  -5.142 -35.055  1.00  0.00    -0.356 OA
HETATM   29  C   UNL     1      -6.529  -4.736 -35.641  1.00  0.00     0.210 C 
ENDBRANCH  26  28
ENDBRANCH  21  22
ENDBRANCH   1  21
TORSDOF 6
ENDMDL
MODEL 10
REMARK VINA RESULT:      -7.3      4.040      5.512
REMARK  6 active torsions:
REMARK  status: ('A' for Active; 'I' for Inactive)
REMARK    1  A    between atoms: O_2  and  C_3 
REMARK    2  A    between atoms: C_7  and  C_8 
REMARK    3  A    between atoms: C_8  and  N_9 
REMARK       I    between atoms: N_9  and  C_10 
REMARK       I    between atoms: C_10  and  N_12 
REMARK    4  A    between atoms: N_12  and  C_13 
REMARK    5  A    between atoms: C_16  and  C_21 
REMARK    6  A    between atoms: C_18  and  O_19 
ROOT
HETATM    1  N   UNL     1      -5.044   3.518 -33.197  1.00  0.00    -0.339 N 
HETATM    2  C   UNL     1      -6.145   2.704 -33.038  1.00  0.00     0.321 C 
HETATM    3  O   UNL     1      -6.129   1.735 -32.287  1.00  0.00    -0.247 OA
HETATM    4  N   UNL     1      -7.205   3.124 -33.801  1.00  0.00    -0.306 N 
HETATM    5  H   UNL     1      -4.979   4.055 -34.048  1.00  0.00     0.164 HD
HETATM    6  H   UNL     1      -7.063   3.917 -34.412  1.00  0.00     0.171 HD
ENDROOT
BRANCH   4   7
HETATM    7  C   UNL     1      -8.497   2.559 -33.867  1.00  0.00     0.069 A 
HETATM    8  C   UNL     1      -8.766   1.205 -33.678  1.00  0.00     0.033 A 
HETATM    9  C   UNL     1     -10.082   0.726 -33.752  1.00  0.00     0.015 A 
HETATM   10  C   UNL     1     -11.156   1.590 -34.008  1.00  0.00    -0.020 A 
HETATM   11  C   UNL     1     -10.886   2.952 -34.196  1.00  0.00     0.051 A 
HETATM   12  C   UNL     1      -9.569   3.423 -34.144  1.00  0.00     0.095 A 
BRANCH  10  13
HETATM   13  C   UNL     1     -12.508   1.061 -34.085  1.00  0.00     0.010 A 
HETATM   14  C   UNL     1     -13.685   1.618 -34.645  1.00  0.00     0.152 A 
HETATM   15  N   UNL     1     -14.747   0.816 -34.528  1.00  0.00    -0.187 NA
HETATM   16  N   UNL     1     -14.255  -0.263 -33.901  1.00  0.00    -0.289 N 
HETATM   17  H   UNL     1     -14.886  -1.033 -33.704  1.00  0.00     0.188 HD
HETATM   18  C   UNL     1     -12.924  -0.166 -33.612  1.00  0.00     0.123 A 
ENDBRANCH  10  13
BRANCH  12  19
HETATM   19  O   UNL     1      -9.294   4.758 -34.333  1.00  0.00    -0.354 OA
HETATM   20  C   UNL     1     -10.190   5.329 -35.289  1.00  0.00     0.210 C 
ENDBRANCH  12  19
ENDBRANCH   4   7
BRANCH   1  21
HETATM   21  C   UNL     1      -3.798   3.143 -32.565  1.00  0.00     0.163 C 
BRANCH  21  22
HETATM   22  C   UNL     1      -2.725   4.187 -32.737  1.00  0.00    -0.038 A 
HETATM   23  C   UNL     1      -2.537   4.826 -33.970  1.00  0.00     0.009 A 
HETATM   24  C   UNL     1      -1.587   5.836 -34.104  1.00  0.00     0.003 A 
HETATM   25  C   UNL     1      -0.829   6.229 -33.001  1.00  0.00     0.037 A 
HETATM   26  C   UNL     1      -1.017   5.622 -31.758  1.00  0.00     0.068 A 
HETATM   27  C   UNL     1      -1.959   4.599 -31.631  1.00  0.00     0.045 A 
BRANCH  26  28
HETATM   28  O   UNL     1      -0.229   6.117 -30.756  1.00  0.00    -0.356 OA
HETATM   29  C   UNL     1       0.393   5.166 -29.900  1.00  0.00     0.210 C 
ENDBRANCH  26  28
ENDBRANCH  21  22
ENDBRANCH   1  21
TORSDOF 6
ENDMDL
