MODEL 1
REMARK VINA RESULT:      -7.0      0.000      0.000
REMARK  13 active torsions:
REMARK  status: ('A' for Active; 'I' for Inactive)
REMARK    1  A    between atoms: C_2  and  N_3 
REMARK    2  A    between atoms: N_3  and  C_5 
REMARK    3  A    between atoms: N_3  and  C_34 
REMARK    4  A    between atoms: C_5  and  C_6 
REMARK    5  A    between atoms: C_6  and  O_7 
REMARK    6  A    between atoms: O_7  and  C_8 
REMARK    7  A    between atoms: N_15  and  N_16 
REMARK    8  A    between atoms: C_20  and  O_21 
REMARK    9  A    between atoms: O_21  and  C_22 
REMARK   10  A    between atoms: C_22  and  C_23 
REMARK   11  A    between atoms: C_23  and  N_24 
REMARK   12  A    between atoms: N_24  and  C_26 
REMARK   13  A    between atoms: N_24  and  C_28 
ROOT
HETATM    1  C   UNL     1      -4.124   6.840 -30.825  1.00  0.00     0.091 A 
HETATM    2  C   UNL     1      -4.859   6.162 -29.824  1.00  0.00     0.068 A 
HETATM    3 CL   UNL     1      -4.815   6.713 -28.185  1.00  0.00    -0.081 Cl
HETATM    4  C   UNL     1      -5.653   5.045 -30.126  1.00  0.00     0.040 A 
HETATM    5  C   UNL     1      -5.691   4.602 -31.438  1.00  0.00    -0.011 A 
HETATM    6  C   UNL     1      -4.928   5.256 -32.427  1.00  0.00     0.009 A 
HETATM    7  C   UNL     1      -5.163   4.537 -33.708  1.00  0.00     0.093 A 
HETATM    8  N   UNL     1      -4.705   4.701 -34.909  1.00  0.00    -0.203 NA
HETATM    9  C   UNL     1      -6.120   3.449 -33.404  1.00  0.00     0.009 A 
HETATM   10  C   UNL     1      -6.425   3.507 -32.038  1.00  0.00    -0.011 A 
HETATM   11  C   UNL     1      -6.658   2.512 -34.274  1.00  0.00     0.053 A 
HETATM   12  C   UNL     1      -7.547   1.576 -33.744  1.00  0.00     0.091 A 
HETATM   13  C   UNL     1      -7.883   1.636 -32.367  1.00  0.00     0.068 A 
HETATM   14 CL   UNL     1      -9.006   0.502 -31.693  1.00  0.00    -0.081 Cl
HETATM   15  C   UNL     1      -7.320   2.595 -31.507  1.00  0.00     0.040 A 
HETATM   16  C   UNL     1      -4.146   6.367 -32.142  1.00  0.00     0.053 A 
ENDROOT
BRANCH   1  17
HETATM   17  O   UNL     1      -3.386   7.929 -30.430  1.00  0.00    -0.348 OA
BRANCH  17  18
HETATM   18  C   UNL     1      -1.963   7.796 -30.529  1.00  0.00     0.203 C 
BRANCH  18  19
HETATM   19  C   UNL     1      -1.403   7.665 -29.108  1.00  0.00     0.261 C 
BRANCH  19  20
HETATM   20  N   UNL     1      -0.043   6.968 -29.093  1.00  0.00    -0.070 N 
HETATM   21  H   UNL     1       0.628   7.713 -29.341  1.00  0.00     0.279 HD
BRANCH  20  22
HETATM   22  C   UNL     1       0.084   5.896 -30.160  1.00  0.00     0.230 C 
HETATM   23  C   UNL     1       0.929   4.734 -29.667  1.00  0.00     0.034 C 
ENDBRANCH  20  22
BRANCH  20  24
HETATM   24  C   UNL     1       0.419   6.480 -27.733  1.00  0.00     0.230 C 
HETATM   25  C   UNL     1       1.336   7.470 -27.039  1.00  0.00     0.034 C 
ENDBRANCH  20  24
ENDBRANCH  19  20
ENDBRANCH  18  19
ENDBRANCH  17  18
ENDBRANCH   1  17
BRANCH   8  26
HETATM   26  N   UNL     1      -3.816   5.696 -35.100  1.00  0.00    -0.226 NA
HETATM   27  H   UNL     1      -3.441   5.974 -34.186  1.00  0.00     0.145 HD
HETATM   28  H   UNL     1      -4.329   6.541 -35.379  1.00  0.00     0.145 HD
ENDBRANCH   8  26
BRANCH  12  29
HETATM   29  O   UNL     1      -8.159   0.599 -34.494  1.00  0.00    -0.348 OA
BRANCH  29  30
HETATM   30  C   UNL     1      -7.294  -0.279 -35.221  1.00  0.00     0.203 C 
BRANCH  30  31
HETATM   31  C   UNL     1      -6.870  -1.410 -34.276  1.00  0.00     0.261 C 
BRANCH  31  32
HETATM   32  N   UNL     1      -5.413  -1.828 -34.489  1.00  0.00    -0.070 N 
HETATM   33  H   UNL     1      -5.121  -1.285 -35.319  1.00  0.00     0.279 HD
BRANCH  32  34
HETATM   34  C   UNL     1      -4.459  -1.410 -33.389  1.00  0.00     0.230 C 
HETATM   35  C   UNL     1      -5.172  -0.903 -32.149  1.00  0.00     0.034 C 
ENDBRANCH  32  34
BRANCH  32  36
HETATM   36  C   UNL     1      -5.336  -3.289 -34.896  1.00  0.00     0.230 C 
HETATM   37  C   UNL     1      -6.702  -3.946 -34.915  1.00  0.00     0.034 C 
ENDBRANCH  32  36
ENDBRANCH  31  32
ENDBRANCH  30  31
ENDBRANCH  29  30
ENDBRANCH  12  29
TORSDOF 13
ENDMDL
MODEL 2
REMARK VINA RESULT:      -6.9      3.848      5.619
REMARK  13 active torsions:
REMARK  status: ('A' for Active; 'I' for Inactive)
REMARK    1  A    between atoms: C_2  and  N_3 
REMARK    2  A    between atoms: N_3  and  C_5 
REMARK    3  A    between atoms: N_3  and  C_34 
REMARK    4  A    between atoms: C_5  and  C_6 
REMARK    5  A    between atoms: C_6  and  O_7 
REMARK    6  A    between atoms: O_7  and  C_8 
REMARK    7  A    between atoms: N_15  and  N_16 
REMARK    8  A    between atoms: C_20  and  O_21 
REMARK    9  A    between atoms: O_21  and  C_22 
REMARK   10  A    between atoms: C_22  and  C_23 
REMARK   11  A    between atoms: C_23  and  N_24 
REMARK   12  A    between atoms: N_24  and  C_26 
REMARK   13  A    between atoms: N_24  and  C_28 
ROOT
HETATM    1  C   UNL     1      -3.764   2.655 -32.118  1.00  0.00     0.091 A 
HETATM    2  C   UNL     1      -4.078   1.320 -31.773  1.00  0.00     0.068 A 
HETATM    3 CL   UNL     1      -2.877   0.295 -31.065  1.00  0.00    -0.081 Cl
HETATM    4  C   UNL     1      -5.363   0.793 -31.972  1.00  0.00     0.040 A 
HETATM    5  C   UNL     1      -6.327   1.611 -32.538  1.00  0.00    -0.011 A 
HETATM    6  C   UNL     1      -6.001   2.930 -32.916  1.00  0.00     0.009 A 
HETATM    7  C   UNL     1      -7.228   3.532 -33.505  1.00  0.00     0.093 A 
HETATM    8  N   UNL     1      -7.479   4.693 -34.022  1.00  0.00    -0.203 NA
HETATM    9  C   UNL     1      -8.280   2.494 -33.423  1.00  0.00     0.009 A 
HETATM   10  C   UNL     1      -7.720   1.352 -32.839  1.00  0.00    -0.011 A 
HETATM   11  C   UNL     1      -9.603   2.581 -33.831  1.00  0.00     0.053 A 
HETATM   12  C   UNL     1     -10.409   1.456 -33.648  1.00  0.00     0.091 A 
HETATM   13  C   UNL     1      -9.862   0.299 -33.037  1.00  0.00     0.068 A 
HETATM   14 CL   UNL     1     -10.851  -1.099 -32.775  1.00  0.00    -0.081 Cl
HETATM   15  C   UNL     1      -8.516   0.238 -32.636  1.00  0.00     0.040 A 
HETATM   16  C   UNL     1      -4.736   3.465 -32.715  1.00  0.00     0.053 A 
ENDROOT
BRANCH   1  17
HETATM   17  O   UNL     1      -2.479   3.079 -31.872  1.00  0.00    -0.348 OA
BRANCH  17  18
HETATM   18  C   UNL     1      -2.343   4.402 -31.342  1.00  0.00     0.203 C 
BRANCH  18  19
HETATM   19  C   UNL     1      -1.476   5.211 -32.315  1.00  0.00     0.261 C 
BRANCH  19  20
HETATM   20  N   UNL     1      -2.256   6.360 -32.953  1.00  0.00    -0.070 N 
HETATM   21  H   UNL     1      -3.128   6.414 -32.402  1.00  0.00     0.279 HD
BRANCH  20  22
HETATM   22  C   UNL     1      -2.666   6.072 -34.387  1.00  0.00     0.230 C 
HETATM   23  C   UNL     1      -1.817   4.964 -34.984  1.00  0.00     0.034 C 
ENDBRANCH  20  22
BRANCH  20  24
HETATM   24  C   UNL     1      -1.627   7.733 -32.802  1.00  0.00     0.230 C 
HETATM   25  C   UNL     1      -2.088   8.449 -31.547  1.00  0.00     0.034 C 
ENDBRANCH  20  24
ENDBRANCH  19  20
ENDBRANCH  18  19
ENDBRANCH  17  18
ENDBRANCH   1  17
BRANCH   8  26
HETATM   26  N   UNL     1      -6.462   5.574 -34.086  1.00  0.00    -0.226 NA
HETATM   27  H   UNL     1      -5.609   5.107 -33.757  1.00  0.00     0.145 HD
HETATM   28  H   UNL     1      -6.602   6.286 -33.360  1.00  0.00     0.145 HD
ENDBRANCH   8  26
BRANCH  12  29
HETATM   29  O   UNL     1     -11.738   1.408 -34.000  1.00  0.00    -0.348 OA
BRANCH  29  30
HETATM   30  C   UNL     1     -12.266   2.567 -34.653  1.00  0.00     0.203 C 
BRANCH  30  31
HETATM   31  C   UNL     1     -13.492   3.035 -33.860  1.00  0.00     0.261 C 
BRANCH  31  32
HETATM   32  N   UNL     1     -13.209   3.129 -32.359  1.00  0.00    -0.070 N 
HETATM   33  H   UNL     1     -12.550   2.351 -32.184  1.00  0.00     0.279 HD
BRANCH  32  34
HETATM   34  C   UNL     1     -12.469   4.378 -31.923  1.00  0.00     0.230 C 
HETATM   35  C   UNL     1     -11.375   4.094 -30.911  1.00  0.00     0.034 C 
ENDBRANCH  32  34
BRANCH  32  36
HETATM   36  C   UNL     1     -14.461   2.804 -31.563  1.00  0.00     0.230 C 
HETATM   37  C   UNL     1     -15.553   2.218 -32.437  1.00  0.00     0.034 C 
ENDBRANCH  32  36
ENDBRANCH  31  32
ENDBRANCH  30  31
ENDBRANCH  29  30
ENDBRANCH  12  29
TORSDOF 13
ENDMDL
MODEL 3
REMARK VINA RESULT:      -6.8      3.046      9.405
REMARK  13 active torsions:
REMARK  status: ('A' for Active; 'I' for Inactive)
REMARK    1  A    between atoms: C_2  and  N_3 
REMARK    2  A    between atoms: N_3  and  C_5 
REMARK    3  A    between atoms: N_3  and  C_34 
REMARK    4  A    between atoms: C_5  and  C_6 
REMARK    5  A    between atoms: C_6  and  O_7 
REMARK    6  A    between atoms: O_7  and  C_8 
REMARK    7  A    between atoms: N_15  and  N_16 
REMARK    8  A    between atoms: C_20  and  O_21 
REMARK    9  A    between atoms: O_21  and  C_22 
REMARK   10  A    between atoms: C_22  and  C_23 
REMARK   11  A    between atoms: C_23  and  N_24 
REMARK   12  A    between atoms: N_24  and  C_26 
REMARK   13  A    between atoms: N_24  and  C_28 
ROOT
HETATM    1  C   UNL     1      -7.034   0.946 -31.938  1.00  0.00     0.091 A 
HETATM    2  C   UNL     1      -6.143   0.845 -33.032  1.00  0.00     0.068 A 
HETATM    3 CL   UNL     1      -6.284  -0.462 -34.156  1.00  0.00    -0.081 Cl
HETATM    4  C   UNL     1      -5.139   1.800 -33.252  1.00  0.00     0.040 A 
HETATM    5  C   UNL     1      -5.024   2.849 -32.355  1.00  0.00    -0.011 A 
HETATM    6  C   UNL     1      -5.889   2.927 -31.243  1.00  0.00     0.009 A 
HETATM    7  C   UNL     1      -5.500   4.137 -30.470  1.00  0.00     0.093 A 
HETATM    8  N   UNL     1      -5.944   4.661 -29.371  1.00  0.00    -0.203 NA
HETATM    9  C   UNL     1      -4.381   4.761 -31.210  1.00  0.00     0.009 A 
HETATM   10  C   UNL     1      -4.112   3.975 -32.337  1.00  0.00    -0.011 A 
HETATM   11  C   UNL     1      -3.685   5.919 -30.896  1.00  0.00     0.053 A 
HETATM   12  C   UNL     1      -2.658   6.308 -31.757  1.00  0.00     0.091 A 
HETATM   13  C   UNL     1      -2.389   5.534 -32.916  1.00  0.00     0.068 A 
HETATM   14 CL   UNL     1      -1.138   6.013 -34.013  1.00  0.00    -0.081 Cl
HETATM   15  C   UNL     1      -3.108   4.362 -33.208  1.00  0.00     0.040 A 
HETATM   16  C   UNL     1      -6.891   1.993 -31.021  1.00  0.00     0.053 A 
ENDROOT
BRANCH   1  17
HETATM   17  O   UNL     1      -7.990  -0.035 -31.818  1.00  0.00    -0.348 OA
BRANCH  17  18
HETATM   18  C   UNL     1      -9.346   0.416 -31.722  1.00  0.00     0.203 C 
BRANCH  18  19
HETATM   19  C   UNL     1      -9.888   0.579 -33.148  1.00  0.00     0.261 C 
BRANCH  19  20
HETATM   20  N   UNL     1     -11.012   1.611 -33.215  1.00  0.00    -0.070 N 
HETATM   21  H   UNL     1     -11.156   1.897 -32.233  1.00  0.00     0.279 HD
BRANCH  20  22
HETATM   22  C   UNL     1     -12.328   1.023 -33.693  1.00  0.00     0.230 C 
HETATM   23  C   UNL     1     -12.642   1.472 -35.109  1.00  0.00     0.034 C 
ENDBRANCH  20  22
BRANCH  20  24
HETATM   24  C   UNL     1     -10.666   2.900 -33.938  1.00  0.00     0.230 C 
HETATM   25  C   UNL     1      -9.175   3.182 -33.943  1.00  0.00     0.034 C 
ENDBRANCH  20  24
ENDBRANCH  19  20
ENDBRANCH  18  19
ENDBRANCH  17  18
ENDBRANCH   1  17
BRANCH   8  26
HETATM   26  N   UNL     1      -6.946   4.019 -28.741  1.00  0.00    -0.226 NA
HETATM   27  H   UNL     1      -6.590   3.665 -27.846  1.00  0.00     0.145 HD
HETATM   28  H   UNL     1      -7.141   3.147 -29.245  1.00  0.00     0.145 HD
ENDBRANCH   8  26
BRANCH  12  29
HETATM   29  O   UNL     1      -1.895   7.437 -31.570  1.00  0.00    -0.348 OA
BRANCH  29  30
HETATM   30  C   UNL     1      -1.675   7.838 -30.214  1.00  0.00     0.203 C 
BRANCH  30  31
HETATM   31  C   UNL     1      -0.259   7.399 -29.818  1.00  0.00     0.261 C 
BRANCH  31  32
HETATM   32  N   UNL     1      -0.261   6.102 -29.006  1.00  0.00    -0.070 N 
HETATM   33  H   UNL     1      -1.265   5.878 -28.904  1.00  0.00     0.279 HD
BRANCH  32  34
HETATM   34  C   UNL     1       0.342   4.904 -29.710  1.00  0.00     0.230 C 
HETATM   35  C   UNL     1       0.905   5.244 -31.077  1.00  0.00     0.034 C 
ENDBRANCH  32  34
BRANCH  32  36
HETATM   36  C   UNL     1       0.254   6.358 -27.600  1.00  0.00     0.230 C 
HETATM   37  C   UNL     1       1.027   7.660 -27.507  1.00  0.00     0.034 C 
ENDBRANCH  32  36
ENDBRANCH  31  32
ENDBRANCH  30  31
ENDBRANCH  29  30
ENDBRANCH  12  29
TORSDOF 13
ENDMDL
MODEL 4
REMARK VINA RESULT:      -6.8      2.451      9.192
REMARK  13 active torsions:
REMARK  status: ('A' for Active; 'I' for Inactive)
REMARK    1  A    between atoms: C_2  and  N_3 
REMARK    2  A    between atoms: N_3  and  C_5 
REMARK    3  A    between atoms: N_3  and  C_34 
REMARK    4  A    between atoms: C_5  and  C_6 
REMARK    5  A    between atoms: C_6  and  O_7 
REMARK    6  A    between atoms: O_7  and  C_8 
REMARK    7  A    between atoms: N_15  and  N_16 
REMARK    8  A    between atoms: C_20  and  O_21 
REMARK    9  A    between atoms: O_21  and  C_22 
REMARK   10  A    between atoms: C_22  and  C_23 
REMARK   11  A    between atoms: C_23  and  N_24 
REMARK   12  A    between atoms: N_24  and  C_26 
REMARK   13  A    between atoms: N_24  and  C_28 
ROOT
HETATM    1  C   UNL     1      -5.556   0.698 -32.730  1.00  0.00     0.091 A 
HETATM    2  C   UNL     1      -4.288   0.562 -32.118  1.00  0.00     0.068 A 
HETATM    3 CL   UNL     1      -3.748  -0.983 -31.559  1.00  0.00    -0.081 Cl
HETATM    4  C   UNL     1      -3.427   1.659 -31.963  1.00  0.00     0.040 A 
HETATM    5  C   UNL     1      -3.856   2.898 -32.411  1.00  0.00    -0.011 A 
HETATM    6  C   UNL     1      -5.136   3.038 -32.986  1.00  0.00     0.009 A 
HETATM    7  C   UNL     1      -5.304   4.474 -33.338  1.00  0.00     0.093 A 
HETATM    8  N   UNL     1      -6.278   5.144 -33.866  1.00  0.00    -0.203 NA
HETATM    9  C   UNL     1      -4.041   5.145 -32.955  1.00  0.00     0.009 A 
HETATM   10  C   UNL     1      -3.187   4.183 -32.403  1.00  0.00    -0.011 A 
HETATM   11  C   UNL     1      -3.705   6.484 -33.096  1.00  0.00     0.053 A 
HETATM   12  C   UNL     1      -2.443   6.881 -32.653  1.00  0.00     0.091 A 
HETATM   13  C   UNL     1      -1.557   5.914 -32.113  1.00  0.00     0.068 A 
HETATM   14 CL   UNL     1       0.025   6.379 -31.583  1.00  0.00    -0.081 Cl
HETATM   15  C   UNL     1      -1.926   4.564 -31.978  1.00  0.00     0.040 A 
HETATM   16  C   UNL     1      -5.992   1.958 -33.153  1.00  0.00     0.053 A 
ENDROOT
BRANCH   1  17
HETATM   17  O   UNL     1      -6.320  -0.440 -32.845  1.00  0.00    -0.348 OA
BRANCH  17  18
HETATM   18  C   UNL     1      -7.076  -0.571 -34.054  1.00  0.00     0.203 C 
BRANCH  18  19
HETATM   19  C   UNL     1      -6.306  -1.511 -34.990  1.00  0.00     0.261 C 
BRANCH  19  20
HETATM   20  N   UNL     1      -5.783  -2.744 -34.256  1.00  0.00    -0.070 N 
HETATM   21  H   UNL     1      -5.864  -2.500 -33.255  1.00  0.00     0.279 HD
BRANCH  20  22
HETATM   22  C   UNL     1      -4.311  -3.011 -34.520  1.00  0.00     0.230 C 
HETATM   23  C   UNL     1      -3.784  -4.101 -33.604  1.00  0.00     0.034 C 
ENDBRANCH  20  22
BRANCH  20  24
HETATM   24  C   UNL     1      -6.628  -3.996 -34.408  1.00  0.00     0.230 C 
HETATM   25  C   UNL     1      -6.603  -4.545 -35.822  1.00  0.00     0.034 C 
ENDBRANCH  20  24
ENDBRANCH  19  20
ENDBRANCH  18  19
ENDBRANCH  17  18
ENDBRANCH   1  17
BRANCH   8  26
HETATM   26  N   UNL     1      -7.405   4.467 -34.162  1.00  0.00    -0.226 NA
HETATM   27  H   UNL     1      -7.380   4.220 -35.158  1.00  0.00     0.145 HD
HETATM   28  H   UNL     1      -8.195   5.122 -34.131  1.00  0.00     0.145 HD
ENDBRANCH   8  26
BRANCH  12  29
HETATM   29  O   UNL     1      -1.979   8.173 -32.741  1.00  0.00    -0.348 OA
BRANCH  29  30
HETATM   30  C   UNL     1      -1.914   8.910 -31.516  1.00  0.00     0.203 C 
BRANCH  30  31
HETATM   31  C   UNL     1      -3.351   9.237 -31.088  1.00  0.00     0.261 C 
BRANCH  31  32
HETATM   32  N   UNL     1      -3.741   8.535 -29.785  1.00  0.00    -0.070 N 
HETATM   33  H   UNL     1      -4.040   9.309 -29.169  1.00  0.00     0.279 HD
BRANCH  32  34
HETATM   34  C   UNL     1      -4.946   7.622 -29.885  1.00  0.00     0.230 C 
HETATM   35  C   UNL     1      -4.668   6.218 -29.381  1.00  0.00     0.034 C 
ENDBRANCH  32  34
BRANCH  32  36
HETATM   36  C   UNL     1      -2.517   7.924 -29.126  1.00  0.00     0.230 C 
HETATM   37  C   UNL     1      -2.206   8.576 -27.792  1.00  0.00     0.034 C 
ENDBRANCH  32  36
ENDBRANCH  31  32
ENDBRANCH  30  31
ENDBRANCH  29  30
ENDBRANCH  12  29
TORSDOF 13
ENDMDL
MODEL 5
REMARK VINA RESULT:      -6.7      1.807      8.994
REMARK  13 active torsions:
REMARK  status: ('A' for Active; 'I' for Inactive)
REMARK    1  A    between atoms: C_2  and  N_3 
REMARK    2  A    between atoms: N_3  and  C_5 
REMARK    3  A    between atoms: N_3  and  C_34 
REMARK    4  A    between atoms: C_5  and  C_6 
REMARK    5  A    between atoms: C_6  and  O_7 
REMARK    6  A    between atoms: O_7  and  C_8 
REMARK    7  A    between atoms: N_15  and  N_16 
REMARK    8  A    between atoms: C_20  and  O_21 
REMARK    9  A    between atoms: O_21  and  C_22 
REMARK   10  A    between atoms: C_22  and  C_23 
REMARK   11  A    between atoms: C_23  and  N_24 
REMARK   12  A    between atoms: N_24  and  C_26 
REMARK   13  A    between atoms: N_24  and  C_28 
ROOT
HETATM    1  C   UNL     1      -7.054   1.668 -33.343  1.00  0.00     0.091 A 
HETATM    2  C   UNL     1      -7.788   2.860 -33.548  1.00  0.00     0.068 A 
HETATM    3 CL   UNL     1      -9.337   2.811 -34.316  1.00  0.00    -0.081 Cl
HETATM    4  C   UNL     1      -7.300   4.105 -33.122  1.00  0.00     0.040 A 
HETATM    5  C   UNL     1      -6.060   4.148 -32.506  1.00  0.00    -0.011 A 
HETATM    6  C   UNL     1      -5.313   2.963 -32.338  1.00  0.00     0.009 A 
HETATM    7  C   UNL     1      -4.036   3.341 -31.674  1.00  0.00     0.093 A 
HETATM    8  N   UNL     1      -2.997   2.660 -31.309  1.00  0.00    -0.203 NA
HETATM    9  C   UNL     1      -4.102   4.803 -31.450  1.00  0.00     0.009 A 
HETATM   10  C   UNL     1      -5.323   5.267 -31.954  1.00  0.00    -0.011 A 
HETATM   11  C   UNL     1      -3.156   5.622 -30.850  1.00  0.00     0.053 A 
HETATM   12  C   UNL     1      -3.450   6.983 -30.755  1.00  0.00     0.091 A 
HETATM   13  C   UNL     1      -4.693   7.464 -31.241  1.00  0.00     0.068 A 
HETATM   14 CL   UNL     1      -5.090   9.145 -31.109  1.00  0.00    -0.081 Cl
HETATM   15  C   UNL     1      -5.631   6.612 -31.848  1.00  0.00     0.040 A 
HETATM   16  C   UNL     1      -5.790   1.726 -32.746  1.00  0.00     0.053 A 
ENDROOT
BRANCH   1  17
HETATM   17  O   UNL     1      -7.624   0.499 -33.787  1.00  0.00    -0.348 OA
BRANCH  17  18
HETATM   18  C   UNL     1      -7.073  -0.712 -33.255  1.00  0.00     0.203 C 
BRANCH  18  19
HETATM   19  C   UNL     1      -6.897  -1.697 -34.417  1.00  0.00     0.261 C 
BRANCH  19  20
HETATM   20  N   UNL     1      -5.444  -2.142 -34.572  1.00  0.00    -0.070 N 
HETATM   21  H   UNL     1      -5.144  -1.728 -35.469  1.00  0.00     0.279 HD
BRANCH  20  22
HETATM   22  C   UNL     1      -5.298  -3.647 -34.718  1.00  0.00     0.230 C 
HETATM   23  C   UNL     1      -6.646  -4.304 -34.953  1.00  0.00     0.034 C 
ENDBRANCH  20  22
BRANCH  20  24
HETATM   24  C   UNL     1      -4.479  -1.570 -33.550  1.00  0.00     0.230 C 
HETATM   25  C   UNL     1      -3.701  -2.647 -32.817  1.00  0.00     0.034 C 
ENDBRANCH  20  24
ENDBRANCH  19  20
ENDBRANCH  18  19
ENDBRANCH  17  18
ENDBRANCH   1  17
BRANCH   8  26
HETATM   26  N   UNL     1      -3.000   1.339 -31.572  1.00  0.00    -0.226 NA
HETATM   27  H   UNL     1      -3.663   1.164 -32.336  1.00  0.00     0.145 HD
HETATM   28  H   UNL     1      -3.454   0.853 -30.790  1.00  0.00     0.145 HD
ENDBRANCH   8  26
BRANCH  12  29
HETATM   29  O   UNL     1      -2.607   7.904 -30.178  1.00  0.00    -0.348 OA
BRANCH  29  30
HETATM   30  C   UNL     1      -1.761   7.423 -29.128  1.00  0.00     0.203 C 
BRANCH  30  31
HETATM   31  C   UNL     1      -0.306   7.616 -29.571  1.00  0.00     0.261 C 
BRANCH  31  32
HETATM   32  N   UNL     1       0.653   6.673 -28.840  1.00  0.00    -0.070 N 
HETATM   33  H   UNL     1       1.589   7.006 -29.124  1.00  0.00     0.279 HD
BRANCH  32  34
HETATM   34  C   UNL     1       0.634   6.787 -27.329  1.00  0.00     0.230 C 
HETATM   35  C   UNL     1       1.517   7.906 -26.810  1.00  0.00     0.034 C 
ENDBRANCH  32  34
BRANCH  32  36
HETATM   36  C   UNL     1       0.527   5.262 -29.387  1.00  0.00     0.230 C 
HETATM   37  C   UNL     1       0.648   5.226 -30.898  1.00  0.00     0.034 C 
ENDBRANCH  32  36
ENDBRANCH  31  32
ENDBRANCH  30  31
ENDBRANCH  29  30
ENDBRANCH  12  29
TORSDOF 13
ENDMDL
MODEL 6
REMARK VINA RESULT:      -6.6      3.014      4.310
REMARK  13 active torsions:
REMARK  status: ('A' for Active; 'I' for Inactive)
REMARK    1  A    between atoms: C_2  and  N_3 
REMARK    2  A    between atoms: N_3  and  C_5 
REMARK    3  A    between atoms: N_3  and  C_34 
REMARK    4  A    between atoms: C_5  and  C_6 
REMARK    5  A    between atoms: C_6  and  O_7 
REMARK    6  A    between atoms: O_7  and  C_8 
REMARK    7  A    between atoms: N_15  and  N_16 
REMARK    8  A    between atoms: C_20  and  O_21 
REMARK    9  A    between atoms: O_21  and  C_22 
REMARK   10  A    between atoms: C_22  and  C_23 
REMARK   11  A    between atoms: C_23  and  N_24 
REMARK   12  A    between atoms: N_24  and  C_26 
REMARK   13  A    between atoms: N_24  and  C_28 
ROOT
HETATM    1  C   UNL     1      -3.309   6.277 -31.869  1.00  0.00     0.091 A 
HETATM    2  C   UNL     1      -3.306   5.934 -33.241  1.00  0.00     0.068 A 
HETATM    3 CL   UNL     1      -2.308   6.802 -34.356  1.00  0.00    -0.081 Cl
HETATM    4  C   UNL     1      -4.086   4.879 -33.736  1.00  0.00     0.040 A 
HETATM    5  C   UNL     1      -4.886   4.180 -32.845  1.00  0.00    -0.011 A 
HETATM    6  C   UNL     1      -4.916   4.549 -31.484  1.00  0.00     0.009 A 
HETATM    7  C   UNL     1      -5.873   3.635 -30.804  1.00  0.00     0.093 A 
HETATM    8  N   UNL     1      -6.288   3.544 -29.580  1.00  0.00    -0.203 NA
HETATM    9  C   UNL     1      -6.373   2.708 -31.845  1.00  0.00     0.009 A 
HETATM   10  C   UNL     1      -5.767   3.051 -33.060  1.00  0.00    -0.011 A 
HETATM   11  C   UNL     1      -7.276   1.665 -31.702  1.00  0.00     0.053 A 
HETATM   12  C   UNL     1      -7.594   0.927 -32.843  1.00  0.00     0.091 A 
HETATM   13  C   UNL     1      -6.972   1.248 -34.077  1.00  0.00     0.068 A 
HETATM   14 CL   UNL     1      -7.330   0.328 -35.500  1.00  0.00    -0.081 Cl
HETATM   15  C   UNL     1      -6.062   2.314 -34.194  1.00  0.00     0.040 A 
HETATM   16  C   UNL     1      -4.141   5.585 -30.982  1.00  0.00     0.053 A 
ENDROOT
BRANCH   1  17
HETATM   17  O   UNL     1      -2.500   7.320 -31.483  1.00  0.00    -0.348 OA
BRANCH  17  18
HETATM   18  C   UNL     1      -2.805   7.919 -30.219  1.00  0.00     0.203 C 
BRANCH  18  19
HETATM   19  C   UNL     1      -1.486   8.116 -29.462  1.00  0.00     0.261 C 
BRANCH  19  20
HETATM   20  N   UNL     1      -0.681   6.820 -29.372  1.00  0.00    -0.070 N 
HETATM   21  H   UNL     1      -1.349   6.085 -29.657  1.00  0.00     0.279 HD
BRANCH  20  22
HETATM   22  C   UNL     1      -0.248   6.489 -27.955  1.00  0.00     0.230 C 
HETATM   23  C   UNL     1       0.926   7.352 -27.529  1.00  0.00     0.034 C 
ENDBRANCH  20  22
BRANCH  20  24
HETATM   24  C   UNL     1       0.462   6.697 -30.363  1.00  0.00     0.230 C 
HETATM   25  C   UNL     1       0.537   5.321 -30.997  1.00  0.00     0.034 C 
ENDBRANCH  20  24
ENDBRANCH  19  20
ENDBRANCH  18  19
ENDBRANCH  17  18
ENDBRANCH   1  17
BRANCH   8  26
HETATM   26  N   UNL     1      -5.808   4.442 -28.697  1.00  0.00    -0.226 NA
HETATM   27  H   UNL     1      -5.927   4.059 -27.752  1.00  0.00     0.145 HD
HETATM   28  H   UNL     1      -6.444   5.248 -28.675  1.00  0.00     0.145 HD
ENDBRANCH   8  26
BRANCH  12  29
HETATM   29  O   UNL     1      -8.466  -0.136 -32.842  1.00  0.00    -0.348 OA
BRANCH  29  30
HETATM   30  C   UNL     1      -9.828   0.158 -32.512  1.00  0.00     0.203 C 
BRANCH  30  31
HETATM   31  C   UNL     1     -10.356   1.158 -33.548  1.00  0.00     0.261 C 
BRANCH  31  32
HETATM   32  N   UNL     1     -11.361   2.141 -32.943  1.00  0.00    -0.070 N 
HETATM   33  H   UNL     1     -11.407   1.865 -31.948  1.00  0.00     0.279 HD
BRANCH  32  34
HETATM   34  C   UNL     1     -10.914   3.589 -32.931  1.00  0.00     0.230 C 
HETATM   35  C   UNL     1      -9.632   3.817 -33.709  1.00  0.00     0.034 C 
ENDBRANCH  32  34
BRANCH  32  36
HETATM   36  C   UNL     1     -12.748   1.895 -33.510  1.00  0.00     0.230 C 
HETATM   37  C   UNL     1     -12.697   1.399 -34.942  1.00  0.00     0.034 C 
ENDBRANCH  32  36
ENDBRANCH  31  32
ENDBRANCH  30  31
ENDBRANCH  29  30
ENDBRANCH  12  29
TORSDOF 13
ENDMDL
MODEL 7
REMARK VINA RESULT:      -6.6      1.584      2.054
REMARK  13 active torsions:
REMARK  status: ('A' for Active; 'I' for Inactive)
REMARK    1  A    between atoms: C_2  and  N_3 
REMARK    2  A    between atoms: N_3  and  C_5 
REMARK    3  A    between atoms: N_3  and  C_34 
REMARK    4  A    between atoms: C_5  and  C_6 
REMARK    5  A    between atoms: C_6  and  O_7 
REMARK    6  A    between atoms: O_7  and  C_8 
REMARK    7  A    between atoms: N_15  and  N_16 
REMARK    8  A    between atoms: C_20  and  O_21 
REMARK    9  A    between atoms: O_21  and  C_22 
REMARK   10  A    between atoms: C_22  and  C_23 
REMARK   11  A    between atoms: C_23  and  N_24 
REMARK   12  A    between atoms: N_24  and  C_26 
REMARK   13  A    between atoms: N_24  and  C_28 
ROOT
HETATM    1  C   UNL     1      -4.154   6.896 -29.797  1.00  0.00     0.091 A 
HETATM    2  C   UNL     1      -5.456   6.664 -29.297  1.00  0.00     0.068 A 
HETATM    3 CL   UNL     1      -6.189   7.794 -28.211  1.00  0.00    -0.081 Cl
HETATM    4  C   UNL     1      -6.197   5.534 -29.674  1.00  0.00     0.040 A 
HETATM    5  C   UNL     1      -5.614   4.627 -30.545  1.00  0.00    -0.011 A 
HETATM    6  C   UNL     1      -4.301   4.841 -31.012  1.00  0.00     0.009 A 
HETATM    7  C   UNL     1      -3.959   3.695 -31.898  1.00  0.00     0.093 A 
HETATM    8  N   UNL     1      -2.893   3.383 -32.564  1.00  0.00    -0.203 NA
HETATM    9  C   UNL     1      -5.157   2.825 -31.931  1.00  0.00     0.009 A 
HETATM   10  C   UNL     1      -6.137   3.402 -31.115  1.00  0.00    -0.011 A 
HETATM   11  C   UNL     1      -5.336   1.640 -32.629  1.00  0.00     0.053 A 
HETATM   12  C   UNL     1      -6.566   0.994 -32.497  1.00  0.00     0.091 A 
HETATM   13  C   UNL     1      -7.578   1.578 -31.692  1.00  0.00     0.068 A 
HETATM   14 CL   UNL     1      -9.122   0.809 -31.537  1.00  0.00    -0.081 Cl
HETATM   15  C   UNL     1      -7.367   2.779 -30.992  1.00  0.00     0.040 A 
HETATM   16  C   UNL     1      -3.562   5.959 -30.653  1.00  0.00     0.053 A 
ENDROOT
BRANCH   1  17
HETATM   17  O   UNL     1      -3.516   8.038 -29.376  1.00  0.00    -0.348 OA
BRANCH  17  18
HETATM   18  C   UNL     1      -2.597   7.881 -28.289  1.00  0.00     0.203 C 
BRANCH  18  19
HETATM   19  C   UNL     1      -1.205   8.287 -28.789  1.00  0.00     0.261 C 
BRANCH  19  20
HETATM   20  N   UNL     1      -0.156   7.219 -28.485  1.00  0.00    -0.070 N 
HETATM   21  H   UNL     1      -0.561   6.678 -27.703  1.00  0.00     0.279 HD
BRANCH  20  22
HETATM   22  C   UNL     1       1.153   7.800 -27.979  1.00  0.00     0.230 C 
HETATM   23  C   UNL     1       0.924   9.131 -27.285  1.00  0.00     0.034 C 
ENDBRANCH  20  22
BRANCH  20  24
HETATM   24  C   UNL     1       0.060   6.192 -29.581  1.00  0.00     0.230 C 
HETATM   25  C   UNL     1       0.279   6.830 -30.940  1.00  0.00     0.034 C 
ENDBRANCH  20  24
ENDBRANCH  19  20
ENDBRANCH  18  19
ENDBRANCH  17  18
ENDBRANCH   1  17
BRANCH   8  26
HETATM   26  N   UNL     1      -1.835   4.211 -32.461  1.00  0.00    -0.226 NA
HETATM   27  H   UNL     1      -2.114   5.021 -31.896  1.00  0.00     0.145 HD
HETATM   28  H   UNL     1      -1.672   4.644 -33.377  1.00  0.00     0.145 HD
ENDBRANCH   8  26
BRANCH  12  29
HETATM   29  O   UNL     1      -6.880  -0.181 -33.139  1.00  0.00    -0.348 OA
BRANCH  29  30
HETATM   30  C   UNL     1      -6.056  -0.538 -34.253  1.00  0.00     0.203 C 
BRANCH  30  31
HETATM   31  C   UNL     1      -6.222  -2.043 -34.497  1.00  0.00     0.261 C 
BRANCH  31  32
HETATM   32  N   UNL     1      -4.889  -2.792 -34.422  1.00  0.00    -0.070 N 
HETATM   33  H   UNL     1      -4.378  -2.469 -35.261  1.00  0.00     0.279 HD
BRANCH  32  34
HETATM   34  C   UNL     1      -4.005  -2.412 -33.252  1.00  0.00     0.230 C 
HETATM   35  C   UNL     1      -3.403  -3.615 -32.551  1.00  0.00     0.034 C 
ENDBRANCH  32  34
BRANCH  32  36
HETATM   36  C   UNL     1      -5.108  -4.283 -34.614  1.00  0.00     0.230 C 
HETATM   37  C   UNL     1      -6.378  -4.575 -35.390  1.00  0.00     0.034 C 
ENDBRANCH  32  36
ENDBRANCH  31  32
ENDBRANCH  30  31
ENDBRANCH  29  30
ENDBRANCH  12  29
TORSDOF 13
ENDMDL
MODEL 8
REMARK VINA RESULT:      -6.5      3.521      4.716
REMARK  13 active torsions:
REMARK  status: ('A' for Active; 'I' for Inactive)
REMARK    1  A    between atoms: C_2  and  N_3 
REMARK    2  A    between atoms: N_3  and  C_5 
REMARK    3  A    between atoms: N_3  and  C_34 
REMARK    4  A    between atoms: C_5  and  C_6 
REMARK    5  A    between atoms: C_6  and  O_7 
REMARK    6  A    between atoms: O_7  and  C_8 
REMARK    7  A    between atoms: N_15  and  N_16 
REMARK    8  A    between atoms: C_20  and  O_21 
REMARK    9  A    between atoms: O_21  and  C_22 
REMARK   10  A    between atoms: C_22  and  C_23 
REMARK   11  A    between atoms: C_23  and  N_24 
REMARK   12  A    between atoms: N_24  and  C_26 
REMARK   13  A    between atoms: N_24  and  C_28 
ROOT
HETATM    1  C   UNL     1      -2.001   4.909 -32.524  1.00  0.00     0.091 A 
HETATM    2  C   UNL     1      -2.769   5.959 -33.077  1.00  0.00     0.068 A 
HETATM    3 CL   UNL     1      -2.017   7.453 -33.519  1.00  0.00    -0.081 Cl
HETATM    4  C   UNL     1      -4.147   5.822 -33.301  1.00  0.00     0.040 A 
HETATM    5  C   UNL     1      -4.753   4.626 -32.948  1.00  0.00    -0.011 A 
HETATM    6  C   UNL     1      -3.992   3.594 -32.362  1.00  0.00     0.009 A 
HETATM    7  C   UNL     1      -4.923   2.467 -32.083  1.00  0.00     0.093 A 
HETATM    8  N   UNL     1      -4.758   1.301 -31.543  1.00  0.00    -0.203 NA
HETATM    9  C   UNL     1      -6.254   2.901 -32.562  1.00  0.00     0.009 A 
HETATM   10  C   UNL     1      -6.131   4.197 -33.078  1.00  0.00    -0.011 A 
HETATM   11  C   UNL     1      -7.448   2.194 -32.535  1.00  0.00     0.053 A 
HETATM   12  C   UNL     1      -8.582   2.823 -33.050  1.00  0.00     0.091 A 
HETATM   13  C   UNL     1      -8.468   4.127 -33.597  1.00  0.00     0.068 A 
HETATM   14 CL   UNL     1      -9.856   4.916 -34.266  1.00  0.00    -0.081 Cl
HETATM   15  C   UNL     1      -7.246   4.822 -33.608  1.00  0.00     0.040 A 
HETATM   16  C   UNL     1      -2.626   3.716 -32.144  1.00  0.00     0.053 A 
ENDROOT
BRANCH   1  17
HETATM   17  O   UNL     1      -0.656   5.140 -32.355  1.00  0.00    -0.348 OA
BRANCH  17  18
HETATM   18  C   UNL     1      -0.164   5.040 -31.014  1.00  0.00     0.203 C 
BRANCH  18  19
HETATM   19  C   UNL     1      -0.314   6.416 -30.354  1.00  0.00     0.261 C 
BRANCH  19  20
HETATM   20  N   UNL     1      -0.840   6.309 -28.924  1.00  0.00    -0.070 N 
HETATM   21  H   UNL     1      -1.213   5.347 -28.861  1.00  0.00     0.279 HD
BRANCH  20  22
HETATM   22  C   UNL     1      -2.003   7.246 -28.649  1.00  0.00     0.230 C 
HETATM   23  C   UNL     1      -3.178   6.935 -29.559  1.00  0.00     0.034 C 
ENDBRANCH  20  22
BRANCH  20  24
HETATM   24  C   UNL     1       0.218   6.376 -27.838  1.00  0.00     0.230 C 
HETATM   25  C   UNL     1       0.960   7.699 -27.828  1.00  0.00     0.034 C 
ENDBRANCH  20  24
ENDBRANCH  19  20
ENDBRANCH  18  19
ENDBRANCH  17  18
ENDBRANCH   1  17
BRANCH   8  26
HETATM   26  N   UNL     1      -3.523   0.990 -31.107  1.00  0.00    -0.226 NA
HETATM   27  H   UNL     1      -2.934   0.786 -31.923  1.00  0.00     0.145 HD
HETATM   28  H   UNL     1      -3.561   0.074 -30.646  1.00  0.00     0.145 HD
ENDBRANCH   8  26
BRANCH  12  29
HETATM   29  O   UNL     1      -9.824   2.235 -33.092  1.00  0.00    -0.348 OA
BRANCH  29  30
HETATM   30  C   UNL     1     -10.100   1.413 -34.231  1.00  0.00     0.203 C 
BRANCH  30  31
HETATM   31  C   UNL     1     -11.551   1.672 -34.656  1.00  0.00     0.261 C 
BRANCH  31  32
HETATM   32  N   UNL     1     -12.516   1.647 -33.468  1.00  0.00    -0.070 N 
HETATM   33  H   UNL     1     -11.896   1.522 -32.651  1.00  0.00     0.279 HD
BRANCH  32  34
HETATM   34  C   UNL     1     -13.251   2.948 -33.212  1.00  0.00     0.230 C 
HETATM   35  C   UNL     1     -12.649   3.751 -32.074  1.00  0.00     0.034 C 
ENDBRANCH  32  34
BRANCH  32  36
HETATM   36  C   UNL     1     -13.391   0.407 -33.523  1.00  0.00     0.230 C 
HETATM   37  C   UNL     1     -14.669   0.647 -34.303  1.00  0.00     0.034 C 
ENDBRANCH  32  36
ENDBRANCH  31  32
ENDBRANCH  30  31
ENDBRANCH  29  30
ENDBRANCH  12  29
TORSDOF 13
ENDMDL
MODEL 9
REMARK VINA RESULT:      -6.5      2.614      9.341
REMARK  13 active torsions:
REMARK  status: ('A' for Active; 'I' for Inactive)
REMARK    1  A    between atoms: C_2  and  N_3 
REMARK    2  A    between atoms: N_3  and  C_5 
REMARK    3  A    between atoms: N_3  and  C_34 
REMARK    4  A    between atoms: C_5  and  C_6 
REMARK    5  A    between atoms: C_6  and  O_7 
REMARK    6  A    between atoms: O_7  and  C_8 
REMARK    7  A    between atoms: N_15  and  N_16 
REMARK    8  A    between atoms: C_20  and  O_21 
REMARK    9  A    between atoms: O_21  and  C_22 
REMARK   10  A    between atoms: C_22  and  C_23 
REMARK   11  A    between atoms: C_23  and  N_24 
REMARK   12  A    between atoms: N_24  and  C_26 
REMARK   13  A    between atoms: N_24  and  C_28 
ROOT
HETATM    1  C   UNL     1      -6.291   0.969 -33.496  1.00  0.00     0.091 A 
HETATM    2  C   UNL     1      -5.121   0.509 -32.847  1.00  0.00     0.068 A 
HETATM    3 CL   UNL     1      -4.842  -1.186 -32.647  1.00  0.00    -0.081 Cl
HETATM    4  C   UNL     1      -4.149   1.400 -32.367  1.00  0.00     0.040 A 
HETATM    5  C   UNL     1      -4.369   2.759 -32.527  1.00  0.00    -0.011 A 
HETATM    6  C   UNL     1      -5.554   3.216 -33.140  1.00  0.00     0.009 A 
HETATM    7  C   UNL     1      -5.502   4.703 -33.140  1.00  0.00     0.093 A 
HETATM    8  N   UNL     1      -6.323   5.614 -33.556  1.00  0.00    -0.203 NA
HETATM    9  C   UNL     1      -4.212   5.073 -32.515  1.00  0.00     0.009 A 
HETATM   10  C   UNL     1      -3.548   3.893 -32.156  1.00  0.00    -0.011 A 
HETATM   11  C   UNL     1      -3.697   6.342 -32.299  1.00  0.00     0.053 A 
HETATM   12  C   UNL     1      -2.448   6.435 -31.683  1.00  0.00     0.091 A 
HETATM   13  C   UNL     1      -1.753   5.249 -31.334  1.00  0.00     0.068 A 
HETATM   14 CL   UNL     1      -0.189   5.339 -30.595  1.00  0.00    -0.081 Cl
HETATM   15  C   UNL     1      -2.301   3.974 -31.561  1.00  0.00     0.040 A 
HETATM   16  C   UNL     1      -6.517   2.343 -33.627  1.00  0.00     0.053 A 
ENDROOT
BRANCH   1  17
HETATM   17  O   UNL     1      -7.175   0.015 -33.941  1.00  0.00    -0.348 OA
BRANCH  17  18
HETATM   18  C   UNL     1      -8.499   0.473 -34.238  1.00  0.00     0.203 C 
BRANCH  18  19
HETATM   19  C   UNL     1      -9.419   0.025 -33.096  1.00  0.00     0.261 C 
BRANCH  19  20
HETATM   20  N   UNL     1     -10.541   1.030 -32.841  1.00  0.00    -0.070 N 
HETATM   21  H   UNL     1     -10.768   0.911 -31.840  1.00  0.00     0.279 HD
BRANCH  20  22
HETATM   22  C   UNL     1     -11.809   0.711 -33.614  1.00  0.00     0.230 C 
HETATM   23  C   UNL     1     -11.981   1.656 -34.790  1.00  0.00     0.034 C 
ENDBRANCH  20  22
BRANCH  20  24
HETATM   24  C   UNL     1     -10.146   2.490 -32.968  1.00  0.00     0.230 C 
HETATM   25  C   UNL     1      -9.588   3.056 -31.676  1.00  0.00     0.034 C 
ENDBRANCH  20  24
ENDBRANCH  19  20
ENDBRANCH  18  19
ENDBRANCH  17  18
ENDBRANCH   1  17
BRANCH   8  26
HETATM   26  N   UNL     1      -7.489   5.198 -34.089  1.00  0.00    -0.226 NA
HETATM   27  H   UNL     1      -7.860   5.952 -34.679  1.00  0.00     0.145 HD
HETATM   28  H   UNL     1      -8.191   5.156 -33.341  1.00  0.00     0.145 HD
ENDBRANCH   8  26
BRANCH  12  29
HETATM   29  O   UNL     1      -1.818   7.629 -31.418  1.00  0.00    -0.348 OA
BRANCH  29  30
HETATM   30  C   UNL     1      -2.528   8.552 -30.585  1.00  0.00     0.203 C 
BRANCH  30  31
HETATM   31  C   UNL     1      -1.622   8.906 -29.399  1.00  0.00     0.261 C 
BRANCH  31  32
HETATM   32  N   UNL     1      -1.450   7.733 -28.431  1.00  0.00    -0.070 N 
HETATM   33  H   UNL     1      -1.068   6.978 -29.025  1.00  0.00     0.279 HD
BRANCH  32  34
HETATM   34  C   UNL     1      -0.413   7.944 -27.346  1.00  0.00     0.230 C 
HETATM   35  C   UNL     1       0.907   7.262 -27.650  1.00  0.00     0.034 C 
ENDBRANCH  32  34
BRANCH  32  36
HETATM   36  C   UNL     1      -2.804   7.241 -27.949  1.00  0.00     0.230 C 
HETATM   37  C   UNL     1      -2.833   7.038 -26.447  1.00  0.00     0.034 C 
ENDBRANCH  32  36
ENDBRANCH  31  32
ENDBRANCH  30  31
ENDBRANCH  29  30
ENDBRANCH  12  29
TORSDOF 13
ENDMDL
MODEL 10
REMARK VINA RESULT:      -6.5      3.638      9.862
REMARK  13 active torsions:
REMARK  status: ('A' for Active; 'I' for Inactive)
REMARK    1  A    between atoms: C_2  and  N_3 
REMARK    2  A    between atoms: N_3  and  C_5 
REMARK    3  A    between atoms: N_3  and  C_34 
REMARK    4  A    between atoms: C_5  and  C_6 
REMARK    5  A    between atoms: C_6  and  O_7 
REMARK    6  A    between atoms: O_7  and  C_8 
REMARK    7  A    between atoms: N_15  and  N_16 
REMARK    8  A    between atoms: C_20  and  O_21 
REMARK    9  A    between atoms: O_21  and  C_22 
REMARK   10  A    between atoms: C_22  and  C_23 
REMARK   11  A    between atoms: C_23  and  N_24 
REMARK   12  A    between atoms: N_24  and  C_26 
REMARK   13  A    between atoms: N_24  and  C_28 
ROOT
HETATM    1  C   UNL     1      -8.549   3.051 -33.778  1.00  0.00     0.091 A 
HETATM    2  C   UNL     1      -8.373   4.426 -34.061  1.00  0.00     0.068 A 
HETATM    3 CL   UNL     1      -9.699   5.377 -34.635  1.00  0.00    -0.081 Cl
HETATM    4  C   UNL     1      -7.138   5.062 -33.870  1.00  0.00     0.040 A 
HETATM    5  C   UNL     1      -6.073   4.304 -33.409  1.00  0.00    -0.011 A 
HETATM    6  C   UNL     1      -6.242   2.925 -33.165  1.00  0.00     0.009 A 
HETATM    7  C   UNL     1      -4.927   2.398 -32.708  1.00  0.00     0.093 A 
HETATM    8  N   UNL     1      -4.520   1.214 -32.372  1.00  0.00    -0.203 NA
HETATM    9  C   UNL     1      -4.002   3.554 -32.683  1.00  0.00     0.009 A 
HETATM   10  C   UNL     1      -4.709   4.686 -33.105  1.00  0.00    -0.011 A 
HETATM   11  C   UNL     1      -2.666   3.574 -32.313  1.00  0.00     0.053 A 
HETATM   12  C   UNL     1      -1.998   4.798 -32.375  1.00  0.00     0.091 A 
HETATM   13  C   UNL     1      -2.707   5.959 -32.779  1.00  0.00     0.068 A 
HETATM   14 CL   UNL     1      -1.907   7.493 -32.836  1.00  0.00    -0.081 Cl
HETATM   15  C   UNL     1      -4.061   5.908 -33.152  1.00  0.00     0.040 A 
HETATM   16  C   UNL     1      -7.461   2.287 -33.341  1.00  0.00     0.053 A 
ENDROOT
BRANCH   1  17
HETATM   17  O   UNL     1      -9.802   2.525 -33.988  1.00  0.00    -0.348 OA
BRANCH  17  18
HETATM   18  C   UNL     1     -10.587   2.281 -32.815  1.00  0.00     0.203 C 
BRANCH  18  19
HETATM   19  C   UNL     1     -11.951   2.954 -33.015  1.00  0.00     0.261 C 
BRANCH  19  20
HETATM   20  N   UNL     1     -13.102   1.957 -32.888  1.00  0.00    -0.070 N 
HETATM   21  H   UNL     1     -12.789   1.297 -32.157  1.00  0.00     0.279 HD
BRANCH  20  22
HETATM   22  C   UNL     1     -13.318   1.138 -34.149  1.00  0.00     0.230 C 
HETATM   23  C   UNL     1     -14.764   0.691 -34.266  1.00  0.00     0.034 C 
ENDBRANCH  20  22
BRANCH  20  24
HETATM   24  C   UNL     1     -14.400   2.531 -32.350  1.00  0.00     0.230 C 
HETATM   25  C   UNL     1     -14.285   4.003 -32.003  1.00  0.00     0.034 C 
ENDBRANCH  20  24
ENDBRANCH  19  20
ENDBRANCH  18  19
ENDBRANCH  17  18
ENDBRANCH   1  17
BRANCH   8  26
HETATM   26  N   UNL     1      -5.414   0.209 -32.448  1.00  0.00    -0.226 NA
HETATM   27  H   UNL     1      -6.108   0.448 -33.166  1.00  0.00     0.145 HD
HETATM   28  H   UNL     1      -5.987   0.218 -31.596  1.00  0.00     0.145 HD
ENDBRANCH   8  26
BRANCH  12  29
HETATM   29  O   UNL     1      -0.677   4.962 -32.029  1.00  0.00    -0.348 OA
BRANCH  29  30
HETATM   30  C   UNL     1      -0.396   5.089 -30.632  1.00  0.00     0.203 C 
BRANCH  30  31
HETATM   31  C   UNL     1       0.421   6.372 -30.433  1.00  0.00     0.261 C 
BRANCH  31  32
HETATM   32  N   UNL     1      -0.204   7.300 -29.388  1.00  0.00    -0.070 N 
HETATM   33  H   UNL     1      -0.038   8.247 -29.769  1.00  0.00     0.279 HD
BRANCH  32  34
HETATM   34  C   UNL     1      -1.709   7.189 -29.251  1.00  0.00     0.230 C 
HETATM   35  C   UNL     1      -2.273   8.093 -28.171  1.00  0.00     0.034 C 
ENDBRANCH  32  34
BRANCH  32  36
HETATM   36  C   UNL     1       0.574   7.231 -28.086  1.00  0.00     0.230 C 
HETATM   37  C   UNL     1       1.431   8.464 -27.870  1.00  0.00     0.034 C 
ENDBRANCH  32  36
ENDBRANCH  31  32
ENDBRANCH  30  31
ENDBRANCH  29  30
ENDBRANCH  12  29
TORSDOF 13
ENDMDL
