MODEL 1
REMARK VINA RESULT:      -8.8      0.000      0.000
REMARK  11 active torsions:
REMARK  status: ('A' for Active; 'I' for Inactive)
REMARK    1  A    between atoms: C_2  and  O_3 
REMARK    2  A    between atoms: O_3  and  C_4 
REMARK    3  A    between atoms: C_4  and  C_5 
REMARK    4  A    between atoms: C_5  and  C_6 
REMARK    5  A    between atoms: C_6  and  C_7 
REMARK    6  A    between atoms: C_13  and  C_14 
REMARK    7  A    between atoms: C_14  and  N_15 
REMARK    8  A    between atoms: N_15  and  C_18 
REMARK    9  A    between atoms: N_21  and  C_23 
REMARK   10  A    between atoms: C_23  and  C_24 
REMARK   11  A    between atoms: C_32  and  O_33 
ROOT
HETATM    1  C   UNL     1      -2.506   5.199 -31.368  1.00  0.00     0.025 A 
HETATM    2  C   UNL     1      -3.245   3.915 -31.518  1.00  0.00     0.295 A 
HETATM    3  O   UNL     1      -2.784   2.942 -32.100  1.00  0.00    -0.259 OA
HETATM    4  O   UNL     1      -4.532   3.858 -31.010  1.00  0.00    -0.274 OA
HETATM    5  C   UNL     1      -5.086   4.902 -30.254  1.00  0.00     0.101 A 
HETATM    6  C   UNL     1      -4.360   6.070 -30.028  1.00  0.00     0.005 A 
HETATM    7  C   UNL     1      -6.388   4.698 -29.768  1.00  0.00     0.035 A 
HETATM    8  C   UNL     1      -6.965   5.716 -29.008  1.00  0.00     0.076 A 
HETATM    9  C   UNL     1      -6.268   6.884 -28.730  1.00  0.00     0.038 A 
HETATM   10  C   UNL     1      -4.973   7.055 -29.240  1.00  0.00     0.017 A 
HETATM   11  C   UNL     1      -3.024   6.223 -30.649  1.00  0.00    -0.037 A 
HETATM   12  C   UNL     1      -2.342   7.558 -30.461  1.00  0.00     0.050 C 
ENDROOT
BRANCH   7  13
HETATM   13  C   UNL     1      -7.148   3.437 -30.059  1.00  0.00     0.276 C 
BRANCH  13  14
HETATM   14  N   UNL     1      -7.224   3.201 -31.552  1.00  0.00    -0.067 N 
HETATM   15  H   UNL     1      -7.585   4.118 -31.884  1.00  0.00     0.277 HD
HETATM   16  H   UNL     1      -6.255   3.169 -31.889  1.00  0.00     0.277 HD
BRANCH  14  17
HETATM   17  C   UNL     1      -8.106   2.081 -32.011  1.00  0.00     0.189 C 
HETATM   18  C   UNL     1      -7.766   0.754 -31.331  1.00  0.00     0.060 C 
HETATM   19  C   UNL     1      -6.467   0.122 -31.814  1.00  0.00     0.237 C 
HETATM   20  N   UNL     1      -6.476   0.003 -33.318  1.00  0.00    -0.067 N 
HETATM   21  H   UNL     1      -7.211  -0.674 -33.576  1.00  0.00     0.280 HD
HETATM   22  C   UNL     1      -6.734   1.302 -34.028  1.00  0.00     0.237 C 
HETATM   23  C   UNL     1      -8.028   1.936 -33.533  1.00  0.00     0.060 C 
BRANCH  20  24
HETATM   24  C   UNL     1      -5.191  -0.649 -33.854  1.00  0.00     0.273 C 
BRANCH  24  25
HETATM   25  C   UNL     1      -5.346  -2.112 -34.152  1.00  0.00    -0.033 A 
HETATM   26  C   UNL     1      -4.273  -2.997 -33.960  1.00  0.00     0.009 A 
HETATM   27  C   UNL     1      -4.414  -4.351 -34.265  1.00  0.00     0.001 A 
HETATM   28  C   UNL     1      -5.623  -4.834 -34.762  1.00  0.00     0.000 A 
HETATM   29  C   UNL     1      -6.695  -3.967 -34.950  1.00  0.00     0.001 A 
HETATM   30  C   UNL     1      -6.562  -2.612 -34.644  1.00  0.00     0.009 A 
ENDBRANCH  24  25
ENDBRANCH  20  24
ENDBRANCH  14  17
ENDBRANCH  13  14
ENDBRANCH   7  13
BRANCH   8  31
HETATM   31  O   UNL     1      -8.256   5.551 -28.581  1.00  0.00    -0.360 OA
HETATM   32  H   UNL     1      -8.243   4.883 -27.862  1.00  0.00     0.217 HD
ENDBRANCH   8  31
BRANCH   1  33
HETATM   33  C   UNL     1      -1.169   5.205 -32.092  1.00  0.00     0.055 C 
BRANCH  33  34
HETATM   34  C   UNL     1      -1.254   5.438 -33.603  1.00  0.00     0.116 C 
BRANCH  34  35
HETATM   35  C   UNL     1      -1.974   6.715 -33.956  1.00  0.00     0.259 C 
HETATM   36  O   UNL     1      -1.436   7.817 -33.973  1.00  0.00    -0.265 OA
BRANCH  35  37
HETATM   37  O   UNL     1      -3.272   6.460 -34.259  1.00  0.00    -0.322 OA
BRANCH  37  38
HETATM   38  C   UNL     1      -3.534   5.254 -34.993  1.00  0.00     0.174 C 
HETATM   39  C   UNL     1      -4.896   4.705 -34.618  1.00  0.00     0.034 C 
ENDBRANCH  37  38
ENDBRANCH  35  37
ENDBRANCH  34  35
ENDBRANCH  33  34
ENDBRANCH   1  33
TORSDOF 11
ENDMDL
MODEL 2
REMARK VINA RESULT:      -8.6      1.437      2.067
REMARK  11 active torsions:
REMARK  status: ('A' for Active; 'I' for Inactive)
REMARK    1  A    between atoms: C_2  and  O_3 
REMARK    2  A    between atoms: O_3  and  C_4 
REMARK    3  A    between atoms: C_4  and  C_5 
REMARK    4  A    between atoms: C_5  and  C_6 
REMARK    5  A    between atoms: C_6  and  C_7 
REMARK    6  A    between atoms: C_13  and  C_14 
REMARK    7  A    between atoms: C_14  and  N_15 
REMARK    8  A    between atoms: N_15  and  C_18 
REMARK    9  A    between atoms: N_21  and  C_23 
REMARK   10  A    between atoms: C_23  and  C_24 
REMARK   11  A    between atoms: C_32  and  O_33 
ROOT
HETATM    1  C   UNL     1      -4.212   4.212 -31.308  1.00  0.00     0.025 A 
HETATM    2  C   UNL     1      -5.079   3.017 -31.498  1.00  0.00     0.295 A 
HETATM    3  O   UNL     1      -4.657   1.942 -31.905  1.00  0.00    -0.259 OA
HETATM    4  O   UNL     1      -6.431   3.164 -31.241  1.00  0.00    -0.274 OA
HETATM    5  C   UNL     1      -6.965   4.337 -30.687  1.00  0.00     0.101 A 
HETATM    6  C   UNL     1      -6.140   5.428 -30.416  1.00  0.00     0.005 A 
HETATM    7  C   UNL     1      -8.348   4.339 -30.443  1.00  0.00     0.035 A 
HETATM    8  C   UNL     1      -8.909   5.490 -29.887  1.00  0.00     0.076 A 
HETATM    9  C   UNL     1      -8.120   6.589 -29.572  1.00  0.00     0.038 A 
HETATM   10  C   UNL     1      -6.745   6.553 -29.837  1.00  0.00     0.017 A 
HETATM   11  C   UNL     1      -4.706   5.357 -30.782  1.00  0.00    -0.037 A 
HETATM   12  C   UNL     1      -3.894   6.614 -30.570  1.00  0.00     0.050 C 
ENDROOT
BRANCH   7  13
HETATM   13  C   UNL     1      -9.207   3.155 -30.776  1.00  0.00     0.276 C 
BRANCH  13  14
HETATM   14  N   UNL     1      -9.163   2.874 -32.262  1.00  0.00    -0.067 N 
HETATM   15  H   UNL     1      -9.735   3.658 -32.634  1.00  0.00     0.277 HD
HETATM   16  H   UNL     1      -8.206   3.086 -32.568  1.00  0.00     0.277 HD
BRANCH  14  17
HETATM   17  C   UNL     1      -9.709   1.553 -32.713  1.00  0.00     0.189 C 
HETATM   18  C   UNL     1      -9.130   0.381 -31.919  1.00  0.00     0.060 C 
HETATM   19  C   UNL     1      -7.679   0.059 -32.253  1.00  0.00     0.237 C 
HETATM   20  N   UNL     1      -7.519  -0.129 -33.741  1.00  0.00    -0.067 N 
HETATM   21  H   UNL     1      -8.046  -0.975 -34.010  1.00  0.00     0.280 HD
HETATM   22  C   UNL     1      -8.009   1.034 -34.556  1.00  0.00     0.237 C 
HETATM   23  C   UNL     1      -9.457   1.360 -34.210  1.00  0.00     0.060 C 
BRANCH  20  24
HETATM   24  C   UNL     1      -6.072  -0.477 -34.128  1.00  0.00     0.273 C 
BRANCH  24  25
HETATM   25  C   UNL     1      -5.842  -1.949 -34.304  1.00  0.00    -0.033 A 
HETATM   26  C   UNL     1      -4.553  -2.491 -34.169  1.00  0.00     0.009 A 
HETATM   27  C   UNL     1      -4.340  -3.856 -34.361  1.00  0.00     0.001 A 
HETATM   28  C   UNL     1      -5.405  -4.691 -34.690  1.00  0.00     0.000 A 
HETATM   29  C   UNL     1      -6.687  -4.167 -34.821  1.00  0.00     0.001 A 
HETATM   30  C   UNL     1      -6.909  -2.803 -34.627  1.00  0.00     0.009 A 
ENDBRANCH  24  25
ENDBRANCH  20  24
ENDBRANCH  14  17
ENDBRANCH  13  14
ENDBRANCH   7  13
BRANCH   8  31
HETATM   31  O   UNL     1     -10.266   5.523 -29.702  1.00  0.00    -0.360 OA
HETATM   32  H   UNL     1     -10.638   4.720 -30.126  1.00  0.00     0.217 HD
ENDBRANCH   8  31
BRANCH   1  33
HETATM   33  C   UNL     1      -2.778   3.987 -31.763  1.00  0.00     0.055 C 
BRANCH  33  34
HETATM   34  C   UNL     1      -2.562   4.064 -33.276  1.00  0.00     0.116 C 
BRANCH  34  35
HETATM   35  C   UNL     1      -2.468   5.481 -33.781  1.00  0.00     0.259 C 
HETATM   36  O   UNL     1      -3.424   6.112 -34.221  1.00  0.00    -0.265 OA
BRANCH  35  37
HETATM   37  O   UNL     1      -1.197   5.944 -33.662  1.00  0.00    -0.322 OA
BRANCH  37  38
HETATM   38  C   UNL     1      -1.024   7.158 -32.915  1.00  0.00     0.174 C 
HETATM   39  C   UNL     1      -0.234   6.880 -31.652  1.00  0.00     0.034 C 
ENDBRANCH  37  38
ENDBRANCH  35  37
ENDBRANCH  34  35
ENDBRANCH  33  34
ENDBRANCH   1  33
TORSDOF 11
ENDMDL
MODEL 3
REMARK VINA RESULT:      -8.5      2.978      5.061
REMARK  11 active torsions:
REMARK  status: ('A' for Active; 'I' for Inactive)
REMARK    1  A    between atoms: C_2  and  O_3 
REMARK    2  A    between atoms: O_3  and  C_4 
REMARK    3  A    between atoms: C_4  and  C_5 
REMARK    4  A    between atoms: C_5  and  C_6 
REMARK    5  A    between atoms: C_6  and  C_7 
REMARK    6  A    between atoms: C_13  and  C_14 
REMARK    7  A    between atoms: C_14  and  N_15 
REMARK    8  A    between atoms: N_15  and  C_18 
REMARK    9  A    between atoms: N_21  and  C_23 
REMARK   10  A    between atoms: C_23  and  C_24 
REMARK   11  A    between atoms: C_32  and  O_33 
ROOT
HETATM    1  C   UNL     1      -1.283   7.153 -30.160  1.00  0.00     0.025 A 
HETATM    2  C   UNL     1      -2.760   7.244 -29.992  1.00  0.00     0.295 A 
HETATM    3  O   UNL     1      -3.293   7.652 -28.968  1.00  0.00    -0.259 OA
HETATM    4  O   UNL     1      -3.547   6.794 -31.038  1.00  0.00    -0.274 OA
HETATM    5  C   UNL     1      -3.005   6.400 -32.270  1.00  0.00     0.101 A 
HETATM    6  C   UNL     1      -1.625   6.406 -32.466  1.00  0.00     0.005 A 
HETATM    7  C   UNL     1      -3.921   6.001 -33.256  1.00  0.00     0.035 A 
HETATM    8  C   UNL     1      -3.412   5.608 -34.495  1.00  0.00     0.076 A 
HETATM    9  C   UNL     1      -2.047   5.628 -34.746  1.00  0.00     0.038 A 
HETATM   10  C   UNL     1      -1.162   6.026 -33.734  1.00  0.00     0.017 A 
HETATM   11  C   UNL     1      -0.736   6.770 -31.338  1.00  0.00    -0.037 A 
HETATM   12  C   UNL     1       0.750   6.642 -31.582  1.00  0.00     0.050 C 
ENDROOT
BRANCH   7  13
HETATM   13  C   UNL     1      -5.399   5.980 -32.996  1.00  0.00     0.276 C 
BRANCH  13  14
HETATM   14  N   UNL     1      -5.726   4.991 -31.899  1.00  0.00    -0.067 N 
HETATM   15  H   UNL     1      -4.835   4.460 -31.832  1.00  0.00     0.277 HD
HETATM   16  H   UNL     1      -5.770   5.530 -31.027  1.00  0.00     0.277 HD
BRANCH  14  17
HETATM   17  C   UNL     1      -6.880   4.068 -32.148  1.00  0.00     0.189 C 
HETATM   18  C   UNL     1      -7.065   3.049 -31.023  1.00  0.00     0.060 C 
HETATM   19  C   UNL     1      -6.007   1.953 -30.996  1.00  0.00     0.237 C 
HETATM   20  N   UNL     1      -5.908   1.293 -32.349  1.00  0.00    -0.067 N 
HETATM   21  H   UNL     1      -6.797   0.798 -32.523  1.00  0.00     0.280 HD
HETATM   22  C   UNL     1      -5.652   2.255 -33.475  1.00  0.00     0.237 C 
HETATM   23  C   UNL     1      -6.706   3.355 -33.492  1.00  0.00     0.060 C 
BRANCH  20  24
HETATM   24  C   UNL     1      -4.865   0.164 -32.367  1.00  0.00     0.273 C 
BRANCH  24  25
HETATM   25  C   UNL     1      -5.258  -0.993 -33.237  1.00  0.00    -0.033 A 
HETATM   26  C   UNL     1      -4.286  -1.887 -33.718  1.00  0.00     0.009 A 
HETATM   27  C   UNL     1      -4.653  -2.945 -34.549  1.00  0.00     0.001 A 
HETATM   28  C   UNL     1      -5.987  -3.122 -34.910  1.00  0.00     0.000 A 
HETATM   29  C   UNL     1      -6.959  -2.246 -34.435  1.00  0.00     0.001 A 
HETATM   30  C   UNL     1      -6.600  -1.188 -33.600  1.00  0.00     0.009 A 
ENDBRANCH  24  25
ENDBRANCH  20  24
ENDBRANCH  14  17
ENDBRANCH  13  14
ENDBRANCH   7  13
BRANCH   8  31
HETATM   31  O   UNL     1      -4.293   5.159 -35.443  1.00  0.00    -0.360 OA
HETATM   32  H   UNL     1      -3.805   4.537 -36.025  1.00  0.00     0.217 HD
ENDBRANCH   8  31
BRANCH   1  33
HETATM   33  C   UNL     1      -0.516   7.527 -28.901  1.00  0.00     0.055 C 
BRANCH  33  34
HETATM   34  C   UNL     1      -0.000   6.340 -28.084  1.00  0.00     0.116 C 
BRANCH  34  35
HETATM   35  C   UNL     1      -0.295   6.474 -26.611  1.00  0.00     0.259 C 
HETATM   36  O   UNL     1      -0.835   5.599 -25.942  1.00  0.00    -0.265 OA
BRANCH  35  37
HETATM   37  O   UNL     1       0.133   7.677 -26.150  1.00  0.00    -0.322 OA
BRANCH  37  38
HETATM   38  C   UNL     1       1.540   7.802 -25.894  1.00  0.00     0.174 C 
HETATM   39  C   UNL     1       1.986   9.230 -26.135  1.00  0.00     0.034 C 
ENDBRANCH  37  38
ENDBRANCH  35  37
ENDBRANCH  34  35
ENDBRANCH  33  34
ENDBRANCH   1  33
TORSDOF 11
ENDMDL
MODEL 4
REMARK VINA RESULT:      -8.4      3.002      8.419
REMARK  11 active torsions:
REMARK  status: ('A' for Active; 'I' for Inactive)
REMARK    1  A    between atoms: C_2  and  O_3 
REMARK    2  A    between atoms: O_3  and  C_4 
REMARK    3  A    between atoms: C_4  and  C_5 
REMARK    4  A    between atoms: C_5  and  C_6 
REMARK    5  A    between atoms: C_6  and  C_7 
REMARK    6  A    between atoms: C_13  and  C_14 
REMARK    7  A    between atoms: C_14  and  N_15 
REMARK    8  A    between atoms: N_15  and  C_18 
REMARK    9  A    between atoms: N_21  and  C_23 
REMARK   10  A    between atoms: C_23  and  C_24 
REMARK   11  A    between atoms: C_32  and  O_33 
ROOT
HETATM    1  C   UNL     1      -6.431  -0.246 -34.001  1.00  0.00     0.025 A 
HETATM    2  C   UNL     1      -5.212  -0.032 -33.174  1.00  0.00     0.295 A 
HETATM    3  O   UNL     1      -4.188  -0.690 -33.307  1.00  0.00    -0.259 OA
HETATM    4  O   UNL     1      -5.278   0.931 -32.181  1.00  0.00    -0.274 OA
HETATM    5  C   UNL     1      -6.384   1.781 -32.034  1.00  0.00     0.101 A 
HETATM    6  C   UNL     1      -7.491   1.648 -32.870  1.00  0.00     0.005 A 
HETATM    7  C   UNL     1      -6.304   2.737 -31.008  1.00  0.00     0.035 A 
HETATM    8  C   UNL     1      -7.387   3.602 -30.839  1.00  0.00     0.076 A 
HETATM    9  C   UNL     1      -8.498   3.527 -31.670  1.00  0.00     0.038 A 
HETATM   10  C   UNL     1      -8.545   2.554 -32.677  1.00  0.00     0.017 A 
HETATM   11  C   UNL     1      -7.513   0.557 -33.872  1.00  0.00    -0.037 A 
HETATM   12  C   UNL     1      -8.790   0.396 -34.664  1.00  0.00     0.050 C 
ENDROOT
BRANCH   7  13
HETATM   13  C   UNL     1      -5.106   2.829 -30.110  1.00  0.00     0.276 C 
BRANCH  13  14
HETATM   14  N   UNL     1      -3.930   3.418 -30.859  1.00  0.00    -0.067 N 
HETATM   15  H   UNL     1      -3.432   3.917 -30.095  1.00  0.00     0.277 HD
HETATM   16  H   UNL     1      -3.315   2.631 -31.096  1.00  0.00     0.277 HD
BRANCH  14  17
HETATM   17  C   UNL     1      -4.251   4.351 -31.987  1.00  0.00     0.189 C 
HETATM   18  C   UNL     1      -3.289   4.194 -33.165  1.00  0.00     0.060 C 
HETATM   19  C   UNL     1      -1.895   4.751 -32.909  1.00  0.00     0.237 C 
HETATM   20  N   UNL     1      -1.986   6.181 -32.437  1.00  0.00    -0.067 N 
HETATM   21  H   UNL     1      -2.357   6.747 -33.217  1.00  0.00     0.280 HD
HETATM   22  C   UNL     1      -2.865   6.368 -31.233  1.00  0.00     0.237 C 
HETATM   23  C   UNL     1      -4.255   5.799 -31.489  1.00  0.00     0.060 C 
BRANCH  20  24
HETATM   24  C   UNL     1      -0.600   6.796 -32.183  1.00  0.00     0.273 C 
BRANCH  24  25
HETATM   25  C   UNL     1      -0.080   6.536 -30.799  1.00  0.00    -0.033 A 
HETATM   26  C   UNL     1       0.424   5.272 -30.453  1.00  0.00     0.009 A 
HETATM   27  C   UNL     1       0.880   5.028 -29.157  1.00  0.00     0.001 A 
HETATM   28  C   UNL     1       0.838   6.038 -28.198  1.00  0.00     0.000 A 
HETATM   29  C   UNL     1       0.345   7.296 -28.532  1.00  0.00     0.001 A 
HETATM   30  C   UNL     1      -0.109   7.548 -29.827  1.00  0.00     0.009 A 
ENDBRANCH  24  25
ENDBRANCH  20  24
ENDBRANCH  14  17
ENDBRANCH  13  14
ENDBRANCH   7  13
BRANCH   8  31
HETATM   31  O   UNL     1      -7.344   4.497 -29.804  1.00  0.00    -0.360 OA
HETATM   32  H   UNL     1      -7.813   5.308 -30.099  1.00  0.00     0.217 HD
ENDBRANCH   8  31
BRANCH   1  33
HETATM   33  C   UNL     1      -6.305  -1.425 -34.954  1.00  0.00     0.055 C 
BRANCH  33  34
HETATM   34  C   UNL     1      -6.802  -2.761 -34.397  1.00  0.00     0.116 C 
BRANCH  34  35
HETATM   35  C   UNL     1      -5.978  -3.932 -34.869  1.00  0.00     0.259 C 
HETATM   36  O   UNL     1      -6.455  -4.935 -35.389  1.00  0.00    -0.265 OA
BRANCH  35  37
HETATM   37  O   UNL     1      -4.658  -3.703 -34.647  1.00  0.00    -0.322 OA
BRANCH  37  38
HETATM   38  C   UNL     1      -3.957  -4.691 -33.875  1.00  0.00     0.174 C 
HETATM   39  C   UNL     1      -3.302  -4.039 -32.673  1.00  0.00     0.034 C 
ENDBRANCH  37  38
ENDBRANCH  35  37
ENDBRANCH  34  35
ENDBRANCH  33  34
ENDBRANCH   1  33
TORSDOF 11
ENDMDL
MODEL 5
REMARK VINA RESULT:      -8.3      2.523      4.599
REMARK  11 active torsions:
REMARK  status: ('A' for Active; 'I' for Inactive)
REMARK    1  A    between atoms: C_2  and  O_3 
REMARK    2  A    between atoms: O_3  and  C_4 
REMARK    3  A    between atoms: C_4  and  C_5 
REMARK    4  A    between atoms: C_5  and  C_6 
REMARK    5  A    between atoms: C_6  and  C_7 
REMARK    6  A    between atoms: C_13  and  C_14 
REMARK    7  A    between atoms: C_14  and  N_15 
REMARK    8  A    between atoms: N_15  and  C_18 
REMARK    9  A    between atoms: N_21  and  C_23 
REMARK   10  A    between atoms: C_23  and  C_24 
REMARK   11  A    between atoms: C_32  and  O_33 
ROOT
HETATM    1  C   UNL     1      -1.401   6.505 -29.909  1.00  0.00     0.025 A 
HETATM    2  C   UNL     1      -2.867   6.755 -29.832  1.00  0.00     0.295 A 
HETATM    3  O   UNL     1      -3.425   7.158 -28.819  1.00  0.00    -0.259 OA
HETATM    4  O   UNL     1      -3.622   6.466 -30.955  1.00  0.00    -0.274 OA
HETATM    5  C   UNL     1      -3.038   6.090 -32.174  1.00  0.00     0.101 A 
HETATM    6  C   UNL     1      -1.655   5.948 -32.279  1.00  0.00     0.005 A 
HETATM    7  C   UNL     1      -3.919   5.861 -33.244  1.00  0.00     0.035 A 
HETATM    8  C   UNL     1      -3.368   5.490 -34.472  1.00  0.00     0.076 A 
HETATM    9  C   UNL     1      -1.994   5.367 -34.631  1.00  0.00     0.038 A 
HETATM   10  C   UNL     1      -1.147   5.596 -33.538  1.00  0.00     0.017 A 
HETATM   11  C   UNL     1      -0.816   6.135 -31.072  1.00  0.00    -0.037 A 
HETATM   12  C   UNL     1       0.660   5.851 -31.228  1.00  0.00     0.050 C 
ENDROOT
BRANCH   7  13
HETATM   13  C   UNL     1      -5.405   5.996 -33.083  1.00  0.00     0.276 C 
BRANCH  13  14
HETATM   14  N   UNL     1      -5.940   4.892 -32.196  1.00  0.00    -0.067 N 
HETATM   15  H   UNL     1      -5.100   4.288 -32.096  1.00  0.00     0.277 HD
HETATM   16  H   UNL     1      -6.070   5.307 -31.266  1.00  0.00     0.277 HD
BRANCH  14  17
HETATM   17  C   UNL     1      -7.103   4.109 -32.725  1.00  0.00     0.189 C 
HETATM   18  C   UNL     1      -7.798   3.292 -31.635  1.00  0.00     0.060 C 
HETATM   19  C   UNL     1      -7.007   2.077 -31.168  1.00  0.00     0.237 C 
HETATM   20  N   UNL     1      -6.613   1.228 -32.350  1.00  0.00    -0.067 N 
HETATM   21  H   UNL     1      -7.476   0.838 -32.760  1.00  0.00     0.280 HD
HETATM   22  C   UNL     1      -5.860   1.979 -33.412  1.00  0.00     0.237 C 
HETATM   23  C   UNL     1      -6.650   3.199 -33.869  1.00  0.00     0.060 C 
BRANCH  20  24
HETATM   24  C   UNL     1      -5.827  -0.024 -31.927  1.00  0.00     0.273 C 
BRANCH  24  25
HETATM   25  C   UNL     1      -5.747  -1.067 -33.003  1.00  0.00    -0.033 A 
HETATM   26  C   UNL     1      -6.903  -1.474 -33.689  1.00  0.00     0.009 A 
HETATM   27  C   UNL     1      -6.827  -2.464 -34.669  1.00  0.00     0.001 A 
HETATM   28  C   UNL     1      -5.604  -3.056 -34.974  1.00  0.00     0.000 A 
HETATM   29  C   UNL     1      -4.451  -2.656 -34.305  1.00  0.00     0.001 A 
HETATM   30  C   UNL     1      -4.518  -1.664 -33.326  1.00  0.00     0.009 A 
ENDBRANCH  24  25
ENDBRANCH  20  24
ENDBRANCH  14  17
ENDBRANCH  13  14
ENDBRANCH   7  13
BRANCH   8  31
HETATM   31  O   UNL     1      -4.222   5.206 -35.504  1.00  0.00    -0.360 OA
HETATM   32  H   UNL     1      -4.266   6.004 -36.075  1.00  0.00     0.217 HD
ENDBRANCH   8  31
BRANCH   1  33
HETATM   33  C   UNL     1      -0.691   6.708 -28.579  1.00  0.00     0.055 C 
BRANCH  33  34
HETATM   34  C   UNL     1      -0.044   8.083 -28.396  1.00  0.00     0.116 C 
BRANCH  34  35
HETATM   35  C   UNL     1      -0.907   9.032 -27.603  1.00  0.00     0.259 C 
HETATM   36  O   UNL     1      -1.451   8.735 -26.545  1.00  0.00    -0.265 OA
BRANCH  35  37
HETATM   37  O   UNL     1      -0.973  10.240 -28.220  1.00  0.00    -0.322 OA
BRANCH  37  38
HETATM   38  C   UNL     1      -2.277  10.680 -28.629  1.00  0.00     0.174 C 
HETATM   39  C   UNL     1      -2.468  10.429 -30.111  1.00  0.00     0.034 C 
ENDBRANCH  37  38
ENDBRANCH  35  37
ENDBRANCH  34  35
ENDBRANCH  33  34
ENDBRANCH   1  33
TORSDOF 11
ENDMDL
MODEL 6
REMARK VINA RESULT:      -8.3      3.609      5.827
REMARK  11 active torsions:
REMARK  status: ('A' for Active; 'I' for Inactive)
REMARK    1  A    between atoms: C_2  and  O_3 
REMARK    2  A    between atoms: O_3  and  C_4 
REMARK    3  A    between atoms: C_4  and  C_5 
REMARK    4  A    between atoms: C_5  and  C_6 
REMARK    5  A    between atoms: C_6  and  C_7 
REMARK    6  A    between atoms: C_13  and  C_14 
REMARK    7  A    between atoms: C_14  and  N_15 
REMARK    8  A    between atoms: N_15  and  C_18 
REMARK    9  A    between atoms: N_21  and  C_23 
REMARK   10  A    between atoms: C_23  and  C_24 
REMARK   11  A    between atoms: C_32  and  O_33 
ROOT
HETATM    1  C   UNL     1      -0.831   9.387 -28.001  1.00  0.00     0.025 A 
HETATM    2  C   UNL     1      -2.202   9.328 -28.579  1.00  0.00     0.295 A 
HETATM    3  O   UNL     1      -3.057  10.178 -28.362  1.00  0.00    -0.259 OA
HETATM    4  O   UNL     1      -2.519   8.227 -29.355  1.00  0.00    -0.274 OA
HETATM    5  C   UNL     1      -1.564   7.265 -29.716  1.00  0.00     0.101 A 
HETATM    6  C   UNL     1      -0.251   7.368 -29.257  1.00  0.00     0.005 A 
HETATM    7  C   UNL     1      -2.012   6.218 -30.538  1.00  0.00     0.035 A 
HETATM    8  C   UNL     1      -1.084   5.248 -30.919  1.00  0.00     0.076 A 
HETATM    9  C   UNL     1       0.242   5.327 -30.511  1.00  0.00     0.038 A 
HETATM   10  C   UNL     1       0.650   6.382 -29.685  1.00  0.00     0.017 A 
HETATM   11  C   UNL     1       0.106   8.467 -28.330  1.00  0.00    -0.037 A 
HETATM   12  C   UNL     1       1.512   8.452 -27.777  1.00  0.00     0.050 C 
ENDROOT
BRANCH   7  13
HETATM   13  C   UNL     1      -3.440   6.127 -30.987  1.00  0.00     0.276 C 
BRANCH  13  14
HETATM   14  N   UNL     1      -4.093   4.885 -30.418  1.00  0.00    -0.067 N 
HETATM   15  H   UNL     1      -3.344   4.179 -30.561  1.00  0.00     0.277 HD
HETATM   16  H   UNL     1      -4.129   5.019 -29.401  1.00  0.00     0.277 HD
BRANCH  14  17
HETATM   17  C   UNL     1      -5.373   4.445 -31.059  1.00  0.00     0.189 C 
HETATM   18  C   UNL     1      -6.157   3.466 -30.183  1.00  0.00     0.060 C 
HETATM   19  C   UNL     1      -5.547   2.073 -30.107  1.00  0.00     0.237 C 
HETATM   20  N   UNL     1      -5.315   1.531 -31.496  1.00  0.00    -0.067 N 
HETATM   21  H   UNL     1      -6.237   1.392 -31.937  1.00  0.00     0.280 HD
HETATM   22  C   UNL     1      -4.484   2.431 -32.366  1.00  0.00     0.237 C 
HETATM   23  C   UNL     1      -5.092   3.827 -32.431  1.00  0.00     0.060 C 
BRANCH  20  24
HETATM   24  C   UNL     1      -4.716   0.115 -31.472  1.00  0.00     0.273 C 
BRANCH  24  25
HETATM   25  C   UNL     1      -5.240  -0.769 -32.565  1.00  0.00    -0.033 A 
HETATM   26  C   UNL     1      -4.381  -1.645 -33.247  1.00  0.00     0.009 A 
HETATM   27  C   UNL     1      -4.867  -2.445 -34.282  1.00  0.00     0.001 A 
HETATM   28  C   UNL     1      -6.210  -2.379 -34.645  1.00  0.00     0.000 A 
HETATM   29  C   UNL     1      -7.073  -1.519 -33.972  1.00  0.00     0.001 A 
HETATM   30  C   UNL     1      -6.594  -0.719 -32.934  1.00  0.00     0.009 A 
ENDBRANCH  24  25
ENDBRANCH  20  24
ENDBRANCH  14  17
ENDBRANCH  13  14
ENDBRANCH   7  13
BRANCH   8  31
HETATM   31  O   UNL     1      -1.525   4.190 -31.670  1.00  0.00    -0.360 OA
HETATM   32  H   UNL     1      -2.504   4.251 -31.712  1.00  0.00     0.217 HD
ENDBRANCH   8  31
BRANCH   1  33
HETATM   33  C   UNL     1      -0.637  10.554 -27.044  1.00  0.00     0.055 C 
BRANCH  33  34
HETATM   34  C   UNL     1      -0.580  10.171 -25.564  1.00  0.00     0.116 C 
BRANCH  34  35
HETATM   35  C   UNL     1      -1.941   9.888 -24.981  1.00  0.00     0.259 C 
HETATM   36  O   UNL     1      -2.840  10.720 -24.914  1.00  0.00    -0.265 OA
BRANCH  35  37
HETATM   37  O   UNL     1      -2.020   8.598 -24.565  1.00  0.00    -0.322 OA
BRANCH  37  38
HETATM   38  C   UNL     1      -2.912   7.742 -25.295  1.00  0.00     0.174 C 
HETATM   39  C   UNL     1      -2.135   6.605 -25.929  1.00  0.00     0.034 C 
ENDBRANCH  37  38
ENDBRANCH  35  37
ENDBRANCH  34  35
ENDBRANCH  33  34
ENDBRANCH   1  33
TORSDOF 11
ENDMDL
MODEL 7
REMARK VINA RESULT:      -8.2      3.765      9.112
REMARK  11 active torsions:
REMARK  status: ('A' for Active; 'I' for Inactive)
REMARK    1  A    between atoms: C_2  and  O_3 
REMARK    2  A    between atoms: O_3  and  C_4 
REMARK    3  A    between atoms: C_4  and  C_5 
REMARK    4  A    between atoms: C_5  and  C_6 
REMARK    5  A    between atoms: C_6  and  C_7 
REMARK    6  A    between atoms: C_13  and  C_14 
REMARK    7  A    between atoms: C_14  and  N_15 
REMARK    8  A    between atoms: N_15  and  C_18 
REMARK    9  A    between atoms: N_21  and  C_23 
REMARK   10  A    between atoms: C_23  and  C_24 
REMARK   11  A    between atoms: C_32  and  O_33 
ROOT
HETATM    1  C   UNL     1      -8.840   1.697 -33.662  1.00  0.00     0.025 A 
HETATM    2  C   UNL     1      -8.649   2.572 -32.473  1.00  0.00     0.295 A 
HETATM    3  O   UNL     1      -9.520   3.317 -32.043  1.00  0.00    -0.259 OA
HETATM    4  O   UNL     1      -7.403   2.561 -31.869  1.00  0.00    -0.274 OA
HETATM    5  C   UNL     1      -6.392   1.668 -32.252  1.00  0.00     0.101 A 
HETATM    6  C   UNL     1      -6.600   0.777 -33.305  1.00  0.00     0.005 A 
HETATM    7  C   UNL     1      -5.189   1.740 -31.531  1.00  0.00     0.035 A 
HETATM    8  C   UNL     1      -4.165   0.860 -31.885  1.00  0.00     0.076 A 
HETATM    9  C   UNL     1      -4.338  -0.066 -32.906  1.00  0.00     0.038 A 
HETATM   10  C   UNL     1      -5.551  -0.103 -33.608  1.00  0.00     0.017 A 
HETATM   11  C   UNL     1      -7.876   0.831 -34.055  1.00  0.00    -0.037 A 
HETATM   12  C   UNL     1      -7.990  -0.079 -35.256  1.00  0.00     0.050 C 
ENDROOT
BRANCH   7  13
HETATM   13  C   UNL     1      -4.993   2.733 -30.424  1.00  0.00     0.276 C 
BRANCH  13  14
HETATM   14  N   UNL     1      -3.890   3.707 -30.779  1.00  0.00    -0.067 N 
HETATM   15  H   UNL     1      -3.858   4.297 -29.925  1.00  0.00     0.277 HD
HETATM   16  H   UNL     1      -3.015   3.172 -30.756  1.00  0.00     0.277 HD
BRANCH  14  17
HETATM   17  C   UNL     1      -4.104   4.547 -32.002  1.00  0.00     0.189 C 
HETATM   18  C   UNL     1      -3.055   4.281 -33.082  1.00  0.00     0.060 C 
HETATM   19  C   UNL     1      -1.675   4.841 -32.761  1.00  0.00     0.237 C 
HETATM   20  N   UNL     1      -1.777   6.307 -32.417  1.00  0.00    -0.067 N 
HETATM   21  H   UNL     1      -2.075   6.810 -33.267  1.00  0.00     0.280 HD
HETATM   22  C   UNL     1      -2.745   6.603 -31.306  1.00  0.00     0.237 C 
HETATM   23  C   UNL     1      -4.121   6.031 -31.626  1.00  0.00     0.060 C 
BRANCH  20  24
HETATM   24  C   UNL     1      -0.404   6.924 -32.103  1.00  0.00     0.273 C 
BRANCH  24  25
HETATM   25  C   UNL     1       0.045   6.687 -30.691  1.00  0.00    -0.033 A 
HETATM   26  C   UNL     1       0.450   5.407 -30.277  1.00  0.00     0.009 A 
HETATM   27  C   UNL     1       0.839   5.186 -28.955  1.00  0.00     0.001 A 
HETATM   28  C   UNL     1       0.828   6.234 -28.038  1.00  0.00     0.000 A 
HETATM   29  C   UNL     1       0.434   7.507 -28.438  1.00  0.00     0.001 A 
HETATM   30  C   UNL     1       0.046   7.736 -29.759  1.00  0.00     0.009 A 
ENDBRANCH  24  25
ENDBRANCH  20  24
ENDBRANCH  14  17
ENDBRANCH  13  14
ENDBRANCH   7  13
BRANCH   8  31
HETATM   31  O   UNL     1      -2.967   0.964 -31.229  1.00  0.00    -0.360 OA
HETATM   32  H   UNL     1      -2.824   1.915 -31.031  1.00  0.00     0.217 HD
ENDBRANCH   8  31
BRANCH   1  33
HETATM   33  C   UNL     1     -10.187   1.898 -34.339  1.00  0.00     0.055 C 
BRANCH  33  34
HETATM   34  C   UNL     1     -11.310   0.995 -33.823  1.00  0.00     0.116 C 
BRANCH  34  35
HETATM   35  C   UNL     1     -12.560   1.081 -34.662  1.00  0.00     0.259 C 
HETATM   36  O   UNL     1     -12.670   1.802 -35.647  1.00  0.00    -0.265 OA
BRANCH  35  37
HETATM   37  O   UNL     1     -13.514   0.246 -34.177  1.00  0.00    -0.322 OA
BRANCH  37  38
HETATM   38  C   UNL     1     -14.865   0.733 -34.201  1.00  0.00     0.174 C 
HETATM   39  C   UNL     1     -15.105   1.656 -33.023  1.00  0.00     0.034 C 
ENDBRANCH  37  38
ENDBRANCH  35  37
ENDBRANCH  34  35
ENDBRANCH  33  34
ENDBRANCH   1  33
TORSDOF 11
ENDMDL
MODEL 8
REMARK VINA RESULT:      -8.1      2.981      7.865
REMARK  11 active torsions:
REMARK  status: ('A' for Active; 'I' for Inactive)
REMARK    1  A    between atoms: C_2  and  O_3 
REMARK    2  A    between atoms: O_3  and  C_4 
REMARK    3  A    between atoms: C_4  and  C_5 
REMARK    4  A    between atoms: C_5  and  C_6 
REMARK    5  A    between atoms: C_6  and  C_7 
REMARK    6  A    between atoms: C_13  and  C_14 
REMARK    7  A    between atoms: C_14  and  N_15 
REMARK    8  A    between atoms: N_15  and  C_18 
REMARK    9  A    between atoms: N_21  and  C_23 
REMARK   10  A    between atoms: C_23  and  C_24 
REMARK   11  A    between atoms: C_32  and  O_33 
ROOT
HETATM    1  C   UNL     1      -6.532  -0.579 -33.717  1.00  0.00     0.025 A 
HETATM    2  C   UNL     1      -7.594   0.413 -34.040  1.00  0.00     0.295 A 
HETATM    3  O   UNL     1      -8.256   0.373 -35.069  1.00  0.00    -0.259 OA
HETATM    4  O   UNL     1      -7.792   1.449 -33.143  1.00  0.00    -0.274 OA
HETATM    5  C   UNL     1      -7.134   1.505 -31.906  1.00  0.00     0.101 A 
HETATM    6  C   UNL     1      -6.207   0.524 -31.556  1.00  0.00     0.005 A 
HETATM    7  C   UNL     1      -7.455   2.592 -31.077  1.00  0.00     0.035 A 
HETATM    8  C   UNL     1      -6.821   2.673 -29.836  1.00  0.00     0.076 A 
HETATM    9  C   UNL     1      -5.914   1.701 -29.431  1.00  0.00     0.038 A 
HETATM   10  C   UNL     1      -5.613   0.635 -30.290  1.00  0.00     0.017 A 
HETATM   11  C   UNL     1      -5.878  -0.541 -32.532  1.00  0.00    -0.037 A 
HETATM   12  C   UNL     1      -4.782  -1.502 -32.136  1.00  0.00     0.050 C 
ENDROOT
BRANCH   7  13
HETATM   13  C   UNL     1      -8.436   3.644 -31.503  1.00  0.00     0.276 C 
BRANCH  13  14
HETATM   14  N   UNL     1      -7.847   5.024 -31.305  1.00  0.00    -0.067 N 
HETATM   15  H   UNL     1      -8.512   5.432 -30.619  1.00  0.00     0.277 HD
HETATM   16  H   UNL     1      -6.978   4.893 -30.775  1.00  0.00     0.277 HD
BRANCH  14  17
HETATM   17  C   UNL     1      -7.737   5.888 -32.525  1.00  0.00     0.189 C 
HETATM   18  C   UNL     1      -7.631   5.069 -33.812  1.00  0.00     0.060 C 
HETATM   19  C   UNL     1      -6.285   4.381 -34.002  1.00  0.00     0.237 C 
HETATM   20  N   UNL     1      -5.166   5.384 -33.873  1.00  0.00    -0.067 N 
HETATM   21  H   UNL     1      -5.240   6.043 -34.664  1.00  0.00     0.280 HD
HETATM   22  C   UNL     1      -5.192   6.159 -32.585  1.00  0.00     0.237 C 
HETATM   23  C   UNL     1      -6.543   6.837 -32.394  1.00  0.00     0.060 C 
BRANCH  20  24
HETATM   24  C   UNL     1      -3.785   4.740 -34.076  1.00  0.00     0.273 C 
BRANCH  24  25
HETATM   25  C   UNL     1      -2.674   5.490 -33.400  1.00  0.00    -0.033 A 
HETATM   26  C   UNL     1      -2.328   6.784 -33.822  1.00  0.00     0.009 A 
HETATM   27  C   UNL     1      -1.277   7.466 -33.208  1.00  0.00     0.001 A 
HETATM   28  C   UNL     1      -0.563   6.866 -32.174  1.00  0.00     0.000 A 
HETATM   29  C   UNL     1      -0.900   5.587 -31.744  1.00  0.00     0.001 A 
HETATM   30  C   UNL     1      -1.953   4.900 -32.350  1.00  0.00     0.009 A 
ENDBRANCH  24  25
ENDBRANCH  20  24
ENDBRANCH  14  17
ENDBRANCH  13  14
ENDBRANCH   7  13
BRANCH   8  31
HETATM   31  O   UNL     1      -7.082   3.761 -29.046  1.00  0.00    -0.360 OA
HETATM   32  H   UNL     1      -6.298   3.900 -28.471  1.00  0.00     0.217 HD
ENDBRANCH   8  31
BRANCH   1  33
HETATM   33  C   UNL     1      -6.292  -1.581 -34.835  1.00  0.00     0.055 C 
BRANCH  33  34
HETATM   34  C   UNL     1      -6.972  -2.938 -34.642  1.00  0.00     0.116 C 
BRANCH  34  35
HETATM   35  C   UNL     1      -6.095  -4.094 -35.053  1.00  0.00     0.259 C 
HETATM   36  O   UNL     1      -6.503  -5.072 -35.670  1.00  0.00    -0.265 OA
BRANCH  35  37
HETATM   37  O   UNL     1      -4.814  -3.881 -34.657  1.00  0.00    -0.322 OA
BRANCH  37  38
HETATM   38  C   UNL     1      -4.131  -4.999 -34.069  1.00  0.00     0.174 C 
HETATM   39  C   UNL     1      -3.253  -4.527 -32.927  1.00  0.00     0.034 C 
ENDBRANCH  37  38
ENDBRANCH  35  37
ENDBRANCH  34  35
ENDBRANCH  33  34
ENDBRANCH   1  33
TORSDOF 11
ENDMDL
MODEL 9
REMARK VINA RESULT:      -8.1      3.870      6.793
REMARK  11 active torsions:
REMARK  status: ('A' for Active; 'I' for Inactive)
REMARK    1  A    between atoms: C_2  and  O_3 
REMARK    2  A    between atoms: O_3  and  C_4 
REMARK    3  A    between atoms: C_4  and  C_5 
REMARK    4  A    between atoms: C_5  and  C_6 
REMARK    5  A    between atoms: C_6  and  C_7 
REMARK    6  A    between atoms: C_13  and  C_14 
REMARK    7  A    between atoms: C_14  and  N_15 
REMARK    8  A    between atoms: N_15  and  C_18 
REMARK    9  A    between atoms: N_21  and  C_23 
REMARK   10  A    between atoms: C_23  and  C_24 
REMARK   11  A    between atoms: C_32  and  O_33 
ROOT
HETATM    1  C   UNL     1     -10.685   3.093 -33.242  1.00  0.00     0.025 A 
HETATM    2  C   UNL     1      -9.314   2.537 -33.069  1.00  0.00     0.295 A 
HETATM    3  O   UNL     1      -8.867   1.631 -33.761  1.00  0.00    -0.259 OA
HETATM    4  O   UNL     1      -8.544   3.052 -32.040  1.00  0.00    -0.274 OA
HETATM    5  C   UNL     1      -8.958   4.149 -31.271  1.00  0.00     0.101 A 
HETATM    6  C   UNL     1     -10.203   4.736 -31.494  1.00  0.00     0.005 A 
HETATM    7  C   UNL     1      -8.064   4.592 -30.283  1.00  0.00     0.035 A 
HETATM    8  C   UNL     1      -8.445   5.686 -29.504  1.00  0.00     0.076 A 
HETATM    9  C   UNL     1      -9.662   6.322 -29.711  1.00  0.00     0.038 A 
HETATM   10  C   UNL     1     -10.532   5.846 -30.701  1.00  0.00     0.017 A 
HETATM   11  C   UNL     1     -11.109   4.147 -32.507  1.00  0.00    -0.037 A 
HETATM   12  C   UNL     1     -12.487   4.759 -32.615  1.00  0.00     0.050 C 
ENDROOT
BRANCH   7  13
HETATM   13  C   UNL     1      -6.745   3.914 -30.054  1.00  0.00     0.276 C 
BRANCH  13  14
HETATM   14  N   UNL     1      -6.946   2.429 -29.846  1.00  0.00    -0.067 N 
HETATM   15  H   UNL     1      -7.392   2.414 -28.907  1.00  0.00     0.277 HD
HETATM   16  H   UNL     1      -7.694   2.146 -30.490  1.00  0.00     0.277 HD
BRANCH  14  17
HETATM   17  C   UNL     1      -5.715   1.574 -29.867  1.00  0.00     0.189 C 
HETATM   18  C   UNL     1      -4.728   2.002 -30.954  1.00  0.00     0.060 C 
HETATM   19  C   UNL     1      -5.170   1.652 -32.369  1.00  0.00     0.237 C 
HETATM   20  N   UNL     1      -5.513   0.186 -32.458  1.00  0.00    -0.067 N 
HETATM   21  H   UNL     1      -4.644  -0.351 -32.313  1.00  0.00     0.280 HD
HETATM   22  C   UNL     1      -6.538  -0.259 -31.453  1.00  0.00     0.237 C 
HETATM   23  C   UNL     1      -6.097   0.102 -30.040  1.00  0.00     0.060 C 
BRANCH  20  24
HETATM   24  C   UNL     1      -5.948  -0.221 -33.875  1.00  0.00     0.273 C 
BRANCH  24  25
HETATM   25  C   UNL     1      -5.788  -1.689 -34.147  1.00  0.00    -0.033 A 
HETATM   26  C   UNL     1      -4.534  -2.307 -34.009  1.00  0.00     0.009 A 
HETATM   27  C   UNL     1      -4.385  -3.665 -34.289  1.00  0.00     0.001 A 
HETATM   28  C   UNL     1      -5.480  -4.418 -34.710  1.00  0.00     0.000 A 
HETATM   29  C   UNL     1      -6.728  -3.817 -34.845  1.00  0.00     0.001 A 
HETATM   30  C   UNL     1      -6.885  -2.459 -34.563  1.00  0.00     0.009 A 
ENDBRANCH  24  25
ENDBRANCH  20  24
ENDBRANCH  14  17
ENDBRANCH  13  14
ENDBRANCH   7  13
BRANCH   8  31
HETATM   31  O   UNL     1      -7.606   6.087 -28.498  1.00  0.00    -0.360 OA
HETATM   32  H   UNL     1      -6.747   5.630 -28.634  1.00  0.00     0.217 HD
ENDBRANCH   8  31
BRANCH   1  33
HETATM   33  C   UNL     1     -11.498   2.356 -34.296  1.00  0.00     0.055 C 
BRANCH  33  34
HETATM   34  C   UNL     1     -12.236   1.115 -33.789  1.00  0.00     0.116 C 
BRANCH  34  35
HETATM   35  C   UNL     1     -13.735   1.247 -33.887  1.00  0.00     0.259 C 
HETATM   36  O   UNL     1     -14.378   0.972 -34.894  1.00  0.00    -0.265 OA
BRANCH  35  37
HETATM   37  O   UNL     1     -14.249   1.694 -32.713  1.00  0.00    -0.322 OA
BRANCH  37  38
HETATM   38  C   UNL     1     -15.654   1.987 -32.698  1.00  0.00     0.174 C 
HETATM   39  C   UNL     1     -15.899   3.320 -32.018  1.00  0.00     0.034 C 
ENDBRANCH  37  38
ENDBRANCH  35  37
ENDBRANCH  34  35
ENDBRANCH  33  34
ENDBRANCH   1  33
TORSDOF 11
ENDMDL
MODEL 10
REMARK VINA RESULT:      -8.0      2.437      7.766
REMARK  11 active torsions:
REMARK  status: ('A' for Active; 'I' for Inactive)
REMARK    1  A    between atoms: C_2  and  O_3 
REMARK    2  A    between atoms: O_3  and  C_4 
REMARK    3  A    between atoms: C_4  and  C_5 
REMARK    4  A    between atoms: C_5  and  C_6 
REMARK    5  A    between atoms: C_6  and  C_7 
REMARK    6  A    between atoms: C_13  and  C_14 
REMARK    7  A    between atoms: C_14  and  N_15 
REMARK    8  A    between atoms: N_15  and  C_18 
REMARK    9  A    between atoms: N_21  and  C_23 
REMARK   10  A    between atoms: C_23  and  C_24 
REMARK   11  A    between atoms: C_32  and  O_33 
ROOT
HETATM    1  C   UNL     1      -5.654   0.066 -33.284  1.00  0.00     0.025 A 
HETATM    2  C   UNL     1      -5.517   1.499 -32.903  1.00  0.00     0.295 A 
HETATM    3  O   UNL     1      -4.434   2.054 -32.767  1.00  0.00    -0.259 OA
HETATM    4  O   UNL     1      -6.680   2.204 -32.649  1.00  0.00    -0.274 OA
HETATM    5  C   UNL     1      -7.952   1.658 -32.874  1.00  0.00     0.101 A 
HETATM    6  C   UNL     1      -8.085   0.345 -33.324  1.00  0.00     0.005 A 
HETATM    7  C   UNL     1      -9.048   2.495 -32.609  1.00  0.00     0.035 A 
HETATM    8  C   UNL     1     -10.327   1.982 -32.828  1.00  0.00     0.076 A 
HETATM    9  C   UNL     1     -10.507   0.690 -33.306  1.00  0.00     0.038 A 
HETATM   10  C   UNL     1      -9.390  -0.119 -33.551  1.00  0.00     0.017 A 
HETATM   11  C   UNL     1      -6.871  -0.486 -33.500  1.00  0.00    -0.037 A 
HETATM   12  C   UNL     1      -7.093  -1.933 -33.876  1.00  0.00     0.050 C 
ENDROOT
BRANCH   7  13
HETATM   13  C   UNL     1      -8.863   3.893 -32.097  1.00  0.00     0.276 C 
BRANCH  13  14
HETATM   14  N   UNL     1      -8.128   3.876 -30.774  1.00  0.00    -0.067 N 
HETATM   15  H   UNL     1      -8.880   3.561 -30.129  1.00  0.00     0.277 HD
HETATM   16  H   UNL     1      -7.477   3.084 -30.816  1.00  0.00     0.277 HD
BRANCH  14  17
HETATM   17  C   UNL     1      -7.539   5.176 -30.316  1.00  0.00     0.189 C 
HETATM   18  C   UNL     1      -6.863   5.942 -31.453  1.00  0.00     0.060 C 
HETATM   19  C   UNL     1      -5.541   5.338 -31.911  1.00  0.00     0.237 C 
HETATM   20  N   UNL     1      -4.622   5.146 -30.730  1.00  0.00    -0.067 N 
HETATM   21  H   UNL     1      -4.374   6.080 -30.368  1.00  0.00     0.280 HD
HETATM   22  C   UNL     1      -5.224   4.332 -29.619  1.00  0.00     0.237 C 
HETATM   23  C   UNL     1      -6.551   4.933 -29.172  1.00  0.00     0.060 C 
BRANCH  20  24
HETATM   24  C   UNL     1      -3.264   4.555 -31.145  1.00  0.00     0.273 C 
BRANCH  24  25
HETATM   25  C   UNL     1      -2.539   5.390 -32.159  1.00  0.00    -0.033 A 
HETATM   26  C   UNL     1      -2.153   4.839 -33.392  1.00  0.00     0.009 A 
HETATM   27  C   UNL     1      -1.454   5.612 -34.320  1.00  0.00     0.001 A 
HETATM   28  C   UNL     1      -1.134   6.936 -34.029  1.00  0.00     0.000 A 
HETATM   29  C   UNL     1      -1.516   7.494 -32.813  1.00  0.00     0.001 A 
HETATM   30  C   UNL     1      -2.218   6.729 -31.882  1.00  0.00     0.009 A 
ENDBRANCH  24  25
ENDBRANCH  20  24
ENDBRANCH  14  17
ENDBRANCH  13  14
ENDBRANCH   7  13
BRANCH   8  31
HETATM   31  O   UNL     1     -11.402   2.770 -32.515  1.00  0.00    -0.360 OA
HETATM   32  H   UNL     1     -11.065   3.681 -32.370  1.00  0.00     0.217 HD
ENDBRANCH   8  31
BRANCH   1  33
HETATM   33  C   UNL     1      -4.318  -0.653 -33.389  1.00  0.00     0.055 C 
BRANCH  33  34
HETATM   34  C   UNL     1      -3.861  -1.357 -32.109  1.00  0.00     0.116 C 
BRANCH  34  35
HETATM   35  C   UNL     1      -3.405  -2.773 -32.353  1.00  0.00     0.259 C 
HETATM   36  O   UNL     1      -2.788  -3.441 -31.529  1.00  0.00    -0.265 OA
BRANCH  35  37
HETATM   37  O   UNL     1      -3.785  -3.187 -33.588  1.00  0.00    -0.322 OA
BRANCH  37  38
HETATM   38  C   UNL     1      -3.804  -4.606 -33.812  1.00  0.00     0.174 C 
HETATM   39  C   UNL     1      -5.093  -5.005 -34.501  1.00  0.00     0.034 C 
ENDBRANCH  37  38
ENDBRANCH  35  37
ENDBRANCH  34  35
ENDBRANCH  33  34
ENDBRANCH   1  33
TORSDOF 11
ENDMDL
