MODEL 1
REMARK VINA RESULT:      -8.6      0.000      0.000
REMARK  6 active torsions:
REMARK  status: ('A' for Active; 'I' for Inactive)
REMARK    1  A    between atoms: C_2  and  O_3 
REMARK    2  A    between atoms: C_2  and  C_4 
REMARK    3  A    between atoms: C_6  and  N_7 
REMARK       I    between atoms: N_7  and  C_8 
REMARK    4  A    between atoms: C_8  and  C_9 
REMARK    5  A    between atoms: C_12  and  C_13 
REMARK    6  A    between atoms: C_18  and  C_19 
ROOT
HETATM    1  C   UNL     1      -6.275   2.001 -31.657  1.00  0.00     0.096 A 
HETATM    2  C   UNL     1      -5.459   3.080 -31.371  1.00  0.00     0.138 A 
HETATM    3  N   UNL     1      -6.245   4.196 -31.531  1.00  0.00    -0.240 N 
HETATM    4  C   UNL     1      -5.820   5.558 -31.270  1.00  0.00     0.221 C 
HETATM    5  C   UNL     1      -4.478   5.570 -30.516  1.00  0.00     0.067 C 
HETATM    6  C   UNL     1      -3.483   4.489 -30.975  1.00  0.00     0.125 C 
HETATM    7  N   UNL     1      -4.156   3.179 -30.992  1.00  0.00    -0.365 N 
HETATM    8  N   UNL     1      -7.502   3.924 -31.911  1.00  0.00    -0.181 NA
HETATM    9  C   UNL     1      -7.506   2.592 -32.031  1.00  0.00     0.160 A 
HETATM   10  H   UNL     1      -3.514   2.428 -31.259  1.00  0.00     0.162 HD
ENDROOT
BRANCH   1  11
HETATM   11  C   UNL     1      -5.991   0.578 -31.582  1.00  0.00     0.261 C 
HETATM   12  N   UNL     1      -5.190   0.133 -32.617  1.00  0.00    -0.323 N 
HETATM   13  H   UNL     1      -4.849   0.857 -33.240  1.00  0.00     0.169 HD
HETATM   14  O   UNL     1      -6.397  -0.091 -30.640  1.00  0.00    -0.267 OA
BRANCH  12  15
HETATM   15  C   UNL     1      -4.669  -1.161 -32.812  1.00  0.00     0.035 A 
HETATM   16  C   UNL     1      -5.143  -2.057 -33.774  1.00  0.00     0.039 A 
HETATM   17  C   UNL     1      -4.594  -3.346 -33.898  1.00  0.00    -0.028 A 
HETATM   18  C   UNL     1      -3.563  -3.731 -33.027  1.00  0.00     0.010 A 
HETATM   19  C   UNL     1      -3.074  -2.839 -32.076  1.00  0.00     0.003 A 
HETATM   20  C   UNL     1      -3.621  -1.559 -31.974  1.00  0.00     0.029 A 
BRANCH  17  21
HETATM   21  C   UNL     1      -5.147  -4.305 -34.931  1.00  0.00     0.147 C 
HETATM   22  C   UNL     1      -6.662  -4.221 -35.036  1.00  0.00     0.044 C 
BRANCH  21  23
HETATM   23  O   UNL     1      -4.780  -5.646 -34.614  1.00  0.00    -0.391 OA
HETATM   24  H   UNL     1      -3.858  -5.618 -34.308  1.00  0.00     0.210 HD
ENDBRANCH  21  23
ENDBRANCH  17  21
ENDBRANCH  12  15
ENDBRANCH   1  11
BRANCH   4  25
HETATM   25  C   UNL     1      -5.820   6.373 -32.546  1.00  0.00     0.409 C 
HETATM   26  F   UNL     1      -5.651   5.639 -33.660  1.00  0.00    -0.169 F 
HETATM   27  F   UNL     1      -6.959   7.087 -32.697  1.00  0.00    -0.169 F 
HETATM   28  F   UNL     1      -4.811   7.284 -32.513  1.00  0.00    -0.169 F 
ENDBRANCH   4  25
BRANCH   6  29
HETATM   29  C   UNL     1      -2.736   4.836 -32.242  1.00  0.00     0.005 A 
HETATM   30  S   UNL     1      -1.614   6.142 -32.241  1.00  0.00    -0.104 SA
HETATM   31  C   UNL     1      -1.227   5.905 -33.887  1.00  0.00     0.050 A 
HETATM   32  C   UNL     1      -1.908   4.840 -34.430  1.00  0.00     0.008 A 
HETATM   33  C   UNL     1      -2.767   4.216 -33.479  1.00  0.00     0.017 A 
ENDBRANCH   6  29
TORSDOF 6
ENDMDL
MODEL 2
REMARK VINA RESULT:      -8.4      4.001      8.113
REMARK  6 active torsions:
REMARK  status: ('A' for Active; 'I' for Inactive)
REMARK    1  A    between atoms: C_2  and  O_3 
REMARK    2  A    between atoms: C_2  and  C_4 
REMARK    3  A    between atoms: C_6  and  N_7 
REMARK       I    between atoms: N_7  and  C_8 
REMARK    4  A    between atoms: C_8  and  C_9 
REMARK    5  A    between atoms: C_12  and  C_13 
REMARK    6  A    between atoms: C_18  and  C_19 
ROOT
HETATM    1  C   UNL     1      -4.949   3.189 -31.164  1.00  0.00     0.096 A 
HETATM    2  C   UNL     1      -5.738   2.712 -32.193  1.00  0.00     0.138 A 
HETATM    3  N   UNL     1      -6.996   2.564 -31.662  1.00  0.00    -0.240 N 
HETATM    4  C   UNL     1      -8.171   2.148 -32.405  1.00  0.00     0.221 C 
HETATM    5  C   UNL     1      -7.890   2.176 -33.918  1.00  0.00     0.067 C 
HETATM    6  C   UNL     1      -6.478   1.703 -34.310  1.00  0.00     0.125 C 
HETATM    7  N   UNL     1      -5.479   2.416 -33.497  1.00  0.00    -0.365 N 
HETATM    8  N   UNL     1      -7.080   2.895 -30.365  1.00  0.00    -0.181 NA
HETATM    9  C   UNL     1      -5.825   3.232 -30.053  1.00  0.00     0.160 A 
HETATM   10  H   UNL     1      -4.524   2.153 -33.754  1.00  0.00     0.162 HD
ENDROOT
BRANCH   1  11
HETATM   11  C   UNL     1      -3.552   3.590 -31.175  1.00  0.00     0.261 C 
HETATM   12  N   UNL     1      -3.380   4.951 -31.004  1.00  0.00    -0.323 N 
HETATM   13  H   UNL     1      -4.231   5.473 -30.821  1.00  0.00     0.169 HD
HETATM   14  O   UNL     1      -2.663   2.753 -31.267  1.00  0.00    -0.267 OA
BRANCH  12  15
HETATM   15  C   UNL     1      -2.170   5.663 -30.895  1.00  0.00     0.035 A 
HETATM   16  C   UNL     1      -1.866   6.530 -29.842  1.00  0.00     0.039 A 
HETATM   17  C   UNL     1      -0.648   7.232 -29.809  1.00  0.00    -0.028 A 
HETATM   18  C   UNL     1       0.263   7.060 -30.862  1.00  0.00     0.010 A 
HETATM   19  C   UNL     1      -0.025   6.186 -31.908  1.00  0.00     0.003 A 
HETATM   20  C   UNL     1      -1.233   5.487 -31.920  1.00  0.00     0.029 A 
BRANCH  17  21
HETATM   21  C   UNL     1      -0.357   8.185 -28.669  1.00  0.00     0.147 C 
HETATM   22  C   UNL     1       1.104   8.142 -28.247  1.00  0.00     0.044 C 
BRANCH  21  23
HETATM   23  O   UNL     1      -1.172   7.874 -27.540  1.00  0.00    -0.391 OA
HETATM   24  H   UNL     1      -0.793   8.352 -26.783  1.00  0.00     0.210 HD
ENDBRANCH  21  23
ENDBRANCH  17  21
ENDBRANCH  12  15
ENDBRANCH   1  11
BRANCH   4  25
HETATM   25  C   UNL     1      -8.684   0.818 -31.896  1.00  0.00     0.409 C 
HETATM   26  F   UNL     1      -7.716  -0.010 -31.465  1.00  0.00    -0.169 F 
HETATM   27  F   UNL     1      -9.572   0.965 -30.886  1.00  0.00    -0.169 F 
HETATM   28  F   UNL     1      -9.351   0.169 -32.887  1.00  0.00    -0.169 F 
ENDBRANCH   4  25
BRANCH   6  29
HETATM   29  C   UNL     1      -6.318   0.200 -34.342  1.00  0.00     0.005 A 
HETATM   30  S   UNL     1      -5.007  -0.536 -33.504  1.00  0.00    -0.104 SA
HETATM   31  C   UNL     1      -5.490  -2.104 -33.980  1.00  0.00     0.050 A 
HETATM   32  C   UNL     1      -6.639  -2.083 -34.736  1.00  0.00     0.008 A 
HETATM   33  C   UNL     1      -7.124  -0.757 -34.933  1.00  0.00     0.017 A 
ENDBRANCH   6  29
TORSDOF 6
ENDMDL
MODEL 3
REMARK VINA RESULT:      -8.4      4.142      5.650
REMARK  6 active torsions:
REMARK  status: ('A' for Active; 'I' for Inactive)
REMARK    1  A    between atoms: C_2  and  O_3 
REMARK    2  A    between atoms: C_2  and  C_4 
REMARK    3  A    between atoms: C_6  and  N_7 
REMARK       I    between atoms: N_7  and  C_8 
REMARK    4  A    between atoms: C_8  and  C_9 
REMARK    5  A    between atoms: C_12  and  C_13 
REMARK    6  A    between atoms: C_18  and  C_19 
ROOT
HETATM    1  C   UNL     1      -7.625   1.575 -31.547  1.00  0.00     0.096 A 
HETATM    2  C   UNL     1      -8.399   2.104 -32.563  1.00  0.00     0.138 A 
HETATM    3  N   UNL     1      -8.772   3.356 -32.136  1.00  0.00    -0.240 N 
HETATM    4  C   UNL     1      -9.542   4.306 -32.915  1.00  0.00     0.221 C 
HETATM    5  C   UNL     1      -9.637   3.850 -34.382  1.00  0.00     0.067 C 
HETATM    6  C   UNL     1      -9.809   2.331 -34.564  1.00  0.00     0.125 C 
HETATM    7  N   UNL     1      -8.785   1.624 -33.777  1.00  0.00    -0.365 N 
HETATM    8  N   UNL     1      -8.310   3.673 -30.917  1.00  0.00    -0.181 NA
HETATM    9  C   UNL     1      -7.651   2.572 -30.542  1.00  0.00     0.160 A 
HETATM   10  H   UNL     1      -8.846   0.610 -33.900  1.00  0.00     0.162 HD
ENDROOT
BRANCH   1  11
HETATM   11  C   UNL     1      -6.911   0.311 -31.487  1.00  0.00     0.261 C 
HETATM   12  N   UNL     1      -6.289  -0.014 -32.678  1.00  0.00    -0.323 N 
HETATM   13  H   UNL     1      -6.347   0.695 -33.401  1.00  0.00     0.169 HD
HETATM   14  O   UNL     1      -6.851  -0.323 -30.441  1.00  0.00    -0.267 OA
BRANCH  12  15
HETATM   15  C   UNL     1      -5.461  -1.121 -32.947  1.00  0.00     0.035 A 
HETATM   16  C   UNL     1      -5.778  -2.128 -33.863  1.00  0.00     0.039 A 
HETATM   17  C   UNL     1      -4.917  -3.222 -34.065  1.00  0.00    -0.028 A 
HETATM   18  C   UNL     1      -3.731  -3.299 -33.319  1.00  0.00     0.010 A 
HETATM   19  C   UNL     1      -3.400  -2.291 -32.416  1.00  0.00     0.003 A 
HETATM   20  C   UNL     1      -4.259  -1.206 -32.236  1.00  0.00     0.029 A 
BRANCH  17  21
HETATM   21  C   UNL     1      -5.300  -4.312 -35.044  1.00  0.00     0.147 C 
HETATM   22  C   UNL     1      -6.805  -4.388 -35.254  1.00  0.00     0.044 C 
BRANCH  21  23
HETATM   23  O   UNL     1      -4.834  -5.579 -34.587  1.00  0.00    -0.391 OA
HETATM   24  H   UNL     1      -3.872  -5.498 -34.471  1.00  0.00     0.210 HD
ENDBRANCH  21  23
ENDBRANCH  17  21
ENDBRANCH  12  15
ENDBRANCH   1  11
BRANCH   4  25
HETATM   25  C   UNL     1     -10.881   4.574 -32.263  1.00  0.00     0.409 C 
HETATM   26  F   UNL     1     -11.848   4.926 -33.130  1.00  0.00    -0.169 F 
HETATM   27  F   UNL     1     -11.332   3.508 -31.563  1.00  0.00    -0.169 F 
HETATM   28  F   UNL     1     -10.765   5.589 -31.365  1.00  0.00    -0.169 F 
ENDBRANCH   4  25
BRANCH   6  29
HETATM   29  C   UNL     1     -11.223   1.841 -34.355  1.00  0.00     0.005 A 
HETATM   30  S   UNL     1     -12.511   2.540 -35.257  1.00  0.00    -0.104 SA
HETATM   31  C   UNL     1     -13.674   1.532 -34.516  1.00  0.00     0.050 A 
HETATM   32  C   UNL     1     -13.103   0.657 -33.620  1.00  0.00     0.008 A 
HETATM   33  C   UNL     1     -11.690   0.826 -33.538  1.00  0.00     0.017 A 
ENDBRANCH   6  29
TORSDOF 6
ENDMDL
MODEL 4
REMARK VINA RESULT:      -8.4      1.247      1.927
REMARK  6 active torsions:
REMARK  status: ('A' for Active; 'I' for Inactive)
REMARK    1  A    between atoms: C_2  and  O_3 
REMARK    2  A    between atoms: C_2  and  C_4 
REMARK    3  A    between atoms: C_6  and  N_7 
REMARK       I    between atoms: N_7  and  C_8 
REMARK    4  A    between atoms: C_8  and  C_9 
REMARK    5  A    between atoms: C_12  and  C_13 
REMARK    6  A    between atoms: C_18  and  C_19 
ROOT
HETATM    1  C   UNL     1      -5.901   2.592 -31.402  1.00  0.00     0.096 A 
HETATM    2  C   UNL     1      -4.855   3.478 -31.225  1.00  0.00     0.138 A 
HETATM    3  N   UNL     1      -5.436   4.707 -31.028  1.00  0.00    -0.240 N 
HETATM    4  C   UNL     1      -4.716   5.931 -30.733  1.00  0.00     0.221 C 
HETATM    5  C   UNL     1      -3.249   5.623 -30.383  1.00  0.00     0.067 C 
HETATM    6  C   UNL     1      -2.618   4.499 -31.225  1.00  0.00     0.125 C 
HETATM    7  N   UNL     1      -3.503   3.322 -31.211  1.00  0.00    -0.365 N 
HETATM    8  N   UNL     1      -6.776   4.688 -31.076  1.00  0.00    -0.181 NA
HETATM    9  C   UNL     1      -7.055   3.409 -31.348  1.00  0.00     0.160 A 
HETATM   10  H   UNL     1      -3.099   2.540 -31.733  1.00  0.00     0.162 HD
ENDROOT
BRANCH   1  11
HETATM   11  C   UNL     1      -5.875   1.149 -31.579  1.00  0.00     0.261 C 
HETATM   12  N   UNL     1      -5.832   0.770 -32.908  1.00  0.00    -0.323 N 
HETATM   13  H   UNL     1      -5.749   1.533 -33.571  1.00  0.00     0.169 HD
HETATM   14  O   UNL     1      -5.833   0.402 -30.610  1.00  0.00    -0.267 OA
BRANCH  12  15
HETATM   15  C   UNL     1      -5.728  -0.533 -33.432  1.00  0.00     0.035 A 
HETATM   16  C   UNL     1      -4.697  -1.422 -33.116  1.00  0.00     0.039 A 
HETATM   17  C   UNL     1      -4.638  -2.702 -33.697  1.00  0.00    -0.028 A 
HETATM   18  C   UNL     1      -5.629  -3.075 -34.617  1.00  0.00     0.010 A 
HETATM   19  C   UNL     1      -6.669  -2.200 -34.927  1.00  0.00     0.003 A 
HETATM   20  C   UNL     1      -6.720  -0.939 -34.332  1.00  0.00     0.029 A 
BRANCH  17  21
HETATM   21  C   UNL     1      -3.495  -3.633 -33.355  1.00  0.00     0.147 C 
HETATM   22  C   UNL     1      -3.873  -5.095 -33.544  1.00  0.00     0.044 C 
BRANCH  21  23
HETATM   23  O   UNL     1      -3.078  -3.436 -32.006  1.00  0.00    -0.391 OA
HETATM   24  H   UNL     1      -2.320  -4.027 -31.859  1.00  0.00     0.210 HD
ENDBRANCH  21  23
ENDBRANCH  17  21
ENDBRANCH  12  15
ENDBRANCH   1  11
BRANCH   4  25
HETATM   25  C   UNL     1      -4.886   6.937 -31.852  1.00  0.00     0.409 C 
HETATM   26  F   UNL     1      -3.858   7.796 -31.972  1.00  0.00    -0.169 F 
HETATM   27  F   UNL     1      -5.060   6.340 -33.054  1.00  0.00    -0.169 F 
HETATM   28  F   UNL     1      -6.004   7.681 -31.640  1.00  0.00    -0.169 F 
ENDBRANCH   4  25
BRANCH   6  29
HETATM   29  C   UNL     1      -2.163   4.938 -32.597  1.00  0.00     0.005 A 
HETATM   30  S   UNL     1      -1.048   6.240 -32.751  1.00  0.00    -0.104 SA
HETATM   31  C   UNL     1      -1.036   6.123 -34.455  1.00  0.00     0.050 A 
HETATM   32  C   UNL     1      -1.837   5.100 -34.908  1.00  0.00     0.008 A 
HETATM   33  C   UNL     1      -2.475   4.408 -33.837  1.00  0.00     0.017 A 
ENDBRANCH   6  29
TORSDOF 6
ENDMDL
MODEL 5
REMARK VINA RESULT:      -8.2      2.113      3.546
REMARK  6 active torsions:
REMARK  status: ('A' for Active; 'I' for Inactive)
REMARK    1  A    between atoms: C_2  and  O_3 
REMARK    2  A    between atoms: C_2  and  C_4 
REMARK    3  A    between atoms: C_6  and  N_7 
REMARK       I    between atoms: N_7  and  C_8 
REMARK    4  A    between atoms: C_8  and  C_9 
REMARK    5  A    between atoms: C_12  and  C_13 
REMARK    6  A    between atoms: C_18  and  C_19 
ROOT
HETATM    1  C   UNL     1      -4.471   2.303 -32.346  1.00  0.00     0.096 A 
HETATM    2  C   UNL     1      -5.353   3.368 -32.352  1.00  0.00     0.138 A 
HETATM    3  N   UNL     1      -4.592   4.481 -32.613  1.00  0.00    -0.240 N 
HETATM    4  C   UNL     1      -5.113   5.825 -32.779  1.00  0.00     0.221 C 
HETATM    5  C   UNL     1      -6.646   5.797 -32.915  1.00  0.00     0.067 C 
HETATM    6  C   UNL     1      -7.344   4.768 -32.008  1.00  0.00     0.125 C 
HETATM    7  N   UNL     1      -6.700   3.455 -32.170  1.00  0.00    -0.365 N 
HETATM    8  N   UNL     1      -3.285   4.223 -32.763  1.00  0.00    -0.181 NA
HETATM    9  C   UNL     1      -3.207   2.904 -32.556  1.00  0.00     0.160 A 
HETATM   10  H   UNL     1      -7.160   2.735 -31.607  1.00  0.00     0.162 HD
ENDROOT
BRANCH   1  11
HETATM   11  C   UNL     1      -4.734   0.882 -32.190  1.00  0.00     0.261 C 
HETATM   12  N   UNL     1      -3.860   0.090 -32.912  1.00  0.00    -0.323 N 
HETATM   13  H   UNL     1      -3.117   0.591 -33.387  1.00  0.00     0.169 HD
HETATM   14  O   UNL     1      -5.613   0.488 -31.434  1.00  0.00    -0.267 OA
BRANCH  12  15
HETATM   15  C   UNL     1      -3.785  -1.316 -32.935  1.00  0.00     0.035 A 
HETATM   16  C   UNL     1      -4.430  -2.117 -33.881  1.00  0.00     0.039 A 
HETATM   17  C   UNL     1      -4.334  -3.520 -33.829  1.00  0.00    -0.028 A 
HETATM   18  C   UNL     1      -3.587  -4.111 -32.800  1.00  0.00     0.010 A 
HETATM   19  C   UNL     1      -2.927  -3.319 -31.862  1.00  0.00     0.003 A 
HETATM   20  C   UNL     1      -3.022  -1.929 -31.934  1.00  0.00     0.029 A 
BRANCH  17  21
HETATM   21  C   UNL     1      -5.066  -4.363 -34.851  1.00  0.00     0.147 C 
HETATM   22  C   UNL     1      -6.567  -4.111 -34.831  1.00  0.00     0.044 C 
BRANCH  21  23
HETATM   23  O   UNL     1      -4.829  -5.750 -34.616  1.00  0.00    -0.391 OA
HETATM   24  H   UNL     1      -3.946  -5.817 -34.213  1.00  0.00     0.210 HD
ENDBRANCH  21  23
ENDBRANCH  17  21
ENDBRANCH  12  15
ENDBRANCH   1  11
BRANCH   4  25
HETATM   25  C   UNL     1      -4.606   6.736 -31.681  1.00  0.00     0.409 C 
HETATM   26  F   UNL     1      -5.477   7.698 -31.328  1.00  0.00    -0.169 F 
HETATM   27  F   UNL     1      -4.278   6.053 -30.561  1.00  0.00    -0.169 F 
HETATM   28  F   UNL     1      -3.467   7.360 -32.085  1.00  0.00    -0.169 F 
ENDBRANCH   4  25
BRANCH   6  29
HETATM   29  C   UNL     1      -7.513   5.222 -30.576  1.00  0.00     0.005 A 
HETATM   30  S   UNL     1      -8.532   6.563 -30.220  1.00  0.00    -0.104 SA
HETATM   31  C   UNL     1      -8.222   6.445 -28.545  1.00  0.00     0.050 A 
HETATM   32  C   UNL     1      -7.385   5.394 -28.247  1.00  0.00     0.008 A 
HETATM   33  C   UNL     1      -6.989   4.681 -29.415  1.00  0.00     0.017 A 
ENDBRANCH   6  29
TORSDOF 6
ENDMDL
MODEL 6
REMARK VINA RESULT:      -8.1      4.010      8.194
REMARK  6 active torsions:
REMARK  status: ('A' for Active; 'I' for Inactive)
REMARK    1  A    between atoms: C_2  and  O_3 
REMARK    2  A    between atoms: C_2  and  C_4 
REMARK    3  A    between atoms: C_6  and  N_7 
REMARK       I    between atoms: N_7  and  C_8 
REMARK    4  A    between atoms: C_8  and  C_9 
REMARK    5  A    between atoms: C_12  and  C_13 
REMARK    6  A    between atoms: C_18  and  C_19 
ROOT
HETATM    1  C   UNL     1      -4.095   2.193 -31.957  1.00  0.00     0.096 A 
HETATM    2  C   UNL     1      -5.327   1.600 -31.750  1.00  0.00     0.138 A 
HETATM    3  N   UNL     1      -5.220   0.329 -32.261  1.00  0.00    -0.240 N 
HETATM    4  C   UNL     1      -6.258  -0.682 -32.201  1.00  0.00     0.221 C 
HETATM    5  C   UNL     1      -7.380  -0.248 -31.242  1.00  0.00     0.067 C 
HETATM    6  C   UNL     1      -7.719   1.252 -31.300  1.00  0.00     0.125 C 
HETATM    7  N   UNL     1      -6.480   2.039 -31.176  1.00  0.00    -0.365 N 
HETATM    8  N   UNL     1      -4.019   0.057 -32.793  1.00  0.00    -0.181 NA
HETATM    9  C   UNL     1      -3.352   1.207 -32.648  1.00  0.00     0.160 A 
HETATM   10  H   UNL     1      -6.669   3.045 -31.175  1.00  0.00     0.162 HD
ENDROOT
BRANCH   1  11
HETATM   11  C   UNL     1      -3.619   3.507 -31.556  1.00  0.00     0.261 C 
HETATM   12  N   UNL     1      -2.381   3.817 -32.088  1.00  0.00    -0.323 N 
HETATM   13  H   UNL     1      -2.008   3.133 -32.737  1.00  0.00     0.169 HD
HETATM   14  O   UNL     1      -4.317   4.240 -30.868  1.00  0.00    -0.267 OA
BRANCH  12  15
HETATM   15  C   UNL     1      -1.664   5.023 -31.963  1.00  0.00     0.035 A 
HETATM   16  C   UNL     1      -0.959   5.396 -30.816  1.00  0.00     0.039 A 
HETATM   17  C   UNL     1      -0.285   6.630 -30.748  1.00  0.00    -0.028 A 
HETATM   18  C   UNL     1      -0.340   7.494 -31.852  1.00  0.00     0.010 A 
HETATM   19  C   UNL     1      -1.028   7.122 -33.005  1.00  0.00     0.003 A 
HETATM   20  C   UNL     1      -1.681   5.890 -33.061  1.00  0.00     0.029 A 
BRANCH  17  21
HETATM   21  C   UNL     1       0.448   7.019 -29.483  1.00  0.00     0.147 C 
HETATM   22  C   UNL     1       0.495   5.879 -28.476  1.00  0.00     0.044 C 
BRANCH  21  23
HETATM   23  O   UNL     1      -0.175   8.147 -28.872  1.00  0.00    -0.391 OA
HETATM   24  H   UNL     1       0.533   8.663 -28.451  1.00  0.00     0.210 HD
ENDBRANCH  21  23
ENDBRANCH  17  21
ENDBRANCH  12  15
ENDBRANCH   1  11
BRANCH   4  25
HETATM   25  C   UNL     1      -6.737  -1.041 -33.592  1.00  0.00     0.409 C 
HETATM   26  F   UNL     1      -8.009  -1.477 -33.633  1.00  0.00    -0.169 F 
HETATM   27  F   UNL     1      -6.636  -0.001 -34.451  1.00  0.00    -0.169 F 
HETATM   28  F   UNL     1      -5.961  -2.030 -34.109  1.00  0.00    -0.169 F 
ENDBRANCH   4  25
BRANCH   6  29
HETATM   29  C   UNL     1      -8.606   1.640 -32.460  1.00  0.00     0.005 A 
HETATM   30  S   UNL     1      -8.189   2.993 -33.438  1.00  0.00    -0.104 SA
HETATM   31  C   UNL     1      -9.558   2.784 -34.437  1.00  0.00     0.050 A 
HETATM   32  C   UNL     1     -10.310   1.694 -34.062  1.00  0.00     0.008 A 
HETATM   33  C   UNL     1      -9.753   1.027 -32.932  1.00  0.00     0.017 A 
ENDBRANCH   6  29
TORSDOF 6
ENDMDL
MODEL 7
REMARK VINA RESULT:      -7.8      4.039      5.731
REMARK  6 active torsions:
REMARK  status: ('A' for Active; 'I' for Inactive)
REMARK    1  A    between atoms: C_2  and  O_3 
REMARK    2  A    between atoms: C_2  and  C_4 
REMARK    3  A    between atoms: C_6  and  N_7 
REMARK       I    between atoms: N_7  and  C_8 
REMARK    4  A    between atoms: C_8  and  C_9 
REMARK    5  A    between atoms: C_12  and  C_13 
REMARK    6  A    between atoms: C_18  and  C_19 
ROOT
HETATM    1  C   UNL     1      -3.753   4.089 -32.605  1.00  0.00     0.096 A 
HETATM    2  C   UNL     1      -2.983   5.237 -32.583  1.00  0.00     0.138 A 
HETATM    3  N   UNL     1      -1.895   4.941 -31.797  1.00  0.00    -0.240 N 
HETATM    4  C   UNL     1      -0.781   5.836 -31.547  1.00  0.00     0.221 C 
HETATM    5  C   UNL     1      -0.832   7.042 -32.503  1.00  0.00     0.067 C 
HETATM    6  C   UNL     1      -2.250   7.576 -32.774  1.00  0.00     0.125 C 
HETATM    7  N   UNL     1      -3.128   6.460 -33.163  1.00  0.00    -0.365 N 
HETATM    8  N   UNL     1      -1.907   3.696 -31.300  1.00  0.00    -0.181 NA
HETATM    9  C   UNL     1      -3.060   3.195 -31.755  1.00  0.00     0.160 A 
HETATM   10  H   UNL     1      -4.073   6.782 -33.387  1.00  0.00     0.162 HD
ENDROOT
BRANCH   1  11
HETATM   11  C   UNL     1      -4.979   3.809 -33.334  1.00  0.00     0.261 C 
HETATM   12  N   UNL     1      -5.490   2.552 -33.066  1.00  0.00    -0.323 N 
HETATM   13  H   UNL     1      -4.995   2.029 -32.352  1.00  0.00     0.169 HD
HETATM   14  O   UNL     1      -5.490   4.663 -34.047  1.00  0.00    -0.267 OA
BRANCH  12  15
HETATM   15  C   UNL     1      -6.690   1.988 -33.541  1.00  0.00     0.035 A 
HETATM   16  C   UNL     1      -7.955   2.313 -33.045  1.00  0.00     0.039 A 
HETATM   17  C   UNL     1      -9.113   1.690 -33.547  1.00  0.00    -0.028 A 
HETATM   18  C   UNL     1      -8.980   0.720 -34.552  1.00  0.00     0.010 A 
HETATM   19  C   UNL     1      -7.723   0.402 -35.063  1.00  0.00     0.003 A 
HETATM   20  C   UNL     1      -6.586   1.037 -34.563  1.00  0.00     0.029 A 
BRANCH  17  21
HETATM   21  C   UNL     1     -10.468   2.042 -32.972  1.00  0.00     0.147 C 
HETATM   22  C   UNL     1     -11.151   3.152 -33.759  1.00  0.00     0.044 C 
BRANCH  21  23
HETATM   23  O   UNL     1     -10.341   2.453 -31.612  1.00  0.00    -0.391 OA
HETATM   24  H   UNL     1     -11.122   2.995 -31.410  1.00  0.00     0.210 HD
ENDBRANCH  21  23
ENDBRANCH  17  21
ENDBRANCH  12  15
ENDBRANCH   1  11
BRANCH   4  25
HETATM   25  C   UNL     1      -0.713   6.210 -30.082  1.00  0.00     0.409 C 
HETATM   26  F   UNL     1      -0.079   5.302 -29.317  1.00  0.00    -0.169 F 
HETATM   27  F   UNL     1      -0.103   7.402 -29.887  1.00  0.00    -0.169 F 
HETATM   28  F   UNL     1      -1.969   6.347 -29.579  1.00  0.00    -0.169 F 
ENDBRANCH   4  25
BRANCH   6  29
HETATM   29  C   UNL     1      -2.795   8.463 -31.679  1.00  0.00     0.005 A 
HETATM   30  S   UNL     1      -4.372   8.174 -31.053  1.00  0.00    -0.104 SA
HETATM   31  C   UNL     1      -4.251   9.475 -29.953  1.00  0.00     0.050 A 
HETATM   32  C   UNL     1      -3.031  10.106 -30.031  1.00  0.00     0.008 A 
HETATM   33  C   UNL     1      -2.187   9.514 -31.016  1.00  0.00     0.017 A 
ENDBRANCH   6  29
TORSDOF 6
ENDMDL
MODEL 8
REMARK VINA RESULT:      -7.8      4.287      8.739
REMARK  6 active torsions:
REMARK  status: ('A' for Active; 'I' for Inactive)
REMARK    1  A    between atoms: C_2  and  O_3 
REMARK    2  A    between atoms: C_2  and  C_4 
REMARK    3  A    between atoms: C_6  and  N_7 
REMARK       I    between atoms: N_7  and  C_8 
REMARK    4  A    between atoms: C_8  and  C_9 
REMARK    5  A    between atoms: C_12  and  C_13 
REMARK    6  A    between atoms: C_18  and  C_19 
ROOT
HETATM    1  C   UNL     1      -4.218   3.198 -31.380  1.00  0.00     0.096 A 
HETATM    2  C   UNL     1      -5.214   2.242 -31.312  1.00  0.00     0.138 A 
HETATM    3  N   UNL     1      -4.687   1.112 -31.889  1.00  0.00    -0.240 N 
HETATM    4  C   UNL     1      -5.361  -0.169 -31.977  1.00  0.00     0.221 C 
HETATM    5  C   UNL     1      -6.619  -0.180 -31.090  1.00  0.00     0.067 C 
HETATM    6  C   UNL     1      -7.403   1.145 -31.084  1.00  0.00     0.125 C 
HETATM    7  N   UNL     1      -6.479   2.259 -30.810  1.00  0.00    -0.365 N 
HETATM    8  N   UNL     1      -3.432   1.265 -32.335  1.00  0.00    -0.181 NA
HETATM    9  C   UNL     1      -3.165   2.547 -32.065  1.00  0.00     0.160 A 
HETATM   10  H   UNL     1      -6.971   3.155 -30.764  1.00  0.00     0.162 HD
ENDROOT
BRANCH   1  11
HETATM   11  C   UNL     1      -4.198   4.556 -30.861  1.00  0.00     0.261 C 
HETATM   12  N   UNL     1      -2.958   5.157 -30.971  1.00  0.00    -0.323 N 
HETATM   13  H   UNL     1      -2.256   4.610 -31.459  1.00  0.00     0.169 HD
HETATM   14  O   UNL     1      -5.223   5.079 -30.442  1.00  0.00    -0.267 OA
BRANCH  12  15
HETATM   15  C   UNL     1      -2.605   6.479 -30.636  1.00  0.00     0.035 A 
HETATM   16  C   UNL     1      -1.745   6.815 -29.586  1.00  0.00     0.039 A 
HETATM   17  C   UNL     1      -1.456   8.158 -29.288  1.00  0.00    -0.028 A 
HETATM   18  C   UNL     1      -2.055   9.168 -30.056  1.00  0.00     0.010 A 
HETATM   19  C   UNL     1      -2.901   8.841 -31.114  1.00  0.00     0.003 A 
HETATM   20  C   UNL     1      -3.168   7.503 -31.405  1.00  0.00     0.029 A 
BRANCH  17  21
HETATM   21  C   UNL     1      -0.542   8.493 -28.128  1.00  0.00     0.147 C 
HETATM   22  C   UNL     1       0.898   8.085 -28.400  1.00  0.00     0.044 C 
BRANCH  21  23
HETATM   23  O   UNL     1      -0.989   7.844 -26.939  1.00  0.00    -0.391 OA
HETATM   24  H   UNL     1      -1.358   8.537 -26.365  1.00  0.00     0.210 HD
ENDBRANCH  21  23
ENDBRANCH  17  21
ENDBRANCH  12  15
ENDBRANCH   1  11
BRANCH   4  25
HETATM   25  C   UNL     1      -5.621  -0.540 -33.422  1.00  0.00     0.409 C 
HETATM   26  F   UNL     1      -5.877   0.516 -34.216  1.00  0.00    -0.169 F 
HETATM   27  F   UNL     1      -4.589  -1.220 -33.969  1.00  0.00    -0.169 F 
HETATM   28  F   UNL     1      -6.697  -1.367 -33.502  1.00  0.00    -0.169 F 
ENDBRANCH   4  25
BRANCH   6  29
HETATM   29  C   UNL     1      -8.295   1.339 -32.288  1.00  0.00     0.005 A 
HETATM   30  S   UNL     1      -9.525   0.186 -32.634  1.00  0.00    -0.104 SA
HETATM   31  C   UNL     1     -10.044   1.047 -34.014  1.00  0.00     0.050 A 
HETATM   32  C   UNL     1      -9.324   2.204 -34.202  1.00  0.00     0.008 A 
HETATM   33  C   UNL     1      -8.326   2.380 -33.200  1.00  0.00     0.017 A 
ENDBRANCH   6  29
TORSDOF 6
ENDMDL
MODEL 9
REMARK VINA RESULT:      -7.7      3.902      5.232
REMARK  6 active torsions:
REMARK  status: ('A' for Active; 'I' for Inactive)
REMARK    1  A    between atoms: C_2  and  O_3 
REMARK    2  A    between atoms: C_2  and  C_4 
REMARK    3  A    between atoms: C_6  and  N_7 
REMARK       I    between atoms: N_7  and  C_8 
REMARK    4  A    between atoms: C_8  and  C_9 
REMARK    5  A    between atoms: C_12  and  C_13 
REMARK    6  A    between atoms: C_18  and  C_19 
ROOT
HETATM    1  C   UNL     1      -9.652   1.432 -33.037  1.00  0.00     0.096 A 
HETATM    2  C   UNL     1     -10.243   2.406 -32.255  1.00  0.00     0.138 A 
HETATM    3  N   UNL     1     -11.292   2.895 -32.995  1.00  0.00    -0.240 N 
HETATM    4  C   UNL     1     -12.239   3.894 -32.539  1.00  0.00     0.221 C 
HETATM    5  C   UNL     1     -12.094   4.123 -31.023  1.00  0.00     0.067 C 
HETATM    6  C   UNL     1     -10.642   4.096 -30.514  1.00  0.00     0.125 C 
HETATM    7  N   UNL     1      -9.972   2.882 -31.008  1.00  0.00    -0.365 N 
HETATM    8  N   UNL     1     -11.419   2.321 -34.201  1.00  0.00    -0.181 NA
HETATM    9  C   UNL     1     -10.394   1.464 -34.242  1.00  0.00     0.160 A 
HETATM   10  H   UNL     1      -9.012   2.811 -30.660  1.00  0.00     0.162 HD
ENDROOT
BRANCH   1  11
HETATM   11  C   UNL     1      -8.546   0.540 -32.731  1.00  0.00     0.261 C 
HETATM   12  N   UNL     1      -7.801   0.203 -33.845  1.00  0.00    -0.323 N 
HETATM   13  H   UNL     1      -8.072   0.672 -34.703  1.00  0.00     0.169 HD
HETATM   14  O   UNL     1      -8.314   0.208 -31.575  1.00  0.00    -0.267 OA
BRANCH  12  15
HETATM   15  C   UNL     1      -6.629  -0.578 -33.898  1.00  0.00     0.035 A 
HETATM   16  C   UNL     1      -6.577  -1.872 -34.423  1.00  0.00     0.039 A 
HETATM   17  C   UNL     1      -5.377  -2.607 -34.420  1.00  0.00    -0.028 A 
HETATM   18  C   UNL     1      -4.226  -2.025 -33.868  1.00  0.00     0.010 A 
HETATM   19  C   UNL     1      -4.267  -0.730 -33.357  1.00  0.00     0.003 A 
HETATM   20  C   UNL     1      -5.461  -0.009 -33.378  1.00  0.00     0.029 A 
BRANCH  17  21
HETATM   21  C   UNL     1      -5.357  -4.017 -34.971  1.00  0.00     0.147 C 
HETATM   22  C   UNL     1      -6.759  -4.554 -35.218  1.00  0.00     0.044 C 
BRANCH  21  23
HETATM   23  O   UNL     1      -4.679  -4.893 -34.073  1.00  0.00    -0.391 OA
HETATM   24  H   UNL     1      -4.948  -4.634 -33.175  1.00  0.00     0.210 HD
ENDBRANCH  21  23
ENDBRANCH  17  21
ENDBRANCH  12  15
ENDBRANCH   1  11
BRANCH   4  25
HETATM   25  C   UNL     1     -12.128   5.156 -33.368  1.00  0.00     0.409 C 
HETATM   26  F   UNL     1     -10.875   5.434 -33.771  1.00  0.00    -0.169 F 
HETATM   27  F   UNL     1     -12.910   5.114 -34.471  1.00  0.00    -0.169 F 
HETATM   28  F   UNL     1     -12.560   6.224 -32.646  1.00  0.00    -0.169 F 
ENDBRANCH   4  25
BRANCH   6  29
HETATM   29  C   UNL     1      -9.883   5.382 -30.747  1.00  0.00     0.005 A 
HETATM   30  S   UNL     1      -8.335   5.335 -31.496  1.00  0.00    -0.104 SA
HETATM   31  C   UNL     1      -8.163   7.032 -31.411  1.00  0.00     0.050 A 
HETATM   32  C   UNL     1      -9.266   7.636 -30.852  1.00  0.00     0.008 A 
HETATM   33  C   UNL     1     -10.263   6.687 -30.483  1.00  0.00     0.017 A 
ENDBRANCH   6  29
TORSDOF 6
ENDMDL
MODEL 10
REMARK VINA RESULT:      -7.6      1.931      2.619
REMARK  6 active torsions:
REMARK  status: ('A' for Active; 'I' for Inactive)
REMARK    1  A    between atoms: C_2  and  O_3 
REMARK    2  A    between atoms: C_2  and  C_4 
REMARK    3  A    between atoms: C_6  and  N_7 
REMARK       I    between atoms: N_7  and  C_8 
REMARK    4  A    between atoms: C_8  and  C_9 
REMARK    5  A    between atoms: C_12  and  C_13 
REMARK    6  A    between atoms: C_18  and  C_19 
ROOT
HETATM    1  C   UNL     1      -8.079   1.663 -33.221  1.00  0.00     0.096 A 
HETATM    2  C   UNL     1      -7.886   2.606 -32.228  1.00  0.00     0.138 A 
HETATM    3  N   UNL     1      -8.597   3.714 -32.621  1.00  0.00    -0.240 N 
HETATM    4  C   UNL     1      -8.736   4.932 -31.846  1.00  0.00     0.221 C 
HETATM    5  C   UNL     1      -8.232   4.717 -30.407  1.00  0.00     0.067 C 
HETATM    6  C   UNL     1      -6.977   3.832 -30.301  1.00  0.00     0.125 C 
HETATM    7  N   UNL     1      -7.188   2.588 -31.059  1.00  0.00    -0.365 N 
HETATM    8  N   UNL     1      -9.224   3.567 -33.797  1.00  0.00    -0.181 NA
HETATM    9  C   UNL     1      -8.872   2.336 -34.181  1.00  0.00     0.160 A 
HETATM   10  H   UNL     1      -6.386   1.957 -30.983  1.00  0.00     0.162 HD
ENDROOT
BRANCH   1  11
HETATM   11  C   UNL     1      -7.620   0.286 -33.295  1.00  0.00     0.261 C 
HETATM   12  N   UNL     1      -6.246   0.182 -33.407  1.00  0.00    -0.323 N 
HETATM   13  H   UNL     1      -5.741   1.059 -33.348  1.00  0.00     0.169 HD
HETATM   14  O   UNL     1      -8.413  -0.642 -33.199  1.00  0.00    -0.267 OA
BRANCH  12  15
HETATM   15  C   UNL     1      -5.467  -0.992 -33.431  1.00  0.00     0.035 A 
HETATM   16  C   UNL     1      -5.728  -2.085 -34.262  1.00  0.00     0.039 A 
HETATM   17  C   UNL     1      -4.924  -3.238 -34.216  1.00  0.00    -0.028 A 
HETATM   18  C   UNL     1      -3.856  -3.285 -33.308  1.00  0.00     0.010 A 
HETATM   19  C   UNL     1      -3.580  -2.194 -32.487  1.00  0.00     0.003 A 
HETATM   20  C   UNL     1      -4.379  -1.051 -32.554  1.00  0.00     0.029 A 
BRANCH  17  21
HETATM   21  C   UNL     1      -5.247  -4.418 -35.109  1.00  0.00     0.147 C 
HETATM   22  C   UNL     1      -6.738  -4.531 -35.389  1.00  0.00     0.044 C 
BRANCH  21  23
HETATM   23  O   UNL     1      -4.796  -5.632 -34.513  1.00  0.00    -0.391 OA
HETATM   24  H   UNL     1      -3.989  -5.416 -34.016  1.00  0.00     0.210 HD
ENDBRANCH  21  23
ENDBRANCH  17  21
ENDBRANCH  12  15
ENDBRANCH   1  11
BRANCH   4  25
HETATM   25  C   UNL     1      -8.088   6.099 -32.560  1.00  0.00     0.409 C 
HETATM   26  F   UNL     1      -7.586   7.033 -31.731  1.00  0.00    -0.169 F 
HETATM   27  F   UNL     1      -7.089   5.705 -33.381  1.00  0.00    -0.169 F 
HETATM   28  F   UNL     1      -9.000   6.721 -33.353  1.00  0.00    -0.169 F 
ENDBRANCH   4  25
BRANCH   6  29
HETATM   29  C   UNL     1      -5.685   4.554 -30.609  1.00  0.00     0.005 A 
HETATM   30  S   UNL     1      -5.205   5.895 -29.644  1.00  0.00    -0.104 SA
HETATM   31  C   UNL     1      -3.775   6.126 -30.548  1.00  0.00     0.050 A 
HETATM   32  C   UNL     1      -3.640   5.190 -31.548  1.00  0.00     0.008 A 
HETATM   33  C   UNL     1      -4.733   4.276 -31.575  1.00  0.00     0.017 A 
ENDBRANCH   6  29
TORSDOF 6
ENDMDL
