MODEL 1
REMARK VINA RESULT:      -9.2      0.000      0.000
REMARK  7 active torsions:
REMARK  status: ('A' for Active; 'I' for Inactive)
REMARK    1  A    between atoms: O_2  and  C_3 
REMARK    2  A    between atoms: N_7  and  C_9 
REMARK    3  A    between atoms: C_9  and  C_10 
REMARK    4  A    between atoms: C_11  and  O_12 
REMARK    5  A    between atoms: C_22  and  N_23 
REMARK       I    between atoms: N_23  and  C_24 
REMARK    6  A    between atoms: C_24  and  C_25 
REMARK    7  A    between atoms: C_25  and  C_26 
ROOT
HETATM    1  C   UNL     1      -5.474   2.547 -31.302  1.00  0.00     0.161 C 
HETATM    2  C   UNL     1      -6.123   1.457 -32.245  1.00  0.00     0.019 C 
HETATM    3  C   UNL     1      -6.240   1.994 -33.692  1.00  0.00     0.045 C 
HETATM    4  C   UNL     1      -7.377   3.001 -33.856  1.00  0.00     0.236 C 
HETATM    5  N   UNL     1      -8.674   2.434 -33.347  1.00  0.00    -0.067 N 
HETATM    6  H   UNL     1      -9.365   3.204 -33.369  1.00  0.00     0.280 HD
HETATM    7  C   UNL     1      -8.580   2.014 -31.904  1.00  0.00     0.236 C 
HETATM    8  C   UNL     1      -7.499   0.957 -31.750  1.00  0.00     0.045 C 
HETATM    9  C   UNL     1      -5.103   0.339 -32.193  1.00  0.00    -0.038 A 
HETATM   10  C   UNL     1      -3.927   0.738 -31.556  1.00  0.00    -0.026 A 
HETATM   11  C   UNL     1      -3.960   2.180 -31.142  1.00  0.00     0.148 C 
HETATM   12  C   UNL     1      -5.218  -0.951 -32.704  1.00  0.00     0.009 A 
HETATM   13  C   UNL     1      -4.149  -1.838 -32.554  1.00  0.00     0.001 A 
HETATM   14  C   UNL     1      -2.978  -1.437 -31.902  1.00  0.00     0.001 A 
HETATM   15  C   UNL     1      -2.860  -0.141 -31.401  1.00  0.00     0.010 A 
ENDROOT
BRANCH   1  16
HETATM   16  O   UNL     1      -6.166   2.554 -30.038  1.00  0.00    -0.387 OA
HETATM   17  C   UNL     1      -6.511   3.865 -29.592  1.00  0.00     0.202 C 
ENDBRANCH   1  16
BRANCH  11  18
HETATM   18  N   UNL     1      -3.059   2.949 -31.981  1.00  0.00    -0.350 N 
HETATM   19  C   UNL     1      -2.824   4.289 -31.761  1.00  0.00     0.223 C 
HETATM   20  O   UNL     1      -3.534   4.971 -31.025  1.00  0.00    -0.273 OA
HETATM   21  H   UNL     1      -2.377   2.431 -32.524  1.00  0.00     0.163 HD
BRANCH  19  22
HETATM   22  C   UNL     1      -1.629   4.850 -32.511  1.00  0.00     0.148 C 
BRANCH  22  23
HETATM   23  C   UNL     1      -0.748   5.639 -31.595  1.00  0.00    -0.009 A 
HETATM   24  S   UNL     1      -0.038   4.903 -30.217  1.00  0.00    -0.106 SA
HETATM   25  C   UNL     1       0.670   6.375 -29.715  1.00  0.00     0.050 A 
HETATM   26  C   UNL     1       0.380   7.408 -30.579  1.00  0.00     0.008 A 
HETATM   27  C   UNL     1      -0.434   6.982 -31.666  1.00  0.00     0.015 A 
ENDBRANCH  22  23
ENDBRANCH  19  22
ENDBRANCH  11  18
BRANCH   5  28
HETATM   28  C   UNL     1      -9.318   1.396 -34.242  1.00  0.00     0.276 C 
BRANCH  28  29
HETATM   29  C   UNL     1     -10.811   1.545 -34.354  1.00  0.00     0.002 A 
HETATM   30  C   UNL     1     -11.375   2.686 -34.937  1.00  0.00     0.073 A 
HETATM   31  C   UNL     1     -12.755   2.853 -35.019  1.00  0.00     0.039 A 
HETATM   32  C   UNL     1     -13.596   1.856 -34.521  1.00  0.00     0.026 A 
HETATM   33  C   UNL     1     -13.051   0.710 -33.947  1.00  0.00     0.034 A 
HETATM   34 CL   UNL     1     -14.087  -0.524 -33.348  1.00  0.00    -0.084 Cl
HETATM   35  C   UNL     1     -11.667   0.551 -33.856  1.00  0.00     0.035 A 
BRANCH  30  36
HETATM   36  O   UNL     1     -10.527   3.628 -35.453  1.00  0.00    -0.360 OA
HETATM   37  H   UNL     1     -10.849   4.510 -35.174  1.00  0.00     0.217 HD
ENDBRANCH  30  36
ENDBRANCH  28  29
ENDBRANCH   5  28
TORSDOF 7
ENDMDL
MODEL 2
REMARK VINA RESULT:      -9.0      2.076      2.560
REMARK  7 active torsions:
REMARK  status: ('A' for Active; 'I' for Inactive)
REMARK    1  A    between atoms: O_2  and  C_3 
REMARK    2  A    between atoms: N_7  and  C_9 
REMARK    3  A    between atoms: C_9  and  C_10 
REMARK    4  A    between atoms: C_11  and  O_12 
REMARK    5  A    between atoms: C_22  and  N_23 
REMARK       I    between atoms: N_23  and  C_24 
REMARK    6  A    between atoms: C_24  and  C_25 
REMARK    7  A    between atoms: C_25  and  C_26 
ROOT
HETATM    1  C   UNL     1      -6.551   1.700 -31.773  1.00  0.00     0.161 C 
HETATM    2  C   UNL     1      -7.529   0.959 -32.769  1.00  0.00     0.019 C 
HETATM    3  C   UNL     1      -7.951   1.907 -33.918  1.00  0.00     0.045 C 
HETATM    4  C   UNL     1      -8.979   2.947 -33.476  1.00  0.00     0.236 C 
HETATM    5  N   UNL     1     -10.158   2.289 -32.811  1.00  0.00    -0.067 N 
HETATM    6  H   UNL     1     -10.746   3.049 -32.427  1.00  0.00     0.280 HD
HETATM    7  C   UNL     1      -9.747   1.455 -31.628  1.00  0.00     0.236 C 
HETATM    8  C   UNL     1      -8.781   0.371 -32.077  1.00  0.00     0.045 C 
HETATM    9  C   UNL     1      -6.654  -0.150 -33.313  1.00  0.00    -0.038 A 
HETATM   10  C   UNL     1      -5.319   0.009 -32.937  1.00  0.00    -0.026 A 
HETATM   11  C   UNL     1      -5.094   1.262 -32.142  1.00  0.00     0.148 C 
HETATM   12  C   UNL     1      -7.031  -1.225 -34.114  1.00  0.00     0.009 A 
HETATM   13  C   UNL     1      -6.060  -2.145 -34.517  1.00  0.00     0.001 A 
HETATM   14  C   UNL     1      -4.726  -1.988 -34.124  1.00  0.00     0.001 A 
HETATM   15  C   UNL     1      -4.348  -0.905 -33.332  1.00  0.00     0.010 A 
ENDROOT
BRANCH   1  16
HETATM   16  O   UNL     1      -6.895   1.348 -30.419  1.00  0.00    -0.387 OA
HETATM   17  C   UNL     1      -5.777   0.903 -29.651  1.00  0.00     0.202 C 
ENDBRANCH   1  16
BRANCH  11  18
HETATM   18  N   UNL     1      -4.358   2.221 -32.945  1.00  0.00    -0.350 N 
HETATM   19  C   UNL     1      -3.522   3.158 -32.376  1.00  0.00     0.223 C 
HETATM   20  O   UNL     1      -3.536   3.411 -31.173  1.00  0.00    -0.273 OA
HETATM   21  H   UNL     1      -4.223   1.999 -33.925  1.00  0.00     0.163 HD
BRANCH  19  22
HETATM   22  C   UNL     1      -2.596   3.855 -33.358  1.00  0.00     0.148 C 
BRANCH  22  23
HETATM   23  C   UNL     1      -2.013   5.094 -32.753  1.00  0.00    -0.009 A 
HETATM   24  S   UNL     1      -2.858   6.585 -32.833  1.00  0.00    -0.106 SA
HETATM   25  C   UNL     1      -1.582   7.422 -32.063  1.00  0.00     0.050 A 
HETATM   26  C   UNL     1      -0.534   6.587 -31.744  1.00  0.00     0.008 A 
HETATM   27  C   UNL     1      -0.786   5.242 -32.139  1.00  0.00     0.015 A 
ENDBRANCH  22  23
ENDBRANCH  19  22
ENDBRANCH  11  18
BRANCH   5  28
HETATM   28  C   UNL     1     -11.114   1.583 -33.750  1.00  0.00     0.276 C 
BRANCH  28  29
HETATM   29  C   UNL     1     -12.561   1.780 -33.391  1.00  0.00     0.002 A 
HETATM   30  C   UNL     1     -13.507   0.783 -33.657  1.00  0.00     0.073 A 
HETATM   31  C   UNL     1     -14.856   0.964 -33.359  1.00  0.00     0.039 A 
HETATM   32  C   UNL     1     -15.273   2.159 -32.771  1.00  0.00     0.026 A 
HETATM   33  C   UNL     1     -14.343   3.157 -32.491  1.00  0.00     0.034 A 
HETATM   34 CL   UNL     1     -14.854   4.623 -31.752  1.00  0.00    -0.084 Cl
HETATM   35  C   UNL     1     -12.994   2.977 -32.801  1.00  0.00     0.035 A 
BRANCH  30  36
HETATM   36  O   UNL     1     -13.064  -0.394 -34.196  1.00  0.00    -0.360 OA
HETATM   37  H   UNL     1     -12.545  -0.864 -33.512  1.00  0.00     0.217 HD
ENDBRANCH  30  36
ENDBRANCH  28  29
ENDBRANCH   5  28
TORSDOF 7
ENDMDL
MODEL 3
REMARK VINA RESULT:      -8.9      2.820      5.287
REMARK  7 active torsions:
REMARK  status: ('A' for Active; 'I' for Inactive)
REMARK    1  A    between atoms: O_2  and  C_3 
REMARK    2  A    between atoms: N_7  and  C_9 
REMARK    3  A    between atoms: C_9  and  C_10 
REMARK    4  A    between atoms: C_11  and  O_12 
REMARK    5  A    between atoms: C_22  and  N_23 
REMARK       I    between atoms: N_23  and  C_24 
REMARK    6  A    between atoms: C_24  and  C_25 
REMARK    7  A    between atoms: C_25  and  C_26 
ROOT
HETATM    1  C   UNL     1      -2.800   4.769 -32.156  1.00  0.00     0.161 C 
HETATM    2  C   UNL     1      -4.274   5.202 -31.782  1.00  0.00     0.019 C 
HETATM    3  C   UNL     1      -4.758   4.442 -30.524  1.00  0.00     0.045 C 
HETATM    4  C   UNL     1      -5.120   2.987 -30.817  1.00  0.00     0.236 C 
HETATM    5  N   UNL     1      -6.099   2.896 -31.956  1.00  0.00    -0.067 N 
HETATM    6  H   UNL     1      -6.200   1.892 -32.182  1.00  0.00     0.280 HD
HETATM    7  C   UNL     1      -5.573   3.545 -33.208  1.00  0.00     0.236 C 
HETATM    8  C   UNL     1      -5.281   5.012 -32.940  1.00  0.00     0.045 C 
HETATM    9  C   UNL     1      -4.105   6.672 -31.462  1.00  0.00    -0.038 A 
HETATM   10  C   UNL     1      -2.760   7.039 -31.394  1.00  0.00    -0.026 A 
HETATM   11  C   UNL     1      -1.838   5.873 -31.601  1.00  0.00     0.148 C 
HETATM   12  C   UNL     1      -5.100   7.617 -31.226  1.00  0.00     0.009 A 
HETATM   13  C   UNL     1      -4.731   8.934 -30.940  1.00  0.00     0.001 A 
HETATM   14  C   UNL     1      -3.381   9.298 -30.887  1.00  0.00     0.001 A 
HETATM   15  C   UNL     1      -2.386   8.348 -31.112  1.00  0.00     0.010 A 
ENDROOT
BRANCH   1  16
HETATM   16  O   UNL     1      -2.694   4.629 -33.586  1.00  0.00    -0.387 OA
HETATM   17  C   UNL     1      -1.490   5.181 -34.118  1.00  0.00     0.202 C 
ENDBRANCH   1  16
BRANCH  11  18
HETATM   18  N   UNL     1      -1.190   5.536 -30.346  1.00  0.00    -0.350 N 
HETATM   19  C   UNL     1       0.129   5.139 -30.290  1.00  0.00     0.223 C 
HETATM   20  O   UNL     1       0.759   4.802 -31.290  1.00  0.00    -0.273 OA
HETATM   21  H   UNL     1      -1.614   5.891 -29.496  1.00  0.00     0.163 HD
BRANCH  19  22
HETATM   22  C   UNL     1       0.729   5.142 -28.895  1.00  0.00     0.148 C 
BRANCH  22  23
HETATM   23  C   UNL     1       0.463   6.442 -28.204  1.00  0.00    -0.009 A 
HETATM   24  S   UNL     1      -0.450   6.489 -26.752  1.00  0.00    -0.106 SA
HETATM   25  C   UNL     1      -0.373   8.195 -26.682  1.00  0.00     0.050 A 
HETATM   26  C   UNL     1       0.338   8.723 -27.737  1.00  0.00     0.008 A 
HETATM   27  C   UNL     1       0.824   7.711 -28.613  1.00  0.00     0.015 A 
ENDBRANCH  22  23
ENDBRANCH  19  22
ENDBRANCH  11  18
BRANCH   5  28
HETATM   28  C   UNL     1      -7.520   3.296 -31.616  1.00  0.00     0.276 C 
BRANCH  28  29
HETATM   29  C   UNL     1      -8.557   2.385 -32.213  1.00  0.00     0.002 A 
HETATM   30  C   UNL     1      -8.632   1.039 -31.833  1.00  0.00     0.073 A 
HETATM   31  C   UNL     1      -9.566   0.175 -32.401  1.00  0.00     0.039 A 
HETATM   32  C   UNL     1     -10.456   0.663 -33.360  1.00  0.00     0.026 A 
HETATM   33  C   UNL     1     -10.401   2.001 -33.740  1.00  0.00     0.034 A 
HETATM   34 CL   UNL     1     -11.508   2.606 -34.909  1.00  0.00    -0.084 Cl
HETATM   35  C   UNL     1      -9.457   2.862 -33.178  1.00  0.00     0.035 A 
BRANCH  30  36
HETATM   36  O   UNL     1      -7.774   0.597 -30.863  1.00  0.00    -0.360 OA
HETATM   37  H   UNL     1      -7.495   1.371 -30.332  1.00  0.00     0.217 HD
ENDBRANCH  30  36
ENDBRANCH  28  29
ENDBRANCH   5  28
TORSDOF 7
ENDMDL
MODEL 4
REMARK VINA RESULT:      -8.9      1.188      1.410
REMARK  7 active torsions:
REMARK  status: ('A' for Active; 'I' for Inactive)
REMARK    1  A    between atoms: O_2  and  C_3 
REMARK    2  A    between atoms: N_7  and  C_9 
REMARK    3  A    between atoms: C_9  and  C_10 
REMARK    4  A    between atoms: C_11  and  O_12 
REMARK    5  A    between atoms: C_22  and  N_23 
REMARK       I    between atoms: N_23  and  C_24 
REMARK    6  A    between atoms: C_24  and  C_25 
REMARK    7  A    between atoms: C_25  and  C_26 
ROOT
HETATM    1  C   UNL     1      -6.020   2.497 -31.681  1.00  0.00     0.161 C 
HETATM    2  C   UNL     1      -6.885   1.799 -32.805  1.00  0.00     0.019 C 
HETATM    3  C   UNL     1      -6.987   2.710 -34.053  1.00  0.00     0.045 C 
HETATM    4  C   UNL     1      -7.951   3.878 -33.853  1.00  0.00     0.236 C 
HETATM    5  N   UNL     1      -9.296   3.391 -33.386  1.00  0.00    -0.067 N 
HETATM    6  H   UNL     1      -9.852   4.230 -33.150  1.00  0.00     0.280 HD
HETATM    7  C   UNL     1      -9.198   2.596 -32.111  1.00  0.00     0.236 C 
HETATM    8  C   UNL     1      -8.298   1.391 -32.328  1.00  0.00     0.045 C 
HETATM    9  C   UNL     1      -6.060   0.572 -33.130  1.00  0.00    -0.038 A 
HETATM   10  C   UNL     1      -4.804   0.615 -32.524  1.00  0.00    -0.026 A 
HETATM   11  C   UNL     1      -4.581   1.886 -31.758  1.00  0.00     0.148 C 
HETATM   12  C   UNL     1      -6.410  -0.507 -33.938  1.00  0.00     0.009 A 
HETATM   13  C   UNL     1      -5.494  -1.547 -34.116  1.00  0.00     0.001 A 
HETATM   14  C   UNL     1      -4.242  -1.505 -33.493  1.00  0.00     0.001 A 
HETATM   15  C   UNL     1      -3.888  -0.418 -32.695  1.00  0.00     0.010 A 
ENDROOT
BRANCH   1  16
HETATM   16  O   UNL     1      -6.636   2.270 -30.399  1.00  0.00    -0.387 OA
HETATM   17  C   UNL     1      -6.792   3.462 -29.630  1.00  0.00     0.202 C 
ENDBRANCH   1  16
BRANCH  11  18
HETATM   18  N   UNL     1      -3.610   2.710 -32.455  1.00  0.00    -0.350 N 
HETATM   19  C   UNL     1      -3.145   3.895 -31.924  1.00  0.00     0.223 C 
HETATM   20  O   UNL     1      -3.693   4.452 -30.975  1.00  0.00    -0.273 OA
HETATM   21  H   UNL     1      -3.052   2.262 -33.174  1.00  0.00     0.163 HD
BRANCH  19  22
HETATM   22  C   UNL     1      -1.915   4.455 -32.616  1.00  0.00     0.148 C 
BRANCH  22  23
HETATM   23  C   UNL     1      -1.097   5.274 -31.667  1.00  0.00    -0.009 A 
HETATM   24  S   UNL     1      -1.001   6.978 -31.844  1.00  0.00    -0.106 SA
HETATM   25  C   UNL     1       0.098   7.115 -30.541  1.00  0.00     0.050 A 
HETATM   26  C   UNL     1       0.384   5.892 -29.976  1.00  0.00     0.008 A 
HETATM   27  C   UNL     1      -0.310   4.830 -30.624  1.00  0.00     0.015 A 
ENDBRANCH  22  23
ENDBRANCH  19  22
ENDBRANCH  11  18
BRANCH   5  28
HETATM   28  C   UNL     1     -10.145   2.729 -34.451  1.00  0.00     0.276 C 
BRANCH  28  29
HETATM   29  C   UNL     1     -11.546   2.424 -33.996  1.00  0.00     0.002 A 
HETATM   30  C   UNL     1     -12.406   3.452 -33.590  1.00  0.00     0.073 A 
HETATM   31  C   UNL     1     -13.695   3.183 -33.136  1.00  0.00     0.039 A 
HETATM   32  C   UNL     1     -14.146   1.862 -33.095  1.00  0.00     0.026 A 
HETATM   33  C   UNL     1     -13.306   0.829 -33.505  1.00  0.00     0.034 A 
HETATM   34 CL   UNL     1     -13.865  -0.796 -33.471  1.00  0.00    -0.084 Cl
HETATM   35  C   UNL     1     -12.011   1.101 -33.950  1.00  0.00     0.035 A 
BRANCH  30  36
HETATM   36  O   UNL     1     -11.953   4.740 -33.678  1.00  0.00    -0.360 OA
HETATM   37  H   UNL     1     -12.549   5.230 -34.280  1.00  0.00     0.217 HD
ENDBRANCH  30  36
ENDBRANCH  28  29
ENDBRANCH   5  28
TORSDOF 7
ENDMDL
MODEL 5
REMARK VINA RESULT:      -8.7      4.228      9.307
REMARK  7 active torsions:
REMARK  status: ('A' for Active; 'I' for Inactive)
REMARK    1  A    between atoms: O_2  and  C_3 
REMARK    2  A    between atoms: N_7  and  C_9 
REMARK    3  A    between atoms: C_9  and  C_10 
REMARK    4  A    between atoms: C_11  and  O_12 
REMARK    5  A    between atoms: C_22  and  N_23 
REMARK       I    between atoms: N_23  and  C_24 
REMARK    6  A    between atoms: C_24  and  C_25 
REMARK    7  A    between atoms: C_25  and  C_26 
ROOT
HETATM    1  C   UNL     1      -6.194   2.164 -31.773  1.00  0.00     0.161 C 
HETATM    2  C   UNL     1      -5.873   3.650 -32.208  1.00  0.00     0.019 C 
HETATM    3  C   UNL     1      -4.672   3.680 -33.184  1.00  0.00     0.045 C 
HETATM    4  C   UNL     1      -3.335   3.459 -32.480  1.00  0.00     0.236 C 
HETATM    5  N   UNL     1      -3.167   4.417 -31.333  1.00  0.00    -0.067 N 
HETATM    6  H   UNL     1      -2.310   4.131 -30.828  1.00  0.00     0.280 HD
HETATM    7  C   UNL     1      -4.285   4.304 -30.332  1.00  0.00     0.236 C 
HETATM    8  C   UNL     1      -5.612   4.597 -31.014  1.00  0.00     0.045 C 
HETATM    9  C   UNL     1      -7.138   4.051 -32.936  1.00  0.00    -0.038 A 
HETATM   10  C   UNL     1      -7.985   2.962 -33.146  1.00  0.00    -0.026 A 
HETATM   11  C   UNL     1      -7.397   1.675 -32.646  1.00  0.00     0.148 C 
HETATM   12  C   UNL     1      -7.496   5.314 -33.400  1.00  0.00     0.009 A 
HETATM   13  C   UNL     1      -8.718   5.474 -34.059  1.00  0.00     0.001 A 
HETATM   14  C   UNL     1      -9.569   4.381 -34.253  1.00  0.00     0.001 A 
HETATM   15  C   UNL     1      -9.204   3.115 -33.799  1.00  0.00     0.010 A 
ENDROOT
BRANCH   1  16
HETATM   16  O   UNL     1      -6.501   2.138 -30.365  1.00  0.00    -0.387 OA
HETATM   17  C   UNL     1      -6.011   0.972 -29.703  1.00  0.00     0.202 C 
ENDBRANCH   1  16
BRANCH  11  18
HETATM   18  N   UNL     1      -7.026   0.839 -33.774  1.00  0.00    -0.350 N 
HETATM   19  C   UNL     1      -6.811  -0.516 -33.637  1.00  0.00     0.223 C 
HETATM   20  O   UNL     1      -6.668  -1.054 -32.540  1.00  0.00    -0.273 OA
HETATM   21  H   UNL     1      -7.230   1.195 -34.701  1.00  0.00     0.163 HD
BRANCH  19  22
HETATM   22  C   UNL     1      -6.753  -1.280 -34.947  1.00  0.00     0.148 C 
BRANCH  22  23
HETATM   23  C   UNL     1      -6.116  -2.621 -34.755  1.00  0.00    -0.009 A 
HETATM   24  S   UNL     1      -4.470  -2.748 -34.288  1.00  0.00    -0.106 SA
HETATM   25  C   UNL     1      -4.511  -4.454 -34.373  1.00  0.00     0.050 A 
HETATM   26  C   UNL     1      -5.752  -4.924 -34.742  1.00  0.00     0.008 A 
HETATM   27  C   UNL     1      -6.680  -3.865 -34.958  1.00  0.00     0.015 A 
ENDBRANCH  22  23
ENDBRANCH  19  22
ENDBRANCH  11  18
BRANCH   5  28
HETATM   28  C   UNL     1      -2.847   5.844 -31.729  1.00  0.00     0.276 C 
BRANCH  28  29
HETATM   29  C   UNL     1      -1.803   6.488 -30.858  1.00  0.00     0.002 A 
HETATM   30  C   UNL     1      -0.520   5.935 -30.752  1.00  0.00     0.073 A 
HETATM   31  C   UNL     1       0.448   6.501 -29.925  1.00  0.00     0.039 A 
HETATM   32  C   UNL     1       0.138   7.651 -29.196  1.00  0.00     0.026 A 
HETATM   33  C   UNL     1      -1.129   8.218 -29.298  1.00  0.00     0.034 A 
HETATM   34 CL   UNL     1      -1.506   9.643 -28.413  1.00  0.00    -0.084 Cl
HETATM   35  C   UNL     1      -2.101   7.642 -30.119  1.00  0.00     0.035 A 
BRANCH  30  36
HETATM   36  O   UNL     1      -0.232   4.832 -31.509  1.00  0.00    -0.360 OA
HETATM   37  H   UNL     1       0.323   4.233 -30.970  1.00  0.00     0.217 HD
ENDBRANCH  30  36
ENDBRANCH  28  29
ENDBRANCH   5  28
TORSDOF 7
ENDMDL
MODEL 6
REMARK VINA RESULT:      -8.6      3.502      7.836
REMARK  7 active torsions:
REMARK  status: ('A' for Active; 'I' for Inactive)
REMARK    1  A    between atoms: O_2  and  C_3 
REMARK    2  A    between atoms: N_7  and  C_9 
REMARK    3  A    between atoms: C_9  and  C_10 
REMARK    4  A    between atoms: C_11  and  O_12 
REMARK    5  A    between atoms: C_22  and  N_23 
REMARK       I    between atoms: N_23  and  C_24 
REMARK    6  A    between atoms: C_24  and  C_25 
REMARK    7  A    between atoms: C_25  and  C_26 
ROOT
HETATM    1  C   UNL     1      -6.482   3.095 -31.587  1.00  0.00     0.161 C 
HETATM    2  C   UNL     1      -5.143   2.480 -32.159  1.00  0.00     0.019 C 
HETATM    3  C   UNL     1      -5.434   1.624 -33.415  1.00  0.00     0.045 C 
HETATM    4  C   UNL     1      -6.062   0.273 -33.075  1.00  0.00     0.236 C 
HETATM    5  N   UNL     1      -5.234  -0.463 -32.057  1.00  0.00    -0.067 N 
HETATM    6  H   UNL     1      -5.776  -1.299 -31.781  1.00  0.00     0.280 HD
HETATM    7  C   UNL     1      -5.047   0.336 -30.795  1.00  0.00     0.236 C 
HETATM    8  C   UNL     1      -4.355   1.649 -31.120  1.00  0.00     0.045 C 
HETATM    9  C   UNL     1      -4.363   3.717 -32.549  1.00  0.00    -0.038 A 
HETATM   10  C   UNL     1      -5.147   4.870 -32.480  1.00  0.00    -0.026 A 
HETATM   11  C   UNL     1      -6.566   4.574 -32.092  1.00  0.00     0.148 C 
HETATM   12  C   UNL     1      -3.035   3.800 -32.961  1.00  0.00     0.009 A 
HETATM   13  C   UNL     1      -2.501   5.049 -33.285  1.00  0.00     0.001 A 
HETATM   14  C   UNL     1      -3.289   6.202 -33.200  1.00  0.00     0.001 A 
HETATM   15  C   UNL     1      -4.621   6.117 -32.798  1.00  0.00     0.010 A 
ENDROOT
BRANCH   1  16
HETATM   16  O   UNL     1      -6.464   3.015 -30.148  1.00  0.00    -0.387 OA
HETATM   17  C   UNL     1      -7.219   4.049 -29.518  1.00  0.00     0.202 C 
ENDBRANCH   1  16
BRANCH  11  18
HETATM   18  N   UNL     1      -7.436   4.773 -33.238  1.00  0.00    -0.350 N 
HETATM   19  C   UNL     1      -8.729   5.230 -33.100  1.00  0.00     0.223 C 
HETATM   20  O   UNL     1      -9.308   5.254 -32.016  1.00  0.00    -0.273 OA
HETATM   21  H   UNL     1      -6.993   4.873 -34.144  1.00  0.00     0.163 HD
BRANCH  19  22
HETATM   22  C   UNL     1      -9.378   5.686 -34.395  1.00  0.00     0.148 C 
BRANCH  22  23
HETATM   23  C   UNL     1     -10.579   4.852 -34.712  1.00  0.00    -0.009 A 
HETATM   24  S   UNL     1     -10.518   3.143 -34.571  1.00  0.00    -0.106 SA
HETATM   25  C   UNL     1     -12.117   2.974 -35.150  1.00  0.00     0.050 A 
HETATM   26  C   UNL     1     -12.693   4.191 -35.441  1.00  0.00     0.008 A 
HETATM   27  C   UNL     1     -11.806   5.275 -35.183  1.00  0.00     0.015 A 
ENDBRANCH  22  23
ENDBRANCH  19  22
ENDBRANCH  11  18
BRANCH   5  28
HETATM   28  C   UNL     1      -3.952  -1.070 -32.588  1.00  0.00     0.276 C 
BRANCH  28  29
HETATM   29  C   UNL     1      -4.116  -2.482 -33.078  1.00  0.00     0.002 A 
HETATM   30  C   UNL     1      -3.353  -3.522 -32.533  1.00  0.00     0.073 A 
HETATM   31  C   UNL     1      -3.471  -4.830 -32.998  1.00  0.00     0.039 A 
HETATM   32  C   UNL     1      -4.376  -5.114 -34.022  1.00  0.00     0.026 A 
HETATM   33  C   UNL     1      -5.149  -4.092 -34.568  1.00  0.00     0.034 A 
HETATM   34 CL   UNL     1      -6.276  -4.444 -35.818  1.00  0.00    -0.084 Cl
HETATM   35  C   UNL     1      -5.022  -2.781 -34.108  1.00  0.00     0.035 A 
BRANCH  30  36
HETATM   36  O   UNL     1      -2.502  -3.222 -31.504  1.00  0.00    -0.360 OA
HETATM   37  H   UNL     1      -2.456  -4.002 -30.913  1.00  0.00     0.217 HD
ENDBRANCH  30  36
ENDBRANCH  28  29
ENDBRANCH   5  28
TORSDOF 7
ENDMDL
MODEL 7
REMARK VINA RESULT:      -8.5      3.572      5.839
REMARK  7 active torsions:
REMARK  status: ('A' for Active; 'I' for Inactive)
REMARK    1  A    between atoms: O_2  and  C_3 
REMARK    2  A    between atoms: N_7  and  C_9 
REMARK    3  A    between atoms: C_9  and  C_10 
REMARK    4  A    between atoms: C_11  and  O_12 
REMARK    5  A    between atoms: C_22  and  N_23 
REMARK       I    between atoms: N_23  and  C_24 
REMARK    6  A    between atoms: C_24  and  C_25 
REMARK    7  A    between atoms: C_25  and  C_26 
ROOT
HETATM    1  C   UNL     1      -3.169   5.839 -31.752  1.00  0.00     0.161 C 
HETATM    2  C   UNL     1      -4.452   5.012 -31.342  1.00  0.00     0.019 C 
HETATM    3  C   UNL     1      -4.061   3.566 -30.949  1.00  0.00     0.045 C 
HETATM    4  C   UNL     1      -3.727   2.697 -32.160  1.00  0.00     0.236 C 
HETATM    5  N   UNL     1      -4.838   2.736 -33.173  1.00  0.00    -0.067 N 
HETATM    6  H   UNL     1      -4.495   2.236 -34.011  1.00  0.00     0.280 HD
HETATM    7  C   UNL     1      -5.138   4.138 -33.630  1.00  0.00     0.236 C 
HETATM    8  C   UNL     1      -5.543   4.989 -32.437  1.00  0.00     0.045 C 
HETATM    9  C   UNL     1      -4.941   5.762 -30.122  1.00  0.00    -0.038 A 
HETATM   10  C   UNL     1      -4.016   6.714 -29.691  1.00  0.00    -0.026 A 
HETATM   11  C   UNL     1      -2.761   6.706 -30.514  1.00  0.00     0.148 C 
HETATM   12  C   UNL     1      -6.136   5.585 -29.429  1.00  0.00     0.009 A 
HETATM   13  C   UNL     1      -6.398   6.384 -28.313  1.00  0.00     0.001 A 
HETATM   14  C   UNL     1      -5.473   7.347 -27.895  1.00  0.00     0.001 A 
HETATM   15  C   UNL     1      -4.272   7.515 -28.583  1.00  0.00     0.010 A 
ENDROOT
BRANCH   1  16
HETATM   16  O   UNL     1      -3.475   6.650 -32.903  1.00  0.00    -0.387 OA
HETATM   17  C   UNL     1      -2.415   6.695 -33.858  1.00  0.00     0.202 C 
ENDBRANCH   1  16
BRANCH  11  18
HETATM   18  N   UNL     1      -1.668   6.163 -29.728  1.00  0.00    -0.350 N 
HETATM   19  C   UNL     1      -0.353   6.490 -29.985  1.00  0.00     0.223 C 
HETATM   20  O   UNL     1      -0.002   7.044 -31.025  1.00  0.00    -0.273 OA
HETATM   21  H   UNL     1      -1.894   5.796 -28.810  1.00  0.00     0.163 HD
BRANCH  19  22
HETATM   22  C   UNL     1       0.619   6.101 -28.885  1.00  0.00     0.148 C 
BRANCH  22  23
HETATM   23  C   UNL     1       0.756   7.202 -27.881  1.00  0.00    -0.009 A 
HETATM   24  S   UNL     1      -0.080   7.128 -26.384  1.00  0.00    -0.106 SA
HETATM   25  C   UNL     1       0.495   8.668 -25.914  1.00  0.00     0.050 A 
HETATM   26  C   UNL     1       1.311   9.229 -26.871  1.00  0.00     0.008 A 
HETATM   27  C   UNL     1       1.465   8.381 -28.005  1.00  0.00     0.015 A 
ENDBRANCH  22  23
ENDBRANCH  19  22
ENDBRANCH  11  18
BRANCH   5  28
HETATM   28  C   UNL     1      -6.073   1.939 -32.804  1.00  0.00     0.276 C 
BRANCH  28  29
HETATM   29  C   UNL     1      -6.157   0.609 -33.500  1.00  0.00     0.002 A 
HETATM   30  C   UNL     1      -7.197   0.335 -34.397  1.00  0.00     0.073 A 
HETATM   31  C   UNL     1      -7.306  -0.904 -35.025  1.00  0.00     0.039 A 
HETATM   32  C   UNL     1      -6.353  -1.891 -34.765  1.00  0.00     0.026 A 
HETATM   33  C   UNL     1      -5.307  -1.630 -33.882  1.00  0.00     0.034 A 
HETATM   34 CL   UNL     1      -4.124  -2.839 -33.574  1.00  0.00    -0.084 Cl
HETATM   35  C   UNL     1      -5.206  -0.392 -33.246  1.00  0.00     0.035 A 
BRANCH  30  36
HETATM   36  O   UNL     1      -8.094   1.333 -34.664  1.00  0.00    -0.360 OA
HETATM   37  H   UNL     1      -7.735   1.874 -35.397  1.00  0.00     0.217 HD
ENDBRANCH  30  36
ENDBRANCH  28  29
ENDBRANCH   5  28
TORSDOF 7
ENDMDL
MODEL 8
REMARK VINA RESULT:      -8.3      4.838      9.910
REMARK  7 active torsions:
REMARK  status: ('A' for Active; 'I' for Inactive)
REMARK    1  A    between atoms: O_2  and  C_3 
REMARK    2  A    between atoms: N_7  and  C_9 
REMARK    3  A    between atoms: C_9  and  C_10 
REMARK    4  A    between atoms: C_11  and  O_12 
REMARK    5  A    between atoms: C_22  and  N_23 
REMARK       I    between atoms: N_23  and  C_24 
REMARK    6  A    between atoms: C_24  and  C_25 
REMARK    7  A    between atoms: C_25  and  C_26 
ROOT
HETATM    1  C   UNL     1     -10.675   3.552 -33.538  1.00  0.00     0.161 C 
HETATM    2  C   UNL     1     -10.378   2.066 -33.090  1.00  0.00     0.019 C 
HETATM    3  C   UNL     1     -10.120   2.001 -31.565  1.00  0.00     0.045 C 
HETATM    4  C   UNL     1      -8.741   2.532 -31.177  1.00  0.00     0.236 C 
HETATM    5  N   UNL     1      -7.661   1.851 -31.972  1.00  0.00    -0.067 N 
HETATM    6  H   UNL     1      -6.776   2.341 -31.755  1.00  0.00     0.280 HD
HETATM    7  C   UNL     1      -7.862   2.011 -33.455  1.00  0.00     0.236 C 
HETATM    8  C   UNL     1      -9.202   1.417 -33.856  1.00  0.00     0.045 C 
HETATM    9  C   UNL     1     -11.678   1.365 -33.421  1.00  0.00    -0.038 A 
HETATM   10  C   UNL     1     -12.683   2.269 -33.767  1.00  0.00    -0.026 A 
HETATM   11  C   UNL     1     -12.229   3.696 -33.667  1.00  0.00     0.148 C 
HETATM   12  C   UNL     1     -11.947  -0.002 -33.394  1.00  0.00     0.009 A 
HETATM   13  C   UNL     1     -13.226  -0.449 -33.733  1.00  0.00     0.001 A 
HETATM   14  C   UNL     1     -14.225   0.462 -34.093  1.00  0.00     0.001 A 
HETATM   15  C   UNL     1     -13.958   1.830 -34.109  1.00  0.00     0.010 A 
ENDROOT
BRANCH   1  16
HETATM   16  O   UNL     1     -10.002   3.816 -34.784  1.00  0.00    -0.387 OA
HETATM   17  C   UNL     1     -10.488   4.981 -35.450  1.00  0.00     0.202 C 
ENDBRANCH   1  16
BRANCH  11  18
HETATM   18  N   UNL     1     -12.874   4.333 -32.533  1.00  0.00    -0.350 N 
HETATM   19  C   UNL     1     -13.839   5.305 -32.695  1.00  0.00     0.223 C 
HETATM   20  O   UNL     1     -14.032   5.870 -33.770  1.00  0.00    -0.273 OA
HETATM   21  H   UNL     1     -12.838   3.845 -31.645  1.00  0.00     0.163 HD
BRANCH  19  22
HETATM   22  C   UNL     1     -14.629   5.624 -31.438  1.00  0.00     0.148 C 
BRANCH  22  23
HETATM   23  C   UNL     1     -15.992   5.010 -31.496  1.00  0.00    -0.009 A 
HETATM   24  S   UNL     1     -17.337   5.799 -30.780  1.00  0.00    -0.106 SA
HETATM   25  C   UNL     1     -18.386   4.509 -31.176  1.00  0.00     0.050 A 
HETATM   26  C   UNL     1     -17.732   3.498 -31.844  1.00  0.00     0.008 A 
HETATM   27  C   UNL     1     -16.351   3.789 -32.033  1.00  0.00     0.015 A 
ENDBRANCH  22  23
ENDBRANCH  19  22
ENDBRANCH  11  18
BRANCH   5  28
HETATM   28  C   UNL     1      -7.353   0.428 -31.551  1.00  0.00     0.276 C 
BRANCH  28  29
HETATM   29  C   UNL     1      -6.215  -0.190 -32.317  1.00  0.00     0.002 A 
HETATM   30  C   UNL     1      -4.902   0.263 -32.139  1.00  0.00     0.073 A 
HETATM   31  C   UNL     1      -3.844  -0.278 -32.865  1.00  0.00     0.039 A 
HETATM   32  C   UNL     1      -4.093  -1.302 -33.781  1.00  0.00     0.026 A 
HETATM   33  C   UNL     1      -5.392  -1.770 -33.962  1.00  0.00     0.034 A 
HETATM   34 CL   UNL     1      -5.697  -3.042 -35.078  1.00  0.00    -0.084 Cl
HETATM   35  C   UNL     1      -6.453  -1.219 -33.241  1.00  0.00     0.035 A 
BRANCH  30  36
HETATM   36  O   UNL     1      -4.682   1.240 -31.207  1.00  0.00    -0.360 OA
HETATM   37  H   UNL     1      -4.192   0.839 -30.459  1.00  0.00     0.217 HD
ENDBRANCH  30  36
ENDBRANCH  28  29
ENDBRANCH   5  28
TORSDOF 7
ENDMDL
MODEL 9
REMARK VINA RESULT:      -8.0      4.220      8.272
REMARK  7 active torsions:
REMARK  status: ('A' for Active; 'I' for Inactive)
REMARK    1  A    between atoms: O_2  and  C_3 
REMARK    2  A    between atoms: N_7  and  C_9 
REMARK    3  A    between atoms: C_9  and  C_10 
REMARK    4  A    between atoms: C_11  and  O_12 
REMARK    5  A    between atoms: C_22  and  N_23 
REMARK       I    between atoms: N_23  and  C_24 
REMARK    6  A    between atoms: C_24  and  C_25 
REMARK    7  A    between atoms: C_25  and  C_26 
ROOT
HETATM    1  C   UNL     1      -8.279   2.972 -32.264  1.00  0.00     0.161 C 
HETATM    2  C   UNL     1      -6.748   2.643 -32.482  1.00  0.00     0.019 C 
HETATM    3  C   UNL     1      -6.519   2.040 -33.889  1.00  0.00     0.045 C 
HETATM    4  C   UNL     1      -6.979   0.587 -33.989  1.00  0.00     0.236 C 
HETATM    5  N   UNL     1      -6.363  -0.248 -32.899  1.00  0.00    -0.067 N 
HETATM    6  H   UNL     1      -6.811  -1.179 -32.947  1.00  0.00     0.280 HD
HETATM    7  C   UNL     1      -6.682   0.287 -31.528  1.00  0.00     0.236 C 
HETATM    8  C   UNL     1      -6.160   1.709 -31.400  1.00  0.00     0.045 C 
HETATM    9  C   UNL     1      -6.111   4.014 -32.401  1.00  0.00    -0.038 A 
HETATM   10  C   UNL     1      -7.067   5.032 -32.392  1.00  0.00    -0.026 A 
HETATM   11  C   UNL     1      -8.466   4.505 -32.521  1.00  0.00     0.148 C 
HETATM   12  C   UNL     1      -4.755   4.329 -32.358  1.00  0.00     0.009 A 
HETATM   13  C   UNL     1      -4.372   5.670 -32.289  1.00  0.00     0.001 A 
HETATM   14  C   UNL     1      -5.335   6.685 -32.266  1.00  0.00     0.001 A 
HETATM   15  C   UNL     1      -6.692   6.369 -32.321  1.00  0.00     0.010 A 
ENDROOT
BRANCH   1  16
HETATM   16  O   UNL     1      -8.659   2.597 -30.926  1.00  0.00    -0.387 OA
HETATM   17  C   UNL     1      -9.737   3.376 -30.408  1.00  0.00     0.202 C 
ENDBRANCH   1  16
BRANCH  11  18
HETATM   18  N   UNL     1      -8.993   4.839 -33.831  1.00  0.00    -0.350 N 
HETATM   19  C   UNL     1      -9.961   5.806 -34.002  1.00  0.00     0.223 C 
HETATM   20  O   UNL     1     -10.614   6.259 -33.064  1.00  0.00    -0.273 OA
HETATM   21  H   UNL     1      -8.432   4.584 -34.636  1.00  0.00     0.163 HD
BRANCH  19  22
HETATM   22  C   UNL     1     -10.159   6.251 -35.440  1.00  0.00     0.148 C 
BRANCH  22  23
HETATM   23  C   UNL     1     -11.583   6.641 -35.686  1.00  0.00    -0.009 A 
HETATM   24  S   UNL     1     -11.994   8.267 -36.050  1.00  0.00    -0.106 SA
HETATM   25  C   UNL     1     -13.664   7.904 -36.090  1.00  0.00     0.050 A 
HETATM   26  C   UNL     1     -13.909   6.572 -35.837  1.00  0.00     0.008 A 
HETATM   27  C   UNL     1     -12.707   5.843 -35.608  1.00  0.00     0.015 A 
ENDBRANCH  22  23
ENDBRANCH  19  22
ENDBRANCH  11  18
BRANCH   5  28
HETATM   28  C   UNL     1      -4.899  -0.583 -33.095  1.00  0.00     0.276 C 
BRANCH  28  29
HETATM   29  C   UNL     1      -4.650  -2.040 -33.372  1.00  0.00     0.002 A 
HETATM   30  C   UNL     1      -3.630  -2.731 -32.706  1.00  0.00     0.073 A 
HETATM   31  C   UNL     1      -3.367  -4.072 -32.976  1.00  0.00     0.039 A 
HETATM   32  C   UNL     1      -4.144  -4.747 -33.920  1.00  0.00     0.026 A 
HETATM   33  C   UNL     1      -5.168  -4.076 -34.583  1.00  0.00     0.034 A 
HETATM   34 CL   UNL     1      -6.134  -4.910 -35.734  1.00  0.00    -0.084 Cl
HETATM   35  C   UNL     1      -5.422  -2.729 -34.320  1.00  0.00     0.035 A 
BRANCH  30  36
HETATM   36  O   UNL     1      -2.911  -2.057 -31.757  1.00  0.00    -0.360 OA
HETATM   37  H   UNL     1      -2.002  -2.420 -31.752  1.00  0.00     0.217 HD
ENDBRANCH  30  36
ENDBRANCH  28  29
ENDBRANCH   5  28
TORSDOF 7
ENDMDL
MODEL 10
REMARK VINA RESULT:      -7.9      4.143      9.755
REMARK  7 active torsions:
REMARK  status: ('A' for Active; 'I' for Inactive)
REMARK    1  A    between atoms: O_2  and  C_3 
REMARK    2  A    between atoms: N_7  and  C_9 
REMARK    3  A    between atoms: C_9  and  C_10 
REMARK    4  A    between atoms: C_11  and  O_12 
REMARK    5  A    between atoms: C_22  and  N_23 
REMARK       I    between atoms: N_23  and  C_24 
REMARK    6  A    between atoms: C_24  and  C_25 
REMARK    7  A    between atoms: C_25  and  C_26 
ROOT
HETATM    1  C   UNL     1      -6.890   2.475 -32.257  1.00  0.00     0.161 C 
HETATM    2  C   UNL     1      -6.605   4.022 -32.107  1.00  0.00     0.019 C 
HETATM    3  C   UNL     1      -6.516   4.694 -33.499  1.00  0.00     0.045 C 
HETATM    4  C   UNL     1      -5.204   4.389 -34.218  1.00  0.00     0.236 C 
HETATM    5  N   UNL     1      -4.024   4.718 -33.345  1.00  0.00    -0.067 N 
HETATM    6  H   UNL     1      -3.182   4.372 -33.837  1.00  0.00     0.280 HD
HETATM    7  C   UNL     1      -4.063   3.977 -32.036  1.00  0.00     0.236 C 
HETATM    8  C   UNL     1      -5.335   4.335 -31.284  1.00  0.00     0.045 C 
HETATM    9  C   UNL     1      -7.841   4.507 -31.380  1.00  0.00    -0.038 A 
HETATM   10  C   UNL     1      -8.825   3.520 -31.312  1.00  0.00    -0.026 A 
HETATM   11  C   UNL     1      -8.423   2.261 -32.022  1.00  0.00     0.148 C 
HETATM   12  C   UNL     1      -8.074   5.766 -30.831  1.00  0.00     0.009 A 
HETATM   13  C   UNL     1      -9.295   6.016 -30.201  1.00  0.00     0.001 A 
HETATM   14  C   UNL     1     -10.273   5.017 -30.123  1.00  0.00     0.001 A 
HETATM   15  C   UNL     1     -10.042   3.761 -30.683  1.00  0.00     0.010 A 
ENDROOT
BRANCH   1  16
HETATM   16  O   UNL     1      -6.091   1.750 -31.303  1.00  0.00    -0.387 OA
HETATM   17  C   UNL     1      -6.557   0.420 -31.072  1.00  0.00     0.202 C 
ENDBRANCH   1  16
BRANCH  11  18
HETATM   18  N   UNL     1      -9.207   2.115 -33.235  1.00  0.00    -0.350 N 
HETATM   19  C   UNL     1     -10.120   1.095 -33.395  1.00  0.00     0.223 C 
HETATM   20  O   UNL     1     -10.151   0.115 -32.652  1.00  0.00    -0.273 OA
HETATM   21  H   UNL     1      -9.305   2.934 -33.825  1.00  0.00     0.163 HD
BRANCH  19  22
HETATM   22  C   UNL     1     -11.071   1.277 -34.565  1.00  0.00     0.148 C 
BRANCH  22  23
HETATM   23  C   UNL     1     -12.488   1.361 -34.091  1.00  0.00    -0.009 A 
HETATM   24  S   UNL     1     -13.039   2.733 -33.222  1.00  0.00    -0.106 SA
HETATM   25  C   UNL     1     -14.590   2.050 -33.000  1.00  0.00     0.050 A 
HETATM   26  C   UNL     1     -14.694   0.805 -33.579  1.00  0.00     0.008 A 
HETATM   27  C   UNL     1     -13.481   0.409 -34.213  1.00  0.00     0.015 A 
ENDBRANCH  22  23
ENDBRANCH  19  22
ENDBRANCH  11  18
BRANCH   5  28
HETATM   28  C   UNL     1      -3.726   6.197 -33.197  1.00  0.00     0.276 C 
BRANCH  28  29
HETATM   29  C   UNL     1      -2.505   6.482 -32.367  1.00  0.00     0.002 A 
HETATM   30  C   UNL     1      -1.254   5.974 -32.736  1.00  0.00     0.073 A 
HETATM   31  C   UNL     1      -0.120   6.202 -31.960  1.00  0.00     0.039 A 
HETATM   32  C   UNL     1      -0.229   6.964 -30.795  1.00  0.00     0.026 A 
HETATM   33  C   UNL     1      -1.464   7.484 -30.419  1.00  0.00     0.034 A 
HETATM   34 CL   UNL     1      -1.596   8.435 -28.993  1.00  0.00    -0.084 Cl
HETATM   35  C   UNL     1      -2.601   7.244 -31.193  1.00  0.00     0.035 A 
BRANCH  30  36
HETATM   36  O   UNL     1      -1.168   5.265 -33.904  1.00  0.00    -0.360 OA
HETATM   37  H   UNL     1      -1.657   5.758 -34.593  1.00  0.00     0.217 HD
ENDBRANCH  30  36
ENDBRANCH  28  29
ENDBRANCH   5  28
TORSDOF 7
ENDMDL
