MODEL 1
REMARK VINA RESULT:      -7.9      0.000      0.000
REMARK  6 active torsions:
REMARK  status: ('A' for Active; 'I' for Inactive)
REMARK    1  A    between atoms: C_2  and  O_3 
REMARK    2  A    between atoms: O_3  and  C_4 
REMARK    3  A    between atoms: C_7  and  N_8 
REMARK    4  A    between atoms: C_9  and  C_11 
REMARK    5  A    between atoms: C_9  and  O_10 
REMARK       I    between atoms: C_11  and  N_12 
REMARK    6  A    between atoms: N_12  and  C_13 
ROOT
HETATM    1  N   UNL     1      -5.504   2.187 -31.437  1.00  0.00    -0.254 N 
HETATM    2  C   UNL     1      -6.637   2.686 -30.638  1.00  0.00     0.256 C 
HETATM    3  C   UNL     1      -6.446   4.070 -30.050  1.00  0.00     0.035 A 
HETATM    4  C   UNL     1      -5.195   4.667 -30.119  1.00  0.00     0.048 A 
HETATM    5  N   UNL     1      -4.165   3.999 -30.759  1.00  0.00    -0.308 N 
HETATM    6  C   UNL     1      -4.277   2.827 -31.439  1.00  0.00     0.330 C 
HETATM    7  O   UNL     1      -3.261   2.401 -31.990  1.00  0.00    -0.246 OA
HETATM    8  C   UNL     1      -7.483   4.766 -29.399  1.00  0.00     0.034 A 
HETATM    9  C   UNL     1      -7.254   6.034 -28.864  1.00  0.00     0.011 A 
HETATM   10 BR   UNL     1      -8.669   6.970 -28.029  1.00  0.00    -0.051 Br
HETATM   11  C   UNL     1      -5.993   6.617 -28.941  1.00  0.00     0.021 A 
HETATM   12  C   UNL     1      -4.956   5.926 -29.566  1.00  0.00     0.031 A 
HETATM   13  H   UNL     1      -3.246   4.419 -30.814  1.00  0.00     0.170 HD
ENDROOT
BRANCH   1  14
HETATM   14  C   UNL     1      -5.718   1.076 -32.329  1.00  0.00     0.043 A 
HETATM   15  C   UNL     1      -5.703  -0.252 -31.884  1.00  0.00     0.032 A 
HETATM   16  C   UNL     1      -5.995  -1.304 -32.761  1.00  0.00     0.039 A 
HETATM   17  C   UNL     1      -6.346  -1.050 -34.086  1.00  0.00     0.068 A 
HETATM   18  C   UNL     1      -6.345   0.263 -34.547  1.00  0.00     0.039 A 
HETATM   19  C   UNL     1      -6.024   1.313 -33.676  1.00  0.00     0.032 A 
BRANCH  17  20
HETATM   20  O   UNL     1      -6.649  -2.156 -34.829  1.00  0.00    -0.352 OA
BRANCH  20  21
HETATM   21  C   UNL     1      -5.664  -3.190 -34.846  1.00  0.00     0.171 C 
HETATM   22  C   UNL     1      -6.365  -4.499 -35.163  1.00  0.00     0.034 C 
ENDBRANCH  20  21
ENDBRANCH  17  20
ENDBRANCH   1  14
BRANCH   2  23
HETATM   23  C   UNL     1      -7.945   2.708 -31.543  1.00  0.00     0.279 C 
HETATM   24  N   UNL     1      -8.724   1.567 -31.387  1.00  0.00    -0.352 N 
HETATM   25  H   UNL     1      -8.394   0.876 -30.719  1.00  0.00     0.163 HD
HETATM   26  O   UNL     1      -8.230   3.626 -32.310  1.00  0.00    -0.268 OA
BRANCH  24  27
HETATM   27  C   UNL     1      -9.877   1.294 -32.177  1.00  0.00     0.084 A 
HETATM   28  C   UNL     1      -9.770   1.041 -33.657  1.00  0.00     0.027 A 
HETATM   29  C   UNL     1     -10.102  -0.088 -32.729  1.00  0.00     0.027 A 
ENDBRANCH  24  27
ENDBRANCH   2  23
BRANCH   2  30
HETATM   30  O   UNL     1      -6.761   1.819 -29.508  1.00  0.00    -0.359 OA
HETATM   31  H   UNL     1      -6.864   0.941 -29.914  1.00  0.00     0.213 HD
ENDBRANCH   2  30
TORSDOF 6
ENDMDL
MODEL 2
REMARK VINA RESULT:      -7.7      3.582      6.780
REMARK  6 active torsions:
REMARK  status: ('A' for Active; 'I' for Inactive)
REMARK    1  A    between atoms: C_2  and  O_3 
REMARK    2  A    between atoms: O_3  and  C_4 
REMARK    3  A    between atoms: C_7  and  N_8 
REMARK    4  A    between atoms: C_9  and  C_11 
REMARK    5  A    between atoms: C_9  and  O_10 
REMARK       I    between atoms: C_11  and  N_12 
REMARK    6  A    between atoms: N_12  and  C_13 
ROOT
HETATM    1  N   UNL     1      -6.333   1.950 -33.314  1.00  0.00    -0.254 N 
HETATM    2  C   UNL     1      -6.904   0.865 -34.131  1.00  0.00     0.256 C 
HETATM    3  C   UNL     1      -6.145  -0.447 -34.074  1.00  0.00     0.035 A 
HETATM    4  C   UNL     1      -4.904  -0.482 -33.454  1.00  0.00     0.048 A 
HETATM    5  N   UNL     1      -4.410   0.671 -32.870  1.00  0.00    -0.308 N 
HETATM    6  C   UNL     1      -5.076   1.849 -32.743  1.00  0.00     0.330 C 
HETATM    7  O   UNL     1      -4.496   2.759 -32.149  1.00  0.00    -0.246 OA
HETATM    8  C   UNL     1      -6.634  -1.630 -34.659  1.00  0.00     0.034 A 
HETATM    9  C   UNL     1      -5.893  -2.810 -34.589  1.00  0.00     0.011 A 
HETATM   10 BR   UNL     1      -6.584  -4.399 -35.346  1.00  0.00    -0.051 Br
HETATM   11  C   UNL     1      -4.650  -2.828 -33.965  1.00  0.00     0.021 A 
HETATM   12  C   UNL     1      -4.149  -1.656 -33.401  1.00  0.00     0.031 A 
HETATM   13  H   UNL     1      -3.504   0.662 -32.418  1.00  0.00     0.170 HD
ENDROOT
BRANCH   1  14
HETATM   14  C   UNL     1      -7.155   3.093 -33.003  1.00  0.00     0.043 A 
HETATM   15  C   UNL     1      -7.362   4.133 -33.918  1.00  0.00     0.032 A 
HETATM   16  C   UNL     1      -8.231   5.188 -33.615  1.00  0.00     0.039 A 
HETATM   17  C   UNL     1      -8.939   5.207 -32.414  1.00  0.00     0.068 A 
HETATM   18  C   UNL     1      -8.727   4.190 -31.488  1.00  0.00     0.039 A 
HETATM   19  C   UNL     1      -7.836   3.150 -31.779  1.00  0.00     0.032 A 
BRANCH  17  20
HETATM   20  O   UNL     1      -9.787   6.267 -32.256  1.00  0.00    -0.352 OA
BRANCH  20  21
HETATM   21  C   UNL     1     -11.147   5.945 -31.961  1.00  0.00     0.171 C 
HETATM   22  C   UNL     1     -11.925   5.966 -33.264  1.00  0.00     0.034 C 
ENDBRANCH  20  21
ENDBRANCH  17  20
ENDBRANCH   1  14
BRANCH   2  23
HETATM   23  C   UNL     1      -8.400   0.592 -33.666  1.00  0.00     0.279 C 
HETATM   24  N   UNL     1      -9.338   1.180 -34.509  1.00  0.00    -0.352 N 
HETATM   25  H   UNL     1      -8.977   1.685 -35.313  1.00  0.00     0.163 HD
HETATM   26  O   UNL     1      -8.698  -0.054 -32.663  1.00  0.00    -0.268 OA
BRANCH  24  27
HETATM   27  C   UNL     1     -10.736   1.184 -34.238  1.00  0.00     0.084 A 
HETATM   28  C   UNL     1     -11.360   2.234 -33.358  1.00  0.00     0.027 A 
HETATM   29  C   UNL     1     -11.615   2.251 -34.835  1.00  0.00     0.027 A 
ENDBRANCH  24  27
ENDBRANCH   2  23
BRANCH   2  30
HETATM   30  O   UNL     1      -6.815   1.283 -35.495  1.00  0.00    -0.359 OA
HETATM   31  H   UNL     1      -6.085   0.742 -35.844  1.00  0.00     0.213 HD
ENDBRANCH   2  30
TORSDOF 6
ENDMDL
MODEL 3
REMARK VINA RESULT:      -7.6      2.585      3.403
REMARK  6 active torsions:
REMARK  status: ('A' for Active; 'I' for Inactive)
REMARK    1  A    between atoms: C_2  and  O_3 
REMARK    2  A    between atoms: O_3  and  C_4 
REMARK    3  A    between atoms: C_7  and  N_8 
REMARK    4  A    between atoms: C_9  and  C_11 
REMARK    5  A    between atoms: C_9  and  O_10 
REMARK       I    between atoms: C_11  and  N_12 
REMARK    6  A    between atoms: N_12  and  C_13 
ROOT
HETATM    1  N   UNL     1      -7.782   2.133 -32.626  1.00  0.00    -0.254 N 
HETATM    2  C   UNL     1      -9.126   2.102 -32.021  1.00  0.00     0.256 C 
HETATM    3  C   UNL     1      -9.724   3.463 -31.721  1.00  0.00     0.035 A 
HETATM    4  C   UNL     1      -8.925   4.591 -31.834  1.00  0.00     0.048 A 
HETATM    5  N   UNL     1      -7.614   4.449 -32.255  1.00  0.00    -0.308 N 
HETATM    6  C   UNL     1      -7.035   3.296 -32.684  1.00  0.00     0.330 C 
HETATM    7  O   UNL     1      -5.867   3.366 -33.069  1.00  0.00    -0.246 OA
HETATM    8  C   UNL     1     -11.056   3.626 -31.296  1.00  0.00     0.034 A 
HETATM    9  C   UNL     1     -11.557   4.899 -31.021  1.00  0.00     0.011 A 
HETATM   10 BR   UNL     1     -13.360   5.104 -30.489  1.00  0.00    -0.051 Br
HETATM   11  C   UNL     1     -10.742   6.021 -31.138  1.00  0.00     0.021 A 
HETATM   12  C   UNL     1      -9.416   5.865 -31.539  1.00  0.00     0.031 A 
HETATM   13  H   UNL     1      -7.017   5.263 -32.337  1.00  0.00     0.170 HD
ENDROOT
BRANCH   1  14
HETATM   14  C   UNL     1      -7.288   0.948 -33.280  1.00  0.00     0.043 A 
HETATM   15  C   UNL     1      -7.370   0.771 -34.668  1.00  0.00     0.032 A 
HETATM   16  C   UNL     1      -6.807  -0.355 -35.280  1.00  0.00     0.039 A 
HETATM   17  C   UNL     1      -6.118  -1.305 -34.528  1.00  0.00     0.068 A 
HETATM   18  C   UNL     1      -6.046  -1.153 -33.147  1.00  0.00     0.039 A 
HETATM   19  C   UNL     1      -6.635  -0.041 -32.531  1.00  0.00     0.032 A 
BRANCH  17  20
HETATM   20  O   UNL     1      -5.578  -2.334 -35.247  1.00  0.00    -0.352 OA
BRANCH  20  21
HETATM   21  C   UNL     1      -5.570  -3.611 -34.607  1.00  0.00     0.171 C 
HETATM   22  C   UNL     1      -6.807  -4.368 -35.056  1.00  0.00     0.034 C 
ENDBRANCH  20  21
ENDBRANCH  17  20
ENDBRANCH   1  14
BRANCH   2  23
HETATM   23  C   UNL     1     -10.118   1.327 -32.992  1.00  0.00     0.279 C 
HETATM   24  N   UNL     1     -10.589   2.128 -34.028  1.00  0.00    -0.352 N 
HETATM   25  H   UNL     1     -10.243   3.083 -34.061  1.00  0.00     0.163 HD
HETATM   26  O   UNL     1     -10.448   0.153 -32.838  1.00  0.00    -0.268 OA
BRANCH  24  27
HETATM   27  C   UNL     1     -11.583   1.701 -34.954  1.00  0.00     0.084 A 
HETATM   28  C   UNL     1     -13.045   1.727 -34.600  1.00  0.00     0.027 A 
HETATM   29  C   UNL     1     -12.501   2.711 -35.590  1.00  0.00     0.027 A 
ENDBRANCH  24  27
ENDBRANCH   2  23
BRANCH   2  30
HETATM   30  O   UNL     1      -8.991   1.470 -30.746  1.00  0.00    -0.359 OA
HETATM   31  H   UNL     1      -8.782   2.212 -30.153  1.00  0.00     0.213 HD
ENDBRANCH   2  30
TORSDOF 6
ENDMDL
MODEL 4
REMARK VINA RESULT:      -7.3      3.099      6.721
REMARK  6 active torsions:
REMARK  status: ('A' for Active; 'I' for Inactive)
REMARK    1  A    between atoms: C_2  and  O_3 
REMARK    2  A    between atoms: O_3  and  C_4 
REMARK    3  A    between atoms: C_7  and  N_8 
REMARK    4  A    between atoms: C_9  and  C_11 
REMARK    5  A    between atoms: C_9  and  O_10 
REMARK       I    between atoms: C_11  and  N_12 
REMARK    6  A    between atoms: N_12  and  C_13 
ROOT
HETATM    1  N   UNL     1      -5.516   2.046 -32.490  1.00  0.00    -0.254 N 
HETATM    2  C   UNL     1      -6.317   1.105 -33.294  1.00  0.00     0.256 C 
HETATM    3  C   UNL     1      -5.679  -0.253 -33.513  1.00  0.00     0.035 A 
HETATM    4  C   UNL     1      -4.357  -0.446 -33.141  1.00  0.00     0.048 A 
HETATM    5  N   UNL     1      -3.666   0.595 -32.543  1.00  0.00    -0.308 N 
HETATM    6  C   UNL     1      -4.193   1.793 -32.176  1.00  0.00     0.330 C 
HETATM    7  O   UNL     1      -3.439   2.585 -31.610  1.00  0.00    -0.246 OA
HETATM    8  C   UNL     1      -6.367  -1.324 -34.115  1.00  0.00     0.034 A 
HETATM    9  C   UNL     1      -5.733  -2.552 -34.304  1.00  0.00     0.011 A 
HETATM   10 BR   UNL     1      -6.685  -3.991 -35.078  1.00  0.00    -0.051 Br
HETATM   11  C   UNL     1      -4.406  -2.728 -33.926  1.00  0.00     0.021 A 
HETATM   12  C   UNL     1      -3.711  -1.667 -33.348  1.00  0.00     0.031 A 
HETATM   13  H   UNL     1      -2.699   0.470 -32.271  1.00  0.00     0.170 HD
ENDROOT
BRANCH   1  14
HETATM   14  C   UNL     1      -6.166   3.198 -31.918  1.00  0.00     0.043 A 
HETATM   15  C   UNL     1      -6.521   3.260 -30.565  1.00  0.00     0.032 A 
HETATM   16  C   UNL     1      -7.077   4.426 -30.024  1.00  0.00     0.039 A 
HETATM   17  C   UNL     1      -7.252   5.563 -30.810  1.00  0.00     0.068 A 
HETATM   18  C   UNL     1      -6.922   5.509 -32.161  1.00  0.00     0.039 A 
HETATM   19  C   UNL     1      -6.394   4.334 -32.709  1.00  0.00     0.032 A 
BRANCH  17  20
HETATM   20  O   UNL     1      -7.763   6.648 -30.156  1.00  0.00    -0.352 OA
BRANCH  20  21
HETATM   21  C   UNL     1      -7.457   6.743 -28.763  1.00  0.00     0.171 C 
HETATM   22  C   UNL     1      -8.743   7.066 -28.023  1.00  0.00     0.034 C 
ENDBRANCH  20  21
ENDBRANCH  17  20
ENDBRANCH   1  14
BRANCH   2  23
HETATM   23  C   UNL     1      -7.726   0.884 -32.590  1.00  0.00     0.279 C 
HETATM   24  N   UNL     1      -8.781   1.417 -33.324  1.00  0.00    -0.352 N 
HETATM   25  H   UNL     1      -8.545   1.857 -34.209  1.00  0.00     0.163 HD
HETATM   26  O   UNL     1      -7.868   0.317 -31.508  1.00  0.00    -0.268 OA
BRANCH  24  27
HETATM   27  C   UNL     1     -10.122   1.456 -32.846  1.00  0.00     0.084 A 
HETATM   28  C   UNL     1     -11.233   2.036 -33.679  1.00  0.00     0.027 A 
HETATM   29  C   UNL     1     -11.164   0.556 -33.455  1.00  0.00     0.027 A 
ENDBRANCH  24  27
ENDBRANCH   2  23
BRANCH   2  30
HETATM   30  O   UNL     1      -6.433   1.672 -34.601  1.00  0.00    -0.359 OA
HETATM   31  H   UNL     1      -7.246   1.262 -34.947  1.00  0.00     0.213 HD
ENDBRANCH   2  30
TORSDOF 6
ENDMDL
MODEL 5
REMARK VINA RESULT:      -7.2      2.094      4.311
REMARK  6 active torsions:
REMARK  status: ('A' for Active; 'I' for Inactive)
REMARK    1  A    between atoms: C_2  and  O_3 
REMARK    2  A    between atoms: O_3  and  C_4 
REMARK    3  A    between atoms: C_7  and  N_8 
REMARK    4  A    between atoms: C_9  and  C_11 
REMARK    5  A    between atoms: C_9  and  O_10 
REMARK       I    between atoms: C_11  and  N_12 
REMARK    6  A    between atoms: N_12  and  C_13 
ROOT
HETATM    1  N   UNL     1      -8.889   1.893 -33.046  1.00  0.00    -0.254 N 
HETATM    2  C   UNL     1      -8.452   3.252 -32.681  1.00  0.00     0.256 C 
HETATM    3  C   UNL     1      -9.497   4.093 -31.976  1.00  0.00     0.035 A 
HETATM    4  C   UNL     1     -10.804   3.630 -31.909  1.00  0.00     0.048 A 
HETATM    5  N   UNL     1     -11.109   2.394 -32.453  1.00  0.00    -0.308 N 
HETATM    6  C   UNL     1     -10.217   1.509 -32.972  1.00  0.00     0.330 C 
HETATM    7  O   UNL     1     -10.663   0.432 -33.368  1.00  0.00    -0.246 OA
HETATM    8  C   UNL     1      -9.204   5.350 -31.415  1.00  0.00     0.034 A 
HETATM    9  C   UNL     1     -10.205   6.092 -30.785  1.00  0.00     0.011 A 
HETATM   10 BR   UNL     1      -9.784   7.760 -30.002  1.00  0.00    -0.051 Br
HETATM   11  C   UNL     1     -11.510   5.614 -30.728  1.00  0.00     0.021 A 
HETATM   12  C   UNL     1     -11.813   4.379 -31.300  1.00  0.00     0.031 A 
HETATM   13  H   UNL     1     -12.058   2.045 -32.415  1.00  0.00     0.170 HD
ENDROOT
BRANCH   1  14
HETATM   14  C   UNL     1      -7.891   0.905 -33.371  1.00  0.00     0.043 A 
HETATM   15  C   UNL     1      -7.321   0.071 -32.401  1.00  0.00     0.032 A 
HETATM   16  C   UNL     1      -6.414  -0.932 -32.764  1.00  0.00     0.039 A 
HETATM   17  C   UNL     1      -6.088  -1.148 -34.102  1.00  0.00     0.068 A 
HETATM   18  C   UNL     1      -6.631  -0.314 -35.074  1.00  0.00     0.039 A 
HETATM   19  C   UNL     1      -7.515   0.708 -34.708  1.00  0.00     0.032 A 
BRANCH  17  20
HETATM   20  O   UNL     1      -5.226  -2.184 -34.329  1.00  0.00    -0.352 OA
BRANCH  20  21
HETATM   21  C   UNL     1      -5.592  -3.089 -35.372  1.00  0.00     0.171 C 
HETATM   22  C   UNL     1      -6.615  -4.060 -34.810  1.00  0.00     0.034 C 
ENDBRANCH  20  21
ENDBRANCH  17  20
ENDBRANCH   1  14
BRANCH   2  23
HETATM   23  C   UNL     1      -7.175   3.155 -31.738  1.00  0.00     0.279 C 
HETATM   24  N   UNL     1      -5.993   3.463 -32.403  1.00  0.00    -0.352 N 
HETATM   25  H   UNL     1      -6.074   3.727 -33.381  1.00  0.00     0.163 HD
HETATM   26  O   UNL     1      -7.223   2.828 -30.554  1.00  0.00    -0.268 OA
BRANCH  24  27
HETATM   27  C   UNL     1      -4.705   3.328 -31.809  1.00  0.00     0.084 A 
HETATM   28  C   UNL     1      -3.958   2.023 -31.849  1.00  0.00     0.027 A 
HETATM   29  C   UNL     1      -3.487   3.177 -32.680  1.00  0.00     0.027 A 
ENDBRANCH  24  27
ENDBRANCH   2  23
BRANCH   2  30
HETATM   30  O   UNL     1      -8.186   3.943 -33.904  1.00  0.00    -0.359 OA
HETATM   31  H   UNL     1      -8.859   3.587 -34.509  1.00  0.00     0.213 HD
ENDBRANCH   2  30
TORSDOF 6
ENDMDL
MODEL 6
REMARK VINA RESULT:      -7.2     17.021     18.689
REMARK  6 active torsions:
REMARK  status: ('A' for Active; 'I' for Inactive)
REMARK    1  A    between atoms: C_2  and  O_3 
REMARK    2  A    between atoms: O_3  and  C_4 
REMARK    3  A    between atoms: C_7  and  N_8 
REMARK    4  A    between atoms: C_9  and  C_11 
REMARK    5  A    between atoms: C_9  and  O_10 
REMARK       I    between atoms: C_11  and  N_12 
REMARK    6  A    between atoms: N_12  and  C_13 
ROOT
HETATM    1  N   UNL     1      -4.618 -14.246 -39.929  1.00  0.00    -0.254 N 
HETATM    2  C   UNL     1      -3.801 -14.961 -38.932  1.00  0.00     0.256 C 
HETATM    3  C   UNL     1      -2.303 -14.858 -39.139  1.00  0.00     0.035 A 
HETATM    4  C   UNL     1      -1.820 -14.302 -40.316  1.00  0.00     0.048 A 
HETATM    5  N   UNL     1      -2.720 -13.819 -41.251  1.00  0.00    -0.308 N 
HETATM    6  C   UNL     1      -4.067 -13.735 -41.091  1.00  0.00     0.330 C 
HETATM    7  O   UNL     1      -4.709 -13.231 -42.014  1.00  0.00    -0.246 OA
HETATM    8  C   UNL     1      -1.374 -15.340 -38.198  1.00  0.00     0.034 A 
HETATM    9  C   UNL     1      -0.004 -15.232 -38.439  1.00  0.00     0.011 A 
HETATM   10 BR   UNL     1       1.229 -15.848 -37.145  1.00  0.00    -0.051 Br
HETATM   11  C   UNL     1       0.463 -14.673 -39.625  1.00  0.00     0.021 A 
HETATM   12  C   UNL     1      -0.450 -14.212 -40.572  1.00  0.00     0.031 A 
HETATM   13  H   UNL     1      -2.383 -13.415 -42.116  1.00  0.00     0.170 HD
ENDROOT
BRANCH   1  14
HETATM   14  C   UNL     1      -5.999 -13.968 -39.626  1.00  0.00     0.043 A 
HETATM   15  C   UNL     1      -6.414 -12.743 -39.089  1.00  0.00     0.032 A 
HETATM   16  C   UNL     1      -7.773 -12.477 -38.882  1.00  0.00     0.039 A 
HETATM   17  C   UNL     1      -8.745 -13.408 -39.243  1.00  0.00     0.068 A 
HETATM   18  C   UNL     1      -8.346 -14.637 -39.759  1.00  0.00     0.039 A 
HETATM   19  C   UNL     1      -6.985 -14.915 -39.938  1.00  0.00     0.032 A 
BRANCH  17  20
HETATM   20  O   UNL     1     -10.036 -13.012 -39.031  1.00  0.00    -0.352 OA
BRANCH  20  21
HETATM   21  C   UNL     1     -10.840 -12.842 -40.199  1.00  0.00     0.171 C 
HETATM   22  C   UNL     1     -10.888 -11.359 -40.522  1.00  0.00     0.034 C 
ENDBRANCH  20  21
ENDBRANCH  17  20
ENDBRANCH   1  14
BRANCH   2  23
HETATM   23  C   UNL     1      -4.141 -14.403 -37.482  1.00  0.00     0.279 C 
HETATM   24  N   UNL     1      -5.002 -15.236 -36.775  1.00  0.00    -0.352 N 
HETATM   25  H   UNL     1      -5.294 -16.092 -37.240  1.00  0.00     0.163 HD
HETATM   26  O   UNL     1      -3.703 -13.344 -37.037  1.00  0.00    -0.268 OA
BRANCH  24  27
HETATM   27  C   UNL     1      -5.550 -14.896 -35.506  1.00  0.00     0.084 A 
HETATM   28  C   UNL     1      -6.770 -14.023 -35.389  1.00  0.00     0.027 A 
HETATM   29  C   UNL     1      -6.866 -15.485 -35.073  1.00  0.00     0.027 A 
ENDBRANCH  24  27
ENDBRANCH   2  23
BRANCH   2  30
HETATM   30  O   UNL     1      -4.098 -16.351 -39.074  1.00  0.00    -0.359 OA
HETATM   31  H   UNL     1      -4.471 -16.587 -38.207  1.00  0.00     0.213 HD
ENDBRANCH   2  30
TORSDOF 6
ENDMDL
MODEL 7
REMARK VINA RESULT:      -7.0     16.644     18.389
REMARK  6 active torsions:
REMARK  status: ('A' for Active; 'I' for Inactive)
REMARK    1  A    between atoms: C_2  and  O_3 
REMARK    2  A    between atoms: O_3  and  C_4 
REMARK    3  A    between atoms: C_7  and  N_8 
REMARK    4  A    between atoms: C_9  and  C_11 
REMARK    5  A    between atoms: C_9  and  O_10 
REMARK       I    between atoms: C_11  and  N_12 
REMARK    6  A    between atoms: N_12  and  C_13 
ROOT
HETATM    1  N   UNL     1      -4.783 -13.760 -37.151  1.00  0.00    -0.254 N 
HETATM    2  C   UNL     1      -3.647 -13.927 -38.075  1.00  0.00     0.256 C 
HETATM    3  C   UNL     1      -2.373 -14.444 -37.436  1.00  0.00     0.035 A 
HETATM    4  C   UNL     1      -2.295 -14.523 -36.052  1.00  0.00     0.048 A 
HETATM    5  N   UNL     1      -3.397 -14.166 -35.295  1.00  0.00    -0.308 N 
HETATM    6  C   UNL     1      -4.623 -13.833 -35.778  1.00  0.00     0.330 C 
HETATM    7  O   UNL     1      -5.504 -13.589 -34.952  1.00  0.00    -0.246 OA
HETATM    8  C   UNL     1      -1.245 -14.815 -38.191  1.00  0.00     0.034 A 
HETATM    9  C   UNL     1      -0.091 -15.275 -37.555  1.00  0.00     0.011 A 
HETATM   10 BR   UNL     1       1.401 -15.806 -38.587  1.00  0.00    -0.051 Br
HETATM   11  C   UNL     1      -0.029 -15.347 -36.167  1.00  0.00     0.021 A 
HETATM   12  C   UNL     1      -1.135 -14.961 -35.411  1.00  0.00     0.031 A 
HETATM   13  H   UNL     1      -3.354 -14.214 -34.284  1.00  0.00     0.170 HD
ENDROOT
BRANCH   1  14
HETATM   14  C   UNL     1      -6.111 -13.638 -37.697  1.00  0.00     0.043 A 
HETATM   15  C   UNL     1      -7.066 -14.655 -37.572  1.00  0.00     0.032 A 
HETATM   16  C   UNL     1      -8.372 -14.472 -38.043  1.00  0.00     0.039 A 
HETATM   17  C   UNL     1      -8.761 -13.260 -38.611  1.00  0.00     0.068 A 
HETATM   18  C   UNL     1      -7.817 -12.249 -38.761  1.00  0.00     0.039 A 
HETATM   19  C   UNL     1      -6.504 -12.443 -38.316  1.00  0.00     0.032 A 
BRANCH  17  20
HETATM   20  O   UNL     1     -10.072 -13.192 -38.992  1.00  0.00    -0.352 OA
BRANCH  20  21
HETATM   21  C   UNL     1     -10.311 -12.903 -40.371  1.00  0.00     0.171 C 
HETATM   22  C   UNL     1     -10.822 -11.477 -40.469  1.00  0.00     0.034 C 
ENDBRANCH  20  21
ENDBRANCH  17  20
ENDBRANCH   1  14
BRANCH   2  23
HETATM   23  C   UNL     1      -4.062 -14.931 -39.236  1.00  0.00     0.279 C 
HETATM   24  N   UNL     1      -4.088 -14.323 -40.487  1.00  0.00    -0.352 N 
HETATM   25  H   UNL     1      -3.829 -13.340 -40.523  1.00  0.00     0.163 HD
HETATM   26  O   UNL     1      -4.344 -16.113 -39.050  1.00  0.00    -0.268 OA
BRANCH  24  27
HETATM   27  C   UNL     1      -4.548 -14.978 -41.664  1.00  0.00     0.084 A 
HETATM   28  C   UNL     1      -5.098 -14.201 -42.829  1.00  0.00     0.027 A 
HETATM   29  C   UNL     1      -3.761 -14.867 -42.943  1.00  0.00     0.027 A 
ENDBRANCH  24  27
ENDBRANCH   2  23
BRANCH   2  30
HETATM   30  O   UNL     1      -3.314 -12.625 -38.561  1.00  0.00    -0.359 OA
HETATM   31  H   UNL     1      -3.814 -12.566 -39.394  1.00  0.00     0.213 HD
ENDBRANCH   2  30
TORSDOF 6
ENDMDL
MODEL 8
REMARK VINA RESULT:      -7.0      3.508      5.227
REMARK  6 active torsions:
REMARK  status: ('A' for Active; 'I' for Inactive)
REMARK    1  A    between atoms: C_2  and  O_3 
REMARK    2  A    between atoms: O_3  and  C_4 
REMARK    3  A    between atoms: C_7  and  N_8 
REMARK    4  A    between atoms: C_9  and  C_11 
REMARK    5  A    between atoms: C_9  and  O_10 
REMARK       I    between atoms: C_11  and  N_12 
REMARK    6  A    between atoms: N_12  and  C_13 
ROOT
HETATM    1  N   UNL     1      -4.235   4.591 -33.480  1.00  0.00    -0.254 N 
HETATM    2  C   UNL     1      -3.552   4.576 -32.175  1.00  0.00     0.256 C 
HETATM    3  C   UNL     1      -2.360   5.507 -32.065  1.00  0.00     0.035 A 
HETATM    4  C   UNL     1      -1.882   6.129 -33.210  1.00  0.00     0.048 A 
HETATM    5  N   UNL     1      -2.529   5.913 -34.414  1.00  0.00    -0.308 N 
HETATM    6  C   UNL     1      -3.684   5.216 -34.585  1.00  0.00     0.330 C 
HETATM    7  O   UNL     1      -4.145   5.168 -35.726  1.00  0.00    -0.246 OA
HETATM    8  C   UNL     1      -1.692   5.741 -30.849  1.00  0.00     0.034 A 
HETATM    9  C   UNL     1      -0.593   6.599 -30.801  1.00  0.00     0.011 A 
HETATM   10 BR   UNL     1       0.267   6.932 -29.151  1.00  0.00    -0.051 Br
HETATM   11  C   UNL     1      -0.125   7.213 -31.959  1.00  0.00     0.021 A 
HETATM   12  C   UNL     1      -0.768   6.971 -33.171  1.00  0.00     0.031 A 
HETATM   13  H   UNL     1      -2.189   6.356 -35.259  1.00  0.00     0.170 HD
ENDROOT
BRANCH   1  14
HETATM   14  C   UNL     1      -5.566   4.044 -33.575  1.00  0.00     0.043 A 
HETATM   15  C   UNL     1      -6.707   4.856 -33.599  1.00  0.00     0.032 A 
HETATM   16  C   UNL     1      -7.979   4.298 -33.773  1.00  0.00     0.039 A 
HETATM   17  C   UNL     1      -8.134   2.926 -33.965  1.00  0.00     0.068 A 
HETATM   18  C   UNL     1      -7.011   2.105 -33.923  1.00  0.00     0.039 A 
HETATM   19  C   UNL     1      -5.742   2.661 -33.720  1.00  0.00     0.032 A 
BRANCH  17  20
HETATM   20  O   UNL     1      -9.420   2.510 -34.167  1.00  0.00    -0.352 OA
BRANCH  20  21
HETATM   21  C   UNL     1     -10.122   2.056 -33.008  1.00  0.00     0.171 C 
HETATM   22  C   UNL     1     -10.215   0.542 -33.081  1.00  0.00     0.034 C 
ENDBRANCH  20  21
ENDBRANCH  17  20
ENDBRANCH   1  14
BRANCH   2  23
HETATM   23  C   UNL     1      -4.591   4.965 -31.036  1.00  0.00     0.279 C 
HETATM   24  N   UNL     1      -5.146   3.852 -30.414  1.00  0.00    -0.352 N 
HETATM   25  H   UNL     1      -4.823   2.942 -30.731  1.00  0.00     0.163 HD
HETATM   26  O   UNL     1      -4.886   6.123 -30.745  1.00  0.00    -0.268 OA
BRANCH  24  27
HETATM   27  C   UNL     1      -6.192   3.936 -29.451  1.00  0.00     0.084 A 
HETATM   28  C   UNL     1      -7.507   4.589 -29.777  1.00  0.00     0.027 A 
HETATM   29  C   UNL     1      -7.434   3.101 -29.613  1.00  0.00     0.027 A 
ENDBRANCH  24  27
ENDBRANCH   2  23
BRANCH   2  30
HETATM   30  O   UNL     1      -3.011   3.264 -32.006  1.00  0.00    -0.359 OA
HETATM   31  H   UNL     1      -2.233   3.269 -32.591  1.00  0.00     0.213 HD
ENDBRANCH   2  30
TORSDOF 6
ENDMDL
MODEL 9
REMARK VINA RESULT:      -7.0      3.129      7.348
REMARK  6 active torsions:
REMARK  status: ('A' for Active; 'I' for Inactive)
REMARK    1  A    between atoms: C_2  and  O_3 
REMARK    2  A    between atoms: O_3  and  C_4 
REMARK    3  A    between atoms: C_7  and  N_8 
REMARK    4  A    between atoms: C_9  and  C_11 
REMARK    5  A    between atoms: C_9  and  O_10 
REMARK       I    between atoms: C_11  and  N_12 
REMARK    6  A    between atoms: N_12  and  C_13 
ROOT
HETATM    1  N   UNL     1      -8.456   1.823 -32.589  1.00  0.00    -0.254 N 
HETATM    2  C   UNL     1      -7.431   1.080 -31.835  1.00  0.00     0.256 C 
HETATM    3  C   UNL     1      -6.668   0.046 -32.640  1.00  0.00     0.035 A 
HETATM    4  C   UNL     1      -7.104  -0.270 -33.919  1.00  0.00     0.048 A 
HETATM    5  N   UNL     1      -8.199   0.396 -34.441  1.00  0.00    -0.308 N 
HETATM    6  C   UNL     1      -8.855   1.434 -33.856  1.00  0.00     0.330 C 
HETATM    7  O   UNL     1      -9.782   1.938 -34.490  1.00  0.00    -0.246 OA
HETATM    8  C   UNL     1      -5.550  -0.637 -32.126  1.00  0.00     0.034 A 
HETATM    9  C   UNL     1      -4.887  -1.589 -32.903  1.00  0.00     0.011 A 
HETATM   10 BR   UNL     1      -3.363  -2.468 -32.212  1.00  0.00    -0.051 Br
HETATM   11  C   UNL     1      -5.338  -1.895 -34.183  1.00  0.00     0.021 A 
HETATM   12  C   UNL     1      -6.457  -1.237 -34.691  1.00  0.00     0.031 A 
HETATM   13  H   UNL     1      -8.532   0.173 -35.371  1.00  0.00     0.170 HD
ENDROOT
BRANCH   1  14
HETATM   14  C   UNL     1      -8.968   3.053 -32.040  1.00  0.00     0.043 A 
HETATM   15  C   UNL     1      -8.624   4.306 -32.565  1.00  0.00     0.032 A 
HETATM   16  C   UNL     1      -9.202   5.476 -32.060  1.00  0.00     0.039 A 
HETATM   17  C   UNL     1     -10.161   5.419 -31.051  1.00  0.00     0.068 A 
HETATM   18  C   UNL     1     -10.498   4.184 -30.506  1.00  0.00     0.039 A 
HETATM   19  C   UNL     1      -9.898   3.015 -30.991  1.00  0.00     0.032 A 
BRANCH  17  20
HETATM   20  O   UNL     1     -10.681   6.626 -30.675  1.00  0.00    -0.352 OA
BRANCH  20  21
HETATM   21  C   UNL     1      -9.734   7.626 -30.294  1.00  0.00     0.171 C 
HETATM   22  C   UNL     1      -9.410   7.428 -28.824  1.00  0.00     0.034 C 
ENDBRANCH  20  21
ENDBRANCH  17  20
ENDBRANCH   1  14
BRANCH   2  23
HETATM   23  C   UNL     1      -6.381   2.109 -31.228  1.00  0.00     0.279 C 
HETATM   24  N   UNL     1      -5.547   2.658 -32.196  1.00  0.00    -0.352 N 
HETATM   25  H   UNL     1      -5.707   2.366 -33.156  1.00  0.00     0.163 HD
HETATM   26  O   UNL     1      -6.304   2.381 -30.031  1.00  0.00    -0.268 OA
BRANCH  24  27
HETATM   27  C   UNL     1      -4.447   3.508 -31.888  1.00  0.00     0.084 A 
HETATM   28  C   UNL     1      -3.124   2.947 -31.443  1.00  0.00     0.027 A 
HETATM   29  C   UNL     1      -3.254   3.558 -32.805  1.00  0.00     0.027 A 
ENDBRANCH  24  27
ENDBRANCH   2  23
BRANCH   2  30
HETATM   30  O   UNL     1      -8.118   0.331 -30.830  1.00  0.00    -0.359 OA
HETATM   31  H   UNL     1      -9.045   0.604 -30.946  1.00  0.00     0.213 HD
ENDBRANCH   2  30
TORSDOF 6
ENDMDL
MODEL 10
REMARK VINA RESULT:      -6.8      3.120      4.245
REMARK  6 active torsions:
REMARK  status: ('A' for Active; 'I' for Inactive)
REMARK    1  A    between atoms: C_2  and  O_3 
REMARK    2  A    between atoms: O_3  and  C_4 
REMARK    3  A    between atoms: C_7  and  N_8 
REMARK    4  A    between atoms: C_9  and  C_11 
REMARK    5  A    between atoms: C_9  and  O_10 
REMARK       I    between atoms: C_11  and  N_12 
REMARK    6  A    between atoms: N_12  and  C_13 
ROOT
HETATM    1  N   UNL     1      -5.735   2.564 -32.292  1.00  0.00    -0.254 N 
HETATM    2  C   UNL     1      -5.685   4.002 -31.976  1.00  0.00     0.256 C 
HETATM    3  C   UNL     1      -4.299   4.617 -32.012  1.00  0.00     0.035 A 
HETATM    4  C   UNL     1      -3.194   3.786 -32.126  1.00  0.00     0.048 A 
HETATM    5  N   UNL     1      -3.388   2.420 -32.245  1.00  0.00    -0.308 N 
HETATM    6  C   UNL     1      -4.588   1.793 -32.369  1.00  0.00     0.330 C 
HETATM    7  O   UNL     1      -4.568   0.571 -32.515  1.00  0.00    -0.246 OA
HETATM    8  C   UNL     1      -4.084   6.003 -31.896  1.00  0.00     0.034 A 
HETATM    9  C   UNL     1      -2.788   6.521 -31.924  1.00  0.00     0.011 A 
HETATM   10 BR   UNL     1      -2.521   8.388 -31.807  1.00  0.00    -0.051 Br
HETATM   11  C   UNL     1      -1.691   5.673 -32.038  1.00  0.00     0.021 A 
HETATM   12  C   UNL     1      -1.894   4.297 -32.132  1.00  0.00     0.031 A 
HETATM   13  H   UNL     1      -2.591   1.801 -32.325  1.00  0.00     0.170 HD
ENDROOT
BRANCH   1  14
HETATM   14  C   UNL     1      -7.001   1.974 -32.647  1.00  0.00     0.043 A 
HETATM   15  C   UNL     1      -7.974   1.660 -31.689  1.00  0.00     0.032 A 
HETATM   16  C   UNL     1      -9.224   1.163 -32.075  1.00  0.00     0.039 A 
HETATM   17  C   UNL     1      -9.544   1.007 -33.423  1.00  0.00     0.068 A 
HETATM   18  C   UNL     1      -8.580   1.296 -34.385  1.00  0.00     0.039 A 
HETATM   19  C   UNL     1      -7.319   1.765 -33.997  1.00  0.00     0.032 A 
BRANCH  17  20
HETATM   20  O   UNL     1     -10.809   0.556 -33.671  1.00  0.00    -0.352 OA
BRANCH  20  21
HETATM   21  C   UNL     1     -11.832   1.552 -33.725  1.00  0.00     0.171 C 
HETATM   22  C   UNL     1     -12.266   1.698 -35.172  1.00  0.00     0.034 C 
ENDBRANCH  20  21
ENDBRANCH  17  20
ENDBRANCH   1  14
BRANCH   2  23
HETATM   23  C   UNL     1      -6.606   4.795 -33.002  1.00  0.00     0.279 C 
HETATM   24  N   UNL     1      -7.845   5.126 -32.464  1.00  0.00    -0.352 N 
HETATM   25  H   UNL     1      -8.013   4.851 -31.500  1.00  0.00     0.163 HD
HETATM   26  O   UNL     1      -6.268   5.073 -34.151  1.00  0.00    -0.268 OA
BRANCH  24  27
HETATM   27  C   UNL     1      -8.890   5.726 -33.223  1.00  0.00     0.084 A 
HETATM   28  C   UNL     1      -9.657   4.944 -34.255  1.00  0.00     0.027 A 
HETATM   29  C   UNL     1     -10.322   5.337 -32.971  1.00  0.00     0.027 A 
ENDBRANCH  24  27
ENDBRANCH   2  23
BRANCH   2  30
HETATM   30  O   UNL     1      -6.116   4.144 -30.621  1.00  0.00    -0.359 OA
HETATM   31  H   UNL     1      -5.872   3.290 -30.222  1.00  0.00     0.213 HD
ENDBRANCH   2  30
TORSDOF 6
ENDMDL
