MODEL 1
REMARK VINA RESULT:      -8.6      0.000      0.000
REMARK  2 active torsions:
REMARK  status: ('A' for Active; 'I' for Inactive)
REMARK    1  A    between atoms: C_2  and  C_3 
REMARK    2  A    between atoms: C_6  and  C_7 
ROOT
HETATM    1  C   UNL     1      -5.949   1.087 -32.980  1.00  0.00     0.119 C 
HETATM    2  S   UNL     1      -7.125   2.136 -33.861  1.00  0.00    -0.141 SA
HETATM    3  C   UNL     1      -8.682   1.561 -33.129  1.00  0.00     0.136 C 
HETATM    4  C   UNL     1      -9.799   1.728 -34.156  1.00  0.00     0.031 C 
HETATM    5  C   UNL     1      -8.966   2.368 -31.886  1.00  0.00     0.236 C 
HETATM    6  O   UNL     1      -9.951   3.072 -31.713  1.00  0.00    -0.272 OA
HETATM    7  N   UNL     1      -8.124   2.280 -30.738  1.00  0.00    -0.311 N 
HETATM    8  C   UNL     1      -6.944   1.581 -30.576  1.00  0.00     0.134 A 
HETATM    9  C   UNL     1      -6.043   1.043 -31.484  1.00  0.00     0.032 A 
HETATM   10  N   UNL     1      -6.417   1.340 -29.332  1.00  0.00    -0.262 N 
HETATM   11  H   UNL     1      -6.795   1.608 -28.429  1.00  0.00     0.191 HD
HETATM   12  N   UNL     1      -5.289   0.636 -29.341  1.00  0.00    -0.178 NA
HETATM   13  C   UNL     1      -5.025   0.467 -30.638  1.00  0.00     0.062 A 
HETATM   14  C   UNL     1      -3.781  -0.254 -31.031  1.00  0.00     0.073 C 
HETATM   15  H   UNL     1      -8.509   2.783 -29.944  1.00  0.00     0.170 HD
ENDROOT
BRANCH   1  16
HETATM   16  C   UNL     1      -5.892  -0.331 -33.533  1.00  0.00    -0.040 A 
HETATM   17  C   UNL     1      -7.106  -1.027 -33.695  1.00  0.00     0.009 A 
HETATM   18  C   UNL     1      -7.138  -2.322 -34.217  1.00  0.00     0.007 A 
HETATM   19  C   UNL     1      -5.954  -2.969 -34.577  1.00  0.00    -0.059 A 
HETATM   20  C   UNL     1      -4.739  -2.297 -34.403  1.00  0.00     0.007 A 
HETATM   21  C   UNL     1      -4.708  -0.997 -33.888  1.00  0.00     0.009 A 
BRANCH  19  22
HETATM   22  C   UNL     1      -5.987  -4.359 -35.163  1.00  0.00     0.034 C 
HETATM   23  C   UNL     1      -4.937  -5.268 -34.541  1.00  0.00     0.010 C 
ENDBRANCH  19  22
ENDBRANCH   1  16
TORSDOF 2
ENDMDL
MODEL 2
REMARK VINA RESULT:      -8.3      2.805      3.968
REMARK  2 active torsions:
REMARK  status: ('A' for Active; 'I' for Inactive)
REMARK    1  A    between atoms: C_2  and  C_3 
REMARK    2  A    between atoms: C_6  and  C_7 
ROOT
HETATM    1  C   UNL     1      -7.996   1.446 -32.481  1.00  0.00     0.119 C 
HETATM    2  S   UNL     1      -6.897   2.852 -32.209  1.00  0.00    -0.141 SA
HETATM    3  C   UNL     1      -6.944   3.621 -33.851  1.00  0.00     0.136 C 
HETATM    4  C   UNL     1      -5.617   4.333 -34.098  1.00  0.00     0.031 C 
HETATM    5  C   UNL     1      -8.097   4.593 -33.903  1.00  0.00     0.236 C 
HETATM    6  O   UNL     1      -7.996   5.795 -34.109  1.00  0.00    -0.272 OA
HETATM    7  N   UNL     1      -9.448   4.144 -33.819  1.00  0.00    -0.311 N 
HETATM    8  C   UNL     1      -9.929   2.869 -33.601  1.00  0.00     0.134 A 
HETATM    9  C   UNL     1      -9.342   1.723 -33.084  1.00  0.00     0.032 A 
HETATM   10  N   UNL     1     -11.238   2.541 -33.856  1.00  0.00    -0.262 N 
HETATM   11  H   UNL     1     -11.972   3.137 -34.223  1.00  0.00     0.191 HD
HETATM   12  N   UNL     1     -11.541   1.268 -33.616  1.00  0.00    -0.178 NA
HETATM   13  C   UNL     1     -10.413   0.756 -33.120  1.00  0.00     0.062 A 
HETATM   14  C   UNL     1     -10.401  -0.669 -32.685  1.00  0.00     0.073 C 
HETATM   15  H   UNL     1     -10.110   4.895 -33.991  1.00  0.00     0.170 HD
ENDROOT
BRANCH   1  16
HETATM   16  C   UNL     1      -7.323   0.305 -33.231  1.00  0.00    -0.040 A 
HETATM   17  C   UNL     1      -6.450  -0.535 -32.512  1.00  0.00     0.009 A 
HETATM   18  C   UNL     1      -5.813  -1.617 -33.124  1.00  0.00     0.007 A 
HETATM   19  C   UNL     1      -6.015  -1.883 -34.480  1.00  0.00    -0.059 A 
HETATM   20  C   UNL     1      -6.865  -1.045 -35.211  1.00  0.00     0.007 A 
HETATM   21  C   UNL     1      -7.509   0.034 -34.597  1.00  0.00     0.009 A 
BRANCH  19  22
HETATM   22  C   UNL     1      -5.347  -3.065 -35.137  1.00  0.00     0.034 C 
HETATM   23  C   UNL     1      -6.267  -4.275 -35.212  1.00  0.00     0.010 C 
ENDBRANCH  19  22
ENDBRANCH   1  16
TORSDOF 2
ENDMDL
MODEL 3
REMARK VINA RESULT:      -7.9      2.057      3.067
REMARK  2 active torsions:
REMARK  status: ('A' for Active; 'I' for Inactive)
REMARK    1  A    between atoms: C_2  and  C_3 
REMARK    2  A    between atoms: C_6  and  C_7 
ROOT
HETATM    1  C   UNL     1      -8.664   2.463 -33.625  1.00  0.00     0.119 C 
HETATM    2  S   UNL     1     -10.097   2.862 -34.649  1.00  0.00    -0.141 SA
HETATM    3  C   UNL     1     -11.394   1.969 -33.749  1.00  0.00     0.136 C 
HETATM    4  C   UNL     1     -12.475   1.544 -34.739  1.00  0.00     0.031 C 
HETATM    5  C   UNL     1     -11.962   2.876 -32.684  1.00  0.00     0.236 C 
HETATM    6  O   UNL     1     -13.130   3.235 -32.615  1.00  0.00    -0.272 OA
HETATM    7  N   UNL     1     -11.170   3.307 -31.580  1.00  0.00    -0.311 N 
HETATM    8  C   UNL     1      -9.830   3.085 -31.330  1.00  0.00     0.134 A 
HETATM    9  C   UNL     1      -8.778   2.700 -32.149  1.00  0.00     0.032 A 
HETATM   10  N   UNL     1      -9.287   3.293 -30.087  1.00  0.00    -0.262 N 
HETATM   11  H   UNL     1      -9.756   3.602 -29.242  1.00  0.00     0.191 HD
HETATM   12  N   UNL     1      -7.989   3.014 -30.002  1.00  0.00    -0.178 NA
HETATM   13  C   UNL     1      -7.649   2.678 -31.248  1.00  0.00     0.062 A 
HETATM   14  C   UNL     1      -6.227   2.343 -31.540  1.00  0.00     0.073 C 
HETATM   15  H   UNL     1     -11.721   3.808 -30.888  1.00  0.00     0.170 HD
ENDROOT
BRANCH   1  16
HETATM   16  C   UNL     1      -8.125   1.062 -33.880  1.00  0.00    -0.040 A 
HETATM   17  C   UNL     1      -7.180   0.894 -34.911  1.00  0.00     0.009 A 
HETATM   18  C   UNL     1      -6.623  -0.356 -35.190  1.00  0.00     0.007 A 
HETATM   19  C   UNL     1      -7.006  -1.482 -34.458  1.00  0.00    -0.059 A 
HETATM   20  C   UNL     1      -7.959  -1.333 -33.444  1.00  0.00     0.007 A 
HETATM   21  C   UNL     1      -8.511  -0.080 -33.159  1.00  0.00     0.009 A 
BRANCH  19  22
HETATM   22  C   UNL     1      -6.388  -2.828 -34.743  1.00  0.00     0.034 C 
HETATM   23  C   UNL     1      -4.868  -2.786 -34.674  1.00  0.00     0.010 C 
ENDBRANCH  19  22
ENDBRANCH   1  16
TORSDOF 2
ENDMDL
MODEL 4
REMARK VINA RESULT:      -7.8     14.616     16.149
REMARK  2 active torsions:
REMARK  status: ('A' for Active; 'I' for Inactive)
REMARK    1  A    between atoms: C_2  and  C_3 
REMARK    2  A    between atoms: C_6  and  C_7 
ROOT
HETATM    1  C   UNL     1      -5.952 -14.818 -39.374  1.00  0.00     0.119 C 
HETATM    2  S   UNL     1      -5.329 -15.676 -40.835  1.00  0.00    -0.141 SA
HETATM    3  C   UNL     1      -4.679 -14.272 -41.781  1.00  0.00     0.136 C 
HETATM    4  C   UNL     1      -4.775 -14.596 -43.270  1.00  0.00     0.031 C 
HETATM    5  C   UNL     1      -3.247 -14.029 -41.373  1.00  0.00     0.236 C 
HETATM    6  O   UNL     1      -2.281 -14.085 -42.122  1.00  0.00    -0.272 OA
HETATM    7  N   UNL     1      -2.917 -13.593 -40.055  1.00  0.00    -0.311 N 
HETATM    8  C   UNL     1      -3.745 -13.412 -38.965  1.00  0.00     0.134 A 
HETATM    9  C   UNL     1      -5.020 -13.876 -38.672  1.00  0.00     0.032 A 
HETATM   10  N   UNL     1      -3.340 -12.696 -37.866  1.00  0.00    -0.262 N 
HETATM   11  H   UNL     1      -2.454 -12.227 -37.716  1.00  0.00     0.191 HD
HETATM   12  N   UNL     1      -4.259 -12.594 -36.910  1.00  0.00    -0.178 NA
HETATM   13  C   UNL     1      -5.279 -13.325 -37.363  1.00  0.00     0.062 A 
HETATM   14  C   UNL     1      -6.491 -13.478 -36.508  1.00  0.00     0.073 C 
HETATM   15  H   UNL     1      -1.933 -13.355 -39.968  1.00  0.00     0.170 HD
ENDROOT
BRANCH   1  16
HETATM   16  C   UNL     1      -7.290 -14.132 -39.615  1.00  0.00    -0.040 A 
HETATM   17  C   UNL     1      -8.465 -14.863 -39.354  1.00  0.00     0.009 A 
HETATM   18  C   UNL     1      -9.729 -14.295 -39.528  1.00  0.00     0.007 A 
HETATM   19  C   UNL     1      -9.858 -12.982 -39.988  1.00  0.00    -0.059 A 
HETATM   20  C   UNL     1      -8.699 -12.251 -40.270  1.00  0.00     0.007 A 
HETATM   21  C   UNL     1      -7.433 -12.817 -40.087  1.00  0.00     0.009 A 
BRANCH  19  22
HETATM   22  C   UNL     1     -11.221 -12.360 -40.155  1.00  0.00     0.034 C 
HETATM   23  C   UNL     1     -11.138 -10.929 -40.668  1.00  0.00     0.010 C 
ENDBRANCH  19  22
ENDBRANCH   1  16
TORSDOF 2
ENDMDL
MODEL 5
REMARK VINA RESULT:      -7.6      5.880      8.332
REMARK  2 active torsions:
REMARK  status: ('A' for Active; 'I' for Inactive)
REMARK    1  A    between atoms: C_2  and  C_3 
REMARK    2  A    between atoms: C_6  and  C_7 
ROOT
HETATM    1  C   UNL     1      -2.580   3.887 -32.207  1.00  0.00     0.119 C 
HETATM    2  S   UNL     1      -3.385   2.549 -31.302  1.00  0.00    -0.141 SA
HETATM    3  C   UNL     1      -5.014   3.292 -31.009  1.00  0.00     0.136 C 
HETATM    4  C   UNL     1      -5.587   2.725 -29.713  1.00  0.00     0.031 C 
HETATM    5  C   UNL     1      -5.912   2.977 -32.180  1.00  0.00     0.236 C 
HETATM    6  O   UNL     1      -6.960   2.348 -32.116  1.00  0.00    -0.272 OA
HETATM    7  N   UNL     1      -5.648   3.504 -33.479  1.00  0.00    -0.311 N 
HETATM    8  C   UNL     1      -4.573   4.257 -33.910  1.00  0.00     0.134 A 
HETATM    9  C   UNL     1      -3.305   4.464 -33.386  1.00  0.00     0.032 A 
HETATM   10  N   UNL     1      -4.611   4.949 -35.095  1.00  0.00    -0.262 N 
HETATM   11  H   UNL     1      -5.374   5.011 -35.760  1.00  0.00     0.191 HD
HETATM   12  N   UNL     1      -3.507   5.644 -35.359  1.00  0.00    -0.178 NA
HETATM   13  C   UNL     1      -2.688   5.344 -34.350  1.00  0.00     0.062 A 
HETATM   14  C   UNL     1      -1.313   5.919 -34.344  1.00  0.00     0.073 C 
HETATM   15  H   UNL     1      -6.401   3.307 -34.131  1.00  0.00     0.170 HD
ENDROOT
BRANCH   1  16
HETATM   16  C   UNL     1      -2.101   5.012 -31.298  1.00  0.00    -0.040 A 
HETATM   17  C   UNL     1      -0.753   5.004 -30.889  1.00  0.00     0.009 A 
HETATM   18  C   UNL     1      -0.234   6.014 -30.076  1.00  0.00     0.007 A 
HETATM   19  C   UNL     1      -1.052   7.054 -29.630  1.00  0.00    -0.059 A 
HETATM   20  C   UNL     1      -2.398   7.064 -30.012  1.00  0.00     0.007 A 
HETATM   21  C   UNL     1      -2.916   6.058 -30.834  1.00  0.00     0.009 A 
BRANCH  19  22
HETATM   22  C   UNL     1      -0.487   8.158 -28.770  1.00  0.00     0.034 C 
HETATM   23  C   UNL     1       0.976   7.923 -28.425  1.00  0.00     0.010 C 
ENDBRANCH  19  22
ENDBRANCH   1  16
TORSDOF 2
ENDMDL
MODEL 6
REMARK VINA RESULT:      -7.6      2.672      5.102
REMARK  2 active torsions:
REMARK  status: ('A' for Active; 'I' for Inactive)
REMARK    1  A    between atoms: C_2  and  C_3 
REMARK    2  A    between atoms: C_6  and  C_7 
ROOT
HETATM    1  C   UNL     1      -7.595   2.289 -33.543  1.00  0.00     0.119 C 
HETATM    2  S   UNL     1      -7.521   3.775 -32.521  1.00  0.00    -0.141 SA
HETATM    3  C   UNL     1      -7.372   3.028 -30.875  1.00  0.00     0.136 C 
HETATM    4  C   UNL     1      -8.007   3.965 -29.851  1.00  0.00     0.031 C 
HETATM    5  C   UNL     1      -5.911   2.804 -30.570  1.00  0.00     0.236 C 
HETATM    6  O   UNL     1      -5.302   3.304 -29.635  1.00  0.00    -0.272 OA
HETATM    7  N   UNL     1      -5.134   1.872 -31.319  1.00  0.00    -0.311 N 
HETATM    8  C   UNL     1      -5.494   1.127 -32.424  1.00  0.00     0.134 A 
HETATM    9  C   UNL     1      -6.529   1.254 -33.341  1.00  0.00     0.032 A 
HETATM   10  N   UNL     1      -4.749   0.052 -32.841  1.00  0.00    -0.262 N 
HETATM   11  H   UNL     1      -3.904  -0.324 -32.424  1.00  0.00     0.191 HD
HETATM   12  N   UNL     1      -5.239  -0.575 -33.907  1.00  0.00    -0.178 NA
HETATM   13  C   UNL     1      -6.305   0.152 -34.247  1.00  0.00     0.062 A 
HETATM   14  C   UNL     1      -7.087  -0.239 -35.454  1.00  0.00     0.073 C 
HETATM   15  H   UNL     1      -4.208   1.741 -30.921  1.00  0.00     0.170 HD
ENDROOT
BRANCH   1  16
HETATM   16  C   UNL     1      -8.965   1.625 -33.525  1.00  0.00    -0.040 A 
HETATM   17  C   UNL     1      -9.976   2.170 -34.341  1.00  0.00     0.009 A 
HETATM   18  C   UNL     1     -11.251   1.603 -34.396  1.00  0.00     0.007 A 
HETATM   19  C   UNL     1     -11.562   0.483 -33.623  1.00  0.00    -0.059 A 
HETATM   20  C   UNL     1     -10.573  -0.057 -32.793  1.00  0.00     0.007 A 
HETATM   21  C   UNL     1      -9.293   0.505 -32.743  1.00  0.00     0.009 A 
BRANCH  19  22
HETATM   22  C   UNL     1     -12.931  -0.144 -33.699  1.00  0.00     0.034 C 
HETATM   23  C   UNL     1     -13.956   0.792 -34.322  1.00  0.00     0.010 C 
ENDBRANCH  19  22
ENDBRANCH   1  16
TORSDOF 2
ENDMDL
MODEL 7
REMARK VINA RESULT:      -7.6      1.764      2.221
REMARK  2 active torsions:
REMARK  status: ('A' for Active; 'I' for Inactive)
REMARK    1  A    between atoms: C_2  and  C_3 
REMARK    2  A    between atoms: C_6  and  C_7 
ROOT
HETATM    1  C   UNL     1      -7.304   2.719 -33.122  1.00  0.00     0.119 C 
HETATM    2  S   UNL     1      -8.859   3.481 -33.632  1.00  0.00    -0.141 SA
HETATM    3  C   UNL     1      -9.965   2.849 -32.340  1.00  0.00     0.136 C 
HETATM    4  C   UNL     1     -11.374   2.730 -32.916  1.00  0.00     0.031 C 
HETATM    5  C   UNL     1      -9.939   3.799 -31.167  1.00  0.00     0.236 C 
HETATM    6  O   UNL     1     -10.908   4.403 -30.728  1.00  0.00    -0.272 OA
HETATM    7  N   UNL     1      -8.757   3.982 -30.390  1.00  0.00    -0.311 N 
HETATM    8  C   UNL     1      -7.496   3.455 -30.586  1.00  0.00     0.134 A 
HETATM    9  C   UNL     1      -6.880   2.892 -31.695  1.00  0.00     0.032 A 
HETATM   10  N   UNL     1      -6.550   3.468 -29.592  1.00  0.00    -0.262 N 
HETATM   11  H   UNL     1      -6.639   3.825 -28.646  1.00  0.00     0.191 HD
HETATM   12  N   UNL     1      -5.393   2.904 -29.929  1.00  0.00    -0.178 NA
HETATM   13  C   UNL     1      -5.558   2.571 -31.210  1.00  0.00     0.062 A 
HETATM   14  C   UNL     1      -4.420   1.946 -31.943  1.00  0.00     0.073 C 
HETATM   15  H   UNL     1      -8.928   4.553 -29.567  1.00  0.00     0.170 HD
ENDROOT
BRANCH   1  16
HETATM   16  C   UNL     1      -7.209   1.249 -33.511  1.00  0.00    -0.040 A 
HETATM   17  C   UNL     1      -6.848   0.937 -34.836  1.00  0.00     0.009 A 
HETATM   18  C   UNL     1      -6.718  -0.387 -35.262  1.00  0.00     0.007 A 
HETATM   19  C   UNL     1      -6.963  -1.442 -34.380  1.00  0.00    -0.059 A 
HETATM   20  C   UNL     1      -7.342  -1.146 -33.066  1.00  0.00     0.007 A 
HETATM   21  C   UNL     1      -7.464   0.180 -32.637  1.00  0.00     0.009 A 
BRANCH  19  22
HETATM   22  C   UNL     1      -6.801  -2.872 -34.831  1.00  0.00     0.034 C 
HETATM   23  C   UNL     1      -5.338  -3.289 -34.893  1.00  0.00     0.010 C 
ENDBRANCH  19  22
ENDBRANCH   1  16
TORSDOF 2
ENDMDL
MODEL 8
REMARK VINA RESULT:      -7.6      3.854      6.021
REMARK  2 active torsions:
REMARK  status: ('A' for Active; 'I' for Inactive)
REMARK    1  A    between atoms: C_2  and  C_3 
REMARK    2  A    between atoms: C_6  and  C_7 
ROOT
HETATM    1  C   UNL     1      -6.334   3.376 -32.856  1.00  0.00     0.119 C 
HETATM    2  S   UNL     1      -6.599   1.669 -33.379  1.00  0.00    -0.141 SA
HETATM    3  C   UNL     1      -5.614   0.793 -32.133  1.00  0.00     0.136 C 
HETATM    4  C   UNL     1      -5.089  -0.503 -32.745  1.00  0.00     0.031 C 
HETATM    5  C   UNL     1      -6.484   0.510 -30.933  1.00  0.00     0.236 C 
HETATM    6  O   UNL     1      -6.746  -0.603 -30.499  1.00  0.00    -0.272 OA
HETATM    7  N   UNL     1      -6.994   1.568 -30.122  1.00  0.00    -0.311 N 
HETATM    8  C   UNL     1      -6.886   2.932 -30.304  1.00  0.00     0.134 A 
HETATM    9  C   UNL     1      -6.579   3.707 -31.414  1.00  0.00     0.032 A 
HETATM   10  N   UNL     1      -7.154   3.815 -29.288  1.00  0.00    -0.262 N 
HETATM   11  H   UNL     1      -7.433   3.608 -28.335  1.00  0.00     0.191 HD
HETATM   12  N   UNL     1      -6.984   5.094 -29.614  1.00  0.00    -0.178 NA
HETATM   13  C   UNL     1      -6.662   5.057 -30.908  1.00  0.00     0.062 A 
HETATM   14  C   UNL     1      -6.442   6.341 -31.632  1.00  0.00     0.073 C 
HETATM   15  H   UNL     1      -7.456   1.219 -29.287  1.00  0.00     0.170 HD
ENDROOT
BRANCH   1  16
HETATM   16  C   UNL     1      -4.978   3.923 -33.284  1.00  0.00    -0.040 A 
HETATM   17  C   UNL     1      -4.922   4.715 -34.448  1.00  0.00     0.009 A 
HETATM   18  C   UNL     1      -3.721   5.271 -34.892  1.00  0.00     0.007 A 
HETATM   19  C   UNL     1      -2.533   5.038 -34.196  1.00  0.00    -0.059 A 
HETATM   20  C   UNL     1      -2.570   4.237 -33.049  1.00  0.00     0.007 A 
HETATM   21  C   UNL     1      -3.775   3.686 -32.600  1.00  0.00     0.009 A 
BRANCH  19  22
HETATM   22  C   UNL     1      -1.238   5.656 -34.661  1.00  0.00     0.034 C 
HETATM   23  C   UNL     1      -0.811   6.821 -33.779  1.00  0.00     0.010 C 
ENDBRANCH  19  22
ENDBRANCH   1  16
TORSDOF 2
ENDMDL
MODEL 9
REMARK VINA RESULT:      -7.5     14.324     15.439
REMARK  2 active torsions:
REMARK  status: ('A' for Active; 'I' for Inactive)
REMARK    1  A    between atoms: C_2  and  C_3 
REMARK    2  A    between atoms: C_6  and  C_7 
ROOT
HETATM    1  C   UNL     1      -5.851 -14.843 -37.831  1.00  0.00     0.119 C 
HETATM    2  S   UNL     1      -4.699 -15.370 -39.117  1.00  0.00    -0.141 SA
HETATM    3  C   UNL     1      -4.001 -13.767 -39.601  1.00  0.00     0.136 C 
HETATM    4  C   UNL     1      -3.595 -13.833 -41.071  1.00  0.00     0.031 C 
HETATM    5  C   UNL     1      -2.810 -13.468 -38.724  1.00  0.00     0.236 C 
HETATM    6  O   UNL     1      -1.665 -13.303 -39.123  1.00  0.00    -0.272 OA
HETATM    7  N   UNL     1      -2.960 -13.241 -37.324  1.00  0.00    -0.311 N 
HETATM    8  C   UNL     1      -4.096 -13.332 -36.545  1.00  0.00     0.134 A 
HETATM    9  C   UNL     1      -5.320 -13.956 -36.744  1.00  0.00     0.032 A 
HETATM   10  N   UNL     1      -4.150 -12.786 -35.287  1.00  0.00    -0.262 N 
HETATM   11  H   UNL     1      -3.427 -12.270 -34.797  1.00  0.00     0.191 HD
HETATM   12  N   UNL     1      -5.320 -12.938 -34.673  1.00  0.00    -0.178 NA
HETATM   13  C   UNL     1      -6.039 -13.670 -35.525  1.00  0.00     0.062 A 
HETATM   14  C   UNL     1      -7.418 -14.081 -35.135  1.00  0.00     0.073 C 
HETATM   15  H   UNL     1      -2.093 -12.933 -36.893  1.00  0.00     0.170 HD
ENDROOT
BRANCH   1  16
HETATM   16  C   UNL     1      -7.137 -14.251 -38.393  1.00  0.00    -0.040 A 
HETATM   17  C   UNL     1      -8.212 -15.126 -38.646  1.00  0.00     0.009 A 
HETATM   18  C   UNL     1      -9.431 -14.656 -39.140  1.00  0.00     0.007 A 
HETATM   19  C   UNL     1      -9.607 -13.298 -39.414  1.00  0.00    -0.059 A 
HETATM   20  C   UNL     1      -8.541 -12.420 -39.185  1.00  0.00     0.007 A 
HETATM   21  C   UNL     1      -7.323 -12.890 -38.683  1.00  0.00     0.009 A 
BRANCH  19  22
HETATM   22  C   UNL     1     -10.931 -12.785 -39.925  1.00  0.00     0.034 C 
HETATM   23  C   UNL     1     -10.816 -11.381 -40.502  1.00  0.00     0.010 C 
ENDBRANCH  19  22
ENDBRANCH   1  16
TORSDOF 2
ENDMDL
MODEL 10
REMARK VINA RESULT:      -7.5      3.585      5.608
REMARK  2 active torsions:
REMARK  status: ('A' for Active; 'I' for Inactive)
REMARK    1  A    between atoms: C_2  and  C_3 
REMARK    2  A    between atoms: C_6  and  C_7 
ROOT
HETATM    1  C   UNL     1      -5.107   2.511 -30.854  1.00  0.00     0.119 C 
HETATM    2  S   UNL     1      -6.090   3.530 -29.733  1.00  0.00    -0.141 SA
HETATM    3  C   UNL     1      -7.487   3.943 -30.815  1.00  0.00     0.136 C 
HETATM    4  C   UNL     1      -8.041   5.304 -30.403  1.00  0.00     0.031 C 
HETATM    5  C   UNL     1      -8.539   2.869 -30.685  1.00  0.00     0.236 C 
HETATM    6  O   UNL     1      -9.685   3.049 -30.298  1.00  0.00    -0.272 OA
HETATM    7  N   UNL     1      -8.293   1.534 -31.124  1.00  0.00    -0.311 N 
HETATM    8  C   UNL     1      -7.129   0.983 -31.621  1.00  0.00     0.134 A 
HETATM    9  C   UNL     1      -5.802   1.383 -31.556  1.00  0.00     0.032 A 
HETATM   10  N   UNL     1      -7.130  -0.217 -32.288  1.00  0.00    -0.262 N 
HETATM   11  H   UNL     1      -7.923  -0.813 -32.504  1.00  0.00     0.191 HD
HETATM   12  N   UNL     1      -5.934  -0.603 -32.724  1.00  0.00    -0.178 NA
HETATM   13  C   UNL     1      -5.105   0.338 -32.269  1.00  0.00     0.062 A 
HETATM   14  C   UNL     1      -3.645   0.200 -32.533  1.00  0.00     0.073 C 
HETATM   15  H   UNL     1      -9.130   0.960 -31.085  1.00  0.00     0.170 HD
ENDROOT
BRANCH   1  16
HETATM   16  C   UNL     1      -4.315   3.334 -31.861  1.00  0.00    -0.040 A 
HETATM   17  C   UNL     1      -2.959   3.597 -31.581  1.00  0.00     0.009 A 
HETATM   18  C   UNL     1      -2.161   4.324 -32.467  1.00  0.00     0.007 A 
HETATM   19  C   UNL     1      -2.698   4.827 -33.654  1.00  0.00    -0.059 A 
HETATM   20  C   UNL     1      -4.048   4.590 -33.936  1.00  0.00     0.007 A 
HETATM   21  C   UNL     1      -4.846   3.854 -33.052  1.00  0.00     0.009 A 
BRANCH  19  22
HETATM   22  C   UNL     1      -1.832   5.592 -34.623  1.00  0.00     0.034 C 
HETATM   23  C   UNL     1      -1.083   6.730 -33.945  1.00  0.00     0.010 C 
ENDBRANCH  19  22
ENDBRANCH   1  16
TORSDOF 2
ENDMDL
