MODEL 1
REMARK VINA RESULT:      -9.0      0.000      0.000
REMARK  2 active torsions:
REMARK  status: ('A' for Active; 'I' for Inactive)
REMARK    1  A    between atoms: N_20  and  C_21 
REMARK    2  A    between atoms: C_22  and  O_23 
ROOT
HETATM    1  C   UNL     1      -4.336  -0.397 -33.418  1.00  0.00     0.048 C 
HETATM    2  C   UNL     1      -5.686   0.160 -33.777  1.00  0.00    -0.061 A 
HETATM    3  C   UNL     1      -6.055   1.457 -33.383  1.00  0.00     0.019 A 
HETATM    4  C   UNL     1      -7.293   1.946 -33.777  1.00  0.00     0.016 A 
HETATM    5  C   UNL     1      -8.145   1.141 -34.542  1.00  0.00     0.044 A 
HETATM    6  N   UNL     1      -9.334   1.800 -34.806  1.00  0.00    -0.324 N 
HETATM    7  C   UNL     1      -9.339   3.063 -34.246  1.00  0.00     0.264 A 
HETATM    8  O   UNL     1     -10.259   3.862 -34.267  1.00  0.00    -0.270 OA
HETATM    9  C   UNL     1      -7.984   3.247 -33.466  1.00  0.00     0.250 A 
HETATM   10  N   UNL     1      -8.216   3.398 -31.964  1.00  0.00    -0.043 N 
HETATM   11  H   UNL     1      -7.323   3.187 -31.499  1.00  0.00     0.282 HD
HETATM   12  C   UNL     1      -8.576   4.841 -31.760  1.00  0.00     0.204 C 
HETATM   13  C   UNL     1      -8.707   4.886 -30.256  1.00  0.00     0.036 C 
HETATM   14  C   UNL     1      -9.424   3.552 -29.945  1.00  0.00     0.030 C 
HETATM   15  C   UNL     1      -9.245   2.650 -31.180  1.00  0.00     0.237 C 
HETATM   16  C   UNL     1      -7.590   5.562 -32.638  1.00  0.00     0.126 C 
HETATM   17  C   UNL     1      -7.395   4.633 -33.855  1.00  0.00     0.145 C 
HETATM   18  C   UNL     1      -5.911   4.644 -34.077  1.00  0.00     0.239 C 
HETATM   19  O   UNL     1      -5.402   4.055 -35.017  1.00  0.00    -0.272 OA
HETATM   20  N   UNL     1      -5.311   5.253 -32.995  1.00  0.00    -0.249 N 
HETATM   21  C   UNL     1      -6.216   5.665 -32.052  1.00  0.00     0.238 C 
HETATM   22  O   UNL     1      -6.013   6.043 -30.909  1.00  0.00    -0.272 OA
HETATM   23  C   UNL     1      -7.815  -0.136 -34.941  1.00  0.00     0.031 A 
HETATM   24  C   UNL     1      -6.567  -0.625 -34.551  1.00  0.00     0.009 A 
HETATM   25  H   UNL     1     -10.100   1.424 -35.354  1.00  0.00     0.169 HD
ENDROOT
BRANCH  20  26
HETATM   26  C   UNL     1      -3.908   5.267 -32.793  1.00  0.00     0.078 A 
HETATM   27  C   UNL     1      -3.290   4.353 -31.916  1.00  0.00     0.095 A 
HETATM   28  C   UNL     1      -1.912   4.438 -31.687  1.00  0.00     0.039 A 
HETATM   29  C   UNL     1      -1.140   5.388 -32.359  1.00  0.00     0.003 A 
HETATM   30  C   UNL     1      -1.735   6.249 -33.274  1.00  0.00     0.002 A 
HETATM   31  C   UNL     1      -3.110   6.185 -33.496  1.00  0.00     0.033 A 
BRANCH  27  32
HETATM   32  O   UNL     1      -4.091   3.371 -31.386  1.00  0.00    -0.354 OA
HETATM   33  C   UNL     1      -3.456   2.130 -31.089  1.00  0.00     0.210 C 
ENDBRANCH  27  32
ENDBRANCH  20  26
TORSDOF 2
ENDMDL
MODEL 2
REMARK VINA RESULT:      -8.9      2.375      6.235
REMARK  2 active torsions:
REMARK  status: ('A' for Active; 'I' for Inactive)
REMARK    1  A    between atoms: N_20  and  C_21 
REMARK    2  A    between atoms: C_22  and  O_23 
ROOT
HETATM    1  C   UNL     1      -7.237  -1.270 -35.002  1.00  0.00     0.048 C 
HETATM    2  C   UNL     1      -6.573  -0.593 -33.835  1.00  0.00    -0.061 A 
HETATM    3  C   UNL     1      -7.024   0.656 -33.377  1.00  0.00     0.019 A 
HETATM    4  C   UNL     1      -6.410   1.221 -32.268  1.00  0.00     0.016 A 
HETATM    5  C   UNL     1      -5.356   0.546 -31.640  1.00  0.00     0.044 A 
HETATM    6  N   UNL     1      -4.867   1.286 -30.576  1.00  0.00    -0.324 N 
HETATM    7  C   UNL     1      -5.559   2.473 -30.434  1.00  0.00     0.264 A 
HETATM    8  O   UNL     1      -5.333   3.352 -29.620  1.00  0.00    -0.270 OA
HETATM    9  C   UNL     1      -6.624   2.549 -31.591  1.00  0.00     0.250 A 
HETATM   10  N   UNL     1      -6.333   3.703 -32.547  1.00  0.00    -0.043 N 
HETATM   11  H   UNL     1      -6.838   3.505 -33.422  1.00  0.00     0.282 HD
HETATM   12  C   UNL     1      -6.906   4.923 -31.886  1.00  0.00     0.204 C 
HETATM   13  C   UNL     1      -6.629   5.968 -32.940  1.00  0.00     0.036 C 
HETATM   14  C   UNL     1      -5.213   5.583 -33.426  1.00  0.00     0.030 C 
HETATM   15  C   UNL     1      -4.968   4.129 -32.980  1.00  0.00     0.237 C 
HETATM   16  C   UNL     1      -8.234   4.435 -31.374  1.00  0.00     0.126 C 
HETATM   17  C   UNL     1      -7.983   2.969 -30.961  1.00  0.00     0.145 C 
HETATM   18  C   UNL     1      -9.177   2.239 -31.501  1.00  0.00     0.239 C 
HETATM   19  O   UNL     1      -9.341   1.046 -31.297  1.00  0.00    -0.272 OA
HETATM   20  N   UNL     1      -9.871   3.089 -32.334  1.00  0.00    -0.249 N 
HETATM   21  C   UNL     1      -9.291   4.327 -32.430  1.00  0.00     0.238 C 
HETATM   22  O   UNL     1      -9.525   5.224 -33.222  1.00  0.00    -0.272 OA
HETATM   23  C   UNL     1      -4.888  -0.678 -32.066  1.00  0.00     0.031 A 
HETATM   24  C   UNL     1      -5.510  -1.248 -33.177  1.00  0.00     0.009 A 
HETATM   25  H   UNL     1      -4.114   0.996 -29.962  1.00  0.00     0.169 HD
ENDROOT
BRANCH  20  26
HETATM   26  C   UNL     1     -10.947   2.664 -33.154  1.00  0.00     0.078 A 
HETATM   27  C   UNL     1     -12.284   2.925 -32.792  1.00  0.00     0.095 A 
HETATM   28  C   UNL     1     -13.325   2.432 -33.587  1.00  0.00     0.039 A 
HETATM   29  C   UNL     1     -13.046   1.730 -34.762  1.00  0.00     0.003 A 
HETATM   30  C   UNL     1     -11.729   1.526 -35.157  1.00  0.00     0.002 A 
HETATM   31  C   UNL     1     -10.685   1.996 -34.362  1.00  0.00     0.033 A 
BRANCH  27  32
HETATM   32  O   UNL     1     -12.479   3.725 -31.693  1.00  0.00    -0.354 OA
HETATM   33  C   UNL     1     -13.828   3.884 -31.259  1.00  0.00     0.210 C 
ENDBRANCH  27  32
ENDBRANCH  20  26
TORSDOF 2
ENDMDL
MODEL 3
REMARK VINA RESULT:      -8.7      2.341      4.875
REMARK  2 active torsions:
REMARK  status: ('A' for Active; 'I' for Inactive)
REMARK    1  A    between atoms: N_20  and  C_21 
REMARK    2  A    between atoms: C_22  and  O_23 
ROOT
HETATM    1  C   UNL     1     -10.064   5.986 -35.312  1.00  0.00     0.048 C 
HETATM    2  C   UNL     1     -10.493   4.590 -34.952  1.00  0.00    -0.061 A 
HETATM    3  C   UNL     1      -9.667   3.764 -34.171  1.00  0.00     0.019 A 
HETATM    4  C   UNL     1     -10.124   2.500 -33.825  1.00  0.00     0.016 A 
HETATM    5  C   UNL     1     -11.382   2.074 -34.266  1.00  0.00     0.044 A 
HETATM    6  N   UNL     1     -11.638   0.782 -33.838  1.00  0.00    -0.324 N 
HETATM    7  C   UNL     1     -10.585   0.285 -33.095  1.00  0.00     0.264 A 
HETATM    8  O   UNL     1     -10.495  -0.836 -32.622  1.00  0.00    -0.270 OA
HETATM    9  C   UNL     1      -9.458   1.384 -33.066  1.00  0.00     0.250 A 
HETATM   10  N   UNL     1      -8.195   0.913 -33.783  1.00  0.00    -0.043 N 
HETATM   11  H   UNL     1      -7.646   1.754 -34.011  1.00  0.00     0.282 HD
HETATM   12  C   UNL     1      -7.457   0.073 -32.780  1.00  0.00     0.204 C 
HETATM   13  C   UNL     1      -6.212  -0.268 -33.563  1.00  0.00     0.036 C 
HETATM   14  C   UNL     1      -6.774  -0.541 -34.977  1.00  0.00     0.030 C 
HETATM   15  C   UNL     1      -8.177   0.091 -35.030  1.00  0.00     0.237 C 
HETATM   16  C   UNL     1      -7.578   0.878 -31.514  1.00  0.00     0.126 C 
HETATM   17  C   UNL     1      -8.974   1.531 -31.595  1.00  0.00     0.145 C 
HETATM   18  C   UNL     1      -8.731   2.944 -31.153  1.00  0.00     0.239 C 
HETATM   19  O   UNL     1      -9.648   3.742 -31.033  1.00  0.00    -0.272 OA
HETATM   20  N   UNL     1      -7.370   3.156 -31.094  1.00  0.00    -0.249 N 
HETATM   21  C   UNL     1      -6.646   2.047 -31.445  1.00  0.00     0.238 C 
HETATM   22  O   UNL     1      -5.455   1.957 -31.693  1.00  0.00    -0.272 OA
HETATM   23  C   UNL     1     -12.215   2.857 -35.036  1.00  0.00     0.031 A 
HETATM   24  C   UNL     1     -11.757   4.130 -35.377  1.00  0.00     0.009 A 
HETATM   25  H   UNL     1     -12.491   0.264 -34.022  1.00  0.00     0.169 HD
ENDROOT
BRANCH  20  26
HETATM   26  C   UNL     1      -6.793   4.436 -30.890  1.00  0.00     0.078 A 
HETATM   27  C   UNL     1      -6.325   5.203 -31.975  1.00  0.00     0.095 A 
HETATM   28  C   UNL     1      -5.699   6.432 -31.733  1.00  0.00     0.039 A 
HETATM   29  C   UNL     1      -5.582   6.923 -30.431  1.00  0.00     0.003 A 
HETATM   30  C   UNL     1      -6.101   6.198 -29.363  1.00  0.00     0.002 A 
HETATM   31  C   UNL     1      -6.709   4.965 -29.591  1.00  0.00     0.033 A 
BRANCH  27  32
HETATM   32  O   UNL     1      -6.583   4.715 -33.232  1.00  0.00    -0.354 OA
HETATM   33  C   UNL     1      -5.501   4.751 -34.158  1.00  0.00     0.210 C 
ENDBRANCH  27  32
ENDBRANCH  20  26
TORSDOF 2
ENDMDL
MODEL 4
REMARK VINA RESULT:      -8.6      2.108      5.648
REMARK  2 active torsions:
REMARK  status: ('A' for Active; 'I' for Inactive)
REMARK    1  A    between atoms: N_20  and  C_21 
REMARK    2  A    between atoms: C_22  and  O_23 
ROOT
HETATM    1  C   UNL     1      -3.802   5.241 -35.276  1.00  0.00     0.048 C 
HETATM    2  C   UNL     1      -3.858   5.560 -33.807  1.00  0.00    -0.061 A 
HETATM    3  C   UNL     1      -4.787   4.922 -32.968  1.00  0.00     0.019 A 
HETATM    4  C   UNL     1      -4.771   5.215 -31.611  1.00  0.00     0.016 A 
HETATM    5  C   UNL     1      -3.846   6.138 -31.113  1.00  0.00     0.044 A 
HETATM    6  N   UNL     1      -4.011   6.308 -29.748  1.00  0.00    -0.324 N 
HETATM    7  C   UNL     1      -5.035   5.514 -29.268  1.00  0.00     0.264 A 
HETATM    8  O   UNL     1      -5.447   5.477 -28.121  1.00  0.00    -0.270 OA
HETATM    9  C   UNL     1      -5.662   4.748 -30.491  1.00  0.00     0.250 A 
HETATM   10  N   UNL     1      -7.111   5.169 -30.735  1.00  0.00    -0.043 N 
HETATM   11  H   UNL     1      -7.345   4.899 -31.700  1.00  0.00     0.282 HD
HETATM   12  C   UNL     1      -7.927   4.366 -29.763  1.00  0.00     0.204 C 
HETATM   13  C   UNL     1      -9.321   4.804 -30.142  1.00  0.00     0.036 C 
HETATM   14  C   UNL     1      -9.139   6.319 -30.387  1.00  0.00     0.030 C 
HETATM   15  C   UNL     1      -7.631   6.561 -30.587  1.00  0.00     0.237 C 
HETATM   16  C   UNL     1      -7.314   2.995 -29.860  1.00  0.00     0.126 C 
HETATM   17  C   UNL     1      -5.810   3.252 -30.093  1.00  0.00     0.145 C 
HETATM   18  C   UNL     1      -5.446   2.276 -31.172  1.00  0.00     0.239 C 
HETATM   19  O   UNL     1      -4.295   2.159 -31.564  1.00  0.00    -0.272 OA
HETATM   20  N   UNL     1      -6.606   1.735 -31.683  1.00  0.00    -0.249 N 
HETATM   21  C   UNL     1      -7.731   2.228 -31.076  1.00  0.00     0.238 C 
HETATM   22  O   UNL     1      -8.897   2.119 -31.419  1.00  0.00    -0.272 OA
HETATM   23  C   UNL     1      -2.924   6.785 -31.908  1.00  0.00     0.031 A 
HETATM   24  C   UNL     1      -2.936   6.485 -33.271  1.00  0.00     0.009 A 
HETATM   25  H   UNL     1      -3.448   6.915 -29.163  1.00  0.00     0.169 HD
ENDROOT
BRANCH  20  26
HETATM   26  C   UNL     1      -6.635   0.916 -32.841  1.00  0.00     0.078 A 
HETATM   27  C   UNL     1      -6.078  -0.378 -32.829  1.00  0.00     0.095 A 
HETATM   28  C   UNL     1      -6.063  -1.134 -34.007  1.00  0.00     0.039 A 
HETATM   29  C   UNL     1      -6.639  -0.635 -35.177  1.00  0.00     0.003 A 
HETATM   30  C   UNL     1      -7.248   0.616 -35.176  1.00  0.00     0.002 A 
HETATM   31  C   UNL     1      -7.252   1.385 -34.013  1.00  0.00     0.033 A 
BRANCH  27  32
HETATM   32  O   UNL     1      -5.641  -0.850 -31.616  1.00  0.00    -0.354 OA
HETATM   33  C   UNL     1      -4.273  -1.244 -31.548  1.00  0.00     0.210 C 
ENDBRANCH  27  32
ENDBRANCH  20  26
TORSDOF 2
ENDMDL
MODEL 5
REMARK VINA RESULT:      -8.6      1.934      2.810
REMARK  2 active torsions:
REMARK  status: ('A' for Active; 'I' for Inactive)
REMARK    1  A    between atoms: N_20  and  C_21 
REMARK    2  A    between atoms: C_22  and  O_23 
ROOT
HETATM    1  C   UNL     1      -3.082   0.520 -31.615  1.00  0.00     0.048 C 
HETATM    2  C   UNL     1      -4.290   1.099 -32.299  1.00  0.00    -0.061 A 
HETATM    3  C   UNL     1      -4.601   2.464 -32.171  1.00  0.00     0.019 A 
HETATM    4  C   UNL     1      -5.699   2.964 -32.858  1.00  0.00     0.016 A 
HETATM    5  C   UNL     1      -6.473   2.105 -33.646  1.00  0.00     0.044 A 
HETATM    6  N   UNL     1      -7.530   2.790 -34.222  1.00  0.00    -0.324 N 
HETATM    7  C   UNL     1      -7.516   4.123 -33.860  1.00  0.00     0.264 A 
HETATM    8  O   UNL     1      -8.340   4.968 -34.168  1.00  0.00    -0.270 OA
HETATM    9  C   UNL     1      -6.309   4.340 -32.873  1.00  0.00     0.250 A 
HETATM   10  N   UNL     1      -6.788   4.741 -31.479  1.00  0.00    -0.043 N 
HETATM   11  H   UNL     1      -6.015   4.549 -30.828  1.00  0.00     0.282 HD
HETATM   12  C   UNL     1      -7.043   6.219 -31.555  1.00  0.00     0.204 C 
HETATM   13  C   UNL     1      -7.432   6.508 -30.125  1.00  0.00     0.036 C 
HETATM   14  C   UNL     1      -8.314   5.290 -29.767  1.00  0.00     0.030 C 
HETATM   15  C   UNL     1      -8.004   4.195 -30.804  1.00  0.00     0.237 C 
HETATM   16  C   UNL     1      -5.854   6.726 -32.325  1.00  0.00     0.126 C 
HETATM   17  C   UNL     1      -5.534   5.606 -33.338  1.00  0.00     0.145 C 
HETATM   18  C   UNL     1      -4.040   5.485 -33.274  1.00  0.00     0.239 C 
HETATM   19  O   UNL     1      -3.430   4.723 -34.008  1.00  0.00    -0.272 OA
HETATM   20  N   UNL     1      -3.587   6.217 -32.198  1.00  0.00    -0.249 N 
HETATM   21  C   UNL     1      -4.601   6.831 -31.511  1.00  0.00     0.238 C 
HETATM   22  O   UNL     1      -4.570   7.370 -30.417  1.00  0.00    -0.272 OA
HETATM   23  C   UNL     1      -6.198   0.762 -33.789  1.00  0.00     0.031 A 
HETATM   24  C   UNL     1      -5.090   0.262 -33.105  1.00  0.00     0.009 A 
HETATM   25  H   UNL     1      -8.219   2.383 -34.845  1.00  0.00     0.169 HD
ENDROOT
BRANCH  20  26
HETATM   26  C   UNL     1      -2.246   6.171 -31.738  1.00  0.00     0.078 A 
HETATM   27  C   UNL     1      -1.388   7.279 -31.889  1.00  0.00     0.095 A 
HETATM   28  C   UNL     1      -0.051   7.178 -31.487  1.00  0.00     0.039 A 
HETATM   29  C   UNL     1       0.422   6.006 -30.893  1.00  0.00     0.003 A 
HETATM   30  C   UNL     1      -0.437   4.933 -30.683  1.00  0.00     0.002 A 
HETATM   31  C   UNL     1      -1.766   5.017 -31.097  1.00  0.00     0.033 A 
BRANCH  27  32
HETATM   32  O   UNL     1      -1.954   8.435 -32.367  1.00  0.00    -0.354 OA
HETATM   33  C   UNL     1      -2.141   9.485 -31.421  1.00  0.00     0.210 C 
ENDBRANCH  27  32
ENDBRANCH  20  26
TORSDOF 2
ENDMDL
MODEL 6
REMARK VINA RESULT:      -8.4      4.351      7.123
REMARK  2 active torsions:
REMARK  status: ('A' for Active; 'I' for Inactive)
REMARK    1  A    between atoms: N_20  and  C_21 
REMARK    2  A    between atoms: C_22  and  O_23 
ROOT
HETATM    1  C   UNL     1       0.761   6.915 -29.100  1.00  0.00     0.048 C 
HETATM    2  C   UNL     1      -0.237   6.803 -30.220  1.00  0.00    -0.061 A 
HETATM    3  C   UNL     1      -1.599   6.588 -29.949  1.00  0.00     0.019 A 
HETATM    4  C   UNL     1      -2.490   6.538 -31.012  1.00  0.00     0.016 A 
HETATM    5  C   UNL     1      -2.016   6.690 -32.321  1.00  0.00     0.044 A 
HETATM    6  N   UNL     1      -3.054   6.582 -33.232  1.00  0.00    -0.324 N 
HETATM    7  C   UNL     1      -4.258   6.363 -32.591  1.00  0.00     0.264 A 
HETATM    8  O   UNL     1      -5.341   6.180 -33.123  1.00  0.00    -0.270 OA
HETATM    9  C   UNL     1      -3.970   6.267 -31.047  1.00  0.00     0.250 A 
HETATM   10  N   UNL     1      -4.283   4.875 -30.502  1.00  0.00    -0.043 N 
HETATM   11  H   UNL     1      -3.783   4.782 -29.607  1.00  0.00     0.282 HD
HETATM   12  C   UNL     1      -5.766   4.864 -30.266  1.00  0.00     0.204 C 
HETATM   13  C   UNL     1      -5.943   3.489 -29.668  1.00  0.00     0.036 C 
HETATM   14  C   UNL     1      -4.993   2.627 -30.530  1.00  0.00     0.030 C 
HETATM   15  C   UNL     1      -4.019   3.595 -31.226  1.00  0.00     0.237 C 
HETATM   16  C   UNL     1      -6.015   6.204 -29.628  1.00  0.00     0.126 C 
HETATM   17  C   UNL     1      -5.012   7.157 -30.311  1.00  0.00     0.145 C 
HETATM   18  C   UNL     1      -4.457   7.963 -29.174  1.00  0.00     0.239 C 
HETATM   19  O   UNL     1      -3.667   8.875 -29.363  1.00  0.00    -0.272 OA
HETATM   20  N   UNL     1      -4.860   7.384 -27.989  1.00  0.00    -0.249 N 
HETATM   21  C   UNL     1      -5.634   6.270 -28.182  1.00  0.00     0.238 C 
HETATM   22  O   UNL     1      -5.974   5.424 -27.371  1.00  0.00    -0.272 OA
HETATM   23  C   UNL     1      -0.688   6.898 -32.620  1.00  0.00     0.031 A 
HETATM   24  C   UNL     1       0.207   6.955 -31.551  1.00  0.00     0.009 A 
HETATM   25  H   UNL     1      -2.960   6.672 -34.237  1.00  0.00     0.169 HD
ENDROOT
BRANCH  20  26
HETATM   26  C   UNL     1      -4.363   7.783 -26.722  1.00  0.00     0.078 A 
HETATM   27  C   UNL     1      -5.072   8.696 -25.918  1.00  0.00     0.095 A 
HETATM   28  C   UNL     1      -4.520   9.121 -24.703  1.00  0.00     0.039 A 
HETATM   29  C   UNL     1      -3.299   8.608 -24.263  1.00  0.00     0.003 A 
HETATM   30  C   UNL     1      -2.626   7.657 -25.024  1.00  0.00     0.002 A 
HETATM   31  C   UNL     1      -3.158   7.241 -26.243  1.00  0.00     0.033 A 
BRANCH  27  32
HETATM   32  O   UNL     1      -6.320   9.064 -26.356  1.00  0.00    -0.354 OA
HETATM   33  C   UNL     1      -6.450  10.394 -26.852  1.00  0.00     0.210 C 
ENDBRANCH  27  32
ENDBRANCH  20  26
TORSDOF 2
ENDMDL
MODEL 7
REMARK VINA RESULT:      -8.2     17.646     19.573
REMARK  2 active torsions:
REMARK  status: ('A' for Active; 'I' for Inactive)
REMARK    1  A    between atoms: N_20  and  C_21 
REMARK    2  A    between atoms: C_22  and  O_23 
ROOT
HETATM    1  C   UNL     1      -5.150 -15.216 -34.339  1.00  0.00     0.048 C 
HETATM    2  C   UNL     1      -6.179 -15.752 -35.295  1.00  0.00    -0.061 A 
HETATM    3  C   UNL     1      -6.226 -15.303 -36.625  1.00  0.00     0.019 A 
HETATM    4  C   UNL     1      -7.164 -15.860 -37.484  1.00  0.00     0.016 A 
HETATM    5  C   UNL     1      -8.042 -16.841 -37.009  1.00  0.00     0.044 A 
HETATM    6  N   UNL     1      -8.911 -17.245 -38.009  1.00  0.00    -0.324 N 
HETATM    7  C   UNL     1      -8.659 -16.572 -39.190  1.00  0.00     0.264 A 
HETATM    8  O   UNL     1      -9.284 -16.676 -40.232  1.00  0.00    -0.270 OA
HETATM    9  C   UNL     1      -7.494 -15.549 -38.920  1.00  0.00     0.250 A 
HETATM   10  N   UNL     1      -7.967 -14.105 -39.071  1.00  0.00    -0.043 N 
HETATM   11  H   UNL     1      -7.285 -13.511 -38.579  1.00  0.00     0.282 HD
HETATM   12  C   UNL     1      -7.925 -13.824 -40.546  1.00  0.00     0.204 C 
HETATM   13  C   UNL     1      -8.334 -12.371 -40.565  1.00  0.00     0.036 C 
HETATM   14  C   UNL     1      -9.455 -12.327 -39.502  1.00  0.00     0.030 C 
HETATM   15  C   UNL     1      -9.303 -13.595 -38.641  1.00  0.00     0.237 C 
HETATM   16  C   UNL     1      -6.617 -14.437 -40.968  1.00  0.00     0.126 C 
HETATM   17  C   UNL     1      -6.462 -15.687 -40.075  1.00  0.00     0.145 C 
HETATM   18  C   UNL     1      -5.026 -15.639 -39.643  1.00  0.00     0.239 C 
HETATM   19  O   UNL     1      -4.533 -16.528 -38.966  1.00  0.00    -0.272 OA
HETATM   20  N   UNL     1      -4.504 -14.412 -39.994  1.00  0.00    -0.249 N 
HETATM   21  C   UNL     1      -5.418 -13.609 -40.623  1.00  0.00     0.238 C 
HETATM   22  O   UNL     1      -5.347 -12.416 -40.873  1.00  0.00    -0.272 OA
HETATM   23  C   UNL     1      -8.025 -17.300 -35.710  1.00  0.00     0.031 A 
HETATM   24  C   UNL     1      -7.078 -16.745 -34.849  1.00  0.00     0.009 A 
HETATM   25  H   UNL     1      -9.627 -17.955 -37.908  1.00  0.00     0.169 HD
ENDROOT
BRANCH  20  26
HETATM   26  C   UNL     1      -3.226 -13.964 -39.572  1.00  0.00     0.078 A 
HETATM   27  C   UNL     1      -2.079 -14.191 -40.358  1.00  0.00     0.095 A 
HETATM   28  C   UNL     1      -0.824 -13.795 -39.881  1.00  0.00     0.039 A 
HETATM   29  C   UNL     1      -0.709 -13.134 -38.656  1.00  0.00     0.003 A 
HETATM   30  C   UNL     1      -1.846 -12.850 -37.907  1.00  0.00     0.002 A 
HETATM   31  C   UNL     1      -3.098 -13.256 -38.365  1.00  0.00     0.033 A 
BRANCH  27  32
HETATM   32  O   UNL     1      -2.283 -14.735 -41.602  1.00  0.00    -0.354 OA
HETATM   33  C   UNL     1      -1.813 -16.066 -41.795  1.00  0.00     0.210 C 
ENDBRANCH  27  32
ENDBRANCH  20  26
TORSDOF 2
ENDMDL
MODEL 8
REMARK VINA RESULT:      -8.1      2.092      3.493
REMARK  2 active torsions:
REMARK  status: ('A' for Active; 'I' for Inactive)
REMARK    1  A    between atoms: N_20  and  C_21 
REMARK    2  A    between atoms: C_22  and  O_23 
ROOT
HETATM    1  C   UNL     1     -10.301  -0.425 -32.618  1.00  0.00     0.048 C 
HETATM    2  C   UNL     1     -10.467   0.891 -33.328  1.00  0.00    -0.061 A 
HETATM    3  C   UNL     1      -9.600   1.964 -33.062  1.00  0.00     0.019 A 
HETATM    4  C   UNL     1      -9.763   3.144 -33.775  1.00  0.00     0.016 A 
HETATM    5  C   UNL     1     -10.784   3.244 -34.727  1.00  0.00     0.044 A 
HETATM    6  N   UNL     1     -10.794   4.503 -35.304  1.00  0.00    -0.324 N 
HETATM    7  C   UNL     1      -9.792   5.297 -34.782  1.00  0.00     0.264 A 
HETATM    8  O   UNL     1      -9.575   6.466 -35.055  1.00  0.00    -0.270 OA
HETATM    9  C   UNL     1      -9.045   4.464 -33.675  1.00  0.00     0.250 A 
HETATM   10  N   UNL     1      -9.225   5.080 -32.290  1.00  0.00    -0.043 N 
HETATM   11  H   UNL     1      -9.009   4.345 -31.602  1.00  0.00     0.282 HD
HETATM   12  C   UNL     1      -8.204   6.179 -32.207  1.00  0.00     0.204 C 
HETATM   13  C   UNL     1      -8.424   6.657 -30.791  1.00  0.00     0.036 C 
HETATM   14  C   UNL     1      -9.964   6.618 -30.662  1.00  0.00     0.030 C 
HETATM   15  C   UNL     1     -10.484   5.714 -31.794  1.00  0.00     0.237 C 
HETATM   16  C   UNL     1      -6.978   5.544 -32.804  1.00  0.00     0.126 C 
HETATM   17  C   UNL     1      -7.516   4.616 -33.914  1.00  0.00     0.145 C 
HETATM   18  C   UNL     1      -6.724   3.354 -33.737  1.00  0.00     0.239 C 
HETATM   19  O   UNL     1      -6.848   2.410 -34.502  1.00  0.00    -0.272 OA
HETATM   20  N   UNL     1      -6.038   3.431 -32.544  1.00  0.00    -0.249 N 
HETATM   21  C   UNL     1      -6.266   4.607 -31.878  1.00  0.00     0.238 C 
HETATM   22  O   UNL     1      -5.986   4.903 -30.728  1.00  0.00    -0.272 OA
HETATM   23  C   UNL     1     -11.654   2.212 -35.008  1.00  0.00     0.031 A 
HETATM   24  C   UNL     1     -11.485   1.024 -34.296  1.00  0.00     0.009 A 
HETATM   25  H   UNL     1     -11.434   4.807 -36.029  1.00  0.00     0.169 HD
ENDROOT
BRANCH  20  26
HETATM   26  C   UNL     1      -5.338   2.335 -31.979  1.00  0.00     0.078 A 
HETATM   27  C   UNL     1      -3.941   2.216 -32.117  1.00  0.00     0.095 A 
HETATM   28  C   UNL     1      -3.289   1.086 -31.607  1.00  0.00     0.039 A 
HETATM   29  C   UNL     1      -4.008   0.105 -30.920  1.00  0.00     0.003 A 
HETATM   30  C   UNL     1      -5.377   0.250 -30.726  1.00  0.00     0.002 A 
HETATM   31  C   UNL     1      -6.038   1.362 -31.246  1.00  0.00     0.033 A 
BRANCH  27  32
HETATM   32  O   UNL     1      -3.286   3.275 -32.695  1.00  0.00    -0.354 OA
HETATM   33  C   UNL     1      -2.530   4.106 -31.816  1.00  0.00     0.210 C 
ENDBRANCH  27  32
ENDBRANCH  20  26
TORSDOF 2
ENDMDL
MODEL 9
REMARK VINA RESULT:      -7.9     17.999     20.932
REMARK  2 active torsions:
REMARK  status: ('A' for Active; 'I' for Inactive)
REMARK    1  A    between atoms: N_20  and  C_21 
REMARK    2  A    between atoms: C_22  and  O_23 
ROOT
HETATM    1  C   UNL     1      -4.114 -14.843 -44.685  1.00  0.00     0.048 C 
HETATM    2  C   UNL     1      -3.311 -15.754 -43.799  1.00  0.00    -0.061 A 
HETATM    3  C   UNL     1      -3.251 -15.537 -42.412  1.00  0.00     0.019 A 
HETATM    4  C   UNL     1      -2.535 -16.432 -41.628  1.00  0.00     0.016 A 
HETATM    5  C   UNL     1      -1.885 -17.515 -42.230  1.00  0.00     0.044 A 
HETATM    6  N   UNL     1      -1.209 -18.267 -41.284  1.00  0.00    -0.324 N 
HETATM    7  C   UNL     1      -1.375 -17.740 -40.017  1.00  0.00     0.264 A 
HETATM    8  O   UNL     1      -0.868 -18.152 -38.988  1.00  0.00    -0.270 OA
HETATM    9  C   UNL     1      -2.242 -16.433 -40.151  1.00  0.00     0.250 A 
HETATM   10  N   UNL     1      -1.451 -15.190 -39.750  1.00  0.00    -0.043 N 
HETATM   11  H   UNL     1      -1.935 -14.379 -40.159  1.00  0.00     0.282 HD
HETATM   12  C   UNL     1      -1.527 -15.135 -38.251  1.00  0.00     0.204 C 
HETATM   13  C   UNL     1      -0.786 -13.848 -37.981  1.00  0.00     0.036 C 
HETATM   14  C   UNL     1       0.384 -13.920 -38.988  1.00  0.00     0.030 C 
HETATM   15  C   UNL     1      -0.004 -14.965 -40.050  1.00  0.00     0.237 C 
HETATM   16  C   UNL     1      -2.970 -15.464 -37.977  1.00  0.00     0.126 C 
HETATM   17  C   UNL     1      -3.355 -16.487 -39.067  1.00  0.00     0.145 C 
HETATM   18  C   UNL     1      -4.705 -16.022 -39.529  1.00  0.00     0.239 C 
HETATM   19  O   UNL     1      -5.347 -16.649 -40.357  1.00  0.00    -0.272 OA
HETATM   20  N   UNL     1      -4.943 -14.773 -38.997  1.00  0.00    -0.249 N 
HETATM   21  C   UNL     1      -3.910 -14.323 -38.217  1.00  0.00     0.238 C 
HETATM   22  O   UNL     1      -3.713 -13.203 -37.777  1.00  0.00    -0.272 OA
HETATM   23  C   UNL     1      -1.920 -17.754 -43.587  1.00  0.00     0.031 A 
HETATM   24  C   UNL     1      -2.645 -16.858 -44.374  1.00  0.00     0.009 A 
HETATM   25  H   UNL     1      -0.677 -19.108 -41.478  1.00  0.00     0.169 HD
ENDROOT
BRANCH  20  26
HETATM   26  C   UNL     1      -6.044 -13.964 -39.379  1.00  0.00     0.078 A 
HETATM   27  C   UNL     1      -7.213 -13.910 -38.594  1.00  0.00     0.095 A 
HETATM   28  C   UNL     1      -8.307 -13.156 -39.034  1.00  0.00     0.039 A 
HETATM   29  C   UNL     1      -8.229 -12.420 -40.218  1.00  0.00     0.003 A 
HETATM   30  C   UNL     1      -7.055 -12.419 -40.963  1.00  0.00     0.002 A 
HETATM   31  C   UNL     1      -5.966 -13.181 -40.543  1.00  0.00     0.033 A 
BRANCH  27  32
HETATM   32  O   UNL     1      -7.173 -14.559 -37.384  1.00  0.00    -0.354 OA
HETATM   33  C   UNL     1      -7.105 -13.732 -36.225  1.00  0.00     0.210 C 
ENDBRANCH  27  32
ENDBRANCH  20  26
TORSDOF 2
ENDMDL
MODEL 10
REMARK VINA RESULT:      -7.8      2.462      5.419
REMARK  2 active torsions:
REMARK  status: ('A' for Active; 'I' for Inactive)
REMARK    1  A    between atoms: N_20  and  C_21 
REMARK    2  A    between atoms: C_22  and  O_23 
ROOT
HETATM    1  C   UNL     1      -4.240   5.654 -30.758  1.00  0.00     0.048 C 
HETATM    2  C   UNL     1      -5.718   5.590 -30.485  1.00  0.00    -0.061 A 
HETATM    3  C   UNL     1      -6.531   4.655 -31.149  1.00  0.00     0.019 A 
HETATM    4  C   UNL     1      -7.881   4.602 -30.831  1.00  0.00     0.016 A 
HETATM    5  C   UNL     1      -8.402   5.478 -29.872  1.00  0.00     0.044 A 
HETATM    6  N   UNL     1      -9.765   5.283 -29.721  1.00  0.00    -0.324 N 
HETATM    7  C   UNL     1     -10.219   4.277 -30.552  1.00  0.00     0.264 A 
HETATM    8  O   UNL     1     -11.374   3.906 -30.679  1.00  0.00    -0.270 OA
HETATM    9  C   UNL     1      -8.996   3.768 -31.402  1.00  0.00     0.250 A 
HETATM   10  N   UNL     1      -9.188   4.057 -32.890  1.00  0.00    -0.043 N 
HETATM   11  H   UNL     1      -8.257   4.008 -33.328  1.00  0.00     0.282 HD
HETATM   12  C   UNL     1     -10.057   2.946 -33.403  1.00  0.00     0.204 C 
HETATM   13  C   UNL     1     -10.114   3.291 -34.872  1.00  0.00     0.036 C 
HETATM   14  C   UNL     1     -10.253   4.830 -34.846  1.00  0.00     0.030 C 
HETATM   15  C   UNL     1      -9.811   5.295 -33.446  1.00  0.00     0.237 C 
HETATM   16  C   UNL     1      -9.467   1.726 -32.747  1.00  0.00     0.126 C 
HETATM   17  C   UNL     1      -9.000   2.213 -31.359  1.00  0.00     0.145 C 
HETATM   18  C   UNL     1      -7.646   1.587 -31.201  1.00  0.00     0.239 C 
HETATM   19  O   UNL     1      -7.002   1.711 -30.170  1.00  0.00    -0.272 OA
HETATM   20  N   UNL     1      -7.265   1.054 -32.413  1.00  0.00    -0.249 N 
HETATM   21  C   UNL     1      -8.206   1.240 -33.392  1.00  0.00     0.238 C 
HETATM   22  O   UNL     1      -8.101   1.079 -34.597  1.00  0.00    -0.272 OA
HETATM   23  C   UNL     1      -7.634   6.408 -29.206  1.00  0.00     0.031 A 
HETATM   24  C   UNL     1      -6.275   6.457 -29.521  1.00  0.00     0.009 A 
HETATM   25  H   UNL     1     -10.359   5.790 -29.074  1.00  0.00     0.169 HD
ENDROOT
BRANCH  20  26
HETATM   26  C   UNL     1      -5.963   0.550 -32.665  1.00  0.00     0.078 A 
HETATM   27  C   UNL     1      -5.767  -0.785 -33.072  1.00  0.00     0.095 A 
HETATM   28  C   UNL     1      -4.465  -1.270 -33.245  1.00  0.00     0.039 A 
HETATM   29  C   UNL     1      -3.366  -0.427 -33.068  1.00  0.00     0.003 A 
HETATM   30  C   UNL     1      -3.558   0.908 -32.729  1.00  0.00     0.002 A 
HETATM   31  C   UNL     1      -4.849   1.396 -32.536  1.00  0.00     0.033 A 
BRANCH  27  32
HETATM   32  O   UNL     1      -6.895  -1.518 -33.346  1.00  0.00    -0.354 OA
HETATM   33  C   UNL     1      -6.835  -2.366 -34.490  1.00  0.00     0.210 C 
ENDBRANCH  27  32
ENDBRANCH  20  26
TORSDOF 2
ENDMDL
