MODEL 1
REMARK VINA RESULT:      -8.2      0.000      0.000
REMARK  8 active torsions:
REMARK  status: ('A' for Active; 'I' for Inactive)
REMARK    1  A    between atoms: O_2  and  C_3 
REMARK    2  A    between atoms: C_11  and  C_12 
REMARK       I    between atoms: C_12  and  N_13 
REMARK    3  A    between atoms: N_13  and  C_14 
REMARK    4  A    between atoms: C_14  and  C_15 
REMARK    5  A    between atoms: C_15  and  C_16 
REMARK    6  A    between atoms: C_16  and  C_17 
REMARK    7  A    between atoms: C_17  and  O_18 
REMARK    8  A    between atoms: O_18  and  C_19 
ROOT
HETATM    1  C   UNL     1      -5.794   4.471 -29.773  1.00  0.00     0.268 C 
HETATM    2  N   UNL     1      -4.513   4.601 -30.240  1.00  0.00    -0.345 N 
HETATM    3  O   UNL     1      -6.046   5.038 -28.709  1.00  0.00    -0.266 OA
HETATM    4  H   UNL     1      -3.952   5.143 -29.596  1.00  0.00     0.163 HD
ENDROOT
BRANCH   2   5
HETATM    5  C   UNL     1      -3.848   4.106 -31.420  1.00  0.00     0.217 C 
BRANCH   5   6
HETATM    6  C   UNL     1      -3.715   2.592 -31.413  1.00  0.00    -0.085 C 
BRANCH   6   7
HETATM    7  C   UNL     1      -3.601   1.294 -31.406  1.00  0.00    -0.078 C 
BRANCH   7   8
HETATM    8  C   UNL     1      -3.469  -0.221 -31.397  1.00  0.00     0.269 C 
BRANCH   8   9
HETATM    9  O   UNL     1      -3.344  -0.678 -32.736  1.00  0.00    -0.337 OA
BRANCH   9  10
HETATM   10  C   UNL     1      -4.498  -1.012 -33.414  1.00  0.00     0.099 A 
HETATM   11  C   UNL     1      -4.623  -2.371 -33.763  1.00  0.00     0.100 A 
HETATM   12  C   UNL     1      -5.781  -2.768 -34.471  1.00  0.00    -0.005 A 
HETATM   13  N   UNL     1      -3.673  -3.278 -33.434  1.00  0.00    -0.257 NA
HETATM   14  C   UNL     1      -5.925  -4.117 -34.824  1.00  0.00     0.015 A 
HETATM   15  C   UNL     1      -6.768  -1.831 -34.815  1.00  0.00     0.014 A 
HETATM   16  C   UNL     1      -4.944  -5.035 -34.475  1.00  0.00     0.020 A 
HETATM   17  C   UNL     1      -3.845  -4.569 -33.785  1.00  0.00     0.117 A 
HETATM   18  C   UNL     1      -6.622  -0.495 -34.461  1.00  0.00     0.004 A 
HETATM   19  C   UNL     1      -5.491  -0.084 -33.763  1.00  0.00     0.039 A 
ENDBRANCH   9  10
ENDBRANCH   8   9
ENDBRANCH   7   8
ENDBRANCH   6   7
ENDBRANCH   5   6
ENDBRANCH   2   5
BRANCH   1  20
HETATM   20  C   UNL     1      -6.777   3.668 -30.466  1.00  0.00     0.102 A 
HETATM   21  N   UNL     1      -7.644   4.054 -31.462  1.00  0.00    -0.351 N 
HETATM   22  C   UNL     1      -8.337   2.979 -31.969  1.00  0.00     0.045 A 
HETATM   23  H   UNL     1      -7.727   4.988 -31.828  1.00  0.00     0.166 HD
HETATM   24  C   UNL     1      -9.227   2.902 -33.052  1.00  0.00     0.067 A 
HETATM   25  C   UNL     1      -7.999   1.878 -31.190  1.00  0.00    -0.007 A 
HETATM   26  C   UNL     1      -9.777   1.650 -33.352  1.00  0.00     0.070 A 
HETATM   27  C   UNL     1      -9.469   0.538 -32.565  1.00  0.00     0.038 A 
HETATM   28  C   UNL     1      -8.584   0.634 -31.483  1.00  0.00     0.016 A 
HETATM   29  C   UNL     1      -7.055   2.328 -30.231  1.00  0.00     0.049 A 
BRANCH  26  30
HETATM   30  O   UNL     1     -10.638   1.391 -34.385  1.00  0.00    -0.356 OA
HETATM   31  C   UNL     1     -12.022   1.579 -34.122  1.00  0.00     0.210 C 
ENDBRANCH  26  30
ENDBRANCH   1  20
TORSDOF 8
ENDMDL
MODEL 2
REMARK VINA RESULT:      -8.1      4.125      7.470
REMARK  8 active torsions:
REMARK  status: ('A' for Active; 'I' for Inactive)
REMARK    1  A    between atoms: O_2  and  C_3 
REMARK    2  A    between atoms: C_11  and  C_12 
REMARK       I    between atoms: C_12  and  N_13 
REMARK    3  A    between atoms: N_13  and  C_14 
REMARK    4  A    between atoms: C_14  and  C_15 
REMARK    5  A    between atoms: C_15  and  C_16 
REMARK    6  A    between atoms: C_16  and  C_17 
REMARK    7  A    between atoms: C_17  and  O_18 
REMARK    8  A    between atoms: O_18  and  C_19 
ROOT
HETATM    1  C   UNL     1      -1.636   5.421 -32.497  1.00  0.00     0.268 C 
HETATM    2  N   UNL     1      -2.646   4.496 -32.532  1.00  0.00    -0.345 N 
HETATM    3  O   UNL     1      -1.106   5.689 -33.576  1.00  0.00    -0.266 OA
HETATM    4  H   UNL     1      -2.782   4.152 -33.474  1.00  0.00     0.163 HD
ENDROOT
BRANCH   2   5
HETATM    5  C   UNL     1      -3.495   3.937 -31.509  1.00  0.00     0.217 C 
BRANCH   5   6
HETATM    6  C   UNL     1      -3.460   2.417 -31.501  1.00  0.00    -0.085 C 
BRANCH   6   7
HETATM    7  C   UNL     1      -3.429   1.114 -31.494  1.00  0.00    -0.078 C 
BRANCH   7   8
HETATM    8  C   UNL     1      -3.394  -0.406 -31.486  1.00  0.00     0.269 C 
BRANCH   8   9
HETATM    9  O   UNL     1      -3.397  -0.871 -32.827  1.00  0.00    -0.337 OA
BRANCH   9  10
HETATM   10  C   UNL     1      -4.617  -1.056 -33.444  1.00  0.00     0.099 A 
HETATM   11  C   UNL     1      -4.877  -2.366 -33.891  1.00  0.00     0.100 A 
HETATM   12  C   UNL     1      -6.109  -2.610 -34.542  1.00  0.00    -0.005 A 
HETATM   13  N   UNL     1      -3.985  -3.368 -33.708  1.00  0.00    -0.257 NA
HETATM   14  C   UNL     1      -6.387  -3.908 -34.992  1.00  0.00     0.015 A 
HETATM   15  C   UNL     1      -7.036  -1.574 -34.736  1.00  0.00     0.014 A 
HETATM   16  C   UNL     1      -5.464  -4.925 -34.792  1.00  0.00     0.020 A 
HETATM   17  C   UNL     1      -4.287  -4.607 -34.148  1.00  0.00     0.117 A 
HETATM   18  C   UNL     1      -6.757  -0.289 -34.287  1.00  0.00     0.004 A 
HETATM   19  C   UNL     1      -5.551  -0.028 -33.642  1.00  0.00     0.039 A 
ENDBRANCH   9  10
ENDBRANCH   8   9
ENDBRANCH   7   8
ENDBRANCH   6   7
ENDBRANCH   5   6
ENDBRANCH   2   5
BRANCH   1  20
HETATM   20  C   UNL     1      -1.185   6.005 -31.253  1.00  0.00     0.102 A 
HETATM   21  N   UNL     1      -0.370   5.446 -30.296  1.00  0.00    -0.351 N 
HETATM   22  C   UNL     1      -0.053   6.356 -29.314  1.00  0.00     0.045 A 
HETATM   23  H   UNL     1       0.004   4.512 -30.327  1.00  0.00     0.166 HD
HETATM   24  C   UNL     1       0.825   6.245 -28.224  1.00  0.00     0.067 A 
HETATM   25  C   UNL     1      -0.786   7.507 -29.579  1.00  0.00    -0.007 A 
HETATM   26  C   UNL     1       0.963   7.358 -27.387  1.00  0.00     0.070 A 
HETATM   27  C   UNL     1       0.216   8.514 -27.622  1.00  0.00     0.038 A 
HETATM   28  C   UNL     1      -0.661   8.605 -28.710  1.00  0.00     0.016 A 
HETATM   29  C   UNL     1      -1.519   7.263 -30.769  1.00  0.00     0.049 A 
BRANCH  26  30
HETATM   30  O   UNL     1       1.793   7.431 -26.298  1.00  0.00    -0.356 OA
HETATM   31  C   UNL     1       2.100   8.734 -25.820  1.00  0.00     0.210 C 
ENDBRANCH  26  30
ENDBRANCH   1  20
TORSDOF 8
ENDMDL
MODEL 3
REMARK VINA RESULT:      -8.0      3.561      7.751
REMARK  8 active torsions:
REMARK  status: ('A' for Active; 'I' for Inactive)
REMARK    1  A    between atoms: O_2  and  C_3 
REMARK    2  A    between atoms: C_11  and  C_12 
REMARK       I    between atoms: C_12  and  N_13 
REMARK    3  A    between atoms: N_13  and  C_14 
REMARK    4  A    between atoms: C_14  and  C_15 
REMARK    5  A    between atoms: C_15  and  C_16 
REMARK    6  A    between atoms: C_16  and  C_17 
REMARK    7  A    between atoms: C_17  and  O_18 
REMARK    8  A    between atoms: O_18  and  C_19 
ROOT
HETATM    1  C   UNL     1      -6.271   2.992 -32.120  1.00  0.00     0.268 C 
HETATM    2  N   UNL     1      -6.122   4.174 -32.795  1.00  0.00    -0.345 N 
HETATM    3  O   UNL     1      -6.541   3.080 -30.922  1.00  0.00    -0.266 OA
HETATM    4  H   UNL     1      -6.238   4.960 -32.169  1.00  0.00     0.163 HD
ENDROOT
BRANCH   2   5
HETATM    5  C   UNL     1      -5.820   4.482 -34.172  1.00  0.00     0.217 C 
BRANCH   5   6
HETATM    6  C   UNL     1      -4.358   4.848 -34.371  1.00  0.00    -0.085 C 
BRANCH   6   7
HETATM    7  C   UNL     1      -3.105   5.163 -34.543  1.00  0.00    -0.078 C 
BRANCH   7   8
HETATM    8  C   UNL     1      -1.643   5.529 -34.744  1.00  0.00     0.269 C 
BRANCH   8   9
HETATM    9  O   UNL     1      -0.960   5.383 -33.507  1.00  0.00    -0.337 OA
BRANCH   9  10
HETATM   10  C   UNL     1      -1.126   6.369 -32.558  1.00  0.00     0.099 A 
HETATM   11  C   UNL     1      -0.531   6.113 -31.307  1.00  0.00     0.100 A 
HETATM   12  C   UNL     1      -0.681   7.085 -30.291  1.00  0.00    -0.005 A 
HETATM   13  N   UNL     1       0.166   4.975 -31.073  1.00  0.00    -0.257 NA
HETATM   14  C   UNL     1      -0.094   6.848 -29.041  1.00  0.00     0.015 A 
HETATM   15  C   UNL     1      -1.404   8.264 -30.528  1.00  0.00     0.014 A 
HETATM   16  C   UNL     1       0.622   5.680 -28.819  1.00  0.00     0.020 A 
HETATM   17  C   UNL     1       0.723   4.782 -29.860  1.00  0.00     0.117 A 
HETATM   18  C   UNL     1      -1.984   8.496 -31.770  1.00  0.00     0.004 A 
HETATM   19  C   UNL     1      -1.847   7.553 -32.784  1.00  0.00     0.039 A 
ENDBRANCH   9  10
ENDBRANCH   8   9
ENDBRANCH   7   8
ENDBRANCH   6   7
ENDBRANCH   5   6
ENDBRANCH   2   5
BRANCH   1  20
HETATM   20  C   UNL     1      -6.068   1.715 -32.770  1.00  0.00     0.102 A 
HETATM   21  N   UNL     1      -4.922   0.955 -32.813  1.00  0.00    -0.351 N 
HETATM   22  C   UNL     1      -5.151  -0.263 -33.413  1.00  0.00     0.045 A 
HETATM   23  H   UNL     1      -4.038   1.215 -32.409  1.00  0.00     0.166 HD
HETATM   24  C   UNL     1      -4.303  -1.371 -33.566  1.00  0.00     0.067 A 
HETATM   25  C   UNL     1      -6.459  -0.240 -33.884  1.00  0.00    -0.007 A 
HETATM   26  C   UNL     1      -4.823  -2.499 -34.213  1.00  0.00     0.070 A 
HETATM   27  C   UNL     1      -6.125  -2.486 -34.715  1.00  0.00     0.038 A 
HETATM   28  C   UNL     1      -6.955  -1.368 -34.560  1.00  0.00     0.016 A 
HETATM   29  C   UNL     1      -7.009   1.014 -33.511  1.00  0.00     0.049 A 
BRANCH  26  30
HETATM   30  O   UNL     1      -4.146  -3.671 -34.424  1.00  0.00    -0.356 OA
HETATM   31  C   UNL     1      -4.922  -4.862 -34.426  1.00  0.00     0.210 C 
ENDBRANCH  26  30
ENDBRANCH   1  20
TORSDOF 8
ENDMDL
MODEL 4
REMARK VINA RESULT:      -8.0      3.746      8.362
REMARK  8 active torsions:
REMARK  status: ('A' for Active; 'I' for Inactive)
REMARK    1  A    between atoms: O_2  and  C_3 
REMARK    2  A    between atoms: C_11  and  C_12 
REMARK       I    between atoms: C_12  and  N_13 
REMARK    3  A    between atoms: N_13  and  C_14 
REMARK    4  A    between atoms: C_14  and  C_15 
REMARK    5  A    between atoms: C_15  and  C_16 
REMARK    6  A    between atoms: C_16  and  C_17 
REMARK    7  A    between atoms: C_17  and  O_18 
REMARK    8  A    between atoms: O_18  and  C_19 
ROOT
HETATM    1  C   UNL     1      -5.942   3.047 -32.128  1.00  0.00     0.268 C 
HETATM    2  N   UNL     1      -5.755   4.227 -32.799  1.00  0.00    -0.345 N 
HETATM    3  O   UNL     1      -6.209   3.140 -30.930  1.00  0.00    -0.266 OA
HETATM    4  H   UNL     1      -5.846   5.013 -32.169  1.00  0.00     0.163 HD
ENDROOT
BRANCH   2   5
HETATM    5  C   UNL     1      -5.443   4.530 -34.174  1.00  0.00     0.217 C 
BRANCH   5   6
HETATM    6  C   UNL     1      -4.012   5.014 -34.345  1.00  0.00    -0.085 C 
BRANCH   6   7
HETATM    7  C   UNL     1      -2.785   5.428 -34.492  1.00  0.00    -0.078 C 
BRANCH   7   8
HETATM    8  C   UNL     1      -1.353   5.911 -34.663  1.00  0.00     0.269 C 
BRANCH   8   9
HETATM    9  O   UNL     1      -1.145   7.034 -33.819  1.00  0.00    -0.337 OA
BRANCH   9  10
HETATM   10  C   UNL     1      -0.868   6.798 -32.489  1.00  0.00     0.099 A 
HETATM   11  C   UNL     1      -1.330   7.780 -31.591  1.00  0.00     0.100 A 
HETATM   12  C   UNL     1      -1.063   7.596 -30.214  1.00  0.00    -0.005 A 
HETATM   13  N   UNL     1      -2.013   8.869 -32.020  1.00  0.00    -0.257 NA
HETATM   14  C   UNL     1      -1.518   8.561 -29.305  1.00  0.00     0.015 A 
HETATM   15  C   UNL     1      -0.355   6.470 -29.765  1.00  0.00     0.014 A 
HETATM   16  C   UNL     1      -2.220   9.668 -29.761  1.00  0.00     0.020 A 
HETATM   17  C   UNL     1      -2.441   9.775 -31.117  1.00  0.00     0.117 A 
HETATM   18  C   UNL     1       0.093   5.515 -30.670  1.00  0.00     0.004 A 
HETATM   19  C   UNL     1      -0.162   5.676 -32.028  1.00  0.00     0.039 A 
ENDBRANCH   9  10
ENDBRANCH   8   9
ENDBRANCH   7   8
ENDBRANCH   6   7
ENDBRANCH   5   6
ENDBRANCH   2   5
BRANCH   1  20
HETATM   20  C   UNL     1      -5.779   1.768 -32.782  1.00  0.00     0.102 A 
HETATM   21  N   UNL     1      -4.692   0.925 -32.747  1.00  0.00    -0.351 N 
HETATM   22  C   UNL     1      -4.959  -0.265 -33.385  1.00  0.00     0.045 A 
HETATM   23  H   UNL     1      -3.828   1.114 -32.268  1.00  0.00     0.166 HD
HETATM   24  C   UNL     1      -4.185  -1.431 -33.490  1.00  0.00     0.067 A 
HETATM   25  C   UNL     1      -6.220  -0.140 -33.960  1.00  0.00    -0.007 A 
HETATM   26  C   UNL     1      -4.730  -2.509 -34.197  1.00  0.00     0.070 A 
HETATM   27  C   UNL     1      -5.983  -2.394 -34.803  1.00  0.00     0.038 A 
HETATM   28  C   UNL     1      -6.739  -1.220 -34.695  1.00  0.00     0.016 A 
HETATM   29  C   UNL     1      -6.705   1.147 -33.610  1.00  0.00     0.049 A 
BRANCH  26  30
HETATM   30  O   UNL     1      -4.125  -3.726 -34.374  1.00  0.00    -0.356 OA
HETATM   31  C   UNL     1      -4.982  -4.857 -34.443  1.00  0.00     0.210 C 
ENDBRANCH  26  30
ENDBRANCH   1  20
TORSDOF 8
ENDMDL
MODEL 5
REMARK VINA RESULT:      -7.9      3.857      7.481
REMARK  8 active torsions:
REMARK  status: ('A' for Active; 'I' for Inactive)
REMARK    1  A    between atoms: O_2  and  C_3 
REMARK    2  A    between atoms: C_11  and  C_12 
REMARK       I    between atoms: C_12  and  N_13 
REMARK    3  A    between atoms: N_13  and  C_14 
REMARK    4  A    between atoms: C_14  and  C_15 
REMARK    5  A    between atoms: C_15  and  C_16 
REMARK    6  A    between atoms: C_16  and  C_17 
REMARK    7  A    between atoms: C_17  and  O_18 
REMARK    8  A    between atoms: O_18  and  C_19 
ROOT
HETATM    1  C   UNL     1      -1.777   5.380 -33.738  1.00  0.00     0.268 C 
HETATM    2  N   UNL     1      -2.994   4.753 -33.787  1.00  0.00    -0.345 N 
HETATM    3  O   UNL     1      -1.228   5.589 -34.820  1.00  0.00    -0.266 OA
HETATM    4  H   UNL     1      -3.242   4.532 -34.743  1.00  0.00     0.163 HD
ENDROOT
BRANCH   2   5
HETATM    5  C   UNL     1      -3.927   4.350 -32.765  1.00  0.00     0.217 C 
BRANCH   5   6
HETATM    6  C   UNL     1      -3.625   2.962 -32.225  1.00  0.00    -0.085 C 
BRANCH   6   7
HETATM    7  C   UNL     1      -3.366   1.771 -31.761  1.00  0.00    -0.078 C 
BRANCH   7   8
HETATM    8  C   UNL     1      -3.064   0.382 -31.221  1.00  0.00     0.269 C 
BRANCH   8   9
HETATM    9  O   UNL     1      -4.288  -0.316 -31.044  1.00  0.00    -0.337 OA
BRANCH   9  10
HETATM   10  C   UNL     1      -4.935  -0.781 -32.170  1.00  0.00     0.099 A 
HETATM   11  C   UNL     1      -6.273  -0.367 -32.314  1.00  0.00     0.100 A 
HETATM   12  C   UNL     1      -6.989  -0.824 -33.445  1.00  0.00    -0.005 A 
HETATM   13  N   UNL     1      -6.866   0.446 -31.407  1.00  0.00    -0.257 NA
HETATM   14  C   UNL     1      -8.321  -0.420 -33.607  1.00  0.00     0.015 A 
HETATM   15  C   UNL     1      -6.380  -1.667 -34.387  1.00  0.00     0.014 A 
HETATM   16  C   UNL     1      -8.912   0.417 -32.670  1.00  0.00     0.020 A 
HETATM   17  C   UNL     1      -8.148   0.820 -31.596  1.00  0.00     0.117 A 
HETATM   18  C   UNL     1      -5.058  -2.064 -34.223  1.00  0.00     0.004 A 
HETATM   19  C   UNL     1      -4.335  -1.624 -33.119  1.00  0.00     0.039 A 
ENDBRANCH   9  10
ENDBRANCH   8   9
ENDBRANCH   7   8
ENDBRANCH   6   7
ENDBRANCH   5   6
ENDBRANCH   2   5
BRANCH   1  20
HETATM   20  C   UNL     1      -1.152   5.727 -32.480  1.00  0.00     0.102 A 
HETATM   21  N   UNL     1      -1.183   6.931 -31.817  1.00  0.00    -0.351 N 
HETATM   22  C   UNL     1      -0.582   6.840 -30.582  1.00  0.00     0.045 A 
HETATM   23  H   UNL     1      -1.638   7.765 -32.150  1.00  0.00     0.166 HD
HETATM   24  C   UNL     1      -0.489   7.783 -29.547  1.00  0.00     0.067 A 
HETATM   25  C   UNL     1      -0.032   5.565 -30.495  1.00  0.00    -0.007 A 
HETATM   26  C   UNL     1       0.179   7.398 -28.378  1.00  0.00     0.070 A 
HETATM   27  C   UNL     1       0.759   6.132 -28.282  1.00  0.00     0.038 A 
HETATM   28  C   UNL     1       0.663   5.205 -29.328  1.00  0.00     0.016 A 
HETATM   29  C   UNL     1      -0.361   4.893 -31.701  1.00  0.00     0.049 A 
BRANCH  26  30
HETATM   30  O   UNL     1       0.339   8.181 -27.265  1.00  0.00    -0.356 OA
HETATM   31  C   UNL     1       1.445   7.874 -26.426  1.00  0.00     0.210 C 
ENDBRANCH  26  30
ENDBRANCH   1  20
TORSDOF 8
ENDMDL
MODEL 6
REMARK VINA RESULT:      -7.9      3.683      7.158
REMARK  8 active torsions:
REMARK  status: ('A' for Active; 'I' for Inactive)
REMARK    1  A    between atoms: O_2  and  C_3 
REMARK    2  A    between atoms: C_11  and  C_12 
REMARK       I    between atoms: C_12  and  N_13 
REMARK    3  A    between atoms: N_13  and  C_14 
REMARK    4  A    between atoms: C_14  and  C_15 
REMARK    5  A    between atoms: C_15  and  C_16 
REMARK    6  A    between atoms: C_16  and  C_17 
REMARK    7  A    between atoms: C_17  and  O_18 
REMARK    8  A    between atoms: O_18  and  C_19 
ROOT
HETATM    1  C   UNL     1      -1.913   5.408 -34.623  1.00  0.00     0.268 C 
HETATM    2  N   UNL     1      -3.188   5.115 -35.028  1.00  0.00    -0.345 N 
HETATM    3  O   UNL     1      -1.028   5.271 -35.469  1.00  0.00    -0.266 OA
HETATM    4  H   UNL     1      -3.192   4.797 -35.989  1.00  0.00     0.163 HD
ENDROOT
BRANCH   2   5
HETATM    5  C   UNL     1      -4.461   5.155 -34.353  1.00  0.00     0.217 C 
BRANCH   5   6
HETATM    6  C   UNL     1      -4.488   4.264 -33.122  1.00  0.00    -0.085 C 
BRANCH   6   7
HETATM    7  C   UNL     1      -4.511   3.499 -32.067  1.00  0.00    -0.078 C 
BRANCH   7   8
HETATM    8  C   UNL     1      -4.538   2.608 -30.835  1.00  0.00     0.269 C 
BRANCH   8   9
HETATM    9  O   UNL     1      -5.405   1.511 -31.082  1.00  0.00    -0.337 OA
BRANCH   9  10
HETATM   10  C   UNL     1      -4.862   0.373 -31.641  1.00  0.00     0.099 A 
HETATM   11  C   UNL     1      -5.605  -0.201 -32.691  1.00  0.00     0.100 A 
HETATM   12  C   UNL     1      -5.101  -1.377 -33.292  1.00  0.00    -0.005 A 
HETATM   13  N   UNL     1      -6.765   0.350 -33.121  1.00  0.00    -0.257 NA
HETATM   14  C   UNL     1      -5.826  -1.961 -34.341  1.00  0.00     0.015 A 
HETATM   15  C   UNL     1      -3.900  -1.952 -32.849  1.00  0.00     0.014 A 
HETATM   16  C   UNL     1      -7.011  -1.381 -34.773  1.00  0.00     0.020 A 
HETATM   17  C   UNL     1      -7.435  -0.235 -34.136  1.00  0.00     0.117 A 
HETATM   18  C   UNL     1      -3.184  -1.370 -31.810  1.00  0.00     0.004 A 
HETATM   19  C   UNL     1      -3.661  -0.210 -31.206  1.00  0.00     0.039 A 
ENDBRANCH   9  10
ENDBRANCH   8   9
ENDBRANCH   7   8
ENDBRANCH   6   7
ENDBRANCH   5   6
ENDBRANCH   2   5
BRANCH   1  20
HETATM   20  C   UNL     1      -1.620   5.802 -33.262  1.00  0.00     0.102 A 
HETATM   21  N   UNL     1      -1.082   5.039 -32.252  1.00  0.00    -0.351 N 
HETATM   22  C   UNL     1      -0.826   5.799 -31.133  1.00  0.00     0.045 A 
HETATM   23  H   UNL     1      -0.843   4.064 -32.326  1.00  0.00     0.166 HD
HETATM   24  C   UNL     1      -0.187   5.455 -29.930  1.00  0.00     0.067 A 
HETATM   25  C   UNL     1      -1.329   7.070 -31.384  1.00  0.00    -0.007 A 
HETATM   26  C   UNL     1      -0.051   6.455 -28.961  1.00  0.00     0.070 A 
HETATM   27  C   UNL     1      -0.572   7.731 -29.185  1.00  0.00     0.038 A 
HETATM   28  C   UNL     1      -1.214   8.054 -30.387  1.00  0.00     0.016 A 
HETATM   29  C   UNL     1      -1.858   7.050 -32.701  1.00  0.00     0.049 A 
BRANCH  26  30
HETATM   30  O   UNL     1       0.566   6.301 -27.747  1.00  0.00    -0.356 OA
HETATM   31  C   UNL     1      -0.283   6.165 -26.615  1.00  0.00     0.210 C 
ENDBRANCH  26  30
ENDBRANCH   1  20
TORSDOF 8
ENDMDL
MODEL 7
REMARK VINA RESULT:      -7.7      3.952      7.156
REMARK  8 active torsions:
REMARK  status: ('A' for Active; 'I' for Inactive)
REMARK    1  A    between atoms: O_2  and  C_3 
REMARK    2  A    between atoms: C_11  and  C_12 
REMARK       I    between atoms: C_12  and  N_13 
REMARK    3  A    between atoms: N_13  and  C_14 
REMARK    4  A    between atoms: C_14  and  C_15 
REMARK    5  A    between atoms: C_15  and  C_16 
REMARK    6  A    between atoms: C_16  and  C_17 
REMARK    7  A    between atoms: C_17  and  O_18 
REMARK    8  A    between atoms: O_18  and  C_19 
ROOT
HETATM    1  C   UNL     1      -1.645   6.879 -33.315  1.00  0.00     0.268 C 
HETATM    2  N   UNL     1      -2.026   5.682 -33.862  1.00  0.00    -0.345 N 
HETATM    3  O   UNL     1      -1.580   7.834 -34.089  1.00  0.00    -0.266 OA
HETATM    4  H   UNL     1      -2.175   5.777 -34.858  1.00  0.00     0.163 HD
ENDROOT
BRANCH   2   5
HETATM    5  C   UNL     1      -2.222   4.369 -33.299  1.00  0.00     0.217 C 
BRANCH   5   6
HETATM    6  C   UNL     1      -3.692   4.040 -33.102  1.00  0.00    -0.085 C 
BRANCH   6   7
HETATM    7  C   UNL     1      -4.954   3.758 -32.933  1.00  0.00    -0.078 C 
BRANCH   7   8
HETATM    8  C   UNL     1      -6.425   3.429 -32.737  1.00  0.00     0.269 C 
BRANCH   8   9
HETATM    9  O   UNL     1      -6.538   2.091 -32.275  1.00  0.00    -0.337 OA
BRANCH   9  10
HETATM   10  C   UNL     1      -6.656   1.091 -33.218  1.00  0.00     0.099 A 
HETATM   11  C   UNL     1      -5.742   0.027 -33.090  1.00  0.00     0.100 A 
HETATM   12  C   UNL     1      -5.809  -1.020 -34.038  1.00  0.00    -0.005 A 
HETATM   13  N   UNL     1      -4.825  -0.004 -32.093  1.00  0.00    -0.257 NA
HETATM   14  C   UNL     1      -4.910  -2.089 -33.924  1.00  0.00     0.015 A 
HETATM   15  C   UNL     1      -6.756  -0.991 -35.073  1.00  0.00     0.014 A 
HETATM   16  C   UNL     1      -3.980  -2.108 -32.895  1.00  0.00     0.020 A 
HETATM   17  C   UNL     1      -3.978  -1.051 -32.010  1.00  0.00     0.117 A 
HETATM   18  C   UNL     1      -7.648   0.070 -35.180  1.00  0.00     0.004 A 
HETATM   19  C   UNL     1      -7.600   1.109 -34.257  1.00  0.00     0.039 A 
ENDBRANCH   9  10
ENDBRANCH   8   9
ENDBRANCH   7   8
ENDBRANCH   6   7
ENDBRANCH   5   6
ENDBRANCH   2   5
BRANCH   1  20
HETATM   20  C   UNL     1      -1.288   6.996 -31.918  1.00  0.00     0.102 A 
HETATM   21  N   UNL     1      -2.046   7.493 -30.884  1.00  0.00    -0.351 N 
HETATM   22  C   UNL     1      -1.417   7.319 -29.672  1.00  0.00     0.045 A 
HETATM   23  H   UNL     1      -2.970   7.881 -30.977  1.00  0.00     0.166 HD
HETATM   24  C   UNL     1      -1.872   7.574 -28.369  1.00  0.00     0.067 A 
HETATM   25  C   UNL     1      -0.154   6.803 -29.944  1.00  0.00    -0.007 A 
HETATM   26  C   UNL     1      -1.006   7.278 -27.310  1.00  0.00     0.070 A 
HETATM   27  C   UNL     1       0.275   6.783 -27.564  1.00  0.00     0.038 A 
HETATM   28  C   UNL     1       0.716   6.542 -28.872  1.00  0.00     0.016 A 
HETATM   29  C   UNL     1      -0.070   6.643 -31.351  1.00  0.00     0.049 A 
BRANCH  26  30
HETATM   30  O   UNL     1      -1.297   7.439 -25.981  1.00  0.00    -0.356 OA
HETATM   31  C   UNL     1      -2.671   7.399 -25.622  1.00  0.00     0.210 C 
ENDBRANCH  26  30
ENDBRANCH   1  20
TORSDOF 8
ENDMDL
MODEL 8
REMARK VINA RESULT:      -7.6      4.528      7.737
REMARK  8 active torsions:
REMARK  status: ('A' for Active; 'I' for Inactive)
REMARK    1  A    between atoms: O_2  and  C_3 
REMARK    2  A    between atoms: C_11  and  C_12 
REMARK       I    between atoms: C_12  and  N_13 
REMARK    3  A    between atoms: N_13  and  C_14 
REMARK    4  A    between atoms: C_14  and  C_15 
REMARK    5  A    between atoms: C_15  and  C_16 
REMARK    6  A    between atoms: C_16  and  C_17 
REMARK    7  A    between atoms: C_17  and  O_18 
REMARK    8  A    between atoms: O_18  and  C_19 
ROOT
HETATM    1  C   UNL     1       0.014   5.189 -30.747  1.00  0.00     0.268 C 
HETATM    2  N   UNL     1      -0.983   4.988 -31.665  1.00  0.00    -0.345 N 
HETATM    3  O   UNL     1       1.009   4.472 -30.859  1.00  0.00    -0.266 OA
HETATM    4  H   UNL     1      -0.740   4.235 -32.295  1.00  0.00     0.163 HD
ENDROOT
BRANCH   2   5
HETATM    5  C   UNL     1      -2.266   5.614 -31.866  1.00  0.00     0.217 C 
BRANCH   5   6
HETATM    6  C   UNL     1      -3.409   4.614 -31.812  1.00  0.00    -0.085 C 
BRANCH   6   7
HETATM    7  C   UNL     1      -4.389   3.755 -31.766  1.00  0.00    -0.078 C 
BRANCH   7   8
HETATM    8  C   UNL     1      -5.532   2.754 -31.712  1.00  0.00     0.269 C 
BRANCH   8   9
HETATM    9  O   UNL     1      -5.089   1.523 -32.266  1.00  0.00    -0.337 OA
BRANCH   9  10
HETATM   10  C   UNL     1      -5.882   0.923 -33.221  1.00  0.00     0.099 A 
HETATM   11  C   UNL     1      -5.512  -0.388 -33.579  1.00  0.00     0.100 A 
HETATM   12  C   UNL     1      -6.283  -1.048 -34.564  1.00  0.00    -0.005 A 
HETATM   13  N   UNL     1      -4.455  -1.009 -33.003  1.00  0.00    -0.257 NA
HETATM   14  C   UNL     1      -5.931  -2.354 -34.931  1.00  0.00     0.015 A 
HETATM   15  C   UNL     1      -7.378  -0.409 -35.165  1.00  0.00     0.014 A 
HETATM   16  C   UNL     1      -4.848  -2.978 -34.328  1.00  0.00     0.020 A 
HETATM   17  C   UNL     1      -4.147  -2.268 -33.376  1.00  0.00     0.117 A 
HETATM   18  C   UNL     1      -7.725   0.886 -34.797  1.00  0.00     0.004 A 
HETATM   19  C   UNL     1      -6.980   1.552 -33.828  1.00  0.00     0.039 A 
ENDBRANCH   9  10
ENDBRANCH   8   9
ENDBRANCH   7   8
ENDBRANCH   6   7
ENDBRANCH   5   6
ENDBRANCH   2   5
BRANCH   1  20
HETATM   20  C   UNL     1      -0.121   6.152 -29.677  1.00  0.00     0.102 A 
HETATM   21  N   UNL     1      -1.125   6.250 -28.741  1.00  0.00    -0.351 N 
HETATM   22  C   UNL     1      -0.840   7.213 -27.800  1.00  0.00     0.045 A 
HETATM   23  H   UNL     1      -1.938   5.658 -28.700  1.00  0.00     0.166 HD
HETATM   24  C   UNL     1      -1.525   7.562 -26.625  1.00  0.00     0.067 A 
HETATM   25  C   UNL     1       0.328   7.846 -28.211  1.00  0.00    -0.007 A 
HETATM   26  C   UNL     1      -0.983   8.587 -25.840  1.00  0.00     0.070 A 
HETATM   27  C   UNL     1       0.175   9.251 -26.249  1.00  0.00     0.038 A 
HETATM   28  C   UNL     1       0.841   8.895 -27.429  1.00  0.00     0.016 A 
HETATM   29  C   UNL     1       0.746   7.202 -29.404  1.00  0.00     0.049 A 
BRANCH  26  30
HETATM   30  O   UNL     1      -1.504   9.035 -24.655  1.00  0.00    -0.356 OA
HETATM   31  C   UNL     1      -2.720   8.435 -24.228  1.00  0.00     0.210 C 
ENDBRANCH  26  30
ENDBRANCH   1  20
TORSDOF 8
ENDMDL
MODEL 9
REMARK VINA RESULT:      -7.3      4.605      7.969
REMARK  8 active torsions:
REMARK  status: ('A' for Active; 'I' for Inactive)
REMARK    1  A    between atoms: O_2  and  C_3 
REMARK    2  A    between atoms: C_11  and  C_12 
REMARK       I    between atoms: C_12  and  N_13 
REMARK    3  A    between atoms: N_13  and  C_14 
REMARK    4  A    between atoms: C_14  and  C_15 
REMARK    5  A    between atoms: C_15  and  C_16 
REMARK    6  A    between atoms: C_16  and  C_17 
REMARK    7  A    between atoms: C_17  and  O_18 
REMARK    8  A    between atoms: O_18  and  C_19 
ROOT
HETATM    1  C   UNL     1       0.146   5.264 -30.827  1.00  0.00     0.268 C 
HETATM    2  N   UNL     1      -0.745   5.171 -31.864  1.00  0.00    -0.345 N 
HETATM    3  O   UNL     1       1.091   4.475 -30.849  1.00  0.00    -0.266 OA
HETATM    4  H   UNL     1      -0.483   4.422 -32.491  1.00  0.00     0.163 HD
ENDROOT
BRANCH   2   5
HETATM    5  C   UNL     1      -1.944   5.902 -32.190  1.00  0.00     0.217 C 
BRANCH   5   6
HETATM    6  C   UNL     1      -3.086   4.984 -32.594  1.00  0.00    -0.085 C 
BRANCH   6   7
HETATM    7  C   UNL     1      -4.065   4.196 -32.941  1.00  0.00    -0.078 C 
BRANCH   7   8
HETATM    8  C   UNL     1      -5.207   3.278 -33.345  1.00  0.00     0.269 C 
BRANCH   8   9
HETATM    9  O   UNL     1      -5.465   2.372 -32.283  1.00  0.00    -0.337 OA
BRANCH   9  10
HETATM   10  C   UNL     1      -4.733   1.204 -32.238  1.00  0.00     0.099 A 
HETATM   11  C   UNL     1      -5.187   0.171 -33.081  1.00  0.00     0.100 A 
HETATM   12  C   UNL     1      -4.480  -1.054 -33.065  1.00  0.00    -0.005 A 
HETATM   13  N   UNL     1      -6.264   0.335 -33.886  1.00  0.00    -0.257 NA
HETATM   14  C   UNL     1      -4.916  -2.092 -33.899  1.00  0.00     0.015 A 
HETATM   15  C   UNL     1      -3.365  -1.229 -32.231  1.00  0.00     0.014 A 
HETATM   16  C   UNL     1      -6.018  -1.907 -34.723  1.00  0.00     0.020 A 
HETATM   17  C   UNL     1      -6.653  -0.684 -34.680  1.00  0.00     0.117 A 
HETATM   18  C   UNL     1      -2.936  -0.196 -31.407  1.00  0.00     0.004 A 
HETATM   19  C   UNL     1      -3.616   1.019 -31.408  1.00  0.00     0.039 A 
ENDBRANCH   9  10
ENDBRANCH   8   9
ENDBRANCH   7   8
ENDBRANCH   6   7
ENDBRANCH   5   6
ENDBRANCH   2   5
BRANCH   1  20
HETATM   20  C   UNL     1      -0.047   6.201 -29.741  1.00  0.00     0.102 A 
HETATM   21  N   UNL     1      -1.034   6.201 -28.783  1.00  0.00    -0.351 N 
HETATM   22  C   UNL     1      -0.812   7.175 -27.835  1.00  0.00     0.045 A 
HETATM   23  H   UNL     1      -1.792   5.541 -28.731  1.00  0.00     0.166 HD
HETATM   24  C   UNL     1      -1.497   7.451 -26.641  1.00  0.00     0.067 A 
HETATM   25  C   UNL     1       0.288   7.910 -28.264  1.00  0.00    -0.007 A 
HETATM   26  C   UNL     1      -1.027   8.510 -25.856  1.00  0.00     0.070 A 
HETATM   27  C   UNL     1       0.060   9.276 -26.281  1.00  0.00     0.038 A 
HETATM   28  C   UNL     1       0.727   8.991 -27.480  1.00  0.00     0.016 A 
HETATM   29  C   UNL     1       0.732   7.318 -29.474  1.00  0.00     0.049 A 
BRANCH  26  30
HETATM   30  O   UNL     1      -1.557   8.898 -24.653  1.00  0.00    -0.356 OA
HETATM   31  C   UNL     1      -2.819   8.344 -24.307  1.00  0.00     0.210 C 
ENDBRANCH  26  30
ENDBRANCH   1  20
TORSDOF 8
ENDMDL
MODEL 10
REMARK VINA RESULT:      -7.2      3.103      8.331
REMARK  8 active torsions:
REMARK  status: ('A' for Active; 'I' for Inactive)
REMARK    1  A    between atoms: O_2  and  C_3 
REMARK    2  A    between atoms: C_11  and  C_12 
REMARK       I    between atoms: C_12  and  N_13 
REMARK    3  A    between atoms: N_13  and  C_14 
REMARK    4  A    between atoms: C_14  and  C_15 
REMARK    5  A    between atoms: C_15  and  C_16 
REMARK    6  A    between atoms: C_16  and  C_17 
REMARK    7  A    between atoms: C_17  and  O_18 
REMARK    8  A    between atoms: O_18  and  C_19 
ROOT
HETATM    1  C   UNL     1      -7.913   1.879 -33.284  1.00  0.00     0.268 C 
HETATM    2  N   UNL     1      -7.674   2.475 -32.074  1.00  0.00    -0.345 N 
HETATM    3  O   UNL     1      -8.744   2.430 -34.007  1.00  0.00    -0.266 OA
HETATM    4  H   UNL     1      -8.260   3.291 -31.956  1.00  0.00     0.163 HD
ENDROOT
BRANCH   2   5
HETATM    5  C   UNL     1      -6.791   2.148 -30.981  1.00  0.00     0.217 C 
BRANCH   5   6
HETATM    6  C   UNL     1      -5.381   2.667 -31.205  1.00  0.00    -0.085 C 
BRANCH   6   7
HETATM    7  C   UNL     1      -4.171   3.112 -31.398  1.00  0.00    -0.078 C 
BRANCH   7   8
HETATM    8  C   UNL     1      -2.759   3.631 -31.622  1.00  0.00     0.269 C 
BRANCH   8   9
HETATM    9  O   UNL     1      -2.784   5.051 -31.594  1.00  0.00    -0.337 OA
BRANCH   9  10
HETATM   10  C   UNL     1      -1.675   5.706 -31.100  1.00  0.00     0.099 A 
HETATM   11  C   UNL     1      -1.940   6.729 -30.169  1.00  0.00     0.100 A 
HETATM   12  C   UNL     1      -0.840   7.443 -29.640  1.00  0.00    -0.005 A 
HETATM   13  N   UNL     1      -3.204   7.027 -29.784  1.00  0.00    -0.257 NA
HETATM   14  C   UNL     1      -1.084   8.462 -28.709  1.00  0.00     0.015 A 
HETATM   15  C   UNL     1       0.471   7.139 -30.037  1.00  0.00     0.014 A 
HETATM   16  C   UNL     1      -2.385   8.752 -28.321  1.00  0.00     0.020 A 
HETATM   17  C   UNL     1      -3.403   8.010 -28.883  1.00  0.00     0.117 A 
HETATM   18  C   UNL     1       0.709   6.126 -30.958  1.00  0.00     0.004 A 
HETATM   19  C   UNL     1      -0.359   5.410 -31.490  1.00  0.00     0.039 A 
ENDBRANCH   9  10
ENDBRANCH   8   9
ENDBRANCH   7   8
ENDBRANCH   6   7
ENDBRANCH   5   6
ENDBRANCH   2   5
BRANCH   1  20
HETATM   20  C   UNL     1      -7.265   0.643 -33.663  1.00  0.00     0.102 A 
HETATM   21  N   UNL     1      -5.920   0.355 -33.671  1.00  0.00    -0.351 N 
HETATM   22  C   UNL     1      -5.693  -0.971 -33.966  1.00  0.00     0.045 A 
HETATM   23  H   UNL     1      -5.186   1.002 -33.433  1.00  0.00     0.166 HD
HETATM   24  C   UNL     1      -4.497  -1.706 -33.972  1.00  0.00     0.067 A 
HETATM   25  C   UNL     1      -6.926  -1.530 -34.281  1.00  0.00    -0.007 A 
HETATM   26  C   UNL     1      -4.575  -3.065 -34.300  1.00  0.00     0.070 A 
HETATM   27  C   UNL     1      -5.800  -3.639 -34.644  1.00  0.00     0.038 A 
HETATM   28  C   UNL     1      -6.983  -2.888 -34.640  1.00  0.00     0.016 A 
HETATM   29  C   UNL     1      -7.894  -0.504 -34.127  1.00  0.00     0.049 A 
BRANCH  26  30
HETATM   30  O   UNL     1      -3.515  -3.933 -34.329  1.00  0.00    -0.356 OA
HETATM   31  C   UNL     1      -3.498  -4.949 -33.336  1.00  0.00     0.210 C 
ENDBRANCH  26  30
ENDBRANCH   1  20
TORSDOF 8
ENDMDL
