MODEL 1
REMARK VINA RESULT:      -8.1      0.000      0.000
REMARK  8 active torsions:
REMARK  status: ('A' for Active; 'I' for Inactive)
REMARK    1  A    between atoms: C_7  and  N_8 
REMARK    2  A    between atoms: N_8  and  C_9 
REMARK    3  A    between atoms: C_9  and  C_10 
REMARK    4  A    between atoms: C_10  and  C_11 
REMARK    5  A    between atoms: C_11  and  O_12 
REMARK    6  A    between atoms: C_14  and  N_15 
REMARK    7  A    between atoms: N_15  and  C_16 
REMARK    8  A    between atoms: C_16  and  C_17 
ROOT
HETATM    1  C   UNL     1      -6.688   3.396 -29.857  1.00  0.00     0.001 A 
HETATM    2  C   UNL     1      -6.593   2.250 -30.649  1.00  0.00     0.017 A 
HETATM    3  C   UNL     1      -7.727   1.729 -31.315  1.00  0.00     0.032 A 
HETATM    4  C   UNL     1      -8.942   2.429 -31.196  1.00  0.00     0.062 A 
HETATM    5  N   UNL     1     -10.018   1.989 -31.858  1.00  0.00    -0.189 N 
HETATM    6  H   UNL     1     -10.906   2.463 -31.771  1.00  0.00     0.184 HD
HETATM    7  C   UNL     1      -9.976   0.900 -32.624  1.00  0.00     0.702 A 
HETATM    8  N   UNL     1      -8.856   0.169 -32.767  1.00  0.00    -0.052 NA
HETATM    9  C   UNL     1      -7.751   0.573 -32.118  1.00  0.00     0.135 A 
HETATM   10  C   UNL     1      -9.031   3.579 -30.396  1.00  0.00     0.031 A 
HETATM   11  C   UNL     1      -7.907   4.054 -29.723  1.00  0.00     0.002 A 
ENDROOT
BRANCH   9  12
HETATM   12  N   UNL     1      -6.637  -0.245 -32.314  1.00  0.00    -0.272 NA
HETATM   13  H   UNL     1      -5.884   0.192 -31.779  1.00  0.00     0.129 HD
BRANCH  12  14
HETATM   14  C   UNL     1      -6.205  -0.330 -33.715  1.00  0.00     0.132 C 
BRANCH  14  15
HETATM   15  C   UNL     1      -5.882  -1.769 -34.045  1.00  0.00    -0.045 A 
HETATM   16  C   UNL     1      -4.571  -2.256 -33.911  1.00  0.00     0.011 A 
HETATM   17  C   UNL     1      -4.275  -3.580 -34.240  1.00  0.00     0.043 A 
HETATM   18  C   UNL     1      -5.281  -4.411 -34.715  1.00  0.00     0.116 A 
HETATM   19  F   UNL     1      -4.995  -5.680 -35.034  1.00  0.00    -0.206 F 
HETATM   20  C   UNL     1      -6.581  -3.945 -34.868  1.00  0.00     0.043 A 
HETATM   21  C   UNL     1      -6.884  -2.624 -34.537  1.00  0.00     0.011 A 
ENDBRANCH  14  15
ENDBRANCH  12  14
ENDBRANCH   9  12
BRANCH   7  22
HETATM   22  N   UNL     1     -11.150   0.519 -33.232  1.00  0.00    -0.224 N 
HETATM   23  H   UNL     1     -11.665  -0.275 -32.871  1.00  0.00     0.177 HD
BRANCH  22  24
HETATM   24  C   UNL     1     -11.976   1.513 -33.917  1.00  0.00     0.140 C 
BRANCH  24  25
HETATM   25  C   UNL     1     -13.211   0.885 -34.554  1.00  0.00     0.046 C 
BRANCH  25  26
HETATM   26  C   UNL     1     -14.170   0.273 -33.543  1.00  0.00     0.165 C 
BRANCH  26  27
HETATM   27  O   UNL     1     -13.781  -1.065 -33.279  1.00  0.00    -0.401 OA
HETATM   28  H   UNL     1     -13.896  -1.233 -32.325  1.00  0.00     0.209 HD
ENDBRANCH  26  27
ENDBRANCH  25  26
ENDBRANCH  24  25
ENDBRANCH  22  24
ENDBRANCH   7  22
TORSDOF 8
ENDMDL
MODEL 2
REMARK VINA RESULT:      -8.0      1.072      1.624
REMARK  8 active torsions:
REMARK  status: ('A' for Active; 'I' for Inactive)
REMARK    1  A    between atoms: C_7  and  N_8 
REMARK    2  A    between atoms: N_8  and  C_9 
REMARK    3  A    between atoms: C_9  and  C_10 
REMARK    4  A    between atoms: C_10  and  C_11 
REMARK    5  A    between atoms: C_11  and  O_12 
REMARK    6  A    between atoms: C_14  and  N_15 
REMARK    7  A    between atoms: N_15  and  C_16 
REMARK    8  A    between atoms: C_16  and  C_17 
ROOT
HETATM    1  C   UNL     1      -5.430   2.185 -31.097  1.00  0.00     0.001 A 
HETATM    2  C   UNL     1      -5.804   1.458 -32.229  1.00  0.00     0.017 A 
HETATM    3  C   UNL     1      -7.161   1.153 -32.484  1.00  0.00     0.032 A 
HETATM    4  C   UNL     1      -8.128   1.648 -31.589  1.00  0.00     0.062 A 
HETATM    5  N   UNL     1      -9.423   1.421 -31.832  1.00  0.00    -0.189 N 
HETATM    6  H   UNL     1     -10.134   1.748 -31.193  1.00  0.00     0.184 HD
HETATM    7  C   UNL     1      -9.828   0.732 -32.898  1.00  0.00     0.702 A 
HETATM    8  N   UNL     1      -8.960   0.211 -33.784  1.00  0.00    -0.052 NA
HETATM    9  C   UNL     1      -7.647   0.412 -33.577  1.00  0.00     0.135 A 
HETATM   10  C   UNL     1      -7.745   2.376 -30.451  1.00  0.00     0.031 A 
HETATM   11  C   UNL     1      -6.398   2.636 -30.204  1.00  0.00     0.002 A 
ENDROOT
BRANCH   9  12
HETATM   12  N   UNL     1      -6.817  -0.168 -34.538  1.00  0.00    -0.272 NA
HETATM   13  H   UNL     1      -6.871   0.452 -35.348  1.00  0.00     0.129 HD
BRANCH  12  14
HETATM   14  C   UNL     1      -7.248  -1.505 -34.962  1.00  0.00     0.132 C 
BRANCH  14  15
HETATM   15  C   UNL     1      -6.152  -2.498 -34.652  1.00  0.00    -0.045 A 
HETATM   16  C   UNL     1      -6.331  -3.866 -34.917  1.00  0.00     0.011 A 
HETATM   17  C   UNL     1      -5.323  -4.781 -34.606  1.00  0.00     0.043 A 
HETATM   18  C   UNL     1      -4.146  -4.334 -34.020  1.00  0.00     0.116 A 
HETATM   19  F   UNL     1      -3.182  -5.212 -33.719  1.00  0.00    -0.206 F 
HETATM   20  C   UNL     1      -3.955  -2.987 -33.736  1.00  0.00     0.043 A 
HETATM   21  C   UNL     1      -4.957  -2.067 -34.048  1.00  0.00     0.011 A 
ENDBRANCH  14  15
ENDBRANCH  12  14
ENDBRANCH   9  12
BRANCH   7  22
HETATM   22  N   UNL     1     -11.182   0.529 -33.033  1.00  0.00    -0.224 N 
HETATM   23  H   UNL     1     -11.679  -0.009 -32.333  1.00  0.00     0.177 HD
BRANCH  22  24
HETATM   24  C   UNL     1     -12.004   1.516 -33.732  1.00  0.00     0.140 C 
BRANCH  24  25
HETATM   25  C   UNL     1     -13.072   0.856 -34.599  1.00  0.00     0.046 C 
BRANCH  25  26
HETATM   26  C   UNL     1     -14.194   0.216 -33.794  1.00  0.00     0.165 C 
BRANCH  26  27
HETATM   27  O   UNL     1     -13.724  -0.987 -33.207  1.00  0.00    -0.401 OA
HETATM   28  H   UNL     1     -13.086  -1.396 -33.819  1.00  0.00     0.209 HD
ENDBRANCH  26  27
ENDBRANCH  25  26
ENDBRANCH  24  25
ENDBRANCH  22  24
ENDBRANCH   7  22
TORSDOF 8
ENDMDL
MODEL 3
REMARK VINA RESULT:      -7.9      2.718      5.091
REMARK  8 active torsions:
REMARK  status: ('A' for Active; 'I' for Inactive)
REMARK    1  A    between atoms: C_7  and  N_8 
REMARK    2  A    between atoms: N_8  and  C_9 
REMARK    3  A    between atoms: C_9  and  C_10 
REMARK    4  A    between atoms: C_10  and  C_11 
REMARK    5  A    between atoms: C_11  and  O_12 
REMARK    6  A    between atoms: C_14  and  N_15 
REMARK    7  A    between atoms: N_15  and  C_16 
REMARK    8  A    between atoms: C_16  and  C_17 
ROOT
HETATM    1  C   UNL     1      -4.898  -1.430 -33.326  1.00  0.00     0.001 A 
HETATM    2  C   UNL     1      -5.499  -0.660 -32.327  1.00  0.00     0.017 A 
HETATM    3  C   UNL     1      -6.857  -0.278 -32.420  1.00  0.00     0.032 A 
HETATM    4  C   UNL     1      -7.598  -0.738 -33.524  1.00  0.00     0.062 A 
HETATM    5  N   UNL     1      -8.898  -0.437 -33.612  1.00  0.00    -0.189 N 
HETATM    6  H   UNL     1      -9.446  -0.738 -34.406  1.00  0.00     0.184 HD
HETATM    7  C   UNL     1      -9.515   0.295 -32.684  1.00  0.00     0.702 A 
HETATM    8  N   UNL     1      -8.865   0.787 -31.614  1.00  0.00    -0.052 NA
HETATM    9  C   UNL     1      -7.556   0.510 -31.487  1.00  0.00     0.135 A 
HETATM   10  C   UNL     1      -6.988  -1.509 -34.526  1.00  0.00     0.031 A 
HETATM   11  C   UNL     1      -5.638  -1.845 -34.428  1.00  0.00     0.002 A 
ENDROOT
BRANCH   9  12
HETATM   12  N   UNL     1      -6.958   1.065 -30.354  1.00  0.00    -0.272 NA
HETATM   13  H   UNL     1      -7.587   0.839 -29.581  1.00  0.00     0.129 HD
BRANCH  12  14
HETATM   14  C   UNL     1      -6.820   2.525 -30.412  1.00  0.00     0.132 C 
BRANCH  14  15
HETATM   15  C   UNL     1      -5.603   2.873 -31.237  1.00  0.00    -0.045 A 
HETATM   16  C   UNL     1      -4.327   2.437 -30.847  1.00  0.00     0.011 A 
HETATM   17  C   UNL     1      -3.203   2.781 -31.601  1.00  0.00     0.043 A 
HETATM   18  C   UNL     1      -3.353   3.570 -32.735  1.00  0.00     0.116 A 
HETATM   19  F   UNL     1      -2.275   3.903 -33.456  1.00  0.00    -0.206 F 
HETATM   20  C   UNL     1      -4.606   4.023 -33.131  1.00  0.00     0.043 A 
HETATM   21  C   UNL     1      -5.732   3.679 -32.382  1.00  0.00     0.011 A 
ENDBRANCH  14  15
ENDBRANCH  12  14
ENDBRANCH   9  12
BRANCH   7  22
HETATM   22  N   UNL     1     -10.846   0.573 -32.892  1.00  0.00    -0.224 N 
HETATM   23  H   UNL     1     -11.481   0.593 -32.104  1.00  0.00     0.177 HD
BRANCH  22  24
HETATM   24  C   UNL     1     -11.250   1.418 -34.016  1.00  0.00     0.140 C 
BRANCH  24  25
HETATM   25  C   UNL     1     -12.561   0.946 -34.639  1.00  0.00     0.046 C 
BRANCH  25  26
HETATM   26  C   UNL     1     -13.570   0.443 -33.618  1.00  0.00     0.165 C 
BRANCH  26  27
HETATM   27  O   UNL     1     -13.433  -0.963 -33.477  1.00  0.00    -0.401 OA
HETATM   28  H   UNL     1     -13.132  -1.327 -34.329  1.00  0.00     0.209 HD
ENDBRANCH  26  27
ENDBRANCH  25  26
ENDBRANCH  24  25
ENDBRANCH  22  24
ENDBRANCH   7  22
TORSDOF 8
ENDMDL
MODEL 4
REMARK VINA RESULT:      -7.9      3.976      5.929
REMARK  8 active torsions:
REMARK  status: ('A' for Active; 'I' for Inactive)
REMARK    1  A    between atoms: C_7  and  N_8 
REMARK    2  A    between atoms: N_8  and  C_9 
REMARK    3  A    between atoms: C_9  and  C_10 
REMARK    4  A    between atoms: C_10  and  C_11 
REMARK    5  A    between atoms: C_11  and  O_12 
REMARK    6  A    between atoms: C_14  and  N_15 
REMARK    7  A    between atoms: N_15  and  C_16 
REMARK    8  A    between atoms: C_16  and  C_17 
ROOT
HETATM    1  C   UNL     1      -4.651  -1.577 -33.671  1.00  0.00     0.001 A 
HETATM    2  C   UNL     1      -4.955  -0.316 -33.155  1.00  0.00     0.017 A 
HETATM    3  C   UNL     1      -6.145   0.354 -33.521  1.00  0.00     0.032 A 
HETATM    4  C   UNL     1      -7.038  -0.311 -34.383  1.00  0.00     0.062 A 
HETATM    5  N   UNL     1      -8.196   0.275 -34.705  1.00  0.00    -0.189 N 
HETATM    6  H   UNL     1      -8.843  -0.173 -35.339  1.00  0.00     0.184 HD
HETATM    7  C   UNL     1      -8.529   1.478 -34.238  1.00  0.00     0.702 A 
HETATM    8  N   UNL     1      -7.717   2.181 -33.429  1.00  0.00    -0.052 NA
HETATM    9  C   UNL     1      -6.541   1.630 -33.081  1.00  0.00     0.135 A 
HETATM   10  C   UNL     1      -6.725  -1.578 -34.900  1.00  0.00     0.031 A 
HETATM   11  C   UNL     1      -5.529  -2.203 -34.550  1.00  0.00     0.002 A 
ENDROOT
BRANCH   9  12
HETATM   12  N   UNL     1      -5.757   2.429 -32.246  1.00  0.00    -0.272 NA
HETATM   13  H   UNL     1      -6.147   2.303 -31.310  1.00  0.00     0.129 HD
BRANCH  12  14
HETATM   14  C   UNL     1      -5.814   3.859 -32.571  1.00  0.00     0.132 C 
BRANCH  14  15
HETATM   15  C   UNL     1      -4.548   4.251 -33.297  1.00  0.00    -0.045 A 
HETATM   16  C   UNL     1      -3.289   3.981 -32.734  1.00  0.00     0.011 A 
HETATM   17  C   UNL     1      -2.123   4.366 -33.398  1.00  0.00     0.043 A 
HETATM   18  C   UNL     1      -2.214   5.031 -34.615  1.00  0.00     0.116 A 
HETATM   19  F   UNL     1      -1.095   5.404 -35.249  1.00  0.00    -0.206 F 
HETATM   20  C   UNL     1      -3.449   5.320 -35.182  1.00  0.00     0.043 A 
HETATM   21  C   UNL     1      -4.617   4.934 -34.523  1.00  0.00     0.011 A 
ENDBRANCH  14  15
ENDBRANCH  12  14
ENDBRANCH   9  12
BRANCH   7  22
HETATM   22  N   UNL     1      -9.730   2.000 -34.661  1.00  0.00    -0.224 N 
HETATM   23  H   UNL     1     -10.034   1.845 -35.614  1.00  0.00     0.177 HD
BRANCH  22  24
HETATM   24  C   UNL     1     -10.817   2.204 -33.705  1.00  0.00     0.140 C 
BRANCH  24  25
HETATM   25  C   UNL     1     -11.953   1.206 -33.915  1.00  0.00     0.046 C 
BRANCH  25  26
HETATM   26  C   UNL     1     -12.954   1.642 -34.975  1.00  0.00     0.165 C 
BRANCH  26  27
HETATM   27  O   UNL     1     -12.293   1.756 -36.225  1.00  0.00    -0.401 OA
HETATM   28  H   UNL     1     -12.921   2.132 -36.869  1.00  0.00     0.209 HD
ENDBRANCH  26  27
ENDBRANCH  25  26
ENDBRANCH  24  25
ENDBRANCH  22  24
ENDBRANCH   7  22
TORSDOF 8
ENDMDL
MODEL 5
REMARK VINA RESULT:      -7.8      4.007      5.919
REMARK  8 active torsions:
REMARK  status: ('A' for Active; 'I' for Inactive)
REMARK    1  A    between atoms: C_7  and  N_8 
REMARK    2  A    between atoms: N_8  and  C_9 
REMARK    3  A    between atoms: C_9  and  C_10 
REMARK    4  A    between atoms: C_10  and  C_11 
REMARK    5  A    between atoms: C_11  and  O_12 
REMARK    6  A    between atoms: C_14  and  N_15 
REMARK    7  A    between atoms: N_15  and  C_16 
REMARK    8  A    between atoms: C_16  and  C_17 
ROOT
HETATM    1  C   UNL     1      -8.370   0.870 -31.519  1.00  0.00     0.001 A 
HETATM    2  C   UNL     1      -7.095   0.299 -31.553  1.00  0.00     0.017 A 
HETATM    3  C   UNL     1      -5.935   1.106 -31.515  1.00  0.00     0.032 A 
HETATM    4  C   UNL     1      -6.102   2.497 -31.391  1.00  0.00     0.062 A 
HETATM    5  N   UNL     1      -5.022   3.282 -31.299  1.00  0.00    -0.189 N 
HETATM    6  H   UNL     1      -5.117   4.285 -31.231  1.00  0.00     0.184 HD
HETATM    7  C   UNL     1      -3.787   2.783 -31.328  1.00  0.00     0.702 A 
HETATM    8  N   UNL     1      -3.550   1.466 -31.466  1.00  0.00    -0.052 NA
HETATM    9  C   UNL     1      -4.607   0.641 -31.564  1.00  0.00     0.135 A 
HETATM   10  C   UNL     1      -7.385   3.065 -31.360  1.00  0.00     0.031 A 
HETATM   11  C   UNL     1      -8.515   2.251 -31.432  1.00  0.00     0.002 A 
ENDROOT
BRANCH   9  12
HETATM   12  N   UNL     1      -4.273  -0.706 -31.712  1.00  0.00    -0.272 NA
HETATM   13  H   UNL     1      -3.548  -0.882 -31.014  1.00  0.00     0.129 HD
BRANCH  12  14
HETATM   14  C   UNL     1      -3.720  -1.038 -33.031  1.00  0.00     0.132 C 
BRANCH  14  15
HETATM   15  C   UNL     1      -4.601  -2.074 -33.689  1.00  0.00    -0.045 A 
HETATM   16  C   UNL     1      -4.138  -3.386 -33.882  1.00  0.00     0.011 A 
HETATM   17  C   UNL     1      -4.947  -4.334 -34.512  1.00  0.00     0.043 A 
HETATM   18  C   UNL     1      -6.211  -3.969 -34.959  1.00  0.00     0.116 A 
HETATM   19  F   UNL     1      -6.985  -4.877 -35.566  1.00  0.00    -0.206 F 
HETATM   20  C   UNL     1      -6.683  -2.673 -34.790  1.00  0.00     0.043 A 
HETATM   21  C   UNL     1      -5.879  -1.723 -34.159  1.00  0.00     0.011 A 
ENDBRANCH  14  15
ENDBRANCH  12  14
ENDBRANCH   9  12
BRANCH   7  22
HETATM   22  N   UNL     1      -2.749   3.683 -31.260  1.00  0.00    -0.224 N 
HETATM   23  H   UNL     1      -1.843   3.378 -30.927  1.00  0.00     0.177 HD
BRANCH  22  24
HETATM   24  C   UNL     1      -2.702   4.817 -32.183  1.00  0.00     0.140 C 
BRANCH  24  25
HETATM   25  C   UNL     1      -2.254   4.396 -33.579  1.00  0.00     0.046 C 
BRANCH  25  26
HETATM   26  C   UNL     1      -1.963   5.570 -34.502  1.00  0.00     0.165 C 
BRANCH  26  27
HETATM   27  O   UNL     1      -3.187   6.113 -34.971  1.00  0.00    -0.401 OA
HETATM   28  H   UNL     1      -3.386   5.712 -35.837  1.00  0.00     0.209 HD
ENDBRANCH  26  27
ENDBRANCH  25  26
ENDBRANCH  24  25
ENDBRANCH  22  24
ENDBRANCH   7  22
TORSDOF 8
ENDMDL
MODEL 6
REMARK VINA RESULT:      -7.6      3.034      6.753
REMARK  8 active torsions:
REMARK  status: ('A' for Active; 'I' for Inactive)
REMARK    1  A    between atoms: C_7  and  N_8 
REMARK    2  A    between atoms: N_8  and  C_9 
REMARK    3  A    between atoms: C_9  and  C_10 
REMARK    4  A    between atoms: C_10  and  C_11 
REMARK    5  A    between atoms: C_11  and  O_12 
REMARK    6  A    between atoms: C_14  and  N_15 
REMARK    7  A    between atoms: N_15  and  C_16 
REMARK    8  A    between atoms: C_16  and  C_17 
ROOT
HETATM    1  C   UNL     1      -6.029  -2.563 -34.974  1.00  0.00     0.001 A 
HETATM    2  C   UNL     1      -6.949  -1.511 -34.958  1.00  0.00     0.017 A 
HETATM    3  C   UNL     1      -6.832  -0.456 -34.024  1.00  0.00     0.032 A 
HETATM    4  C   UNL     1      -5.734  -0.472 -33.145  1.00  0.00     0.062 A 
HETATM    5  N   UNL     1      -5.568   0.540 -32.286  1.00  0.00    -0.189 N 
HETATM    6  H   UNL     1      -4.799   0.540 -31.630  1.00  0.00     0.184 HD
HETATM    7  C   UNL     1      -6.419   1.564 -32.233  1.00  0.00     0.702 A 
HETATM    8  N   UNL     1      -7.502   1.636 -33.028  1.00  0.00    -0.052 NA
HETATM    9  C   UNL     1      -7.709   0.638 -33.905  1.00  0.00     0.135 A 
HETATM   10  C   UNL     1      -4.815  -1.533 -33.164  1.00  0.00     0.031 A 
HETATM   11  C   UNL     1      -4.970  -2.579 -34.073  1.00  0.00     0.002 A 
ENDROOT
BRANCH   9  12
HETATM   12  N   UNL     1      -8.857   0.787 -34.684  1.00  0.00    -0.272 NA
HETATM   13  H   UNL     1      -8.518   0.978 -35.629  1.00  0.00     0.129 HD
BRANCH  12  14
HETATM   14  C   UNL     1      -9.710   1.909 -34.274  1.00  0.00     0.132 C 
BRANCH  14  15
HETATM   15  C   UNL     1     -11.155   1.469 -34.306  1.00  0.00    -0.045 A 
HETATM   16  C   UNL     1     -12.099   2.172 -35.072  1.00  0.00     0.011 A 
HETATM   17  C   UNL     1     -13.437   1.774 -35.078  1.00  0.00     0.043 A 
HETATM   18  C   UNL     1     -13.834   0.686 -34.312  1.00  0.00     0.116 A 
HETATM   19  F   UNL     1     -15.118   0.307 -34.316  1.00  0.00    -0.206 F 
HETATM   20  C   UNL     1     -12.918  -0.015 -33.536  1.00  0.00     0.043 A 
HETATM   21  C   UNL     1     -11.579   0.377 -33.529  1.00  0.00     0.011 A 
ENDBRANCH  14  15
ENDBRANCH  12  14
ENDBRANCH   9  12
BRANCH   7  22
HETATM   22  N   UNL     1      -6.171   2.533 -31.289  1.00  0.00    -0.224 N 
HETATM   23  H   UNL     1      -5.867   3.453 -31.584  1.00  0.00     0.177 HD
BRANCH  22  24
HETATM   24  C   UNL     1      -6.890   2.515 -30.015  1.00  0.00     0.140 C 
BRANCH  24  25
HETATM   25  C   UNL     1      -7.857   3.689 -29.891  1.00  0.00     0.046 C 
BRANCH  25  26
HETATM   26  C   UNL     1      -9.254   3.379 -30.407  1.00  0.00     0.165 C 
BRANCH  26  27
HETATM   27  O   UNL     1      -9.373   1.984 -30.632  1.00  0.00    -0.401 OA
HETATM   28  H   UNL     1      -8.476   1.607 -30.692  1.00  0.00     0.209 HD
ENDBRANCH  26  27
ENDBRANCH  25  26
ENDBRANCH  24  25
ENDBRANCH  22  24
ENDBRANCH   7  22
TORSDOF 8
ENDMDL
MODEL 7
REMARK VINA RESULT:      -7.5      2.019      2.294
REMARK  8 active torsions:
REMARK  status: ('A' for Active; 'I' for Inactive)
REMARK    1  A    between atoms: C_7  and  N_8 
REMARK    2  A    between atoms: N_8  and  C_9 
REMARK    3  A    between atoms: C_9  and  C_10 
REMARK    4  A    between atoms: C_10  and  C_11 
REMARK    5  A    between atoms: C_11  and  O_12 
REMARK    6  A    between atoms: C_14  and  N_15 
REMARK    7  A    between atoms: N_15  and  C_16 
REMARK    8  A    between atoms: C_16  and  C_17 
ROOT
HETATM    1  C   UNL     1      -5.993   3.704 -33.902  1.00  0.00     0.001 A 
HETATM    2  C   UNL     1      -6.371   2.366 -33.759  1.00  0.00     0.017 A 
HETATM    3  C   UNL     1      -7.726   2.009 -33.570  1.00  0.00     0.032 A 
HETATM    4  C   UNL     1      -8.687   3.036 -33.578  1.00  0.00     0.062 A 
HETATM    5  N   UNL     1      -9.982   2.723 -33.454  1.00  0.00    -0.189 N 
HETATM    6  H   UNL     1     -10.688   3.445 -33.436  1.00  0.00     0.184 HD
HETATM    7  C   UNL     1     -10.390   1.462 -33.315  1.00  0.00     0.702 A 
HETATM    8  N   UNL     1      -9.527   0.432 -33.276  1.00  0.00    -0.052 NA
HETATM    9  C   UNL     1      -8.215   0.701 -33.395  1.00  0.00     0.135 A 
HETATM   10  C   UNL     1      -8.300   4.378 -33.719  1.00  0.00     0.031 A 
HETATM   11  C   UNL     1      -6.954   4.708 -33.872  1.00  0.00     0.002 A 
ENDROOT
BRANCH   9  12
HETATM   12  N   UNL     1      -7.390  -0.424 -33.336  1.00  0.00    -0.272 NA
HETATM   13  H   UNL     1      -6.451  -0.059 -33.160  1.00  0.00     0.129 HD
BRANCH  12  14
HETATM   14  C   UNL     1      -7.348  -1.192 -34.586  1.00  0.00     0.132 C 
BRANCH  14  15
HETATM   15  C   UNL     1      -6.287  -2.262 -34.472  1.00  0.00    -0.045 A 
HETATM   16  C   UNL     1      -6.552  -3.578 -34.886  1.00  0.00     0.011 A 
HETATM   17  C   UNL     1      -5.575  -4.567 -34.756  1.00  0.00     0.043 A 
HETATM   18  C   UNL     1      -4.343  -4.247 -34.201  1.00  0.00     0.116 A 
HETATM   19  F   UNL     1      -3.408  -5.197 -34.073  1.00  0.00    -0.206 F 
HETATM   20  C   UNL     1      -4.065  -2.955 -33.773  1.00  0.00     0.043 A 
HETATM   21  C   UNL     1      -5.037  -1.961 -33.903  1.00  0.00     0.011 A 
ENDBRANCH  14  15
ENDBRANCH  12  14
ENDBRANCH   9  12
BRANCH   7  22
HETATM   22  N   UNL     1     -11.742   1.258 -33.161  1.00  0.00    -0.224 N 
HETATM   23  H   UNL     1     -12.371   2.051 -33.171  1.00  0.00     0.177 HD
BRANCH  22  24
HETATM   24  C   UNL     1     -12.346   0.001 -33.599  1.00  0.00     0.140 C 
BRANCH  24  25
HETATM   25  C   UNL     1     -13.870   0.056 -33.553  1.00  0.00     0.046 C 
BRANCH  25  26
HETATM   26  C   UNL     1     -14.463   1.150 -34.429  1.00  0.00     0.165 C 
BRANCH  26  27
HETATM   27  O   UNL     1     -13.472   1.620 -35.329  1.00  0.00    -0.401 OA
HETATM   28  H   UNL     1     -12.601   1.521 -34.902  1.00  0.00     0.209 HD
ENDBRANCH  26  27
ENDBRANCH  25  26
ENDBRANCH  24  25
ENDBRANCH  22  24
ENDBRANCH   7  22
TORSDOF 8
ENDMDL
MODEL 8
REMARK VINA RESULT:      -7.5      3.651      7.231
REMARK  8 active torsions:
REMARK  status: ('A' for Active; 'I' for Inactive)
REMARK    1  A    between atoms: C_7  and  N_8 
REMARK    2  A    between atoms: N_8  and  C_9 
REMARK    3  A    between atoms: C_9  and  C_10 
REMARK    4  A    between atoms: C_10  and  C_11 
REMARK    5  A    between atoms: C_11  and  O_12 
REMARK    6  A    between atoms: C_14  and  N_15 
REMARK    7  A    between atoms: N_15  and  C_16 
REMARK    8  A    between atoms: C_16  and  C_17 
ROOT
HETATM    1  C   UNL     1      -5.680  -2.143 -34.682  1.00  0.00     0.001 A 
HETATM    2  C   UNL     1      -6.848  -1.464 -34.326  1.00  0.00     0.017 A 
HETATM    3  C   UNL     1      -6.908  -0.687 -33.146  1.00  0.00     0.032 A 
HETATM    4  C   UNL     1      -5.740  -0.578 -32.368  1.00  0.00     0.062 A 
HETATM    5  N   UNL     1      -5.751   0.192 -31.274  1.00  0.00    -0.189 N 
HETATM    6  H   UNL     1      -4.932   0.269 -30.688  1.00  0.00     0.184 HD
HETATM    7  C   UNL     1      -6.841   0.858 -30.894  1.00  0.00     0.702 A 
HETATM    8  N   UNL     1      -7.998   0.784 -31.576  1.00  0.00    -0.052 NA
HETATM    9  C   UNL     1      -8.033   0.018 -32.681  1.00  0.00     0.135 A 
HETATM   10  C   UNL     1      -4.571  -1.265 -32.730  1.00  0.00     0.031 A 
HETATM   11  C   UNL     1      -4.547  -2.051 -33.881  1.00  0.00     0.002 A 
ENDROOT
BRANCH   9  12
HETATM   12  N   UNL     1      -9.272  -0.008 -33.323  1.00  0.00    -0.272 NA
HETATM   13  H   UNL     1      -9.088  -0.409 -34.245  1.00  0.00     0.129 HD
BRANCH  12  14
HETATM   14  C   UNL     1      -9.866   1.320 -33.518  1.00  0.00     0.132 C 
BRANCH  14  15
HETATM   15  C   UNL     1     -11.342   1.163 -33.803  1.00  0.00    -0.045 A 
HETATM   16  C   UNL     1     -12.022  -0.006 -33.422  1.00  0.00     0.011 A 
HETATM   17  C   UNL     1     -13.381  -0.155 -33.710  1.00  0.00     0.043 A 
HETATM   18  C   UNL     1     -14.055   0.854 -34.386  1.00  0.00     0.116 A 
HETATM   19  F   UNL     1     -15.356   0.708 -34.665  1.00  0.00    -0.206 F 
HETATM   20  C   UNL     1     -13.397   2.012 -34.783  1.00  0.00     0.043 A 
HETATM   21  C   UNL     1     -12.040   2.167 -34.496  1.00  0.00     0.011 A 
ENDBRANCH  14  15
ENDBRANCH  12  14
ENDBRANCH   9  12
BRANCH   7  22
HETATM   22  N   UNL     1      -6.750   1.594 -29.735  1.00  0.00    -0.224 N 
HETATM   23  H   UNL     1      -6.051   1.353 -29.044  1.00  0.00     0.177 HD
BRANCH  22  24
HETATM   24  C   UNL     1      -7.146   3.002 -29.729  1.00  0.00     0.140 C 
BRANCH  24  25
HETATM   25  C   UNL     1      -6.208   3.860 -30.572  1.00  0.00     0.046 C 
BRANCH  25  26
HETATM   26  C   UNL     1      -5.468   4.918 -29.768  1.00  0.00     0.165 C 
BRANCH  26  27
HETATM   27  O   UNL     1      -5.364   4.494 -28.417  1.00  0.00    -0.401 OA
HETATM   28  H   UNL     1      -4.618   3.870 -28.350  1.00  0.00     0.209 HD
ENDBRANCH  26  27
ENDBRANCH  25  26
ENDBRANCH  24  25
ENDBRANCH  22  24
ENDBRANCH   7  22
TORSDOF 8
ENDMDL
MODEL 9
REMARK VINA RESULT:      -7.4     14.463     15.598
REMARK  8 active torsions:
REMARK  status: ('A' for Active; 'I' for Inactive)
REMARK    1  A    between atoms: C_7  and  N_8 
REMARK    2  A    between atoms: N_8  and  C_9 
REMARK    3  A    between atoms: C_9  and  C_10 
REMARK    4  A    between atoms: C_10  and  C_11 
REMARK    5  A    between atoms: C_11  and  O_12 
REMARK    6  A    between atoms: C_14  and  N_15 
REMARK    7  A    between atoms: N_15  and  C_16 
REMARK    8  A    between atoms: C_16  and  C_17 
ROOT
HETATM    1  C   UNL     1      -6.926 -12.141 -40.601  1.00  0.00     0.001 A 
HETATM    2  C   UNL     1      -5.617 -12.021 -40.127  1.00  0.00     0.017 A 
HETATM    3  C   UNL     1      -5.294 -12.349 -38.790  1.00  0.00     0.032 A 
HETATM    4  C   UNL     1      -6.320 -12.847 -37.966  1.00  0.00     0.062 A 
HETATM    5  N   UNL     1      -6.033 -13.215 -36.712  1.00  0.00    -0.189 N 
HETATM    6  H   UNL     1      -6.757 -13.555 -36.095  1.00  0.00     0.184 HD
HETATM    7  C   UNL     1      -4.800 -13.119 -36.216  1.00  0.00     0.702 A 
HETATM    8  N   UNL     1      -3.775 -12.632 -36.938  1.00  0.00    -0.052 NA
HETATM    9  C   UNL     1      -4.019 -12.247 -38.203  1.00  0.00     0.135 A 
HETATM   10  C   UNL     1      -7.633 -12.962 -38.447  1.00  0.00     0.031 A 
HETATM   11  C   UNL     1      -7.934 -12.601 -39.760  1.00  0.00     0.002 A 
ENDROOT
BRANCH   9  12
HETATM   12  N   UNL     1      -2.903 -11.748 -38.878  1.00  0.00    -0.272 NA
HETATM   13  H   UNL     1      -2.896 -12.231 -39.778  1.00  0.00     0.129 HD
BRANCH  12  14
HETATM   14  C   UNL     1      -1.630 -12.028 -38.204  1.00  0.00     0.132 C 
BRANCH  14  15
HETATM   15  C   UNL     1      -1.103 -13.362 -38.681  1.00  0.00    -0.045 A 
HETATM   16  C   UNL     1      -0.620 -14.309 -37.764  1.00  0.00     0.011 A 
HETATM   17  C   UNL     1      -0.112 -15.530 -38.213  1.00  0.00     0.043 A 
HETATM   18  C   UNL     1      -0.075 -15.799 -39.575  1.00  0.00     0.116 A 
HETATM   19  F   UNL     1       0.416 -16.968 -40.005  1.00  0.00    -0.206 F 
HETATM   20  C   UNL     1      -0.534 -14.869 -40.501  1.00  0.00     0.043 A 
HETATM   21  C   UNL     1      -1.045 -13.649 -40.057  1.00  0.00     0.011 A 
ENDBRANCH  14  15
ENDBRANCH  12  14
ENDBRANCH   9  12
BRANCH   7  22
HETATM   22  N   UNL     1      -4.624 -13.494 -34.904  1.00  0.00    -0.224 N 
HETATM   23  H   UNL     1      -4.981 -12.903 -34.163  1.00  0.00     0.177 HD
BRANCH  22  24
HETATM   24  C   UNL     1      -4.530 -14.911 -34.555  1.00  0.00     0.140 C 
BRANCH  24  25
HETATM   25  C   UNL     1      -5.816 -15.426 -33.915  1.00  0.00     0.046 C 
BRANCH  25  26
HETATM   26  C   UNL     1      -6.563 -14.366 -33.119  1.00  0.00     0.165 C 
BRANCH  26  27
HETATM   27  O   UNL     1      -7.461 -13.681 -33.978  1.00  0.00    -0.401 OA
HETATM   28  H   UNL     1      -7.896 -12.976 -33.464  1.00  0.00     0.209 HD
ENDBRANCH  26  27
ENDBRANCH  25  26
ENDBRANCH  24  25
ENDBRANCH  22  24
ENDBRANCH   7  22
TORSDOF 8
ENDMDL
MODEL 10
REMARK VINA RESULT:      -7.4      4.080      7.681
REMARK  8 active torsions:
REMARK  status: ('A' for Active; 'I' for Inactive)
REMARK    1  A    between atoms: C_7  and  N_8 
REMARK    2  A    between atoms: N_8  and  C_9 
REMARK    3  A    between atoms: C_9  and  C_10 
REMARK    4  A    between atoms: C_10  and  C_11 
REMARK    5  A    between atoms: C_11  and  O_12 
REMARK    6  A    between atoms: C_14  and  N_15 
REMARK    7  A    between atoms: N_15  and  C_16 
REMARK    8  A    between atoms: C_16  and  C_17 
ROOT
HETATM    1  C   UNL     1      -5.975  -3.255 -34.803  1.00  0.00     0.001 A 
HETATM    2  C   UNL     1      -6.893  -2.227 -34.574  1.00  0.00     0.017 A 
HETATM    3  C   UNL     1      -6.499  -1.025 -33.942  1.00  0.00     0.032 A 
HETATM    4  C   UNL     1      -5.143  -0.876 -33.595  1.00  0.00     0.062 A 
HETATM    5  N   UNL     1      -4.730   0.271 -33.044  1.00  0.00    -0.189 N 
HETATM    6  H   UNL     1      -3.766   0.393 -32.767  1.00  0.00     0.184 HD
HETATM    7  C   UNL     1      -5.569   1.279 -32.806  1.00  0.00     0.702 A 
HETATM    8  N   UNL     1      -6.881   1.199 -33.091  1.00  0.00    -0.052 NA
HETATM    9  C   UNL     1      -7.340   0.063 -33.644  1.00  0.00     0.135 A 
HETATM   10  C   UNL     1      -4.226  -1.914 -33.825  1.00  0.00     0.031 A 
HETATM   11  C   UNL     1      -4.646  -3.102 -34.420  1.00  0.00     0.002 A 
ENDROOT
BRANCH   9  12
HETATM   12  N   UNL     1      -8.712   0.061 -33.900  1.00  0.00    -0.272 NA
HETATM   13  H   UNL     1      -8.802  -0.203 -34.883  1.00  0.00     0.129 HD
BRANCH  12  14
HETATM   14  C   UNL     1      -9.348   1.373 -33.726  1.00  0.00     0.132 C 
BRANCH  14  15
HETATM   15  C   UNL     1     -10.834   1.236 -33.964  1.00  0.00    -0.045 A 
HETATM   16  C   UNL     1     -11.556   0.180 -33.384  1.00  0.00     0.011 A 
HETATM   17  C   UNL     1     -12.925   0.045 -33.628  1.00  0.00     0.043 A 
HETATM   18  C   UNL     1     -13.567   0.955 -34.458  1.00  0.00     0.116 A 
HETATM   19  F   UNL     1     -14.878   0.823 -34.694  1.00  0.00    -0.206 F 
HETATM   20  C   UNL     1     -12.868   1.998 -35.053  1.00  0.00     0.043 A 
HETATM   21  C   UNL     1     -11.501   2.139 -34.811  1.00  0.00     0.011 A 
ENDBRANCH  14  15
ENDBRANCH  12  14
ENDBRANCH   9  12
BRANCH   7  22
HETATM   22  N   UNL     1      -5.044   2.399 -32.204  1.00  0.00    -0.224 N 
HETATM   23  H   UNL     1      -4.279   2.301 -31.548  1.00  0.00     0.177 HD
BRANCH  22  24
HETATM   24  C   UNL     1      -5.088   3.688 -32.893  1.00  0.00     0.140 C 
BRANCH  24  25
HETATM   25  C   UNL     1      -3.751   4.420 -32.817  1.00  0.00     0.046 C 
BRANCH  25  26
HETATM   26  C   UNL     1      -3.200   4.529 -31.403  1.00  0.00     0.165 C 
BRANCH  26  27
HETATM   27  O   UNL     1      -2.221   3.522 -31.201  1.00  0.00    -0.401 OA
HETATM   28  H   UNL     1      -1.869   3.260 -32.072  1.00  0.00     0.209 HD
ENDBRANCH  26  27
ENDBRANCH  25  26
ENDBRANCH  24  25
ENDBRANCH  22  24
ENDBRANCH   7  22
TORSDOF 8
ENDMDL
