MODEL 1
REMARK VINA RESULT:      -8.6      0.000      0.000
REMARK  6 active torsions:
REMARK  status: ('A' for Active; 'I' for Inactive)
REMARK    1  A    between atoms: N_2  and  C_4 
REMARK    2  A    between atoms: C_4  and  C_5 
REMARK    3  A    between atoms: C_5  and  C_6 
REMARK    4  A    between atoms: C_6  and  N_7 
REMARK    5  A    between atoms: C_17  and  C_18 
REMARK    6  A    between atoms: C_26  and  O_27 
ROOT
HETATM    1  N   UNL     1     -10.085   3.578 -33.223  1.00  0.00    -0.327 N 
HETATM    2  C   UNL     1      -9.044   2.913 -32.712  1.00  0.00     0.113 C 
HETATM    3  N   UNL     1      -9.150   1.876 -31.901  1.00  0.00    -0.385 N 
HETATM    4  H   UNL     1      -8.337   1.389 -31.541  1.00  0.00     0.157 HD
HETATM    5  H   UNL     1     -10.018   1.538 -31.514  1.00  0.00     0.157 HD
HETATM    6  C   UNL     1      -7.676   3.367 -33.130  1.00  0.00     0.052 C 
HETATM    7  C   UNL     1      -7.579   4.466 -33.903  1.00  0.00     0.182 C 
HETATM    8  O   UNL     1      -6.369   4.966 -34.356  1.00  0.00    -0.291 OA
HETATM    9  C   UNL     1      -5.195   4.477 -33.846  1.00  0.00     0.087 A 
HETATM   10  C   UNL     1      -5.154   3.354 -33.017  1.00  0.00    -0.011 A 
HETATM   11  C   UNL     1      -6.433   2.617 -32.690  1.00  0.00     0.095 C 
HETATM   12  C   UNL     1      -4.029   5.163 -34.191  1.00  0.00     0.074 A 
HETATM   13  C   UNL     1      -2.812   4.725 -33.687  1.00  0.00     0.068 A 
HETATM   14  C   UNL     1      -2.747   3.619 -32.848  1.00  0.00     0.037 A 
HETATM   15  C   UNL     1      -3.914   2.933 -32.511  1.00  0.00     0.014 A 
HETATM   16  N   UNL     1      -8.665   5.195 -34.293  1.00  0.00    -0.219 NA
HETATM   17  C   UNL     1      -9.831   4.797 -33.947  1.00  0.00     0.214 C 
ENDROOT
BRANCH   1  18
HETATM   18  C   UNL     1     -11.507   3.229 -32.992  1.00  0.00     0.133 C 
BRANCH  18  19
HETATM   19  C   UNL     1     -12.356   3.261 -34.277  1.00  0.00     0.048 C 
BRANCH  19  20
HETATM   20  C   UNL     1     -12.957   1.907 -34.658  1.00  0.00     0.235 C 
BRANCH  20  21
HETATM   21  N   UNL     1     -13.397   1.136 -33.426  1.00  0.00    -0.079 N 
HETATM   22  C   UNL     1     -13.280  -0.367 -33.560  1.00  0.00     0.269 C 
HETATM   23  H   UNL     1     -12.806   1.402 -32.625  1.00  0.00     0.278 HD
HETATM   24  C   UNL     1     -14.809   1.503 -33.010  1.00  0.00     0.269 C 
ENDBRANCH  20  21
ENDBRANCH  19  20
ENDBRANCH  18  19
ENDBRANCH   1  18
BRANCH  11  25
HETATM   25  C   UNL     1      -6.412   1.189 -33.239  1.00  0.00    -0.045 A 
HETATM   26  C   UNL     1      -6.792   0.936 -34.570  1.00  0.00     0.010 A 
HETATM   27  C   UNL     1      -6.766  -0.363 -35.082  1.00  0.00     0.024 A 
HETATM   28  C   UNL     1      -6.381  -1.423 -34.265  1.00  0.00     0.034 A 
HETATM   29 CL   UNL     1      -6.328  -3.019 -34.901  1.00  0.00    -0.084 Cl
HETATM   30  C   UNL     1      -6.036  -1.198 -32.936  1.00  0.00     0.024 A 
HETATM   31  C   UNL     1      -6.055   0.101 -32.422  1.00  0.00     0.010 A 
ENDBRANCH  11  25
BRANCH  13  32
HETATM   32  O   UNL     1      -1.644   5.356 -33.987  1.00  0.00    -0.361 OA
HETATM   33  H   UNL     1      -0.896   4.748 -33.864  1.00  0.00     0.217 HD
ENDBRANCH  13  32
TORSDOF 6
ENDMDL
MODEL 2
REMARK VINA RESULT:      -8.4      1.658      2.213
REMARK  6 active torsions:
REMARK  status: ('A' for Active; 'I' for Inactive)
REMARK    1  A    between atoms: N_2  and  C_4 
REMARK    2  A    between atoms: C_4  and  C_5 
REMARK    3  A    between atoms: C_5  and  C_6 
REMARK    4  A    between atoms: C_6  and  N_7 
REMARK    5  A    between atoms: C_17  and  C_18 
REMARK    6  A    between atoms: C_26  and  O_27 
ROOT
HETATM    1  N   UNL     1      -8.639   2.931 -32.681  1.00  0.00    -0.327 N 
HETATM    2  C   UNL     1      -7.469   2.767 -32.057  1.00  0.00     0.113 C 
HETATM    3  N   UNL     1      -7.314   2.087 -30.936  1.00  0.00    -0.385 N 
HETATM    4  H   UNL     1      -6.407   1.973 -30.497  1.00  0.00     0.157 HD
HETATM    5  H   UNL     1      -8.070   1.701 -30.390  1.00  0.00     0.157 HD
HETATM    6  C   UNL     1      -6.260   3.370 -32.711  1.00  0.00     0.052 C 
HETATM    7  C   UNL     1      -6.441   4.118 -33.817  1.00  0.00     0.182 C 
HETATM    8  O   UNL     1      -5.396   4.711 -34.506  1.00  0.00    -0.291 OA
HETATM    9  C   UNL     1      -4.143   4.738 -33.953  1.00  0.00     0.087 A 
HETATM   10  C   UNL     1      -3.823   4.023 -32.797  1.00  0.00    -0.011 A 
HETATM   11  C   UNL     1      -4.871   3.155 -32.140  1.00  0.00     0.095 C 
HETATM   12  C   UNL     1      -3.190   5.526 -34.602  1.00  0.00     0.074 A 
HETATM   13  C   UNL     1      -1.908   5.609 -34.075  1.00  0.00     0.068 A 
HETATM   14  C   UNL     1      -1.569   4.918 -32.918  1.00  0.00     0.037 A 
HETATM   15  C   UNL     1      -2.523   4.127 -32.277  1.00  0.00     0.014 A 
HETATM   16  N   UNL     1      -7.674   4.371 -34.345  1.00  0.00    -0.219 NA
HETATM   17  C   UNL     1      -8.701   3.843 -33.795  1.00  0.00     0.214 C 
ENDROOT
BRANCH   1  18
HETATM   18  C   UNL     1      -9.925   2.344 -32.234  1.00  0.00     0.133 C 
BRANCH  18  19
HETATM   19  C   UNL     1     -10.402   1.181 -33.124  1.00  0.00     0.048 C 
BRANCH  19  20
HETATM   20  C   UNL     1     -11.650   1.501 -33.949  1.00  0.00     0.235 C 
BRANCH  20  21
HETATM   21  N   UNL     1     -12.917   1.171 -33.179  1.00  0.00    -0.079 N 
HETATM   22  C   UNL     1     -13.722   0.033 -33.769  1.00  0.00     0.269 C 
HETATM   23  H   UNL     1     -12.671   0.885 -32.220  1.00  0.00     0.278 HD
HETATM   24  C   UNL     1     -13.804   2.390 -33.009  1.00  0.00     0.269 C 
ENDBRANCH  20  21
ENDBRANCH  19  20
ENDBRANCH  18  19
ENDBRANCH   1  18
BRANCH  11  25
HETATM   25  C   UNL     1      -4.473   1.677 -32.170  1.00  0.00    -0.045 A 
HETATM   26  C   UNL     1      -3.709   1.129 -31.124  1.00  0.00     0.010 A 
HETATM   27  C   UNL     1      -3.350  -0.221 -31.138  1.00  0.00     0.024 A 
HETATM   28  C   UNL     1      -3.733  -1.030 -32.205  1.00  0.00     0.034 A 
HETATM   29 CL   UNL     1      -3.310  -2.695 -32.212  1.00  0.00    -0.084 Cl
HETATM   30  C   UNL     1      -4.458  -0.497 -33.267  1.00  0.00     0.024 A 
HETATM   31  C   UNL     1      -4.824   0.851 -33.253  1.00  0.00     0.010 A 
ENDBRANCH  11  25
BRANCH  13  32
HETATM   32  O   UNL     1      -0.940   6.364 -34.662  1.00  0.00    -0.361 OA
HETATM   33  H   UNL     1      -0.650   5.949 -35.492  1.00  0.00     0.217 HD
ENDBRANCH  13  32
TORSDOF 6
ENDMDL
MODEL 3
REMARK VINA RESULT:      -8.1      2.254      2.962
REMARK  6 active torsions:
REMARK  status: ('A' for Active; 'I' for Inactive)
REMARK    1  A    between atoms: N_2  and  C_4 
REMARK    2  A    between atoms: C_4  and  C_5 
REMARK    3  A    between atoms: C_5  and  C_6 
REMARK    4  A    between atoms: C_6  and  N_7 
REMARK    5  A    between atoms: C_17  and  C_18 
REMARK    6  A    between atoms: C_26  and  O_27 
ROOT
HETATM    1  N   UNL     1      -8.499   3.273 -32.596  1.00  0.00    -0.327 N 
HETATM    2  C   UNL     1      -7.331   3.087 -31.972  1.00  0.00     0.113 C 
HETATM    3  N   UNL     1      -7.191   2.419 -30.842  1.00  0.00    -0.385 N 
HETATM    4  H   UNL     1      -6.286   2.289 -30.403  1.00  0.00     0.157 HD
HETATM    5  H   UNL     1      -7.955   2.061 -30.289  1.00  0.00     0.157 HD
HETATM    6  C   UNL     1      -6.110   3.650 -32.637  1.00  0.00     0.052 C 
HETATM    7  C   UNL     1      -6.274   4.386 -33.753  1.00  0.00     0.182 C 
HETATM    8  O   UNL     1      -5.217   4.943 -34.453  1.00  0.00    -0.291 OA
HETATM    9  C   UNL     1      -3.961   4.945 -33.904  1.00  0.00     0.087 A 
HETATM   10  C   UNL     1      -3.657   4.239 -32.738  1.00  0.00    -0.011 A 
HETATM   11  C   UNL     1      -4.725   3.407 -32.067  1.00  0.00     0.095 C 
HETATM   12  C   UNL     1      -2.991   5.700 -34.566  1.00  0.00     0.074 A 
HETATM   13  C   UNL     1      -1.705   5.757 -34.043  1.00  0.00     0.068 A 
HETATM   14  C   UNL     1      -1.381   5.074 -32.877  1.00  0.00     0.037 A 
HETATM   15  C   UNL     1      -2.353   4.316 -32.223  1.00  0.00     0.014 A 
HETATM   16  N   UNL     1      -7.502   4.664 -34.282  1.00  0.00    -0.219 NA
HETATM   17  C   UNL     1      -8.540   4.170 -33.721  1.00  0.00     0.214 C 
ENDROOT
BRANCH   1  18
HETATM   18  C   UNL     1      -9.799   2.726 -32.137  1.00  0.00     0.133 C 
BRANCH  18  19
HETATM   19  C   UNL     1     -10.049   1.282 -32.612  1.00  0.00     0.048 C 
BRANCH  19  20
HETATM   20  C   UNL     1      -9.800   1.068 -34.106  1.00  0.00     0.235 C 
BRANCH  20  21
HETATM   21  N   UNL     1      -8.623   0.136 -34.338  1.00  0.00    -0.079 N 
HETATM   22  C   UNL     1      -8.031  -0.443 -33.070  1.00  0.00     0.269 C 
HETATM   23  H   UNL     1      -8.928  -0.667 -34.907  1.00  0.00     0.278 HD
HETATM   24  C   UNL     1      -7.531   0.803 -35.153  1.00  0.00     0.269 C 
ENDBRANCH  20  21
ENDBRANCH  19  20
ENDBRANCH  18  19
ENDBRANCH   1  18
BRANCH  11  25
HETATM   25  C   UNL     1      -4.365   1.920 -32.076  1.00  0.00    -0.045 A 
HETATM   26  C   UNL     1      -4.687   1.120 -33.188  1.00  0.00     0.010 A 
HETATM   27  C   UNL     1      -4.353  -0.236 -33.210  1.00  0.00     0.024 A 
HETATM   28  C   UNL     1      -3.712  -0.810 -32.114  1.00  0.00     0.034 A 
HETATM   29 CL   UNL     1      -3.282  -2.473 -32.149  1.00  0.00    -0.084 Cl
HETATM   30  C   UNL     1      -3.418  -0.044 -30.990  1.00  0.00     0.024 A 
HETATM   31  C   UNL     1      -3.745   1.314 -30.968  1.00  0.00     0.010 A 
ENDBRANCH  11  25
BRANCH  13  32
HETATM   32  O   UNL     1      -0.719   6.479 -34.643  1.00  0.00    -0.361 OA
HETATM   33  H   UNL     1       0.110   5.973 -34.645  1.00  0.00     0.217 HD
ENDBRANCH  13  32
TORSDOF 6
ENDMDL
MODEL 4
REMARK VINA RESULT:      -7.7      3.322      6.064
REMARK  6 active torsions:
REMARK  status: ('A' for Active; 'I' for Inactive)
REMARK    1  A    between atoms: N_2  and  C_4 
REMARK    2  A    between atoms: C_4  and  C_5 
REMARK    3  A    between atoms: C_5  and  C_6 
REMARK    4  A    between atoms: C_6  and  N_7 
REMARK    5  A    between atoms: C_17  and  C_18 
REMARK    6  A    between atoms: C_26  and  O_27 
ROOT
HETATM    1  N   UNL     1      -6.840   3.673 -30.041  1.00  0.00    -0.327 N 
HETATM    2  C   UNL     1      -7.638   2.709 -30.511  1.00  0.00     0.113 C 
HETATM    3  N   UNL     1      -8.909   2.571 -30.181  1.00  0.00    -0.385 N 
HETATM    4  H   UNL     1      -9.488   1.833 -30.567  1.00  0.00     0.157 HD
HETATM    5  H   UNL     1      -9.381   3.117 -29.476  1.00  0.00     0.157 HD
HETATM    6  C   UNL     1      -7.041   1.758 -31.506  1.00  0.00     0.052 C 
HETATM    7  C   UNL     1      -5.727   1.869 -31.784  1.00  0.00     0.182 C 
HETATM    8  O   UNL     1      -5.077   1.053 -32.694  1.00  0.00    -0.291 OA
HETATM    9  C   UNL     1      -5.711  -0.056 -33.191  1.00  0.00     0.087 A 
HETATM   10  C   UNL     1      -7.066  -0.302 -32.964  1.00  0.00    -0.011 A 
HETATM   11  C   UNL     1      -7.887   0.693 -32.179  1.00  0.00     0.095 C 
HETATM   12  C   UNL     1      -4.930  -0.941 -33.937  1.00  0.00     0.074 A 
HETATM   13  C   UNL     1      -5.514  -2.092 -34.449  1.00  0.00     0.068 A 
HETATM   14  C   UNL     1      -6.858  -2.367 -34.224  1.00  0.00     0.037 A 
HETATM   15  C   UNL     1      -7.635  -1.477 -33.484  1.00  0.00     0.014 A 
HETATM   16  N   UNL     1      -4.917   2.785 -31.177  1.00  0.00    -0.219 NA
HETATM   17  C   UNL     1      -5.432   3.605 -30.341  1.00  0.00     0.214 C 
ENDROOT
BRANCH   1  18
HETATM   18  C   UNL     1      -7.268   4.749 -29.116  1.00  0.00     0.133 C 
BRANCH  18  19
HETATM   19  C   UNL     1      -7.093   6.161 -29.706  1.00  0.00     0.048 C 
BRANCH  19  20
HETATM   20  C   UNL     1      -7.904   6.407 -30.979  1.00  0.00     0.235 C 
BRANCH  20  21
HETATM   21  N   UNL     1      -6.996   6.718 -32.157  1.00  0.00    -0.079 N 
HETATM   22  C   UNL     1      -6.887   5.597 -33.169  1.00  0.00     0.269 C 
HETATM   23  H   UNL     1      -7.363   7.534 -32.667  1.00  0.00     0.278 HD
HETATM   24  C   UNL     1      -5.609   7.131 -31.702  1.00  0.00     0.269 C 
ENDBRANCH  20  21
ENDBRANCH  19  20
ENDBRANCH  18  19
ENDBRANCH   1  18
BRANCH  11  25
HETATM   25  C   UNL     1      -8.991   1.312 -33.039  1.00  0.00    -0.045 A 
HETATM   26  C   UNL     1     -10.272   0.731 -33.073  1.00  0.00     0.010 A 
HETATM   27  C   UNL     1     -11.289   1.294 -33.848  1.00  0.00     0.024 A 
HETATM   28  C   UNL     1     -11.030   2.431 -34.611  1.00  0.00     0.034 A 
HETATM   29 CL   UNL     1     -12.286   3.137 -35.547  1.00  0.00    -0.084 Cl
HETATM   30  C   UNL     1      -9.760   2.999 -34.619  1.00  0.00     0.024 A 
HETATM   31  C   UNL     1      -8.743   2.441 -33.841  1.00  0.00     0.010 A 
ENDBRANCH  11  25
BRANCH  13  32
HETATM   32  O   UNL     1      -4.802  -2.993 -35.180  1.00  0.00    -0.361 OA
HETATM   33  H   UNL     1      -4.257  -2.530 -35.838  1.00  0.00     0.217 HD
ENDBRANCH  13  32
TORSDOF 6
ENDMDL
MODEL 5
REMARK VINA RESULT:      -7.7      4.047      6.940
REMARK  6 active torsions:
REMARK  status: ('A' for Active; 'I' for Inactive)
REMARK    1  A    between atoms: N_2  and  C_4 
REMARK    2  A    between atoms: C_4  and  C_5 
REMARK    3  A    between atoms: C_5  and  C_6 
REMARK    4  A    between atoms: C_6  and  N_7 
REMARK    5  A    between atoms: C_17  and  C_18 
REMARK    6  A    between atoms: C_26  and  O_27 
ROOT
HETATM    1  N   UNL     1      -6.811   3.630 -29.992  1.00  0.00    -0.327 N 
HETATM    2  C   UNL     1      -7.613   2.678 -30.479  1.00  0.00     0.113 C 
HETATM    3  N   UNL     1      -8.888   2.547 -30.161  1.00  0.00    -0.385 N 
HETATM    4  H   UNL     1      -9.470   1.818 -30.560  1.00  0.00     0.157 HD
HETATM    5  H   UNL     1      -9.362   3.090 -29.455  1.00  0.00     0.157 HD
HETATM    6  C   UNL     1      -7.016   1.732 -31.478  1.00  0.00     0.052 C 
HETATM    7  C   UNL     1      -5.699   1.833 -31.743  1.00  0.00     0.182 C 
HETATM    8  O   UNL     1      -5.047   1.020 -32.655  1.00  0.00    -0.291 OA
HETATM    9  C   UNL     1      -5.686  -0.078 -33.169  1.00  0.00     0.087 A 
HETATM   10  C   UNL     1      -7.046  -0.315 -32.956  1.00  0.00    -0.011 A 
HETATM   11  C   UNL     1      -7.865   0.680 -32.168  1.00  0.00     0.095 C 
HETATM   12  C   UNL     1      -4.907  -0.962 -33.917  1.00  0.00     0.074 A 
HETATM   13  C   UNL     1      -5.496  -2.103 -34.445  1.00  0.00     0.068 A 
HETATM   14  C   UNL     1      -6.844  -2.369 -34.235  1.00  0.00     0.037 A 
HETATM   15  C   UNL     1      -7.620  -1.479 -33.492  1.00  0.00     0.014 A 
HETATM   16  N   UNL     1      -4.887   2.737 -31.120  1.00  0.00    -0.219 NA
HETATM   17  C   UNL     1      -5.402   3.553 -30.280  1.00  0.00     0.214 C 
ENDROOT
BRANCH   1  18
HETATM   18  C   UNL     1      -7.239   4.701 -29.060  1.00  0.00     0.133 C 
BRANCH  18  19
HETATM   19  C   UNL     1      -6.185   5.811 -28.889  1.00  0.00     0.048 C 
BRANCH  19  20
HETATM   20  C   UNL     1      -5.580   5.882 -27.485  1.00  0.00     0.235 C 
BRANCH  20  21
HETATM   21  N   UNL     1      -4.133   6.339 -27.534  1.00  0.00    -0.079 N 
HETATM   22  C   UNL     1      -3.729   7.245 -26.390  1.00  0.00     0.269 C 
HETATM   23  H   UNL     1      -3.512   5.518 -27.486  1.00  0.00     0.278 HD
HETATM   24  C   UNL     1      -3.799   7.005 -28.855  1.00  0.00     0.269 C 
ENDBRANCH  20  21
ENDBRANCH  19  20
ENDBRANCH  18  19
ENDBRANCH   1  18
BRANCH  11  25
HETATM   25  C   UNL     1      -8.956   1.316 -33.032  1.00  0.00    -0.045 A 
HETATM   26  C   UNL     1     -10.238   0.740 -33.092  1.00  0.00     0.010 A 
HETATM   27  C   UNL     1     -11.243   1.319 -33.870  1.00  0.00     0.024 A 
HETATM   28  C   UNL     1     -10.972   2.468 -34.610  1.00  0.00     0.034 A 
HETATM   29 CL   UNL     1     -12.214   3.193 -35.550  1.00  0.00    -0.084 Cl
HETATM   30  C   UNL     1      -9.700   3.032 -34.592  1.00  0.00     0.024 A 
HETATM   31  C   UNL     1      -8.694   2.459 -33.811  1.00  0.00     0.010 A 
ENDBRANCH  11  25
BRANCH  13  32
HETATM   32  O   UNL     1      -4.785  -3.003 -35.179  1.00  0.00    -0.361 OA
HETATM   33  H   UNL     1      -5.360  -3.420 -35.842  1.00  0.00     0.217 HD
ENDBRANCH  13  32
TORSDOF 6
ENDMDL
MODEL 6
REMARK VINA RESULT:      -7.7      4.522      6.806
REMARK  6 active torsions:
REMARK  status: ('A' for Active; 'I' for Inactive)
REMARK    1  A    between atoms: N_2  and  C_4 
REMARK    2  A    between atoms: C_4  and  C_5 
REMARK    3  A    between atoms: C_5  and  C_6 
REMARK    4  A    between atoms: C_6  and  N_7 
REMARK    5  A    between atoms: C_17  and  C_18 
REMARK    6  A    between atoms: C_26  and  O_27 
ROOT
HETATM    1  N   UNL     1      -4.842  -0.543 -31.894  1.00  0.00    -0.327 N 
HETATM    2  C   UNL     1      -4.312   0.569 -31.373  1.00  0.00     0.113 C 
HETATM    3  N   UNL     1      -3.018   0.762 -31.195  1.00  0.00    -0.385 N 
HETATM    4  H   UNL     1      -2.651   1.624 -30.807  1.00  0.00     0.157 HD
HETATM    5  H   UNL     1      -2.308   0.061 -31.347  1.00  0.00     0.157 HD
HETATM    6  C   UNL     1      -5.265   1.670 -31.011  1.00  0.00     0.052 C 
HETATM    7  C   UNL     1      -6.585   1.436 -31.134  1.00  0.00     0.182 C 
HETATM    8  O   UNL     1      -7.551   2.384 -30.840  1.00  0.00    -0.291 OA
HETATM    9  C   UNL     1      -7.197   3.540 -30.195  1.00  0.00     0.087 A 
HETATM   10  C   UNL     1      -5.864   3.897 -29.984  1.00  0.00    -0.011 A 
HETATM   11  C   UNL     1      -4.759   3.010 -30.510  1.00  0.00     0.095 C 
HETATM   12  C   UNL     1      -8.242   4.351 -29.748  1.00  0.00     0.074 A 
HETATM   13  C   UNL     1      -7.944   5.525 -29.069  1.00  0.00     0.068 A 
HETATM   14  C   UNL     1      -6.625   5.895 -28.834  1.00  0.00     0.037 A 
HETATM   15  C   UNL     1      -5.585   5.084 -29.288  1.00  0.00     0.014 A 
HETATM   16  N   UNL     1      -7.088   0.235 -31.544  1.00  0.00    -0.219 NA
HETATM   17  C   UNL     1      -6.274  -0.697 -31.867  1.00  0.00     0.214 C 
ENDROOT
BRANCH   1  18
HETATM   18  C   UNL     1      -4.060  -1.703 -32.384  1.00  0.00     0.133 C 
BRANCH  18  19
HETATM   19  C   UNL     1      -4.231  -1.954 -33.894  1.00  0.00     0.048 C 
BRANCH  19  20
HETATM   20  C   UNL     1      -4.572  -3.403 -34.247  1.00  0.00     0.235 C 
BRANCH  20  21
HETATM   21  N   UNL     1      -6.057  -3.566 -34.520  1.00  0.00    -0.079 N 
HETATM   22  C   UNL     1      -6.387  -4.627 -35.548  1.00  0.00     0.269 C 
HETATM   23  H   UNL     1      -6.537  -3.846 -33.652  1.00  0.00     0.278 HD
HETATM   24  C   UNL     1      -6.702  -2.252 -34.917  1.00  0.00     0.269 C 
ENDBRANCH  20  21
ENDBRANCH  19  20
ENDBRANCH  18  19
ENDBRANCH   1  18
BRANCH  11  25
HETATM   25  C   UNL     1      -3.922   3.728 -31.571  1.00  0.00    -0.045 A 
HETATM   26  C   UNL     1      -2.579   4.058 -31.310  1.00  0.00     0.010 A 
HETATM   27  C   UNL     1      -1.805   4.704 -32.276  1.00  0.00     0.024 A 
HETATM   28  C   UNL     1      -2.369   5.045 -33.503  1.00  0.00     0.034 A 
HETATM   29 CL   UNL     1      -1.411   5.821 -34.700  1.00  0.00    -0.084 Cl
HETATM   30  C   UNL     1      -3.706   4.760 -33.766  1.00  0.00     0.024 A 
HETATM   31  C   UNL     1      -4.481   4.109 -32.805  1.00  0.00     0.010 A 
ENDBRANCH  11  25
BRANCH  13  32
HETATM   32  O   UNL     1      -8.921   6.353 -28.607  1.00  0.00    -0.361 OA
HETATM   33  H   UNL     1      -9.795   6.009 -28.855  1.00  0.00     0.217 HD
ENDBRANCH  13  32
TORSDOF 6
ENDMDL
MODEL 7
REMARK VINA RESULT:      -7.6      4.435      6.366
REMARK  6 active torsions:
REMARK  status: ('A' for Active; 'I' for Inactive)
REMARK    1  A    between atoms: N_2  and  C_4 
REMARK    2  A    between atoms: C_4  and  C_5 
REMARK    3  A    between atoms: C_5  and  C_6 
REMARK    4  A    between atoms: C_6  and  N_7 
REMARK    5  A    between atoms: C_17  and  C_18 
REMARK    6  A    between atoms: C_26  and  O_27 
ROOT
HETATM    1  N   UNL     1      -5.409   1.072 -32.666  1.00  0.00    -0.327 N 
HETATM    2  C   UNL     1      -5.418   2.363 -33.010  1.00  0.00     0.113 C 
HETATM    3  N   UNL     1      -6.372   2.936 -33.721  1.00  0.00    -0.385 N 
HETATM    4  H   UNL     1      -6.351   3.923 -33.954  1.00  0.00     0.157 HD
HETATM    5  H   UNL     1      -7.139   2.443 -34.153  1.00  0.00     0.157 HD
HETATM    6  C   UNL     1      -4.282   3.207 -32.512  1.00  0.00     0.052 C 
HETATM    7  C   UNL     1      -3.282   2.598 -31.844  1.00  0.00     0.182 C 
HETATM    8  O   UNL     1      -2.192   3.281 -31.331  1.00  0.00    -0.291 OA
HETATM    9  C   UNL     1      -1.982   4.590 -31.678  1.00  0.00     0.087 A 
HETATM   10  C   UNL     1      -2.928   5.334 -32.386  1.00  0.00    -0.011 A 
HETATM   11  C   UNL     1      -4.250   4.704 -32.757  1.00  0.00     0.095 C 
HETATM   12  C   UNL     1      -0.762   5.151 -31.294  1.00  0.00     0.074 A 
HETATM   13  C   UNL     1      -0.485   6.467 -31.636  1.00  0.00     0.068 A 
HETATM   14  C   UNL     1      -1.404   7.224 -32.353  1.00  0.00     0.037 A 
HETATM   15  C   UNL     1      -2.624   6.661 -32.729  1.00  0.00     0.014 A 
HETATM   16  N   UNL     1      -3.248   1.250 -31.632  1.00  0.00    -0.219 NA
HETATM   17  C   UNL     1      -4.225   0.536 -32.044  1.00  0.00     0.214 C 
ENDROOT
BRANCH   1  18
HETATM   18  C   UNL     1      -6.481   0.101 -32.995  1.00  0.00     0.133 C 
BRANCH  18  19
HETATM   19  C   UNL     1      -6.223  -0.665 -34.306  1.00  0.00     0.048 C 
BRANCH  19  20
HETATM   20  C   UNL     1      -6.803  -2.081 -34.322  1.00  0.00     0.235 C 
BRANCH  20  21
HETATM   21  N   UNL     1      -5.865  -3.050 -35.020  1.00  0.00    -0.079 N 
HETATM   22  C   UNL     1      -6.400  -4.461 -35.129  1.00  0.00     0.269 C 
HETATM   23  H   UNL     1      -5.695  -2.729 -35.984  1.00  0.00     0.278 HD
HETATM   24  C   UNL     1      -4.495  -3.072 -34.368  1.00  0.00     0.269 C 
ENDBRANCH  20  21
ENDBRANCH  19  20
ENDBRANCH  18  19
ENDBRANCH   1  18
BRANCH  11  25
HETATM   25  C   UNL     1      -5.421   5.412 -32.072  1.00  0.00    -0.045 A 
HETATM   26  C   UNL     1      -6.249   6.283 -32.803  1.00  0.00     0.010 A 
HETATM   27  C   UNL     1      -7.325   6.925 -32.187  1.00  0.00     0.024 A 
HETATM   28  C   UNL     1      -7.573   6.720 -30.832  1.00  0.00     0.034 A 
HETATM   29 CL   UNL     1      -8.909   7.494 -30.079  1.00  0.00    -0.084 Cl
HETATM   30  C   UNL     1      -6.743   5.892 -30.083  1.00  0.00     0.024 A 
HETATM   31  C   UNL     1      -5.669   5.242 -30.697  1.00  0.00     0.010 A 
ENDBRANCH  11  25
BRANCH  13  32
HETATM   32  O   UNL     1       0.689   7.065 -31.292  1.00  0.00    -0.361 OA
HETATM   33  H   UNL     1       0.950   7.705 -31.975  1.00  0.00     0.217 HD
ENDBRANCH  13  32
TORSDOF 6
ENDMDL
MODEL 8
REMARK VINA RESULT:      -7.5     16.478     17.749
REMARK  6 active torsions:
REMARK  status: ('A' for Active; 'I' for Inactive)
REMARK    1  A    between atoms: N_2  and  C_4 
REMARK    2  A    between atoms: C_4  and  C_5 
REMARK    3  A    between atoms: C_5  and  C_6 
REMARK    4  A    between atoms: C_6  and  N_7 
REMARK    5  A    between atoms: C_17  and  C_18 
REMARK    6  A    between atoms: C_26  and  O_27 
ROOT
HETATM    1  N   UNL     1      -7.382 -12.694 -40.129  1.00  0.00    -0.327 N 
HETATM    2  C   UNL     1      -6.493 -12.563 -39.139  1.00  0.00     0.113 C 
HETATM    3  N   UNL     1      -6.757 -12.003 -37.973  1.00  0.00    -0.385 N 
HETATM    4  H   UNL     1      -6.060 -11.932 -37.240  1.00  0.00     0.157 HD
HETATM    5  H   UNL     1      -7.622 -11.538 -37.743  1.00  0.00     0.157 HD
HETATM    6  C   UNL     1      -5.125 -13.131 -39.377  1.00  0.00     0.052 C 
HETATM    7  C   UNL     1      -4.848 -13.639 -40.593  1.00  0.00     0.182 C 
HETATM    8  O   UNL     1      -3.623 -14.198 -40.917  1.00  0.00    -0.291 OA
HETATM    9  C   UNL     1      -2.561 -14.055 -40.063  1.00  0.00     0.087 A 
HETATM   10  C   UNL     1      -2.704 -13.526 -38.778  1.00  0.00    -0.011 A 
HETATM   11  C   UNL     1      -4.074 -13.127 -38.282  1.00  0.00     0.095 C 
HETATM   12  C   UNL     1      -1.314 -14.461 -40.542  1.00  0.00     0.074 A 
HETATM   13  C   UNL     1      -0.197 -14.320 -39.729  1.00  0.00     0.068 A 
HETATM   14  C   UNL     1      -0.312 -13.784 -38.452  1.00  0.00     0.037 A 
HETATM   15  C   UNL     1      -1.561 -13.386 -37.975  1.00  0.00     0.014 A 
HETATM   16  N   UNL     1      -5.747 -13.630 -41.620  1.00  0.00    -0.219 NA
HETATM   17  C   UNL     1      -6.918 -13.159 -41.411  1.00  0.00     0.214 C 
ENDROOT
BRANCH   1  18
HETATM   18  C   UNL     1      -8.801 -12.270 -40.053  1.00  0.00     0.133 C 
BRANCH  18  19
HETATM   19  C   UNL     1      -9.737 -13.377 -39.535  1.00  0.00     0.048 C 
BRANCH  19  20
HETATM   20  C   UNL     1     -10.877 -13.726 -40.495  1.00  0.00     0.235 C 
BRANCH  20  21
HETATM   21  N   UNL     1     -10.539 -14.952 -41.325  1.00  0.00    -0.079 N 
HETATM   22  C   UNL     1     -11.739 -15.615 -41.968  1.00  0.00     0.269 C 
HETATM   23  H   UNL     1      -9.910 -14.682 -42.095  1.00  0.00     0.278 HD
HETATM   24  C   UNL     1      -9.760 -15.976 -40.522  1.00  0.00     0.269 C 
ENDBRANCH  20  21
ENDBRANCH  19  20
ENDBRANCH  18  19
ENDBRANCH   1  18
BRANCH  11  25
HETATM   25  C   UNL     1      -4.505 -13.978 -37.085  1.00  0.00    -0.045 A 
HETATM   26  C   UNL     1      -4.482 -13.437 -35.786  1.00  0.00     0.010 A 
HETATM   27  C   UNL     1      -4.884 -14.203 -34.689  1.00  0.00     0.024 A 
HETATM   28  C   UNL     1      -5.293 -15.521 -34.876  1.00  0.00     0.034 A 
HETATM   29 CL   UNL     1      -5.807 -16.457 -33.530  1.00  0.00    -0.084 Cl
HETATM   30  C   UNL     1      -5.287 -16.086 -36.148  1.00  0.00     0.024 A 
HETATM   31  C   UNL     1      -4.892 -15.321 -37.248  1.00  0.00     0.010 A 
ENDBRANCH  11  25
BRANCH  13  32
HETATM   32  O   UNL     1       1.044 -14.695 -40.144  1.00  0.00    -0.361 OA
HETATM   33  H   UNL     1       1.167 -15.649 -40.006  1.00  0.00     0.217 HD
ENDBRANCH  13  32
TORSDOF 6
ENDMDL
MODEL 9
REMARK VINA RESULT:      -7.5     16.452     18.528
REMARK  6 active torsions:
REMARK  status: ('A' for Active; 'I' for Inactive)
REMARK    1  A    between atoms: N_2  and  C_4 
REMARK    2  A    between atoms: C_4  and  C_5 
REMARK    3  A    between atoms: C_5  and  C_6 
REMARK    4  A    between atoms: C_6  and  N_7 
REMARK    5  A    between atoms: C_17  and  C_18 
REMARK    6  A    between atoms: C_26  and  O_27 
ROOT
HETATM    1  N   UNL     1      -3.779 -14.960 -40.112  1.00  0.00    -0.327 N 
HETATM    2  C   UNL     1      -4.940 -15.337 -39.567  1.00  0.00     0.113 C 
HETATM    3  N   UNL     1      -5.118 -16.465 -38.905  1.00  0.00    -0.385 N 
HETATM    4  H   UNL     1      -6.011 -16.713 -38.494  1.00  0.00     0.157 HD
HETATM    5  H   UNL     1      -4.427 -17.196 -38.821  1.00  0.00     0.157 HD
HETATM    6  C   UNL     1      -6.091 -14.383 -39.694  1.00  0.00     0.052 C 
HETATM    7  C   UNL     1      -5.916 -13.267 -40.428  1.00  0.00     0.182 C 
HETATM    8  O   UNL     1      -6.906 -12.315 -40.603  1.00  0.00    -0.291 OA
HETATM    9  C   UNL     1      -8.189 -12.584 -40.206  1.00  0.00     0.087 A 
HETATM   10  C   UNL     1      -8.514 -13.716 -39.455  1.00  0.00    -0.011 A 
HETATM   11  C   UNL     1      -7.422 -14.667 -39.023  1.00  0.00     0.095 C 
HETATM   12  C   UNL     1      -9.170 -11.670 -40.596  1.00  0.00     0.074 A 
HETATM   13  C   UNL     1     -10.492 -11.902 -40.240  1.00  0.00     0.068 A 
HETATM   14  C   UNL     1     -10.842 -13.028 -39.506  1.00  0.00     0.037 A 
HETATM   15  C   UNL     1      -9.858 -13.936 -39.113  1.00  0.00     0.014 A 
HETATM   16  N   UNL     1      -4.750 -12.987 -41.082  1.00  0.00    -0.219 NA
HETATM   17  C   UNL     1      -3.765 -13.795 -40.959  1.00  0.00     0.214 C 
ENDROOT
BRANCH   1  18
HETATM   18  C   UNL     1      -2.514 -15.727 -40.021  1.00  0.00     0.133 C 
BRANCH  18  19
HETATM   19  C   UNL     1      -1.358 -14.919 -39.403  1.00  0.00     0.048 C 
BRANCH  19  20
HETATM   20  C   UNL     1      -1.359 -14.905 -37.873  1.00  0.00     0.235 C 
BRANCH  20  21
HETATM   21  N   UNL     1      -1.761 -13.542 -37.338  1.00  0.00    -0.079 N 
HETATM   22  C   UNL     1      -3.198 -13.460 -36.867  1.00  0.00     0.269 C 
HETATM   23  H   UNL     1      -1.176 -13.306 -36.524  1.00  0.00     0.278 HD
HETATM   24  C   UNL     1      -1.491 -12.441 -38.346  1.00  0.00     0.269 C 
ENDBRANCH  20  21
ENDBRANCH  19  20
ENDBRANCH  18  19
ENDBRANCH   1  18
BRANCH  11  25
HETATM   25  C   UNL     1      -7.287 -14.710 -37.499  1.00  0.00    -0.045 A 
HETATM   26  C   UNL     1      -6.939 -13.548 -36.786  1.00  0.00     0.010 A 
HETATM   27  C   UNL     1      -6.824 -13.576 -35.394  1.00  0.00     0.024 A 
HETATM   28  C   UNL     1      -7.035 -14.768 -34.704  1.00  0.00     0.034 A 
HETATM   29 CL   UNL     1      -6.914 -14.798 -32.991  1.00  0.00    -0.084 Cl
HETATM   30  C   UNL     1      -7.344 -15.935 -35.395  1.00  0.00     0.024 A 
HETATM   31  C   UNL     1      -7.466 -15.910 -36.787  1.00  0.00     0.010 A 
ENDBRANCH  11  25
BRANCH  13  32
HETATM   32  O   UNL     1     -11.490 -11.048 -40.596  1.00  0.00    -0.361 OA
HETATM   33  H   UNL     1     -11.121 -10.281 -41.066  1.00  0.00     0.217 HD
ENDBRANCH  13  32
TORSDOF 6
ENDMDL
MODEL 10
REMARK VINA RESULT:      -7.4      4.203      7.143
REMARK  6 active torsions:
REMARK  status: ('A' for Active; 'I' for Inactive)
REMARK    1  A    between atoms: N_2  and  C_4 
REMARK    2  A    between atoms: C_4  and  C_5 
REMARK    3  A    between atoms: C_5  and  C_6 
REMARK    4  A    between atoms: C_6  and  N_7 
REMARK    5  A    between atoms: C_17  and  C_18 
REMARK    6  A    between atoms: C_26  and  O_27 
ROOT
HETATM    1  N   UNL     1      -7.019   5.671 -30.001  1.00  0.00    -0.327 N 
HETATM    2  C   UNL     1      -6.841   5.402 -31.298  1.00  0.00     0.113 C 
HETATM    3  N   UNL     1      -6.709   6.322 -32.236  1.00  0.00    -0.385 N 
HETATM    4  H   UNL     1      -6.563   6.080 -33.210  1.00  0.00     0.157 HD
HETATM    5  H   UNL     1      -6.819   7.314 -32.086  1.00  0.00     0.157 HD
HETATM    6  C   UNL     1      -6.749   3.955 -31.685  1.00  0.00     0.052 C 
HETATM    7  C   UNL     1      -6.952   3.026 -30.731  1.00  0.00     0.182 C 
HETATM    8  O   UNL     1      -6.880   1.665 -30.975  1.00  0.00    -0.291 OA
HETATM    9  C   UNL     1      -6.812   1.206 -32.264  1.00  0.00     0.087 A 
HETATM   10  C   UNL     1      -6.621   2.062 -33.351  1.00  0.00    -0.011 A 
HETATM   11  C   UNL     1      -6.445   3.544 -33.114  1.00  0.00     0.095 C 
HETATM   12  C   UNL     1      -6.950  -0.172 -32.446  1.00  0.00     0.074 A 
HETATM   13  C   UNL     1      -6.910  -0.692 -33.732  1.00  0.00     0.068 A 
HETATM   14  C   UNL     1      -6.736   0.141 -34.831  1.00  0.00     0.037 A 
HETATM   15  C   UNL     1      -6.593   1.516 -34.644  1.00  0.00     0.014 A 
HETATM   16  N   UNL     1      -7.266   3.347 -29.442  1.00  0.00    -0.219 NA
HETATM   17  C   UNL     1      -7.328   4.581 -29.111  1.00  0.00     0.214 C 
ENDROOT
BRANCH   1  18
HETATM   18  C   UNL     1      -7.055   7.033 -29.416  1.00  0.00     0.133 C 
BRANCH  18  19
HETATM   19  C   UNL     1      -5.724   7.446 -28.761  1.00  0.00     0.048 C 
BRANCH  19  20
HETATM   20  C   UNL     1      -4.773   8.190 -29.701  1.00  0.00     0.235 C 
BRANCH  20  21
HETATM   21  N   UNL     1      -3.652   7.284 -30.178  1.00  0.00    -0.079 N 
HETATM   22  C   UNL     1      -2.358   7.440 -29.407  1.00  0.00     0.269 C 
HETATM   23  H   UNL     1      -3.937   6.300 -30.070  1.00  0.00     0.278 HD
HETATM   24  C   UNL     1      -3.385   7.455 -31.662  1.00  0.00     0.269 C 
ENDBRANCH  20  21
ENDBRANCH  19  20
ENDBRANCH  18  19
ENDBRANCH   1  18
BRANCH  11  25
HETATM   25  C   UNL     1      -5.058   4.020 -33.554  1.00  0.00    -0.045 A 
HETATM   26  C   UNL     1      -3.920   3.678 -32.801  1.00  0.00     0.010 A 
HETATM   27  C   UNL     1      -2.650   4.099 -33.201  1.00  0.00     0.024 A 
HETATM   28  C   UNL     1      -2.506   4.882 -34.344  1.00  0.00     0.034 A 
HETATM   29 CL   UNL     1      -0.942   5.383 -34.848  1.00  0.00    -0.084 Cl
HETATM   30  C   UNL     1      -3.624   5.261 -35.081  1.00  0.00     0.024 A 
HETATM   31  C   UNL     1      -4.895   4.837 -34.688  1.00  0.00     0.010 A 
ENDBRANCH  11  25
BRANCH  13  32
HETATM   32  O   UNL     1      -7.042  -2.026 -33.970  1.00  0.00    -0.361 OA
HETATM   33  H   UNL     1      -7.675  -2.415 -33.344  1.00  0.00     0.217 HD
ENDBRANCH  13  32
TORSDOF 6
ENDMDL
