MODEL 1
REMARK VINA RESULT:      -9.4      0.000      0.000
REMARK  5 active torsions:
REMARK  status: ('A' for Active; 'I' for Inactive)
REMARK    1  A    between atoms: C_5  and  C_6 
REMARK    2  A    between atoms: C_6  and  N_7 
REMARK       I    between atoms: N_7  and  C_8 
REMARK       I    between atoms: C_8  and  N_9 
REMARK    3  A    between atoms: N_9  and  C_10 
REMARK    4  A    between atoms: C_10  and  C_11 
REMARK    5  A    between atoms: N_14  and  C_15 
ROOT
HETATM    1  N   UNL     1      -2.726   4.671 -32.109  1.00  0.00    -0.339 N 
HETATM    2  C   UNL     1      -3.266   3.503 -31.652  1.00  0.00     0.316 C 
HETATM    3  N   UNL     1      -4.626   3.570 -31.542  1.00  0.00    -0.339 N 
HETATM    4  O   UNL     1      -2.604   2.519 -31.353  1.00  0.00    -0.247 OA
HETATM    5  H   UNL     1      -3.326   5.458 -32.297  1.00  0.00     0.164 HD
HETATM    6  H   UNL     1      -5.116   4.289 -32.048  1.00  0.00     0.164 HD
ENDROOT
BRANCH   3   7
HETATM    7  C   UNL     1      -5.395   2.425 -31.113  1.00  0.00     0.165 C 
BRANCH   7   8
HETATM    8  C   UNL     1      -5.693   1.515 -32.268  1.00  0.00    -0.016 A 
HETATM    9  C   UNL     1      -5.325   0.176 -32.363  1.00  0.00     0.021 A 
HETATM   10  C   UNL     1      -4.468  -0.596 -31.410  1.00  0.00     0.069 C 
HETATM   11  N   UNL     1      -5.840  -0.355 -33.545  1.00  0.00    -0.319 N 
HETATM   12  C   UNL     1      -6.486   0.672 -34.228  1.00  0.00     0.014 A 
HETATM   13  C   UNL     1      -7.241   0.504 -35.502  1.00  0.00     0.068 C 
HETATM   14  C   UNL     1      -6.408   1.814 -33.455  1.00  0.00     0.035 A 
BRANCH  11  15
HETATM   15  C   UNL     1      -5.751  -1.715 -33.965  1.00  0.00     0.039 A 
HETATM   16  C   UNL     1      -4.499  -2.332 -34.079  1.00  0.00     0.030 A 
HETATM   17  C   UNL     1      -4.410  -3.667 -34.480  1.00  0.00     0.002 A 
HETATM   18  C   UNL     1      -5.567  -4.388 -34.770  1.00  0.00     0.000 A 
HETATM   19  C   UNL     1      -6.816  -3.778 -34.658  1.00  0.00     0.002 A 
HETATM   20  C   UNL     1      -6.911  -2.443 -34.254  1.00  0.00     0.030 A 
ENDBRANCH  11  15
ENDBRANCH   7   8
ENDBRANCH   3   7
BRANCH   1  21
HETATM   21  C   UNL     1      -1.296   4.874 -32.179  1.00  0.00     0.162 C 
BRANCH  21  22
HETATM   22  C   UNL     1      -0.751   5.633 -30.996  1.00  0.00    -0.040 A 
HETATM   23  C   UNL     1       0.107   4.996 -30.087  1.00  0.00     0.009 A 
HETATM   24  C   UNL     1       0.690   5.709 -29.035  1.00  0.00     0.007 A 
HETATM   25  C   UNL     1       0.430   7.072 -28.872  1.00  0.00    -0.062 A 
HETATM   26  C   UNL     1       1.079   7.856 -27.770  1.00  0.00     0.048 C 
HETATM   27  C   UNL     1      -0.419   7.714 -29.780  1.00  0.00     0.007 A 
HETATM   28  C   UNL     1      -0.998   7.004 -30.834  1.00  0.00     0.009 A 
ENDBRANCH  21  22
ENDBRANCH   1  21
TORSDOF 5
ENDMDL
MODEL 2
REMARK VINA RESULT:      -9.3      1.436      9.974
REMARK  5 active torsions:
REMARK  status: ('A' for Active; 'I' for Inactive)
REMARK    1  A    between atoms: C_5  and  C_6 
REMARK    2  A    between atoms: C_6  and  N_7 
REMARK       I    between atoms: N_7  and  C_8 
REMARK       I    between atoms: C_8  and  N_9 
REMARK    3  A    between atoms: N_9  and  C_10 
REMARK    4  A    between atoms: C_10  and  C_11 
REMARK    5  A    between atoms: N_14  and  C_15 
ROOT
HETATM    1  N   UNL     1      -4.667   2.333 -32.239  1.00  0.00    -0.339 N 
HETATM    2  C   UNL     1      -3.410   2.802 -31.988  1.00  0.00     0.316 C 
HETATM    3  N   UNL     1      -3.098   3.886 -32.759  1.00  0.00    -0.339 N 
HETATM    4  O   UNL     1      -2.642   2.295 -31.182  1.00  0.00    -0.247 OA
HETATM    5  H   UNL     1      -5.232   2.773 -32.947  1.00  0.00     0.164 HD
HETATM    6  H   UNL     1      -3.847   4.404 -33.188  1.00  0.00     0.164 HD
ENDROOT
BRANCH   3   7
HETATM    7  C   UNL     1      -1.828   4.559 -32.620  1.00  0.00     0.165 C 
BRANCH   7   8
HETATM    8  C   UNL     1      -1.806   5.415 -31.388  1.00  0.00    -0.016 A 
HETATM    9  C   UNL     1      -0.710   5.607 -30.552  1.00  0.00     0.021 A 
HETATM   10  C   UNL     1       0.618   4.922 -30.630  1.00  0.00     0.069 C 
HETATM   11  N   UNL     1      -1.050   6.522 -29.556  1.00  0.00    -0.319 N 
HETATM   12  C   UNL     1      -2.389   6.863 -29.732  1.00  0.00     0.014 A 
HETATM   13  C   UNL     1      -3.122   7.879 -28.922  1.00  0.00     0.068 C 
HETATM   14  C   UNL     1      -2.856   6.200 -30.850  1.00  0.00     0.035 A 
BRANCH  11  15
HETATM   15  C   UNL     1      -0.177   7.043 -28.556  1.00  0.00     0.039 A 
HETATM   16  C   UNL     1      -0.204   6.513 -27.260  1.00  0.00     0.030 A 
HETATM   17  C   UNL     1       0.659   7.014 -26.282  1.00  0.00     0.002 A 
HETATM   18  C   UNL     1       1.546   8.043 -26.593  1.00  0.00     0.000 A 
HETATM   19  C   UNL     1       1.577   8.572 -27.882  1.00  0.00     0.002 A 
HETATM   20  C   UNL     1       0.718   8.072 -28.866  1.00  0.00     0.030 A 
ENDBRANCH  11  15
ENDBRANCH   7   8
ENDBRANCH   3   7
BRANCH   1  21
HETATM   21  C   UNL     1      -5.161   1.115 -31.635  1.00  0.00     0.162 C 
BRANCH  21  22
HETATM   22  C   UNL     1      -5.343  -0.003 -32.629  1.00  0.00    -0.040 A 
HETATM   23  C   UNL     1      -4.249  -0.799 -33.000  1.00  0.00     0.009 A 
HETATM   24  C   UNL     1      -4.418  -1.894 -33.853  1.00  0.00     0.007 A 
HETATM   25  C   UNL     1      -5.684  -2.217 -34.350  1.00  0.00    -0.062 A 
HETATM   26  C   UNL     1      -5.885  -3.411 -35.235  1.00  0.00     0.048 C 
HETATM   27  C   UNL     1      -6.779  -1.429 -33.979  1.00  0.00     0.007 A 
HETATM   28  C   UNL     1      -6.612  -0.339 -33.123  1.00  0.00     0.009 A 
ENDBRANCH  21  22
ENDBRANCH   1  21
TORSDOF 5
ENDMDL
MODEL 3
REMARK VINA RESULT:      -9.2      2.024      8.994
REMARK  5 active torsions:
REMARK  status: ('A' for Active; 'I' for Inactive)
REMARK    1  A    between atoms: C_5  and  C_6 
REMARK    2  A    between atoms: C_6  and  N_7 
REMARK       I    between atoms: N_7  and  C_8 
REMARK       I    between atoms: C_8  and  N_9 
REMARK    3  A    between atoms: N_9  and  C_10 
REMARK    4  A    between atoms: C_10  and  C_11 
REMARK    5  A    between atoms: N_14  and  C_15 
ROOT
HETATM    1  N   UNL     1      -6.889   1.349 -34.123  1.00  0.00    -0.339 N 
HETATM    2  C   UNL     1      -6.742   2.553 -33.496  1.00  0.00     0.316 C 
HETATM    3  N   UNL     1      -6.295   3.526 -34.344  1.00  0.00    -0.339 N 
HETATM    4  O   UNL     1      -6.964   2.733 -32.307  1.00  0.00    -0.247 OA
HETATM    5  H   UNL     1      -6.649   1.261 -35.097  1.00  0.00     0.164 HD
HETATM    6  H   UNL     1      -6.393   3.384 -35.336  1.00  0.00     0.164 HD
ENDROOT
BRANCH   3   7
HETATM    7  C   UNL     1      -6.111   4.884 -33.888  1.00  0.00     0.165 C 
BRANCH   7   8
HETATM    8  C   UNL     1      -4.653   5.208 -33.739  1.00  0.00    -0.016 A 
HETATM    9  C   UNL     1      -4.007   5.509 -32.543  1.00  0.00     0.021 A 
HETATM   10  C   UNL     1      -4.634   5.689 -31.197  1.00  0.00     0.069 C 
HETATM   11  N   UNL     1      -2.646   5.682 -32.793  1.00  0.00    -0.319 N 
HETATM   12  C   UNL     1      -2.444   5.548 -34.163  1.00  0.00     0.014 A 
HETATM   13  C   UNL     1      -1.113   5.583 -34.835  1.00  0.00     0.068 C 
HETATM   14  C   UNL     1      -3.660   5.252 -34.748  1.00  0.00     0.035 A 
BRANCH  11  15
HETATM   15  C   UNL     1      -1.635   5.920 -31.815  1.00  0.00     0.039 A 
HETATM   16  C   UNL     1      -1.277   7.234 -31.485  1.00  0.00     0.030 A 
HETATM   17  C   UNL     1      -0.295   7.469 -30.521  1.00  0.00     0.002 A 
HETATM   18  C   UNL     1       0.333   6.399 -29.886  1.00  0.00     0.000 A 
HETATM   19  C   UNL     1      -0.020   5.091 -30.211  1.00  0.00     0.002 A 
HETATM   20  C   UNL     1      -1.005   4.848 -31.173  1.00  0.00     0.030 A 
ENDBRANCH  11  15
ENDBRANCH   7   8
ENDBRANCH   3   7
BRANCH   1  21
HETATM   21  C   UNL     1      -7.225   0.146 -33.394  1.00  0.00     0.162 C 
BRANCH  21  22
HETATM   22  C   UNL     1      -6.286  -0.998 -33.681  1.00  0.00    -0.040 A 
HETATM   23  C   UNL     1      -5.027  -1.045 -33.064  1.00  0.00     0.009 A 
HETATM   24  C   UNL     1      -4.180  -2.142 -33.252  1.00  0.00     0.007 A 
HETATM   25  C   UNL     1      -4.576  -3.215 -34.055  1.00  0.00    -0.062 A 
HETATM   26  C   UNL     1      -3.693  -4.414 -34.233  1.00  0.00     0.048 C 
HETATM   27  C   UNL     1      -5.834  -3.175 -34.667  1.00  0.00     0.007 A 
HETATM   28  C   UNL     1      -6.682  -2.082 -34.477  1.00  0.00     0.009 A 
ENDBRANCH  21  22
ENDBRANCH   1  21
TORSDOF 5
ENDMDL
MODEL 4
REMARK VINA RESULT:      -9.2      1.496     10.016
REMARK  5 active torsions:
REMARK  status: ('A' for Active; 'I' for Inactive)
REMARK    1  A    between atoms: C_5  and  C_6 
REMARK    2  A    between atoms: C_6  and  N_7 
REMARK       I    between atoms: N_7  and  C_8 
REMARK       I    between atoms: C_8  and  N_9 
REMARK    3  A    between atoms: N_9  and  C_10 
REMARK    4  A    between atoms: C_10  and  C_11 
REMARK    5  A    between atoms: N_14  and  C_15 
ROOT
HETATM    1  N   UNL     1      -4.702   2.052 -32.599  1.00  0.00    -0.339 N 
HETATM    2  C   UNL     1      -4.585   3.266 -31.984  1.00  0.00     0.316 C 
HETATM    3  N   UNL     1      -3.789   4.127 -32.684  1.00  0.00    -0.339 N 
HETATM    4  O   UNL     1      -5.115   3.542 -30.916  1.00  0.00    -0.247 OA
HETATM    5  H   UNL     1      -4.205   1.878 -33.457  1.00  0.00     0.164 HD
HETATM    6  H   UNL     1      -3.615   3.939 -33.658  1.00  0.00     0.164 HD
ENDROOT
BRANCH   3   7
HETATM    7  C   UNL     1      -3.568   5.478 -32.225  1.00  0.00     0.165 C 
BRANCH   7   8
HETATM    8  C   UNL     1      -2.246   5.598 -31.526  1.00  0.00    -0.016 A 
HETATM    9  C   UNL     1      -1.984   6.401 -30.419  1.00  0.00     0.021 A 
HETATM   10  C   UNL     1      -2.908   7.386 -29.776  1.00  0.00     0.069 C 
HETATM   11  N   UNL     1      -0.667   6.193 -30.008  1.00  0.00    -0.319 N 
HETATM   12  C   UNL     1      -0.079   5.299 -30.898  1.00  0.00     0.014 A 
HETATM   13  C   UNL     1       1.301   4.751 -30.768  1.00  0.00     0.068 C 
HETATM   14  C   UNL     1      -1.036   4.925 -31.823  1.00  0.00     0.035 A 
BRANCH  11  15
HETATM   15  C   UNL     1      -0.043   6.768 -28.862  1.00  0.00     0.039 A 
HETATM   16  C   UNL     1      -0.244   6.200 -27.597  1.00  0.00     0.030 A 
HETATM   17  C   UNL     1       0.375   6.754 -26.475  1.00  0.00     0.002 A 
HETATM   18  C   UNL     1       1.193   7.874 -26.610  1.00  0.00     0.000 A 
HETATM   19  C   UNL     1       1.397   8.442 -27.867  1.00  0.00     0.002 A 
HETATM   20  C   UNL     1       0.782   7.890 -28.994  1.00  0.00     0.030 A 
ENDBRANCH  11  15
ENDBRANCH   7   8
ENDBRANCH   3   7
BRANCH   1  21
HETATM   21  C   UNL     1      -5.389   0.944 -31.973  1.00  0.00     0.162 C 
BRANCH  21  22
HETATM   22  C   UNL     1      -5.543  -0.245 -32.887  1.00  0.00    -0.040 A 
HETATM   23  C   UNL     1      -4.439  -1.063 -33.168  1.00  0.00     0.009 A 
HETATM   24  C   UNL     1      -4.584  -2.218 -33.942  1.00  0.00     0.007 A 
HETATM   25  C   UNL     1      -5.835  -2.580 -34.449  1.00  0.00    -0.062 A 
HETATM   26  C   UNL     1      -6.011  -3.836 -35.250  1.00  0.00     0.048 C 
HETATM   27  C   UNL     1      -6.941  -1.770 -34.168  1.00  0.00     0.007 A 
HETATM   28  C   UNL     1      -6.798  -0.619 -33.389  1.00  0.00     0.009 A 
ENDBRANCH  21  22
ENDBRANCH   1  21
TORSDOF 5
ENDMDL
MODEL 5
REMARK VINA RESULT:      -8.9      1.807      3.362
REMARK  5 active torsions:
REMARK  status: ('A' for Active; 'I' for Inactive)
REMARK    1  A    between atoms: C_5  and  C_6 
REMARK    2  A    between atoms: C_6  and  N_7 
REMARK       I    between atoms: N_7  and  C_8 
REMARK       I    between atoms: C_8  and  N_9 
REMARK    3  A    between atoms: N_9  and  C_10 
REMARK    4  A    between atoms: C_10  and  C_11 
REMARK    5  A    between atoms: N_14  and  C_15 
ROOT
HETATM    1  N   UNL     1      -1.901   6.142 -29.783  1.00  0.00    -0.339 N 
HETATM    2  C   UNL     1      -2.730   5.784 -30.807  1.00  0.00     0.316 C 
HETATM    3  N   UNL     1      -4.020   5.612 -30.392  1.00  0.00    -0.339 N 
HETATM    4  O   UNL     1      -2.356   5.614 -31.959  1.00  0.00    -0.247 OA
HETATM    5  H   UNL     1      -2.268   6.224 -28.849  1.00  0.00     0.164 HD
HETATM    6  H   UNL     1      -4.304   6.022 -29.517  1.00  0.00     0.164 HD
ENDROOT
BRANCH   3   7
HETATM    7  C   UNL     1      -5.065   5.271 -31.329  1.00  0.00     0.165 C 
BRANCH   7   8
HETATM    8  C   UNL     1      -5.402   3.811 -31.249  1.00  0.00    -0.016 A 
HETATM    9  C   UNL     1      -5.661   2.978 -32.334  1.00  0.00     0.021 A 
HETATM   10  C   UNL     1      -5.776   3.374 -33.772  1.00  0.00     0.069 C 
HETATM   11  N   UNL     1      -5.862   1.677 -31.872  1.00  0.00    -0.319 N 
HETATM   12  C   UNL     1      -5.788   1.703 -30.482  1.00  0.00     0.014 A 
HETATM   13  C   UNL     1      -5.869   0.502 -29.602  1.00  0.00     0.068 C 
HETATM   14  C   UNL     1      -5.501   2.998 -30.093  1.00  0.00     0.035 A 
BRANCH  11  15
HETATM   15  C   UNL     1      -6.073   0.520 -32.678  1.00  0.00     0.039 A 
HETATM   16  C   UNL     1      -7.374   0.139 -33.029  1.00  0.00     0.030 A 
HETATM   17  C   UNL     1      -7.582  -0.987 -33.828  1.00  0.00     0.002 A 
HETATM   18  C   UNL     1      -6.496  -1.737 -34.276  1.00  0.00     0.000 A 
HETATM   19  C   UNL     1      -5.199  -1.361 -33.929  1.00  0.00     0.002 A 
HETATM   20  C   UNL     1      -4.985  -0.233 -33.133  1.00  0.00     0.030 A 
ENDBRANCH  11  15
ENDBRANCH   7   8
ENDBRANCH   3   7
BRANCH   1  21
HETATM   21  C   UNL     1      -0.470   6.250 -29.963  1.00  0.00     0.162 C 
BRANCH  21  22
HETATM   22  C   UNL     1       0.232   6.834 -28.764  1.00  0.00    -0.040 A 
HETATM   23  C   UNL     1       1.010   7.993 -28.901  1.00  0.00     0.009 A 
HETATM   24  C   UNL     1       1.595   8.597 -27.783  1.00  0.00     0.007 A 
HETATM   25  C   UNL     1       1.412   8.056 -26.508  1.00  0.00    -0.062 A 
HETATM   26  C   UNL     1       2.004   8.715 -25.297  1.00  0.00     0.048 C 
HETATM   27  C   UNL     1       0.633   6.903 -26.365  1.00  0.00     0.007 A 
HETATM   28  C   UNL     1       0.043   6.302 -27.480  1.00  0.00     0.009 A 
ENDBRANCH  21  22
ENDBRANCH   1  21
TORSDOF 5
ENDMDL
MODEL 6
REMARK VINA RESULT:      -8.7      2.334      4.023
REMARK  5 active torsions:
REMARK  status: ('A' for Active; 'I' for Inactive)
REMARK    1  A    between atoms: C_5  and  C_6 
REMARK    2  A    between atoms: C_6  and  N_7 
REMARK       I    between atoms: N_7  and  C_8 
REMARK       I    between atoms: C_8  and  N_9 
REMARK    3  A    between atoms: N_9  and  C_10 
REMARK    4  A    between atoms: C_10  and  C_11 
REMARK    5  A    between atoms: N_14  and  C_15 
ROOT
HETATM    1  N   UNL     1      -0.854   5.756 -29.535  1.00  0.00    -0.339 N 
HETATM    2  C   UNL     1      -0.866   5.143 -30.755  1.00  0.00     0.316 C 
HETATM    3  N   UNL     1      -2.129   4.806 -31.152  1.00  0.00    -0.339 N 
HETATM    4  O   UNL     1       0.141   4.902 -31.406  1.00  0.00    -0.247 OA
HETATM    5  H   UNL     1      -1.717   5.886 -29.033  1.00  0.00     0.164 HD
HETATM    6  H   UNL     1      -2.911   5.263 -30.712  1.00  0.00     0.164 HD
ENDROOT
BRANCH   3   7
HETATM    7  C   UNL     1      -2.366   4.182 -32.433  1.00  0.00     0.165 C 
BRANCH   7   8
HETATM    8  C   UNL     1      -3.419   3.118 -32.326  1.00  0.00    -0.016 A 
HETATM    9  C   UNL     1      -4.639   3.114 -32.996  1.00  0.00     0.021 A 
HETATM   10  C   UNL     1      -5.204   4.202 -33.854  1.00  0.00     0.069 C 
HETATM   11  N   UNL     1      -5.316   1.931 -32.702  1.00  0.00    -0.319 N 
HETATM   12  C   UNL     1      -4.543   1.213 -31.793  1.00  0.00     0.014 A 
HETATM   13  C   UNL     1      -4.873  -0.149 -31.284  1.00  0.00     0.068 C 
HETATM   14  C   UNL     1      -3.381   1.925 -31.564  1.00  0.00     0.035 A 
BRANCH  11  15
HETATM   15  C   UNL     1      -6.562   1.514 -33.256  1.00  0.00     0.039 A 
HETATM   16  C   UNL     1      -6.588   0.811 -34.468  1.00  0.00     0.030 A 
HETATM   17  C   UNL     1      -7.806   0.392 -35.008  1.00  0.00     0.002 A 
HETATM   18  C   UNL     1      -8.998   0.673 -34.344  1.00  0.00     0.000 A 
HETATM   19  C   UNL     1      -8.977   1.372 -33.137  1.00  0.00     0.002 A 
HETATM   20  C   UNL     1      -7.761   1.791 -32.590  1.00  0.00     0.030 A 
ENDBRANCH  11  15
ENDBRANCH   7   8
ENDBRANCH   3   7
BRANCH   1  21
HETATM   21  C   UNL     1       0.382   6.082 -28.859  1.00  0.00     0.162 C 
BRANCH  21  22
HETATM   22  C   UNL     1       0.389   7.476 -28.284  1.00  0.00    -0.040 A 
HETATM   23  C   UNL     1      -0.739   8.298 -28.421  1.00  0.00     0.009 A 
HETATM   24  C   UNL     1      -0.781   9.559 -27.819  1.00  0.00     0.007 A 
HETATM   25  C   UNL     1       0.301  10.023 -27.067  1.00  0.00    -0.062 A 
HETATM   26  C   UNL     1       0.253  11.358 -26.386  1.00  0.00     0.048 C 
HETATM   27  C   UNL     1       1.427   9.205 -26.923  1.00  0.00     0.007 A 
HETATM   28  C   UNL     1       1.468   7.942 -27.519  1.00  0.00     0.009 A 
ENDBRANCH  21  22
ENDBRANCH   1  21
TORSDOF 5
ENDMDL
MODEL 7
REMARK VINA RESULT:      -8.4      2.150      9.027
REMARK  5 active torsions:
REMARK  status: ('A' for Active; 'I' for Inactive)
REMARK    1  A    between atoms: C_5  and  C_6 
REMARK    2  A    between atoms: C_6  and  N_7 
REMARK       I    between atoms: N_7  and  C_8 
REMARK       I    between atoms: C_8  and  N_9 
REMARK    3  A    between atoms: N_9  and  C_10 
REMARK    4  A    between atoms: C_10  and  C_11 
REMARK    5  A    between atoms: N_14  and  C_15 
ROOT
HETATM    1  N   UNL     1      -6.573   1.366 -34.204  1.00  0.00    -0.339 N 
HETATM    2  C   UNL     1      -6.815   2.589 -33.646  1.00  0.00     0.316 C 
HETATM    3  N   UNL     1      -6.128   3.589 -34.275  1.00  0.00    -0.339 N 
HETATM    4  O   UNL     1      -7.544   2.765 -32.680  1.00  0.00    -0.247 OA
HETATM    5  H   UNL     1      -5.928   1.287 -34.973  1.00  0.00     0.164 HD
HETATM    6  H   UNL     1      -5.775   3.422 -35.203  1.00  0.00     0.164 HD
ENDROOT
BRANCH   3   7
HETATM    7  C   UNL     1      -6.276   4.966 -33.865  1.00  0.00     0.165 C 
BRANCH   7   8
HETATM    8  C   UNL     1      -5.318   5.303 -32.760  1.00  0.00    -0.016 A 
HETATM    9  C   UNL     1      -3.931   5.315 -32.864  1.00  0.00     0.021 A 
HETATM   10  C   UNL     1      -3.108   4.887 -34.038  1.00  0.00     0.069 C 
HETATM   11  N   UNL     1      -3.387   5.745 -31.654  1.00  0.00    -0.319 N 
HETATM   12  C   UNL     1      -4.437   5.948 -30.764  1.00  0.00     0.014 A 
HETATM   13  C   UNL     1      -4.289   6.487 -29.381  1.00  0.00     0.068 C 
HETATM   14  C   UNL     1      -5.619   5.688 -31.430  1.00  0.00     0.035 A 
BRANCH  11  15
HETATM   15  C   UNL     1      -2.004   5.969 -31.385  1.00  0.00     0.039 A 
HETATM   16  C   UNL     1      -1.204   4.922 -30.910  1.00  0.00     0.030 A 
HETATM   17  C   UNL     1       0.152   5.137 -30.656  1.00  0.00     0.002 A 
HETATM   18  C   UNL     1       0.713   6.394 -30.872  1.00  0.00     0.000 A 
HETATM   19  C   UNL     1      -0.079   7.439 -31.346  1.00  0.00     0.002 A 
HETATM   20  C   UNL     1      -1.437   7.229 -31.605  1.00  0.00     0.030 A 
ENDBRANCH  11  15
ENDBRANCH   7   8
ENDBRANCH   3   7
BRANCH   1  21
HETATM   21  C   UNL     1      -7.089   0.148 -33.620  1.00  0.00     0.162 C 
BRANCH  21  22
HETATM   22  C   UNL     1      -6.179  -1.036 -33.828  1.00  0.00    -0.040 A 
HETATM   23  C   UNL     1      -4.953  -1.108 -33.150  1.00  0.00     0.009 A 
HETATM   24  C   UNL     1      -4.139  -2.239 -33.265  1.00  0.00     0.007 A 
HETATM   25  C   UNL     1      -4.534  -3.320 -34.057  1.00  0.00    -0.062 A 
HETATM   26  C   UNL     1      -3.687  -4.554 -34.158  1.00  0.00     0.048 C 
HETATM   27  C   UNL     1      -5.758  -3.256 -34.731  1.00  0.00     0.007 A 
HETATM   28  C   UNL     1      -6.575  -2.129 -34.612  1.00  0.00     0.009 A 
ENDBRANCH  21  22
ENDBRANCH   1  21
TORSDOF 5
ENDMDL
MODEL 8
REMARK VINA RESULT:      -8.4      2.310      3.763
REMARK  5 active torsions:
REMARK  status: ('A' for Active; 'I' for Inactive)
REMARK    1  A    between atoms: C_5  and  C_6 
REMARK    2  A    between atoms: C_6  and  N_7 
REMARK       I    between atoms: N_7  and  C_8 
REMARK       I    between atoms: C_8  and  N_9 
REMARK    3  A    between atoms: N_9  and  C_10 
REMARK    4  A    between atoms: C_10  and  C_11 
REMARK    5  A    between atoms: N_14  and  C_15 
ROOT
HETATM    1  N   UNL     1      -2.908   5.160 -32.254  1.00  0.00    -0.339 N 
HETATM    2  C   UNL     1      -3.335   3.978 -31.720  1.00  0.00     0.316 C 
HETATM    3  N   UNL     1      -4.690   3.946 -31.550  1.00  0.00    -0.339 N 
HETATM    4  O   UNL     1      -2.586   3.063 -31.409  1.00  0.00    -0.247 OA
HETATM    5  H   UNL     1      -3.575   5.889 -32.449  1.00  0.00     0.164 HD
HETATM    6  H   UNL     1      -5.256   4.601 -32.065  1.00  0.00     0.164 HD
ENDROOT
BRANCH   3   7
HETATM    7  C   UNL     1      -5.348   2.769 -31.035  1.00  0.00     0.165 C 
BRANCH   7   8
HETATM    8  C   UNL     1      -6.268   2.176 -32.062  1.00  0.00    -0.016 A 
HETATM    9  C   UNL     1      -7.658   2.261 -32.052  1.00  0.00     0.021 A 
HETATM   10  C   UNL     1      -8.521   2.844 -30.977  1.00  0.00     0.069 C 
HETATM   11  N   UNL     1      -8.159   1.653 -33.202  1.00  0.00    -0.319 N 
HETATM   12  C   UNL     1      -7.082   1.129 -33.911  1.00  0.00     0.014 A 
HETATM   13  C   UNL     1      -7.181   0.467 -35.244  1.00  0.00     0.068 C 
HETATM   14  C   UNL     1      -5.925   1.449 -33.228  1.00  0.00     0.035 A 
BRANCH  11  15
HETATM   15  C   UNL     1      -9.528   1.604 -33.600  1.00  0.00     0.039 A 
HETATM   16  C   UNL     1     -10.344   0.548 -33.173  1.00  0.00     0.030 A 
HETATM   17  C   UNL     1     -11.687   0.504 -33.553  1.00  0.00     0.002 A 
HETATM   18  C   UNL     1     -12.219   1.509 -34.358  1.00  0.00     0.000 A 
HETATM   19  C   UNL     1     -11.411   2.562 -34.785  1.00  0.00     0.002 A 
HETATM   20  C   UNL     1     -10.067   2.613 -34.405  1.00  0.00     0.030 A 
ENDBRANCH  11  15
ENDBRANCH   7   8
ENDBRANCH   3   7
BRANCH   1  21
HETATM   21  C   UNL     1      -1.502   5.468 -32.400  1.00  0.00     0.162 C 
BRANCH  21  22
HETATM   22  C   UNL     1      -0.897   6.056 -31.150  1.00  0.00    -0.040 A 
HETATM   23  C   UNL     1       0.014   5.307 -30.391  1.00  0.00     0.009 A 
HETATM   24  C   UNL     1       0.650   5.869 -29.280  1.00  0.00     0.007 A 
HETATM   25  C   UNL     1       0.392   7.191 -28.908  1.00  0.00    -0.062 A 
HETATM   26  C   UNL     1       1.097   7.817 -27.742  1.00  0.00     0.048 C 
HETATM   27  C   UNL     1      -0.511   7.945 -29.666  1.00  0.00     0.007 A 
HETATM   28  C   UNL     1      -1.143   7.385 -30.779  1.00  0.00     0.009 A 
ENDBRANCH  21  22
ENDBRANCH   1  21
TORSDOF 5
ENDMDL
MODEL 9
REMARK VINA RESULT:      -8.2      5.606      9.212
REMARK  5 active torsions:
REMARK  status: ('A' for Active; 'I' for Inactive)
REMARK    1  A    between atoms: C_5  and  C_6 
REMARK    2  A    between atoms: C_6  and  N_7 
REMARK       I    between atoms: N_7  and  C_8 
REMARK       I    between atoms: C_8  and  N_9 
REMARK    3  A    between atoms: N_9  and  C_10 
REMARK    4  A    between atoms: C_10  and  C_11 
REMARK    5  A    between atoms: N_14  and  C_15 
ROOT
HETATM    1  N   UNL     1       1.930  10.171 -25.781  1.00  0.00    -0.339 N 
HETATM    2  C   UNL     1       0.677   9.660 -25.969  1.00  0.00     0.316 C 
HETATM    3  N   UNL     1       0.463   9.279 -27.264  1.00  0.00    -0.339 N 
HETATM    4  O   UNL     1      -0.164   9.576 -25.085  1.00  0.00    -0.247 OA
HETATM    5  H   UNL     1       2.559  10.250 -26.563  1.00  0.00     0.164 HD
HETATM    6  H   UNL     1       1.260   9.124 -27.859  1.00  0.00     0.164 HD
ENDROOT
BRANCH   3   7
HETATM    7  C   UNL     1      -0.786   8.676 -27.666  1.00  0.00     0.165 C 
BRANCH   7   8
HETATM    8  C   UNL     1      -0.558   7.600 -28.687  1.00  0.00    -0.016 A 
HETATM    9  C   UNL     1      -1.317   7.399 -29.836  1.00  0.00     0.021 A 
HETATM   10  C   UNL     1      -2.567   8.119 -30.233  1.00  0.00     0.069 C 
HETATM   11  N   UNL     1      -0.760   6.353 -30.572  1.00  0.00    -0.319 N 
HETATM   12  C   UNL     1       0.320   5.853 -29.851  1.00  0.00     0.014 A 
HETATM   13  C   UNL     1       1.238   4.779 -30.327  1.00  0.00     0.068 C 
HETATM   14  C   UNL     1       0.456   6.611 -28.704  1.00  0.00     0.035 A 
BRANCH  11  15
HETATM   15  C   UNL     1      -1.198   5.897 -31.850  1.00  0.00     0.039 A 
HETATM   16  C   UNL     1      -0.866   6.621 -33.003  1.00  0.00     0.030 A 
HETATM   17  C   UNL     1      -1.285   6.170 -34.257  1.00  0.00     0.002 A 
HETATM   18  C   UNL     1      -2.034   5.001 -34.365  1.00  0.00     0.000 A 
HETATM   19  C   UNL     1      -2.366   4.276 -33.221  1.00  0.00     0.002 A 
HETATM   20  C   UNL     1      -1.947   4.721 -31.963  1.00  0.00     0.030 A 
ENDBRANCH  11  15
ENDBRANCH   7   8
ENDBRANCH   3   7
BRANCH   1  21
HETATM   21  C   UNL     1       2.331  10.758 -24.522  1.00  0.00     0.162 C 
BRANCH  21  22
HETATM   22  C   UNL     1       3.143   9.818 -23.667  1.00  0.00    -0.040 A 
HETATM   23  C   UNL     1       2.541   9.149 -22.591  1.00  0.00     0.009 A 
HETATM   24  C   UNL     1       3.257   8.209 -21.844  1.00  0.00     0.007 A 
HETATM   25  C   UNL     1       4.587   7.917 -22.158  1.00  0.00    -0.062 A 
HETATM   26  C   UNL     1       5.354   6.883 -21.388  1.00  0.00     0.048 C 
HETATM   27  C   UNL     1       5.191   8.577 -23.234  1.00  0.00     0.007 A 
HETATM   28  C   UNL     1       4.475   9.512 -23.985  1.00  0.00     0.009 A 
ENDBRANCH  21  22
ENDBRANCH   1  21
TORSDOF 5
ENDMDL
MODEL 10
REMARK VINA RESULT:      -8.2      2.543      4.029
REMARK  5 active torsions:
REMARK  status: ('A' for Active; 'I' for Inactive)
REMARK    1  A    between atoms: C_5  and  C_6 
REMARK    2  A    between atoms: C_6  and  N_7 
REMARK       I    between atoms: N_7  and  C_8 
REMARK       I    between atoms: C_8  and  N_9 
REMARK    3  A    between atoms: N_9  and  C_10 
REMARK    4  A    between atoms: C_10  and  C_11 
REMARK    5  A    between atoms: N_14  and  C_15 
ROOT
HETATM    1  N   UNL     1      -0.764   5.776 -29.329  1.00  0.00    -0.339 N 
HETATM    2  C   UNL     1      -0.668   5.163 -30.545  1.00  0.00     0.316 C 
HETATM    3  N   UNL     1      -1.886   5.009 -31.144  1.00  0.00    -0.339 N 
HETATM    4  O   UNL     1       0.386   4.776 -31.032  1.00  0.00    -0.247 OA
HETATM    5  H   UNL     1      -1.669   6.031 -28.969  1.00  0.00     0.164 HD
HETATM    6  H   UNL     1      -2.655   5.576 -30.827  1.00  0.00     0.164 HD
ENDROOT
BRANCH   3   7
HETATM    7  C   UNL     1      -2.001   4.418 -32.457  1.00  0.00     0.165 C 
BRANCH   7   8
HETATM    8  C   UNL     1      -3.436   4.140 -32.797  1.00  0.00    -0.016 A 
HETATM    9  C   UNL     1      -4.079   2.913 -32.661  1.00  0.00     0.021 A 
HETATM   10  C   UNL     1      -3.462   1.607 -32.270  1.00  0.00     0.069 C 
HETATM   11  N   UNL     1      -5.421   3.062 -33.008  1.00  0.00    -0.319 N 
HETATM   12  C   UNL     1      -5.611   4.377 -33.422  1.00  0.00     0.014 A 
HETATM   13  C   UNL     1      -6.926   4.969 -33.800  1.00  0.00     0.068 C 
HETATM   14  C   UNL     1      -4.409   5.044 -33.290  1.00  0.00     0.035 A 
BRANCH  11  15
HETATM   15  C   UNL     1      -6.429   2.056 -32.922  1.00  0.00     0.039 A 
HETATM   16  C   UNL     1      -7.146   1.883 -31.731  1.00  0.00     0.030 A 
HETATM   17  C   UNL     1      -8.140   0.906 -31.649  1.00  0.00     0.002 A 
HETATM   18  C   UNL     1      -8.421   0.100 -32.750  1.00  0.00     0.000 A 
HETATM   19  C   UNL     1      -7.711   0.269 -33.938  1.00  0.00     0.002 A 
HETATM   20  C   UNL     1      -6.717   1.247 -34.027  1.00  0.00     0.030 A 
ENDBRANCH  11  15
ENDBRANCH   7   8
ENDBRANCH   3   7
BRANCH   1  21
HETATM   21  C   UNL     1       0.382   5.924 -28.458  1.00  0.00     0.162 C 
BRANCH  21  22
HETATM   22  C   UNL     1       0.476   7.296 -27.840  1.00  0.00    -0.040 A 
HETATM   23  C   UNL     1       1.560   7.620 -27.011  1.00  0.00     0.009 A 
HETATM   24  C   UNL     1       1.708   8.913 -26.500  1.00  0.00     0.007 A 
HETATM   25  C   UNL     1       0.778   9.909 -26.811  1.00  0.00    -0.062 A 
HETATM   26  C   UNL     1       0.946  11.310 -26.301  1.00  0.00     0.048 C 
HETATM   27  C   UNL     1      -0.302   9.593 -27.642  1.00  0.00     0.007 A 
HETATM   28  C   UNL     1      -0.448   8.302 -28.157  1.00  0.00     0.009 A 
ENDBRANCH  21  22
ENDBRANCH   1  21
TORSDOF 5
ENDMDL
