MODEL 1
REMARK VINA RESULT:     -10.7      0.000      0.000
REMARK  8 active torsions:
REMARK  status: ('A' for Active; 'I' for Inactive)
REMARK    1  A    between atoms: C_4  and  N_5 
REMARK       I    between atoms: N_5  and  C_6 
REMARK    2  A    between atoms: C_6  and  C_7 
REMARK    3  A    between atoms: C_7  and  N_8 
REMARK    4  A    between atoms: N_11  and  C_12 
REMARK    5  A    between atoms: C_12  and  C_13 
REMARK    6  A    between atoms: C_16  and  C_17 
REMARK       I    between atoms: C_17  and  N_18 
REMARK    7  A    between atoms: N_18  and  C_19 
REMARK    8  A    between atoms: C_19  and  C_20 
ROOT
HETATM    1  N   UNL     1      -2.457   8.200 -29.550  1.00  0.00    -0.290 N 
HETATM    2  C   UNL     1      -2.333   7.937 -30.919  1.00  0.00     0.332 C 
HETATM    3  O   UNL     1      -3.201   8.309 -31.708  1.00  0.00    -0.246 OA
HETATM    4  N   UNL     1      -1.200   7.237 -31.320  1.00  0.00    -0.261 N 
HETATM    5  C   UNL     1      -0.064   7.096 -30.543  1.00  0.00     0.264 C 
HETATM    6  O   UNL     1       0.946   6.492 -30.895  1.00  0.00    -0.267 OA
HETATM    7  C   UNL     1      -0.074   7.775 -29.241  1.00  0.00     0.059 A 
HETATM    8  C   UNL     1      -1.270   8.307 -28.755  1.00  0.00     0.055 A 
HETATM    9  C   UNL     1       1.137   7.924 -28.545  1.00  0.00     0.019 A 
HETATM   10  C   UNL     1       1.169   8.626 -27.346  1.00  0.00     0.001 A 
HETATM   11  C   UNL     1      -0.010   9.158 -26.838  1.00  0.00     0.002 A 
HETATM   12  C   UNL     1      -1.219   8.993 -27.530  1.00  0.00     0.031 A 
ENDROOT
BRANCH   4  13
HETATM   13  C   UNL     1      -1.099   6.830 -32.721  1.00  0.00     0.175 C 
BRANCH  13  14
HETATM   14  C   UNL     1      -2.167   5.839 -33.123  1.00  0.00    -0.040 A 
HETATM   15  C   UNL     1      -2.980   6.118 -34.233  1.00  0.00     0.010 A 
HETATM   16  C   UNL     1      -4.089   5.328 -34.507  1.00  0.00     0.017 A 
HETATM   17  C   UNL     1      -4.392   4.249 -33.672  1.00  0.00     0.032 A 
HETATM   18  C   UNL     1      -3.533   3.900 -32.626  1.00  0.00     0.017 A 
HETATM   19  C   UNL     1      -2.420   4.695 -32.351  1.00  0.00     0.010 A 
BRANCH  17  20
HETATM   20  C   UNL     1      -5.687   3.539 -33.809  1.00  0.00     0.251 C 
HETATM   21  N   UNL     1      -5.622   2.193 -33.510  1.00  0.00    -0.353 N 
HETATM   22  H   UNL     1      -4.708   1.786 -33.373  1.00  0.00     0.163 HD
HETATM   23  O   UNL     1      -6.678   4.118 -34.234  1.00  0.00    -0.268 OA
BRANCH  21  24
HETATM   24  C   UNL     1      -6.669   1.284 -33.905  1.00  0.00     0.161 C 
BRANCH  24  25
HETATM   25  C   UNL     1      -6.199  -0.173 -33.896  1.00  0.00    -0.038 A 
HETATM   26  C   UNL     1      -5.092  -0.536 -33.042  1.00  0.00     0.048 A 
HETATM   27  C   UNL     1      -4.784  -1.859 -33.218  1.00  0.00     0.105 A 
HETATM   28  C   UNL     1      -5.731  -2.878 -34.352  1.00  0.00     0.105 A 
HETATM   29  O   UNL     1      -3.304  -3.043 -32.533  1.00  0.00    -0.323 OA
HETATM   30  O   UNL     1      -5.058  -4.533 -34.484  1.00  0.00    -0.323 OA
HETATM   31  C   UNL     1      -6.777  -2.464 -35.092  1.00  0.00     0.040 A 
HETATM   32  C   UNL     1      -3.531  -4.774 -33.388  1.00  0.00     0.352 A 
HETATM   33  C   UNL     1      -6.981  -1.091 -34.830  1.00  0.00     0.012 A 
ENDBRANCH  24  25
ENDBRANCH  21  24
ENDBRANCH  17  20
ENDBRANCH  13  14
ENDBRANCH   4  13
BRANCH   1  34
HETATM   34  C   UNL     1      -3.677   8.918 -29.159  1.00  0.00     0.237 C 
BRANCH  34  35
HETATM   35  C   UNL     1      -4.970   8.129 -28.848  1.00  0.00     0.240 C 
HETATM   36  N   UNL     1      -5.526   7.455 -29.922  1.00  0.00    -0.326 N 
HETATM   37  H   UNL     1      -5.227   7.724 -30.850  1.00  0.00     0.169 HD
HETATM   38  O   UNL     1      -5.295   7.980 -27.669  1.00  0.00    -0.271 OA
BRANCH  36  39
HETATM   39  C   UNL     1      -6.405   6.335 -29.851  1.00  0.00     0.035 A 
HETATM   40  C   UNL     1      -5.781   4.721 -29.854  1.00  0.00     0.036 A 
HETATM   41  C   UNL     1      -6.710   3.302 -29.973  1.00  0.00    -0.060 A 
HETATM   42  C   UNL     1      -6.075   1.959 -30.062  1.00  0.00     0.048 C 
HETATM   43  C   UNL     1      -8.426   3.485 -30.116  1.00  0.00     0.007 A 
HETATM   44  C   UNL     1      -9.193   5.400 -30.086  1.00  0.00     0.003 A 
HETATM   45  C   UNL     1      -8.062   6.719 -29.935  1.00  0.00     0.029 A 
ENDBRANCH  36  39
ENDBRANCH  34  35
ENDBRANCH   1  34
TORSDOF 8
ENDMDL
MODEL 2
REMARK VINA RESULT:     -10.6      2.458      9.988
REMARK  8 active torsions:
REMARK  status: ('A' for Active; 'I' for Inactive)
REMARK    1  A    between atoms: C_4  and  N_5 
REMARK       I    between atoms: N_5  and  C_6 
REMARK    2  A    between atoms: C_6  and  C_7 
REMARK    3  A    between atoms: C_7  and  N_8 
REMARK    4  A    between atoms: N_11  and  C_12 
REMARK    5  A    between atoms: C_12  and  C_13 
REMARK    6  A    between atoms: C_16  and  C_17 
REMARK       I    between atoms: C_17  and  N_18 
REMARK    7  A    between atoms: N_18  and  C_19 
REMARK    8  A    between atoms: C_19  and  C_20 
ROOT
HETATM    1  N   UNL     1      -6.164  -1.276 -33.703  1.00  0.00    -0.290 N 
HETATM    2  C   UNL     1      -5.941  -0.511 -32.553  1.00  0.00     0.332 C 
HETATM    3  O   UNL     1      -6.826   0.217 -32.105  1.00  0.00    -0.246 OA
HETATM    4  N   UNL     1      -4.683  -0.615 -31.968  1.00  0.00    -0.261 N 
HETATM    5  C   UNL     1      -3.794  -1.642 -32.226  1.00  0.00     0.264 C 
HETATM    6  O   UNL     1      -2.687  -1.749 -31.704  1.00  0.00    -0.267 OA
HETATM    7  C   UNL     1      -4.256  -2.691 -33.145  1.00  0.00     0.059 A 
HETATM    8  C   UNL     1      -5.425  -2.492 -33.880  1.00  0.00     0.055 A 
HETATM    9  C   UNL     1      -3.536  -3.896 -33.214  1.00  0.00     0.019 A 
HETATM   10  C   UNL     1      -3.990  -4.933 -34.020  1.00  0.00     0.001 A 
HETATM   11  C   UNL     1      -5.149  -4.755 -34.767  1.00  0.00     0.002 A 
HETATM   12  C   UNL     1      -5.854  -3.544 -34.706  1.00  0.00     0.031 A 
ENDROOT
BRANCH   4  13
HETATM   13  C   UNL     1      -4.369   0.266 -30.844  1.00  0.00     0.175 C 
BRANCH  13  14
HETATM   14  C   UNL     1      -4.214   1.712 -31.256  1.00  0.00    -0.040 A 
HETATM   15  C   UNL     1      -3.308   2.042 -32.277  1.00  0.00     0.010 A 
HETATM   16  C   UNL     1      -3.002   3.371 -32.541  1.00  0.00     0.017 A 
HETATM   17  C   UNL     1      -3.603   4.382 -31.786  1.00  0.00     0.032 A 
HETATM   18  C   UNL     1      -4.582   4.071 -30.838  1.00  0.00     0.017 A 
HETATM   19  C   UNL     1      -4.887   2.736 -30.573  1.00  0.00     0.010 A 
BRANCH  17  20
HETATM   20  C   UNL     1      -3.122   5.781 -31.894  1.00  0.00     0.251 C 
HETATM   21  N   UNL     1      -1.748   5.895 -31.973  1.00  0.00    -0.353 N 
HETATM   22  H   UNL     1      -1.197   5.065 -31.807  1.00  0.00     0.163 HD
HETATM   23  O   UNL     1      -3.904   6.720 -31.831  1.00  0.00    -0.268 OA
BRANCH  21  24
HETATM   24  C   UNL     1      -1.084   7.155 -31.743  1.00  0.00     0.161 C 
BRANCH  24  25
HETATM   25  C   UNL     1      -0.792   7.389 -30.260  1.00  0.00    -0.038 A 
HETATM   26  C   UNL     1      -1.505   8.440 -29.572  1.00  0.00     0.048 A 
HETATM   27  C   UNL     1      -1.065   8.532 -28.278  1.00  0.00     0.105 A 
HETATM   28  C   UNL     1       0.195   7.414 -27.658  1.00  0.00     0.105 A 
HETATM   29  O   UNL     1      -1.437   9.819 -26.773  1.00  0.00    -0.323 OA
HETATM   30  O   UNL     1       0.673   7.815 -25.978  1.00  0.00    -0.323 OA
HETATM   31  C   UNL     1       0.789   6.433 -28.362  1.00  0.00     0.040 A 
HETATM   32  C   UNL     1      -0.280   9.305 -25.298  1.00  0.00     0.352 A 
HETATM   33  C   UNL     1       0.260   6.454 -29.671  1.00  0.00     0.012 A 
ENDBRANCH  24  25
ENDBRANCH  21  24
ENDBRANCH  17  20
ENDBRANCH  13  14
ENDBRANCH   4  13
BRANCH   1  34
HETATM   34  C   UNL     1      -7.493  -1.124 -34.309  1.00  0.00     0.237 C 
BRANCH  34  35
HETATM   35  C   UNL     1      -7.917   0.239 -34.904  1.00  0.00     0.240 C 
HETATM   36  N   UNL     1      -8.868   0.934 -34.176  1.00  0.00    -0.326 N 
HETATM   37  H   UNL     1      -9.399   0.419 -33.486  1.00  0.00     0.169 HD
HETATM   38  O   UNL     1      -7.257   0.701 -35.836  1.00  0.00    -0.271 OA
BRANCH  36  39
HETATM   39  C   UNL     1      -9.104   2.339 -34.223  1.00  0.00     0.035 A 
HETATM   40  C   UNL     1      -7.920   3.454 -33.631  1.00  0.00     0.036 A 
HETATM   41  C   UNL     1      -8.146   5.128 -33.442  1.00  0.00    -0.060 A 
HETATM   42  C   UNL     1      -7.097   5.993 -32.836  1.00  0.00     0.048 C 
HETATM   43  C   UNL     1      -9.696   5.774 -33.867  1.00  0.00     0.007 A 
HETATM   44  C   UNL     1     -11.112   4.466 -34.601  1.00  0.00     0.003 A 
HETATM   45  C   UNL     1     -10.666   2.786 -34.734  1.00  0.00     0.029 A 
ENDBRANCH  36  39
ENDBRANCH  34  35
ENDBRANCH   1  34
TORSDOF 8
ENDMDL
MODEL 3
REMARK VINA RESULT:     -10.1      1.366      2.226
REMARK  8 active torsions:
REMARK  status: ('A' for Active; 'I' for Inactive)
REMARK    1  A    between atoms: C_4  and  N_5 
REMARK       I    between atoms: N_5  and  C_6 
REMARK    2  A    between atoms: C_6  and  C_7 
REMARK    3  A    between atoms: C_7  and  N_8 
REMARK    4  A    between atoms: N_11  and  C_12 
REMARK    5  A    between atoms: C_12  and  C_13 
REMARK    6  A    between atoms: C_16  and  C_17 
REMARK       I    between atoms: C_17  and  N_18 
REMARK    7  A    between atoms: N_18  and  C_19 
REMARK    8  A    between atoms: C_19  and  C_20 
ROOT
HETATM    1  N   UNL     1      -2.041   8.711 -29.840  1.00  0.00    -0.290 N 
HETATM    2  C   UNL     1      -1.836   8.245 -31.143  1.00  0.00     0.332 C 
HETATM    3  O   UNL     1      -2.430   8.759 -32.091  1.00  0.00    -0.246 OA
HETATM    4  N   UNL     1      -0.948   7.185 -31.296  1.00  0.00    -0.261 N 
HETATM    5  C   UNL     1      -0.027   6.806 -30.336  1.00  0.00     0.264 C 
HETATM    6  O   UNL     1       0.770   5.880 -30.469  1.00  0.00    -0.267 OA
HETATM    7  C   UNL     1       0.018   7.620 -29.115  1.00  0.00     0.059 A 
HETATM    8  C   UNL     1      -0.993   8.552 -28.875  1.00  0.00     0.055 A 
HETATM    9  C   UNL     1       1.115   7.480 -28.247  1.00  0.00     0.019 A 
HETATM   10  C   UNL     1       1.220   8.288 -27.122  1.00  0.00     0.001 A 
HETATM   11  C   UNL     1       0.221   9.218 -26.858  1.00  0.00     0.002 A 
HETATM   12  C   UNL     1      -0.878   9.343 -27.720  1.00  0.00     0.031 A 
ENDROOT
BRANCH   4  13
HETATM   13  C   UNL     1      -0.808   6.586 -32.623  1.00  0.00     0.175 C 
BRANCH  13  14
HETATM   14  C   UNL     1      -1.930   5.631 -32.958  1.00  0.00    -0.040 A 
HETATM   15  C   UNL     1      -2.838   5.968 -33.974  1.00  0.00     0.010 A 
HETATM   16  C   UNL     1      -3.985   5.209 -34.170  1.00  0.00     0.017 A 
HETATM   17  C   UNL     1      -4.231   4.104 -33.351  1.00  0.00     0.032 A 
HETATM   18  C   UNL     1      -3.285   3.699 -32.405  1.00  0.00     0.017 A 
HETATM   19  C   UNL     1      -2.134   4.463 -32.208  1.00  0.00     0.010 A 
BRANCH  17  20
HETATM   20  C   UNL     1      -5.549   3.423 -33.391  1.00  0.00     0.251 C 
HETATM   21  N   UNL     1      -5.806   2.638 -32.285  1.00  0.00    -0.353 N 
HETATM   22  H   UNL     1      -5.049   2.478 -31.635  1.00  0.00     0.163 HD
HETATM   23  O   UNL     1      -6.271   3.513 -34.374  1.00  0.00    -0.268 OA
BRANCH  21  24
HETATM   24  C   UNL     1      -6.856   1.650 -32.293  1.00  0.00     0.161 C 
BRANCH  24  25
HETATM   25  C   UNL     1      -6.369   0.298 -32.818  1.00  0.00    -0.038 A 
HETATM   26  C   UNL     1      -5.290  -0.365 -32.123  1.00  0.00     0.048 A 
HETATM   27  C   UNL     1      -4.959  -1.524 -32.774  1.00  0.00     0.105 A 
HETATM   28  C   UNL     1      -5.852  -2.035 -34.245  1.00  0.00     0.105 A 
HETATM   29  O   UNL     1      -3.491  -2.883 -32.531  1.00  0.00    -0.323 OA
HETATM   30  O   UNL     1      -5.154  -3.519 -34.967  1.00  0.00    -0.323 OA
HETATM   31  C   UNL     1      -6.875  -1.369 -34.813  1.00  0.00     0.040 A 
HETATM   32  C   UNL     1      -3.666  -4.160 -33.986  1.00  0.00     0.352 A 
HETATM   33  C   UNL     1      -7.105  -0.197 -34.059  1.00  0.00     0.012 A 
ENDBRANCH  24  25
ENDBRANCH  21  24
ENDBRANCH  17  20
ENDBRANCH  13  14
ENDBRANCH   4  13
BRANCH   1  34
HETATM   34  C   UNL     1      -3.002   9.813 -29.712  1.00  0.00     0.237 C 
BRANCH  34  35
HETATM   35  C   UNL     1      -4.520   9.517 -29.713  1.00  0.00     0.240 C 
HETATM   36  N   UNL     1      -5.112   9.454 -30.963  1.00  0.00    -0.326 N 
HETATM   37  H   UNL     1      -4.605   9.854 -31.742  1.00  0.00     0.169 HD
HETATM   38  O   UNL     1      -5.045   9.157 -28.658  1.00  0.00    -0.271 OA
BRANCH  36  39
HETATM   39  C   UNL     1      -6.326   8.783 -31.289  1.00  0.00     0.035 A 
HETATM   40  C   UNL     1      -7.857   9.514 -30.949  1.00  0.00     0.036 A 
HETATM   41  C   UNL     1      -9.371   8.754 -31.099  1.00  0.00    -0.060 A 
HETATM   42  C   UNL     1     -10.630   9.436 -30.692  1.00  0.00     0.048 C 
HETATM   43  C   UNL     1      -9.383   7.104 -31.626  1.00  0.00     0.007 A 
HETATM   44  C   UNL     1      -7.569   6.223 -32.063  1.00  0.00     0.003 A 
HETATM   45  C   UNL     1      -6.134   7.191 -31.860  1.00  0.00     0.029 A 
ENDBRANCH  36  39
ENDBRANCH  34  35
ENDBRANCH   1  34
TORSDOF 8
ENDMDL
MODEL 4
REMARK VINA RESULT:     -10.1      2.629     10.243
REMARK  8 active torsions:
REMARK  status: ('A' for Active; 'I' for Inactive)
REMARK    1  A    between atoms: C_4  and  N_5 
REMARK       I    between atoms: N_5  and  C_6 
REMARK    2  A    between atoms: C_6  and  C_7 
REMARK    3  A    between atoms: C_7  and  N_8 
REMARK    4  A    between atoms: N_11  and  C_12 
REMARK    5  A    between atoms: C_12  and  C_13 
REMARK    6  A    between atoms: C_16  and  C_17 
REMARK       I    between atoms: C_17  and  N_18 
REMARK    7  A    between atoms: N_18  and  C_19 
REMARK    8  A    between atoms: C_19  and  C_20 
ROOT
HETATM    1  N   UNL     1      -7.119  -0.561 -33.142  1.00  0.00    -0.290 N 
HETATM    2  C   UNL     1      -6.608   0.010 -31.972  1.00  0.00     0.332 C 
HETATM    3  O   UNL     1      -7.359   0.547 -31.158  1.00  0.00    -0.246 OA
HETATM    4  N   UNL     1      -5.229  -0.056 -31.795  1.00  0.00    -0.261 N 
HETATM    5  C   UNL     1      -4.402  -0.918 -32.493  1.00  0.00     0.264 C 
HETATM    6  O   UNL     1      -3.186  -0.992 -32.333  1.00  0.00    -0.267 OA
HETATM    7  C   UNL     1      -5.058  -1.833 -33.436  1.00  0.00     0.059 A 
HETATM    8  C   UNL     1      -6.401  -1.638 -33.759  1.00  0.00     0.055 A 
HETATM    9  C   UNL     1      -4.327  -2.921 -33.943  1.00  0.00     0.019 A 
HETATM   10  C   UNL     1      -4.943  -3.844 -34.780  1.00  0.00     0.001 A 
HETATM   11  C   UNL     1      -6.278  -3.665 -35.122  1.00  0.00     0.002 A 
HETATM   12  C   UNL     1      -6.998  -2.569 -34.624  1.00  0.00     0.031 A 
ENDROOT
BRANCH   4  13
HETATM   13  C   UNL     1      -4.644   0.643 -30.652  1.00  0.00     0.175 C 
BRANCH  13  14
HETATM   14  C   UNL     1      -4.418   2.114 -30.915  1.00  0.00    -0.040 A 
HETATM   15  C   UNL     1      -3.307   2.512 -31.675  1.00  0.00     0.010 A 
HETATM   16  C   UNL     1      -2.966   3.856 -31.768  1.00  0.00     0.017 A 
HETATM   17  C   UNL     1      -3.737   4.813 -31.102  1.00  0.00     0.032 A 
HETATM   18  C   UNL     1      -4.904   4.438 -30.429  1.00  0.00     0.017 A 
HETATM   19  C   UNL     1      -5.244   3.088 -30.335  1.00  0.00     0.010 A 
BRANCH  17  20
HETATM   20  C   UNL     1      -3.263   6.214 -31.000  1.00  0.00     0.251 C 
HETATM   21  N   UNL     1      -2.881   6.583 -29.725  1.00  0.00    -0.353 N 
HETATM   22  H   UNL     1      -3.087   5.945 -28.969  1.00  0.00     0.163 HD
HETATM   23  O   UNL     1      -3.303   6.963 -31.966  1.00  0.00    -0.268 OA
BRANCH  21  24
HETATM   24  C   UNL     1      -2.720   7.969 -29.360  1.00  0.00     0.161 C 
BRANCH  24  25
HETATM   25  C   UNL     1      -1.529   8.182 -28.423  1.00  0.00    -0.038 A 
HETATM   26  C   UNL     1      -1.775   8.727 -27.108  1.00  0.00     0.048 A 
HETATM   27  C   UNL     1      -0.587   8.899 -26.446  1.00  0.00     0.105 A 
HETATM   28  C   UNL     1       0.966   8.433 -27.216  1.00  0.00     0.105 A 
HETATM   29  O   UNL     1      -0.088   9.738 -24.683  1.00  0.00    -0.323 OA
HETATM   30  O   UNL     1       2.373   8.862 -26.193  1.00  0.00    -0.323 OA
HETATM   31  C   UNL     1       1.103   7.897 -28.444  1.00  0.00     0.040 A 
HETATM   32  C   UNL     1       1.851   9.686 -24.568  1.00  0.00     0.352 A 
HETATM   33  C   UNL     1      -0.182   7.786 -29.018  1.00  0.00     0.012 A 
ENDBRANCH  24  25
ENDBRANCH  21  24
ENDBRANCH  17  20
ENDBRANCH  13  14
ENDBRANCH   4  13
BRANCH   1  34
HETATM   34  C   UNL     1      -8.574  -0.452 -33.309  1.00  0.00     0.237 C 
BRANCH  34  35
HETATM   35  C   UNL     1      -9.217   0.927 -33.587  1.00  0.00     0.240 C 
HETATM   36  N   UNL     1      -9.989   1.440 -32.559  1.00  0.00    -0.326 N 
HETATM   37  H   UNL     1     -10.295   0.799 -31.838  1.00  0.00     0.169 HD
HETATM   38  O   UNL     1      -8.844   1.556 -34.579  1.00  0.00    -0.271 OA
BRANCH  36  39
HETATM   39  C   UNL     1     -10.313   2.812 -32.351  1.00  0.00     0.035 A 
HETATM   40  C   UNL     1     -11.549   3.580 -33.288  1.00  0.00     0.036 A 
HETATM   41  C   UNL     1     -11.901   5.243 -33.288  1.00  0.00    -0.060 A 
HETATM   42  C   UNL     1     -12.923   5.824 -34.201  1.00  0.00     0.048 C 
HETATM   43  C   UNL     1     -10.936   6.259 -32.271  1.00  0.00     0.007 A 
HETATM   44  C   UNL     1      -9.476   5.360 -31.123  1.00  0.00     0.003 A 
HETATM   45  C   UNL     1      -9.294   3.632 -31.260  1.00  0.00     0.029 A 
ENDBRANCH  36  39
ENDBRANCH  34  35
ENDBRANCH   1  34
TORSDOF 8
ENDMDL
MODEL 5
REMARK VINA RESULT:     -10.0      3.155     10.149
REMARK  8 active torsions:
REMARK  status: ('A' for Active; 'I' for Inactive)
REMARK    1  A    between atoms: C_4  and  N_5 
REMARK       I    between atoms: N_5  and  C_6 
REMARK    2  A    between atoms: C_6  and  C_7 
REMARK    3  A    between atoms: C_7  and  N_8 
REMARK    4  A    between atoms: N_11  and  C_12 
REMARK    5  A    between atoms: C_12  and  C_13 
REMARK    6  A    between atoms: C_16  and  C_17 
REMARK       I    between atoms: C_17  and  N_18 
REMARK    7  A    between atoms: N_18  and  C_19 
REMARK    8  A    between atoms: C_19  and  C_20 
ROOT
HETATM    1  N   UNL     1     -10.754   3.280 -33.027  1.00  0.00    -0.290 N 
HETATM    2  C   UNL     1      -9.733   4.196 -33.301  1.00  0.00     0.332 C 
HETATM    3  O   UNL     1      -9.021   4.060 -34.296  1.00  0.00    -0.246 OA
HETATM    4  N   UNL     1      -9.568   5.239 -32.395  1.00  0.00    -0.261 N 
HETATM    5  C   UNL     1     -10.527   5.617 -31.472  1.00  0.00     0.264 C 
HETATM    6  O   UNL     1     -10.395   6.545 -30.678  1.00  0.00    -0.267 OA
HETATM    7  C   UNL     1     -11.797   4.881 -31.509  1.00  0.00     0.059 A 
HETATM    8  C   UNL     1     -11.893   3.718 -32.274  1.00  0.00     0.055 A 
HETATM    9  C   UNL     1     -12.903   5.404 -30.817  1.00  0.00     0.019 A 
HETATM   10  C   UNL     1     -14.136   4.767 -30.894  1.00  0.00     0.001 A 
HETATM   11  C   UNL     1     -14.253   3.603 -31.643  1.00  0.00     0.002 A 
HETATM   12  C   UNL     1     -13.142   3.078 -32.318  1.00  0.00     0.031 A 
ENDROOT
BRANCH   4  13
HETATM   13  C   UNL     1      -8.430   6.139 -32.576  1.00  0.00     0.175 C 
BRANCH  13  14
HETATM   14  C   UNL     1      -7.099   5.449 -32.387  1.00  0.00    -0.040 A 
HETATM   15  C   UNL     1      -6.829   4.798 -31.172  1.00  0.00     0.010 A 
HETATM   16  C   UNL     1      -5.551   4.327 -30.898  1.00  0.00     0.017 A 
HETATM   17  C   UNL     1      -4.532   4.503 -31.838  1.00  0.00     0.032 A 
HETATM   18  C   UNL     1      -4.813   5.056 -33.091  1.00  0.00     0.017 A 
HETATM   19  C   UNL     1      -6.097   5.530 -33.365  1.00  0.00     0.010 A 
BRANCH  17  20
HETATM   20  C   UNL     1      -3.123   4.217 -31.474  1.00  0.00     0.251 C 
HETATM   21  N   UNL     1      -2.492   5.258 -30.823  1.00  0.00    -0.353 N 
HETATM   22  H   UNL     1      -2.972   6.147 -30.781  1.00  0.00     0.163 HD
HETATM   23  O   UNL     1      -2.586   3.172 -31.816  1.00  0.00    -0.268 OA
BRANCH  21  24
HETATM   24  C   UNL     1      -1.056   5.306 -30.696  1.00  0.00     0.161 C 
BRANCH  24  25
HETATM   25  C   UNL     1      -0.601   6.393 -29.720  1.00  0.00    -0.038 A 
HETATM   26  C   UNL     1       0.497   6.103 -28.828  1.00  0.00     0.048 A 
HETATM   27  C   UNL     1       0.716   7.171 -27.997  1.00  0.00     0.105 A 
HETATM   28  C   UNL     1      -0.275   8.661 -28.141  1.00  0.00     0.105 A 
HETATM   29  O   UNL     1       1.924   7.474 -26.413  1.00  0.00    -0.323 OA
HETATM   30  O   UNL     1       0.132   9.858 -26.871  1.00  0.00    -0.323 OA
HETATM   31  C   UNL     1      -1.267   8.861 -29.029  1.00  0.00     0.040 A 
HETATM   32  C   UNL     1       1.504   9.240 -25.719  1.00  0.00     0.352 A 
HETATM   33  C   UNL     1      -1.397   7.691 -29.809  1.00  0.00     0.012 A 
ENDBRANCH  24  25
ENDBRANCH  21  24
ENDBRANCH  17  20
ENDBRANCH  13  14
ENDBRANCH   4  13
BRANCH   1  34
HETATM   34  C   UNL     1     -10.883   2.179 -33.989  1.00  0.00     0.237 C 
BRANCH  34  35
HETATM   35  C   UNL     1      -9.900   0.987 -33.934  1.00  0.00     0.240 C 
HETATM   36  N   UNL     1      -8.733   1.146 -34.662  1.00  0.00    -0.326 N 
HETATM   37  H   UNL     1      -8.715   1.872 -35.366  1.00  0.00     0.169 HD
HETATM   38  O   UNL     1     -10.108   0.096 -33.109  1.00  0.00    -0.271 OA
BRANCH  36  39
HETATM   39  C   UNL     1      -7.504   0.457 -34.448  1.00  0.00     0.035 A 
HETATM   40  C   UNL     1      -7.310  -1.183 -34.967  1.00  0.00     0.036 A 
HETATM   41  C   UNL     1      -5.984  -2.184 -34.604  1.00  0.00    -0.060 A 
HETATM   42  C   UNL     1      -5.950  -3.613 -35.017  1.00  0.00     0.048 C 
HETATM   43  C   UNL     1      -4.725  -1.511 -33.623  1.00  0.00     0.007 A 
HETATM   44  C   UNL     1      -4.925   0.451 -33.018  1.00  0.00     0.003 A 
HETATM   45  C   UNL     1      -6.358   1.307 -33.520  1.00  0.00     0.029 A 
ENDBRANCH  36  39
ENDBRANCH  34  35
ENDBRANCH   1  34
TORSDOF 8
ENDMDL
MODEL 6
REMARK VINA RESULT:      -9.9      2.260      9.826
REMARK  8 active torsions:
REMARK  status: ('A' for Active; 'I' for Inactive)
REMARK    1  A    between atoms: C_4  and  N_5 
REMARK       I    between atoms: N_5  and  C_6 
REMARK    2  A    between atoms: C_6  and  C_7 
REMARK    3  A    between atoms: C_7  and  N_8 
REMARK    4  A    between atoms: N_11  and  C_12 
REMARK    5  A    between atoms: C_12  and  C_13 
REMARK    6  A    between atoms: C_16  and  C_17 
REMARK       I    between atoms: C_17  and  N_18 
REMARK    7  A    between atoms: N_18  and  C_19 
REMARK    8  A    between atoms: C_19  and  C_20 
ROOT
HETATM    1  N   UNL     1      -7.132  -0.415 -33.143  1.00  0.00    -0.290 N 
HETATM    2  C   UNL     1      -6.520   0.213 -32.053  1.00  0.00     0.332 C 
HETATM    3  O   UNL     1      -7.196   0.807 -31.213  1.00  0.00    -0.246 OA
HETATM    4  N   UNL     1      -5.133   0.135 -31.985  1.00  0.00    -0.261 N 
HETATM    5  C   UNL     1      -4.375  -0.778 -32.696  1.00  0.00     0.264 C 
HETATM    6  O   UNL     1      -3.152  -0.863 -32.631  1.00  0.00    -0.267 OA
HETATM    7  C   UNL     1      -5.116  -1.735 -33.529  1.00  0.00     0.059 A 
HETATM    8  C   UNL     1      -6.480  -1.536 -33.752  1.00  0.00     0.055 A 
HETATM    9  C   UNL     1      -4.442  -2.861 -34.031  1.00  0.00     0.019 A 
HETATM   10  C   UNL     1      -5.134  -3.819 -34.760  1.00  0.00     0.001 A 
HETATM   11  C   UNL     1      -6.491  -3.639 -35.002  1.00  0.00     0.002 A 
HETATM   12  C   UNL     1      -7.155  -2.505 -34.512  1.00  0.00     0.031 A 
ENDROOT
BRANCH   4  13
HETATM   13  C   UNL     1      -4.448   0.888 -30.934  1.00  0.00     0.175 C 
BRANCH  13  14
HETATM   14  C   UNL     1      -4.183   2.325 -31.320  1.00  0.00    -0.040 A 
HETATM   15  C   UNL     1      -3.220   2.606 -32.302  1.00  0.00     0.010 A 
HETATM   16  C   UNL     1      -2.817   3.914 -32.535  1.00  0.00     0.017 A 
HETATM   17  C   UNL     1      -3.377   4.954 -31.788  1.00  0.00     0.032 A 
HETATM   18  C   UNL     1      -4.409   4.698 -30.881  1.00  0.00     0.017 A 
HETATM   19  C   UNL     1      -4.812   3.383 -30.647  1.00  0.00     0.010 A 
BRANCH  17  20
HETATM   20  C   UNL     1      -2.800   6.319 -31.859  1.00  0.00     0.251 C 
HETATM   21  N   UNL     1      -1.682   6.495 -31.070  1.00  0.00    -0.353 N 
HETATM   22  H   UNL     1      -1.442   5.758 -30.421  1.00  0.00     0.163 HD
HETATM   23  O   UNL     1      -3.350   7.200 -32.506  1.00  0.00    -0.268 OA
BRANCH  21  24
HETATM   24  C   UNL     1      -1.191   7.812 -30.744  1.00  0.00     0.161 C 
BRANCH  24  25
HETATM   25  C   UNL     1      -1.558   8.225 -29.317  1.00  0.00    -0.038 A 
HETATM   26  C   UNL     1      -1.549   7.217 -28.282  1.00  0.00     0.048 A 
HETATM   27  C   UNL     1      -1.960   7.765 -27.095  1.00  0.00     0.105 A 
HETATM   28  C   UNL     1      -2.381   9.506 -26.988  1.00  0.00     0.105 A 
HETATM   29  O   UNL     1      -2.361   6.996 -25.276  1.00  0.00    -0.323 OA
HETATM   30  O   UNL     1      -2.995   9.945 -25.362  1.00  0.00    -0.323 OA
HETATM   31  C   UNL     1      -2.332  10.390 -28.002  1.00  0.00     0.040 A 
HETATM   32  C   UNL     1      -3.030   8.459 -24.186  1.00  0.00     0.352 A 
HETATM   33  C   UNL     1      -1.909   9.701 -29.160  1.00  0.00     0.012 A 
ENDBRANCH  24  25
ENDBRANCH  21  24
ENDBRANCH  17  20
ENDBRANCH  13  14
ENDBRANCH   4  13
BRANCH   1  34
HETATM   34  C   UNL     1      -8.594  -0.292 -33.197  1.00  0.00     0.237 C 
BRANCH  34  35
HETATM   35  C   UNL     1      -9.246   1.104 -33.332  1.00  0.00     0.240 C 
HETATM   36  N   UNL     1      -9.886   1.572 -32.196  1.00  0.00    -0.326 N 
HETATM   37  H   UNL     1     -10.113   0.900 -31.476  1.00  0.00     0.169 HD
HETATM   38  O   UNL     1      -8.984   1.778 -34.329  1.00  0.00    -0.271 OA
BRANCH  36  39
HETATM   39  C   UNL     1     -10.164   2.935 -31.886  1.00  0.00     0.035 A 
HETATM   40  C   UNL     1      -9.121   3.832 -30.836  1.00  0.00     0.036 A 
HETATM   41  C   UNL     1      -9.433   5.388 -30.226  1.00  0.00    -0.060 A 
HETATM   42  C   UNL     1      -8.518   6.042 -29.252  1.00  0.00     0.048 C 
HETATM   43  C   UNL     1     -10.926   6.137 -30.684  1.00  0.00     0.007 A 
HETATM   44  C   UNL     1     -12.170   5.096 -31.959  1.00  0.00     0.003 A 
HETATM   45  C   UNL     1     -11.648   3.518 -32.484  1.00  0.00     0.029 A 
ENDBRANCH  36  39
ENDBRANCH  34  35
ENDBRANCH   1  34
TORSDOF 8
ENDMDL
MODEL 7
REMARK VINA RESULT:      -9.6      2.573     10.379
REMARK  8 active torsions:
REMARK  status: ('A' for Active; 'I' for Inactive)
REMARK    1  A    between atoms: C_4  and  N_5 
REMARK       I    between atoms: N_5  and  C_6 
REMARK    2  A    between atoms: C_6  and  C_7 
REMARK    3  A    between atoms: C_7  and  N_8 
REMARK    4  A    between atoms: N_11  and  C_12 
REMARK    5  A    between atoms: C_12  and  C_13 
REMARK    6  A    between atoms: C_16  and  C_17 
REMARK       I    between atoms: C_17  and  N_18 
REMARK    7  A    between atoms: N_18  and  C_19 
REMARK    8  A    between atoms: C_19  and  C_20 
ROOT
HETATM    1  N   UNL     1      -6.021   2.638 -31.553  1.00  0.00    -0.290 N 
HETATM    2  C   UNL     1      -4.932   3.083 -32.310  1.00  0.00     0.332 C 
HETATM    3  O   UNL     1      -3.849   2.500 -32.249  1.00  0.00    -0.246 OA
HETATM    4  N   UNL     1      -5.140   4.203 -33.107  1.00  0.00    -0.261 N 
HETATM    5  C   UNL     1      -6.390   4.678 -33.459  1.00  0.00     0.264 C 
HETATM    6  O   UNL     1      -6.583   5.659 -34.174  1.00  0.00    -0.267 OA
HETATM    7  C   UNL     1      -7.543   3.903 -32.981  1.00  0.00     0.059 A 
HETATM    8  C   UNL     1      -7.348   2.903 -32.027  1.00  0.00     0.055 A 
HETATM    9  C   UNL     1      -8.806   4.151 -33.544  1.00  0.00     0.019 A 
HETATM   10  C   UNL     1      -9.900   3.384 -33.164  1.00  0.00     0.001 A 
HETATM   11  C   UNL     1      -9.732   2.387 -32.210  1.00  0.00     0.002 A 
HETATM   12  C   UNL     1      -8.471   2.155 -31.640  1.00  0.00     0.031 A 
ENDROOT
BRANCH   4  13
HETATM   13  C   UNL     1      -3.992   4.775 -33.810  1.00  0.00     0.175 C 
BRANCH  13  14
HETATM   14  C   UNL     1      -2.951   5.342 -32.872  1.00  0.00    -0.040 A 
HETATM   15  C   UNL     1      -1.602   5.004 -33.057  1.00  0.00     0.010 A 
HETATM   16  C   UNL     1      -0.654   5.349 -32.102  1.00  0.00     0.017 A 
HETATM   17  C   UNL     1      -1.050   6.037 -30.952  1.00  0.00     0.032 A 
HETATM   18  C   UNL     1      -2.372   6.469 -30.806  1.00  0.00     0.017 A 
HETATM   19  C   UNL     1      -3.323   6.121 -31.765  1.00  0.00     0.010 A 
BRANCH  17  20
HETATM   20  C   UNL     1      -0.105   6.211 -29.822  1.00  0.00     0.251 C 
HETATM   21  N   UNL     1       0.046   7.522 -29.416  1.00  0.00    -0.353 N 
HETATM   22  H   UNL     1      -0.365   8.243 -29.991  1.00  0.00     0.163 HD
HETATM   23  O   UNL     1       0.524   5.260 -29.379  1.00  0.00    -0.268 OA
BRANCH  21  24
HETATM   24  C   UNL     1       1.151   7.928 -28.583  1.00  0.00     0.161 C 
BRANCH  24  25
HETATM   25  C   UNL     1       0.680   8.554 -27.269  1.00  0.00    -0.038 A 
HETATM   26  C   UNL     1       1.674   8.955 -26.299  1.00  0.00     0.048 A 
HETATM   27  C   UNL     1       1.059   9.435 -25.173  1.00  0.00     0.105 A 
HETATM   28  C   UNL     1      -0.731   9.528 -25.077  1.00  0.00     0.105 A 
HETATM   29  O   UNL     1       1.730  10.018 -23.365  1.00  0.00    -0.323 OA
HETATM   30  O   UNL     1      -1.284  10.081 -23.465  1.00  0.00    -0.323 OA
HETATM   31  C   UNL     1      -1.590   9.160 -26.046  1.00  0.00     0.040 A 
HETATM   32  C   UNL     1       0.163  10.429 -22.292  1.00  0.00     0.352 A 
HETATM   33  C   UNL     1      -0.835   8.676 -27.137  1.00  0.00     0.012 A 
ENDBRANCH  24  25
ENDBRANCH  21  24
ENDBRANCH  17  20
ENDBRANCH  13  14
ENDBRANCH   4  13
BRANCH   1  34
HETATM   34  C   UNL     1      -5.760   1.469 -30.705  1.00  0.00     0.237 C 
BRANCH  34  35
HETATM   35  C   UNL     1      -5.931   0.044 -31.280  1.00  0.00     0.240 C 
HETATM   36  N   UNL     1      -5.228  -0.214 -32.445  1.00  0.00    -0.326 N 
HETATM   37  H   UNL     1      -4.884   0.580 -32.970  1.00  0.00     0.169 HD
HETATM   38  O   UNL     1      -6.487  -0.805 -30.582  1.00  0.00    -0.271 OA
BRANCH  36  39
HETATM   39  C   UNL     1      -4.842  -1.497 -32.931  1.00  0.00     0.035 A 
HETATM   40  C   UNL     1      -5.781  -2.300 -34.143  1.00  0.00     0.036 A 
HETATM   41  C   UNL     1      -5.555  -3.901 -34.668  1.00  0.00    -0.060 A 
HETATM   42  C   UNL     1      -6.474  -4.537 -35.651  1.00  0.00     0.048 C 
HETATM   43  C   UNL     1      -4.286  -4.812 -33.920  1.00  0.00     0.007 A 
HETATM   44  C   UNL     1      -3.137  -3.863 -32.493  1.00  0.00     0.003 A 
HETATM   45  C   UNL     1      -3.526  -2.206 -32.116  1.00  0.00     0.029 A 
ENDBRANCH  36  39
ENDBRANCH  34  35
ENDBRANCH   1  34
TORSDOF 8
ENDMDL
MODEL 8
REMARK VINA RESULT:      -9.6      5.277     10.665
REMARK  8 active torsions:
REMARK  status: ('A' for Active; 'I' for Inactive)
REMARK    1  A    between atoms: C_4  and  N_5 
REMARK       I    between atoms: N_5  and  C_6 
REMARK    2  A    between atoms: C_6  and  C_7 
REMARK    3  A    between atoms: C_7  and  N_8 
REMARK    4  A    between atoms: N_11  and  C_12 
REMARK    5  A    between atoms: C_12  and  C_13 
REMARK    6  A    between atoms: C_16  and  C_17 
REMARK       I    between atoms: C_17  and  N_18 
REMARK    7  A    between atoms: N_18  and  C_19 
REMARK    8  A    between atoms: C_19  and  C_20 
ROOT
HETATM    1  N   UNL     1     -11.918   3.576 -33.586  1.00  0.00    -0.290 N 
HETATM    2  C   UNL     1     -10.835   3.793 -32.726  1.00  0.00     0.332 C 
HETATM    3  O   UNL     1     -10.673   4.889 -32.189  1.00  0.00    -0.246 OA
HETATM    4  N   UNL     1      -9.968   2.723 -32.531  1.00  0.00    -0.261 N 
HETATM    5  C   UNL     1     -10.282   1.410 -32.835  1.00  0.00     0.264 C 
HETATM    6  O   UNL     1      -9.527   0.458 -32.653  1.00  0.00    -0.267 OA
HETATM    7  C   UNL     1     -11.634   1.164 -33.352  1.00  0.00     0.059 A 
HETATM    8  C   UNL     1     -12.430   2.246 -33.732  1.00  0.00     0.055 A 
HETATM    9  C   UNL     1     -12.113  -0.157 -33.394  1.00  0.00     0.019 A 
HETATM   10  C   UNL     1     -13.414  -0.412 -33.810  1.00  0.00     0.001 A 
HETATM   11  C   UNL     1     -14.223   0.649 -34.200  1.00  0.00     0.002 A 
HETATM   12  C   UNL     1     -13.733   1.963 -34.171  1.00  0.00     0.031 A 
ENDROOT
BRANCH   4  13
HETATM   13  C   UNL     1      -8.755   2.950 -31.746  1.00  0.00     0.175 C 
BRANCH  13  14
HETATM   14  C   UNL     1      -7.646   3.589 -32.549  1.00  0.00    -0.040 A 
HETATM   15  C   UNL     1      -7.141   2.922 -33.676  1.00  0.00     0.010 A 
HETATM   16  C   UNL     1      -5.999   3.388 -34.315  1.00  0.00     0.017 A 
HETATM   17  C   UNL     1      -5.353   4.528 -33.830  1.00  0.00     0.032 A 
HETATM   18  C   UNL     1      -5.904   5.259 -32.773  1.00  0.00     0.017 A 
HETATM   19  C   UNL     1      -7.050   4.789 -32.132  1.00  0.00     0.010 A 
BRANCH  17  20
HETATM   20  C   UNL     1      -4.016   4.907 -34.350  1.00  0.00     0.251 C 
HETATM   21  N   UNL     1      -2.973   4.552 -33.519  1.00  0.00    -0.353 N 
HETATM   22  H   UNL     1      -3.201   4.213 -32.595  1.00  0.00     0.163 HD
HETATM   23  O   UNL     1      -3.904   5.548 -35.386  1.00  0.00    -0.268 OA
BRANCH  21  24
HETATM   24  C   UNL     1      -1.658   5.122 -33.678  1.00  0.00     0.161 C 
BRANCH  24  25
HETATM   25  C   UNL     1      -1.169   5.806 -32.399  1.00  0.00    -0.038 A 
HETATM   26  C   UNL     1      -0.293   5.073 -31.515  1.00  0.00     0.048 A 
HETATM   27  C   UNL     1      -0.015   5.826 -30.405  1.00  0.00     0.105 A 
HETATM   28  C   UNL     1      -0.685   7.482 -30.231  1.00  0.00     0.105 A 
HETATM   29  O   UNL     1       0.968   5.455 -28.685  1.00  0.00    -0.323 OA
HETATM   30  O   UNL     1      -0.268   8.207 -28.646  1.00  0.00    -0.323 OA
HETATM   31  C   UNL     1      -1.474   8.108 -31.125  1.00  0.00     0.040 A 
HETATM   32  C   UNL     1       0.773   7.040 -27.577  1.00  0.00     0.352 A 
HETATM   33  C   UNL     1      -1.692   7.226 -32.206  1.00  0.00     0.012 A 
ENDBRANCH  24  25
ENDBRANCH  21  24
ENDBRANCH  17  20
ENDBRANCH  13  14
ENDBRANCH   4  13
BRANCH   1  34
HETATM   34  C   UNL     1     -12.798   4.734 -33.789  1.00  0.00     0.237 C 
BRANCH  34  35
HETATM   35  C   UNL     1     -12.859   5.422 -35.172  1.00  0.00     0.240 C 
HETATM   36  N   UNL     1     -12.828   6.806 -35.148  1.00  0.00    -0.326 N 
HETATM   37  H   UNL     1     -13.033   7.264 -34.269  1.00  0.00     0.169 HD
HETATM   38  O   UNL     1     -12.722   4.725 -36.179  1.00  0.00    -0.271 OA
BRANCH  36  39
HETATM   39  C   UNL     1     -12.429   7.660 -36.218  1.00  0.00     0.035 A 
HETATM   40  C   UNL     1     -13.563   8.141 -37.434  1.00  0.00     0.036 A 
HETATM   41  C   UNL     1     -13.184   8.984 -38.860  1.00  0.00    -0.060 A 
HETATM   42  C   UNL     1     -14.216   9.271 -39.894  1.00  0.00     0.048 C 
HETATM   43  C   UNL     1     -11.521   9.388 -39.127  1.00  0.00     0.007 A 
HETATM   44  C   UNL     1     -10.158   8.849 -37.675  1.00  0.00     0.003 A 
HETATM   45  C   UNL     1     -10.763   8.005 -36.275  1.00  0.00     0.029 A 
ENDBRANCH  36  39
ENDBRANCH  34  35
ENDBRANCH   1  34
TORSDOF 8
ENDMDL
MODEL 9
REMARK VINA RESULT:      -9.6      3.083     10.416
REMARK  8 active torsions:
REMARK  status: ('A' for Active; 'I' for Inactive)
REMARK    1  A    between atoms: C_4  and  N_5 
REMARK       I    between atoms: N_5  and  C_6 
REMARK    2  A    between atoms: C_6  and  C_7 
REMARK    3  A    between atoms: C_7  and  N_8 
REMARK    4  A    between atoms: N_11  and  C_12 
REMARK    5  A    between atoms: C_12  and  C_13 
REMARK    6  A    between atoms: C_16  and  C_17 
REMARK       I    between atoms: C_17  and  N_18 
REMARK    7  A    between atoms: N_18  and  C_19 
REMARK    8  A    between atoms: C_19  and  C_20 
ROOT
HETATM    1  N   UNL     1     -10.209   2.215 -32.783  1.00  0.00    -0.290 N 
HETATM    2  C   UNL     1      -9.255   2.952 -32.073  1.00  0.00     0.332 C 
HETATM    3  O   UNL     1      -8.233   2.411 -31.652  1.00  0.00    -0.246 OA
HETATM    4  N   UNL     1      -9.532   4.300 -31.868  1.00  0.00    -0.261 N 
HETATM    5  C   UNL     1     -10.474   5.013 -32.588  1.00  0.00     0.264 C 
HETATM    6  O   UNL     1     -10.714   6.206 -32.423  1.00  0.00    -0.267 OA
HETATM    7  C   UNL     1     -11.173   4.282 -33.653  1.00  0.00     0.059 A 
HETATM    8  C   UNL     1     -11.043   2.894 -33.731  1.00  0.00     0.055 A 
HETATM    9  C   UNL     1     -11.908   5.010 -34.604  1.00  0.00     0.019 A 
HETATM   10  C   UNL     1     -12.519   4.351 -35.664  1.00  0.00     0.001 A 
HETATM   11  C   UNL     1     -12.410   2.969 -35.758  1.00  0.00     0.002 A 
HETATM   12  C   UNL     1     -11.688   2.246 -34.797  1.00  0.00     0.031 A 
ENDROOT
BRANCH   4  13
HETATM   13  C   UNL     1      -8.624   5.071 -31.019  1.00  0.00     0.175 C 
BRANCH  13  14
HETATM   14  C   UNL     1      -7.215   5.125 -31.563  1.00  0.00    -0.040 A 
HETATM   15  C   UNL     1      -6.138   4.836 -30.710  1.00  0.00     0.010 A 
HETATM   16  C   UNL     1      -4.833   5.066 -31.124  1.00  0.00     0.017 A 
HETATM   17  C   UNL     1      -4.594   5.586 -32.399  1.00  0.00     0.032 A 
HETATM   18  C   UNL     1      -5.650   5.780 -33.294  1.00  0.00     0.017 A 
HETATM   19  C   UNL     1      -6.961   5.550 -32.875  1.00  0.00     0.010 A 
BRANCH  17  20
HETATM   20  C   UNL     1      -3.236   6.051 -32.774  1.00  0.00     0.251 C 
HETATM   21  N   UNL     1      -2.261   5.731 -31.850  1.00  0.00    -0.353 N 
HETATM   22  H   UNL     1      -2.560   5.355 -30.961  1.00  0.00     0.163 HD
HETATM   23  O   UNL     1      -3.059   6.726 -33.779  1.00  0.00    -0.268 OA
BRANCH  21  24
HETATM   24  C   UNL     1      -0.972   6.377 -31.864  1.00  0.00     0.161 C 
BRANCH  24  25
HETATM   25  C   UNL     1      -0.740   7.225 -30.611  1.00  0.00    -0.038 A 
HETATM   26  C   UNL     1       0.526   7.109 -29.923  1.00  0.00     0.048 A 
HETATM   27  C   UNL     1       0.520   7.895 -28.802  1.00  0.00     0.105 A 
HETATM   28  C   UNL     1      -0.912   8.898 -28.394  1.00  0.00     0.105 A 
HETATM   29  O   UNL     1       1.809   8.145 -27.273  1.00  0.00    -0.323 OA
HETATM   30  O   UNL     1      -0.711   9.741 -26.825  1.00  0.00    -0.323 OA
HETATM   31  C   UNL     1      -2.048   8.972 -29.112  1.00  0.00     0.040 A 
HETATM   32  C   UNL     1       0.959   9.358 -26.016  1.00  0.00     0.352 A 
HETATM   33  C   UNL     1      -1.918   8.113 -30.225  1.00  0.00     0.012 A 
ENDBRANCH  24  25
ENDBRANCH  21  24
ENDBRANCH  17  20
ENDBRANCH  13  14
ENDBRANCH   4  13
BRANCH   1  34
HETATM   34  C   UNL     1      -9.897   0.792 -32.959  1.00  0.00     0.237 C 
BRANCH  34  35
HETATM   35  C   UNL     1      -8.588   0.371 -33.667  1.00  0.00     0.240 C 
HETATM   36  N   UNL     1      -7.647  -0.244 -32.857  1.00  0.00    -0.326 N 
HETATM   37  H   UNL     1      -7.751  -0.140 -31.857  1.00  0.00     0.169 HD
HETATM   38  O   UNL     1      -8.550   0.411 -34.897  1.00  0.00    -0.271 OA
BRANCH  36  39
HETATM   39  C   UNL     1      -6.598  -1.107 -33.289  1.00  0.00     0.035 A 
HETATM   40  C   UNL     1      -6.927  -2.436 -34.347  1.00  0.00     0.036 A 
HETATM   41  C   UNL     1      -5.821  -3.652 -34.780  1.00  0.00    -0.060 A 
HETATM   42  C   UNL     1      -6.225  -4.810 -35.623  1.00  0.00     0.048 C 
HETATM   43  C   UNL     1      -4.232  -3.562 -34.097  1.00  0.00     0.007 A 
HETATM   44  C   UNL     1      -3.811  -1.968 -32.856  1.00  0.00     0.003 A 
HETATM   45  C   UNL     1      -5.087  -0.819 -32.558  1.00  0.00     0.029 A 
ENDBRANCH  36  39
ENDBRANCH  34  35
ENDBRANCH   1  34
TORSDOF 8
ENDMDL
MODEL 10
REMARK VINA RESULT:      -9.6      3.680     10.401
REMARK  8 active torsions:
REMARK  status: ('A' for Active; 'I' for Inactive)
REMARK    1  A    between atoms: C_4  and  N_5 
REMARK       I    between atoms: N_5  and  C_6 
REMARK    2  A    between atoms: C_6  and  C_7 
REMARK    3  A    between atoms: C_7  and  N_8 
REMARK    4  A    between atoms: N_11  and  C_12 
REMARK    5  A    between atoms: C_12  and  C_13 
REMARK    6  A    between atoms: C_16  and  C_17 
REMARK       I    between atoms: C_17  and  N_18 
REMARK    7  A    between atoms: N_18  and  C_19 
REMARK    8  A    between atoms: C_19  and  C_20 
ROOT
HETATM    1  N   UNL     1     -11.237   2.725 -33.593  1.00  0.00    -0.290 N 
HETATM    2  C   UNL     1     -10.949   4.061 -33.291  1.00  0.00     0.332 C 
HETATM    3  O   UNL     1     -10.046   4.654 -33.881  1.00  0.00    -0.246 OA
HETATM    4  N   UNL     1     -11.720   4.658 -32.300  1.00  0.00    -0.261 N 
HETATM    5  C   UNL     1     -12.931   4.157 -31.857  1.00  0.00     0.264 C 
HETATM    6  O   UNL     1     -13.625   4.686 -30.992  1.00  0.00    -0.267 OA
HETATM    7  C   UNL     1     -13.421   2.945 -32.526  1.00  0.00     0.059 A 
HETATM    8  C   UNL     1     -12.567   2.238 -33.374  1.00  0.00     0.055 A 
HETATM    9  C   UNL     1     -14.760   2.562 -32.339  1.00  0.00     0.019 A 
HETATM   10  C   UNL     1     -15.270   1.461 -33.017  1.00  0.00     0.001 A 
HETATM   11  C   UNL     1     -14.437   0.737 -33.861  1.00  0.00     0.002 A 
HETATM   12  C   UNL     1     -13.097   1.115 -34.031  1.00  0.00     0.031 A 
ENDROOT
BRANCH   4  13
HETATM   13  C   UNL     1     -11.363   6.008 -31.866  1.00  0.00     0.175 C 
BRANCH  13  14
HETATM   14  C   UNL     1     -10.168   6.032 -30.941  1.00  0.00    -0.040 A 
HETATM   15  C   UNL     1      -9.391   7.198 -30.852  1.00  0.00     0.010 A 
HETATM   16  C   UNL     1      -8.183   7.185 -30.167  1.00  0.00     0.017 A 
HETATM   17  C   UNL     1      -7.743   6.004 -29.562  1.00  0.00     0.032 A 
HETATM   18  C   UNL     1      -8.555   4.867 -29.557  1.00  0.00     0.017 A 
HETATM   19  C   UNL     1      -9.768   4.880 -30.247  1.00  0.00     0.010 A 
BRANCH  17  20
HETATM   20  C   UNL     1      -6.362   5.909 -29.029  1.00  0.00     0.251 C 
HETATM   21  N   UNL     1      -5.617   7.058 -29.197  1.00  0.00    -0.353 N 
HETATM   22  H   UNL     1      -6.004   7.789 -29.777  1.00  0.00     0.163 HD
HETATM   23  O   UNL     1      -5.940   4.858 -28.566  1.00  0.00    -0.268 OA
BRANCH  21  24
HETATM   24  C   UNL     1      -4.181   7.050 -29.058  1.00  0.00     0.161 C 
BRANCH  24  25
HETATM   25  C   UNL     1      -3.474   6.938 -30.411  1.00  0.00    -0.038 A 
HETATM   26  C   UNL     1      -3.602   5.707 -31.156  1.00  0.00     0.048 A 
HETATM   27  C   UNL     1      -2.855   5.778 -32.302  1.00  0.00     0.105 A 
HETATM   28  C   UNL     1      -1.932   7.264 -32.704  1.00  0.00     0.105 A 
HETATM   29  O   UNL     1      -2.393   4.447 -33.744  1.00  0.00    -0.323 OA
HETATM   30  O   UNL     1      -0.952   7.060 -34.190  1.00  0.00    -0.323 OA
HETATM   31  C   UNL     1      -1.893   8.388 -31.964  1.00  0.00     0.040 A 
HETATM   32  C   UNL     1      -1.153   5.334 -34.948  1.00  0.00     0.352 A 
HETATM   33  C   UNL     1      -2.687   8.181 -30.814  1.00  0.00     0.012 A 
ENDBRANCH  24  25
ENDBRANCH  21  24
ENDBRANCH  17  20
ENDBRANCH  13  14
ENDBRANCH   4  13
BRANCH   1  34
HETATM   34  C   UNL     1     -10.388   2.118 -34.625  1.00  0.00     0.237 C 
BRANCH  34  35
HETATM   35  C   UNL     1      -9.432   0.960 -34.255  1.00  0.00     0.240 C 
HETATM   36  N   UNL     1      -8.238   0.929 -34.955  1.00  0.00    -0.326 N 
HETATM   37  H   UNL     1      -8.181   1.470 -35.808  1.00  0.00     0.169 HD
HETATM   38  O   UNL     1      -9.688   0.289 -33.254  1.00  0.00    -0.271 OA
BRANCH  36  39
HETATM   39  C   UNL     1      -7.032   0.293 -34.539  1.00  0.00     0.035 A 
HETATM   40  C   UNL     1      -6.727  -1.364 -34.932  1.00  0.00     0.036 A 
HETATM   41  C   UNL     1      -5.438  -2.299 -34.338  1.00  0.00    -0.060 A 
HETATM   42  C   UNL     1      -5.311  -3.747 -34.660  1.00  0.00     0.048 C 
HETATM   43  C   UNL     1      -4.341  -1.534 -33.238  1.00  0.00     0.007 A 
HETATM   44  C   UNL     1      -4.671   0.450 -32.778  1.00  0.00     0.003 A 
HETATM   45  C   UNL     1      -6.045   1.230 -33.516  1.00  0.00     0.029 A 
ENDBRANCH  36  39
ENDBRANCH  34  35
ENDBRANCH   1  34
TORSDOF 8
ENDMDL
