MODEL 1
REMARK VINA RESULT:      -8.0      0.000      0.000
REMARK  7 active torsions:
REMARK  status: ('A' for Active; 'I' for Inactive)
REMARK    1  A    between atoms: O_2  and  C_3 
REMARK    2  A    between atoms: C_5  and  C_6 
REMARK    3  A    between atoms: C_10  and  N_11 
REMARK    4  A    between atoms: N_11  and  C_12 
REMARK    5  A    between atoms: C_12  and  S_13 
REMARK    6  A    between atoms: N_15  and  C_17 
REMARK    7  A    between atoms: C_17  and  C_18 
ROOT
HETATM    1  C   UNL     1      -3.648  -0.633 -32.244  1.00  0.00     0.064 A 
HETATM    2  N   UNL     1      -2.766  -0.225 -31.275  1.00  0.00    -0.276 N 
HETATM    3  H   UNL     1      -2.058  -0.782 -30.808  1.00  0.00     0.189 HD
HETATM    4  N   UNL     1      -2.884   1.070 -30.921  1.00  0.00    -0.156 NA
HETATM    5  C   UNL     1      -3.853   1.528 -31.714  1.00  0.00     0.151 A 
HETATM    6  C   UNL     1      -4.350   0.516 -32.560  1.00  0.00     0.084 A 
ENDROOT
BRANCH   5   7
HETATM    7  N   UNL     1      -4.341   2.781 -31.723  1.00  0.00    -0.320 N 
HETATM    8  H   UNL     1      -5.263   2.965 -31.349  1.00  0.00     0.169 HD
BRANCH   7   9
HETATM    9  C   UNL     1      -3.733   3.954 -32.219  1.00  0.00     0.141 C 
HETATM   10  N   UNL     1      -2.512   3.890 -32.698  1.00  0.00    -0.365 N 
HETATM   11  H   UNL     1      -2.095   2.954 -32.664  1.00  0.00     0.162 HD
BRANCH   9  12
HETATM   12  S   UNL     1      -4.672   5.395 -32.157  1.00  0.00    -0.099 SA
HETATM   13  C   UNL     1      -5.535   5.263 -33.740  1.00  0.00     0.099 C 
ENDBRANCH   9  12
BRANCH  10  14
HETATM   14  C   UNL     1      -1.759   4.999 -33.271  1.00  0.00     0.186 C 
BRANCH  14  15
HETATM   15  C   UNL     1      -0.834   5.580 -32.260  1.00  0.00     0.070 A 
HETATM   16  O   UNL     1      -0.154   4.715 -31.449  1.00  0.00    -0.325 OA
HETATM   17  C   UNL     1       0.621   5.468 -30.627  1.00  0.00     0.142 A 
HETATM   18  C   UNL     1       0.450   6.806 -30.894  1.00  0.00     0.027 A 
HETATM   19  C   UNL     1      -0.491   6.881 -31.950  1.00  0.00     0.036 A 
ENDBRANCH  14  15
ENDBRANCH  10  14
ENDBRANCH   7   9
ENDBRANCH   5   7
BRANCH   1  20
HETATM   20  C   UNL     1      -3.757  -2.001 -32.763  1.00  0.00    -0.005 A 
HETATM   21  C   UNL     1      -4.548  -2.264 -33.893  1.00  0.00     0.050 A 
HETATM   22  C   UNL     1      -4.716  -3.562 -34.389  1.00  0.00     0.069 A 
HETATM   23  C   UNL     1      -4.064  -4.621 -33.765  1.00  0.00     0.037 A 
HETATM   24  C   UNL     1      -3.266  -4.381 -32.645  1.00  0.00     0.004 A 
HETATM   25  C   UNL     1      -3.116  -3.083 -32.145  1.00  0.00     0.014 A 
BRANCH  22  26
HETATM   26  O   UNL     1      -5.532  -3.651 -35.484  1.00  0.00    -0.356 OA
HETATM   27  C   UNL     1      -6.639  -4.539 -35.388  1.00  0.00     0.210 C 
ENDBRANCH  22  26
ENDBRANCH   1  20
TORSDOF 7
ENDMDL
MODEL 2
REMARK VINA RESULT:      -7.8      1.742      2.420
REMARK  7 active torsions:
REMARK  status: ('A' for Active; 'I' for Inactive)
REMARK    1  A    between atoms: O_2  and  C_3 
REMARK    2  A    between atoms: C_5  and  C_6 
REMARK    3  A    between atoms: C_10  and  N_11 
REMARK    4  A    between atoms: N_11  and  C_12 
REMARK    5  A    between atoms: C_12  and  S_13 
REMARK    6  A    between atoms: N_15  and  C_17 
REMARK    7  A    between atoms: C_17  and  C_18 
ROOT
HETATM    1  C   UNL     1      -4.230   0.132 -32.477  1.00  0.00     0.064 A 
HETATM    2  N   UNL     1      -3.253  -0.133 -31.548  1.00  0.00    -0.276 N 
HETATM    3  H   UNL     1      -2.880  -1.039 -31.284  1.00  0.00     0.189 HD
HETATM    4  N   UNL     1      -2.761   0.958 -30.928  1.00  0.00    -0.156 NA
HETATM    5  C   UNL     1      -3.414   1.969 -31.501  1.00  0.00     0.151 A 
HETATM    6  C   UNL     1      -4.325   1.512 -32.474  1.00  0.00     0.084 A 
ENDROOT
BRANCH   5   7
HETATM    7  N   UNL     1      -3.270   3.273 -31.203  1.00  0.00    -0.320 N 
HETATM    8  H   UNL     1      -3.938   3.725 -30.591  1.00  0.00     0.169 HD
BRANCH   7   9
HETATM    9  C   UNL     1      -2.277   4.169 -31.651  1.00  0.00     0.141 C 
HETATM   10  N   UNL     1      -1.392   4.626 -30.796  1.00  0.00    -0.365 N 
HETATM   11  H   UNL     1      -1.511   4.275 -29.840  1.00  0.00     0.162 HD
BRANCH   9  12
HETATM   12  S   UNL     1      -2.312   4.586 -33.321  1.00  0.00    -0.099 SA
HETATM   13  C   UNL     1      -3.856   5.523 -33.368  1.00  0.00     0.099 C 
ENDBRANCH   9  12
BRANCH  10  14
HETATM   14  C   UNL     1      -0.292   5.531 -31.105  1.00  0.00     0.186 C 
BRANCH  14  15
HETATM   15  C   UNL     1       0.143   6.261 -29.883  1.00  0.00     0.070 A 
HETATM   16  O   UNL     1       0.332   5.534 -28.741  1.00  0.00    -0.325 OA
HETATM   17  C   UNL     1       0.729   6.404 -27.778  1.00  0.00     0.142 A 
HETATM   18  C   UNL     1       0.798   7.682 -28.280  1.00  0.00     0.027 A 
HETATM   19  C   UNL     1       0.418   7.593 -29.641  1.00  0.00     0.036 A 
ENDBRANCH  14  15
ENDBRANCH  10  14
ENDBRANCH   7   9
ENDBRANCH   5   7
BRANCH   1  20
HETATM   20  C   UNL     1      -4.959  -0.882 -33.247  1.00  0.00    -0.005 A 
HETATM   21  C   UNL     1      -4.352  -2.114 -33.539  1.00  0.00     0.050 A 
HETATM   22  C   UNL     1      -4.996  -3.088 -34.312  1.00  0.00     0.069 A 
HETATM   23  C   UNL     1      -6.282  -2.844 -34.784  1.00  0.00     0.037 A 
HETATM   24  C   UNL     1      -6.907  -1.629 -34.497  1.00  0.00     0.004 A 
HETATM   25  C   UNL     1      -6.251  -0.654 -33.738  1.00  0.00     0.014 A 
BRANCH  22  26
HETATM   26  O   UNL     1      -4.262  -4.224 -34.521  1.00  0.00    -0.356 OA
HETATM   27  C   UNL     1      -3.456  -4.674 -33.440  1.00  0.00     0.210 C 
ENDBRANCH  22  26
ENDBRANCH   1  20
TORSDOF 7
ENDMDL
MODEL 3
REMARK VINA RESULT:      -7.6      1.588      2.477
REMARK  7 active torsions:
REMARK  status: ('A' for Active; 'I' for Inactive)
REMARK    1  A    between atoms: O_2  and  C_3 
REMARK    2  A    between atoms: C_5  and  C_6 
REMARK    3  A    between atoms: C_10  and  N_11 
REMARK    4  A    between atoms: N_11  and  C_12 
REMARK    5  A    between atoms: C_12  and  S_13 
REMARK    6  A    between atoms: N_15  and  C_17 
REMARK    7  A    between atoms: C_17  and  C_18 
ROOT
HETATM    1  C   UNL     1      -5.571   0.190 -33.586  1.00  0.00     0.064 A 
HETATM    2  N   UNL     1      -6.446   1.107 -34.117  1.00  0.00    -0.276 N 
HETATM    3  H   UNL     1      -7.197   0.934 -34.778  1.00  0.00     0.189 HD
HETATM    4  N   UNL     1      -6.253   2.373 -33.697  1.00  0.00    -0.156 NA
HETATM    5  C   UNL     1      -5.241   2.269 -32.836  1.00  0.00     0.151 A 
HETATM    6  C   UNL     1      -4.792   0.939 -32.722  1.00  0.00     0.084 A 
ENDROOT
BRANCH   5   7
HETATM    7  N   UNL     1      -4.676   3.283 -32.157  1.00  0.00    -0.320 N 
HETATM    8  H   UNL     1      -4.927   3.442 -31.189  1.00  0.00     0.169 HD
BRANCH   7   9
HETATM    9  C   UNL     1      -3.737   4.230 -32.617  1.00  0.00     0.141 C 
HETATM   10  N   UNL     1      -2.460   4.027 -32.395  1.00  0.00    -0.365 N 
HETATM   11  H   UNL     1      -2.254   3.163 -31.883  1.00  0.00     0.162 HD
BRANCH   9  12
HETATM   12  S   UNL     1      -4.367   5.594 -33.457  1.00  0.00    -0.099 SA
HETATM   13  C   UNL     1      -4.049   5.077 -35.159  1.00  0.00     0.099 C 
ENDBRANCH   9  12
BRANCH  10  14
HETATM   14  C   UNL     1      -1.367   4.891 -32.829  1.00  0.00     0.186 C 
BRANCH  14  15
HETATM   15  C   UNL     1      -0.659   5.467 -31.654  1.00  0.00     0.070 A 
HETATM   16  O   UNL     1      -0.344   4.625 -30.625  1.00  0.00    -0.325 OA
HETATM   17  C   UNL     1       0.295   5.368 -29.686  1.00  0.00     0.142 A 
HETATM   18  C   UNL     1       0.397   6.677 -30.092  1.00  0.00     0.027 A 
HETATM   19  C   UNL     1      -0.220   6.744 -31.365  1.00  0.00     0.036 A 
ENDBRANCH  14  15
ENDBRANCH  10  14
ENDBRANCH   7   9
ENDBRANCH   5   7
BRANCH   1  20
HETATM   20  C   UNL     1      -5.538  -1.237 -33.922  1.00  0.00    -0.005 A 
HETATM   21  C   UNL     1      -4.501  -2.050 -33.437  1.00  0.00     0.050 A 
HETATM   22  C   UNL     1      -4.408  -3.405 -33.774  1.00  0.00     0.069 A 
HETATM   23  C   UNL     1      -5.380  -3.974 -34.592  1.00  0.00     0.037 A 
HETATM   24  C   UNL     1      -6.425  -3.185 -35.077  1.00  0.00     0.004 A 
HETATM   25  C   UNL     1      -6.502  -1.828 -34.749  1.00  0.00     0.014 A 
BRANCH  22  26
HETATM   26  O   UNL     1      -3.329  -4.052 -33.236  1.00  0.00    -0.356 OA
HETATM   27  C   UNL     1      -2.960  -3.689 -31.911  1.00  0.00     0.210 C 
ENDBRANCH  22  26
ENDBRANCH   1  20
TORSDOF 7
ENDMDL
MODEL 4
REMARK VINA RESULT:      -7.4      7.240      9.644
REMARK  7 active torsions:
REMARK  status: ('A' for Active; 'I' for Inactive)
REMARK    1  A    between atoms: O_2  and  C_3 
REMARK    2  A    between atoms: C_5  and  C_6 
REMARK    3  A    between atoms: C_10  and  N_11 
REMARK    4  A    between atoms: N_11  and  C_12 
REMARK    5  A    between atoms: C_12  and  S_13 
REMARK    6  A    between atoms: N_15  and  C_17 
REMARK    7  A    between atoms: C_17  and  C_18 
ROOT
HETATM    1  C   UNL     1      -7.949   0.212 -33.819  1.00  0.00     0.064 A 
HETATM    2  N   UNL     1      -8.149   1.378 -34.517  1.00  0.00    -0.276 N 
HETATM    3  H   UNL     1      -7.505   1.835 -35.155  1.00  0.00     0.189 HD
HETATM    4  N   UNL     1      -9.345   1.961 -34.303  1.00  0.00    -0.156 NA
HETATM    5  C   UNL     1      -9.958   1.125 -33.464  1.00  0.00     0.151 A 
HETATM    6  C   UNL     1      -9.142   0.022 -33.144  1.00  0.00     0.084 A 
ENDROOT
BRANCH   5   7
HETATM    7  N   UNL     1     -11.189   1.287 -32.947  1.00  0.00    -0.320 N 
HETATM    8  H   UNL     1     -11.302   1.414 -31.949  1.00  0.00     0.169 HD
BRANCH   7   9
HETATM    9  C   UNL     1     -12.428   1.294 -33.622  1.00  0.00     0.141 C 
HETATM   10  N   UNL     1     -13.519   0.981 -32.961  1.00  0.00    -0.365 N 
HETATM   11  H   UNL     1     -13.362   0.749 -31.975  1.00  0.00     0.162 HD
BRANCH   9  12
HETATM   12  S   UNL     1     -12.398   1.731 -35.286  1.00  0.00    -0.099 SA
HETATM   13  C   UNL     1     -12.709   3.505 -35.140  1.00  0.00     0.099 C 
ENDBRANCH   9  12
BRANCH  10  14
HETATM   14  C   UNL     1     -14.873   0.969 -33.502  1.00  0.00     0.186 C 
BRANCH  14  15
HETATM   15  C   UNL     1     -15.695   2.039 -32.877  1.00  0.00     0.070 A 
HETATM   16  O   UNL     1     -17.053   1.956 -33.006  1.00  0.00    -0.325 OA
HETATM   17  C   UNL     1     -17.580   3.024 -32.356  1.00  0.00     0.142 A 
HETATM   18  C   UNL     1     -16.583   3.797 -31.810  1.00  0.00     0.027 A 
HETATM   19  C   UNL     1     -15.363   3.163 -32.145  1.00  0.00     0.036 A 
ENDBRANCH  14  15
ENDBRANCH  10  14
ENDBRANCH   7   9
ENDBRANCH   5   7
BRANCH   1  20
HETATM   20  C   UNL     1      -6.716  -0.582 -33.838  1.00  0.00    -0.005 A 
HETATM   21  C   UNL     1      -6.645  -1.752 -34.611  1.00  0.00     0.050 A 
HETATM   22  C   UNL     1      -5.504  -2.563 -34.618  1.00  0.00     0.069 A 
HETATM   23  C   UNL     1      -4.398  -2.191 -33.860  1.00  0.00     0.037 A 
HETATM   24  C   UNL     1      -4.445  -1.027 -33.091  1.00  0.00     0.004 A 
HETATM   25  C   UNL     1      -5.594  -0.231 -33.076  1.00  0.00     0.014 A 
BRANCH  22  26
HETATM   26  O   UNL     1      -5.602  -3.675 -35.408  1.00  0.00    -0.356 OA
HETATM   27  C   UNL     1      -6.736  -4.509 -35.203  1.00  0.00     0.210 C 
ENDBRANCH  22  26
ENDBRANCH   1  20
TORSDOF 7
ENDMDL
MODEL 5
REMARK VINA RESULT:      -7.4      5.613      8.365
REMARK  7 active torsions:
REMARK  status: ('A' for Active; 'I' for Inactive)
REMARK    1  A    between atoms: O_2  and  C_3 
REMARK    2  A    between atoms: C_5  and  C_6 
REMARK    3  A    between atoms: C_10  and  N_11 
REMARK    4  A    between atoms: N_11  and  C_12 
REMARK    5  A    between atoms: C_12  and  S_13 
REMARK    6  A    between atoms: N_15  and  C_17 
REMARK    7  A    between atoms: C_17  and  C_18 
ROOT
HETATM    1  C   UNL     1      -7.033   0.174 -33.330  1.00  0.00     0.064 A 
HETATM    2  N   UNL     1      -7.690   0.370 -32.139  1.00  0.00    -0.276 N 
HETATM    3  H   UNL     1      -7.644  -0.208 -31.306  1.00  0.00     0.189 HD
HETATM    4  N   UNL     1      -8.483   1.459 -32.111  1.00  0.00    -0.156 NA
HETATM    5  C   UNL     1      -8.306   2.010 -33.312  1.00  0.00     0.151 A 
HETATM    6  C   UNL     1      -7.410   1.260 -34.099  1.00  0.00     0.084 A 
ENDROOT
BRANCH   5   7
HETATM    7  N   UNL     1      -8.905   3.126 -33.764  1.00  0.00    -0.320 N 
HETATM    8  H   UNL     1      -8.376   3.986 -33.838  1.00  0.00     0.169 HD
BRANCH   7   9
HETATM    9  C   UNL     1     -10.247   3.300 -34.164  1.00  0.00     0.141 C 
HETATM   10  N   UNL     1     -10.786   2.436 -34.992  1.00  0.00    -0.365 N 
HETATM   11  H   UNL     1     -10.154   1.684 -35.286  1.00  0.00     0.162 HD
BRANCH   9  12
HETATM   12  S   UNL     1     -11.078   4.657 -33.507  1.00  0.00    -0.099 SA
HETATM   13  C   UNL     1     -11.451   4.015 -31.859  1.00  0.00     0.099 C 
ENDBRANCH   9  12
BRANCH  10  14
HETATM   14  C   UNL     1     -12.161   2.458 -35.476  1.00  0.00     0.186 C 
BRANCH  14  15
HETATM   15  C   UNL     1     -12.986   1.452 -34.754  1.00  0.00     0.070 A 
HETATM   16  O   UNL     1     -14.341   1.501 -34.922  1.00  0.00    -0.325 OA
HETATM   17  C   UNL     1     -14.870   0.493 -34.182  1.00  0.00     0.142 A 
HETATM   18  C   UNL     1     -13.876  -0.205 -33.538  1.00  0.00     0.027 A 
HETATM   19  C   UNL     1     -12.657   0.413 -33.905  1.00  0.00     0.036 A 
ENDBRANCH  14  15
ENDBRANCH  10  14
ENDBRANCH   7   9
ENDBRANCH   5   7
BRANCH   1  20
HETATM   20  C   UNL     1      -6.156  -0.963 -33.632  1.00  0.00    -0.005 A 
HETATM   21  C   UNL     1      -5.034  -1.218 -32.828  1.00  0.00     0.050 A 
HETATM   22  C   UNL     1      -4.146  -2.263 -33.112  1.00  0.00     0.069 A 
HETATM   23  C   UNL     1      -4.392  -3.089 -34.205  1.00  0.00     0.037 A 
HETATM   24  C   UNL     1      -5.507  -2.857 -35.013  1.00  0.00     0.004 A 
HETATM   25  C   UNL     1      -6.380  -1.801 -34.732  1.00  0.00     0.014 A 
BRANCH  22  26
HETATM   26  O   UNL     1      -3.094  -2.367 -32.245  1.00  0.00    -0.356 OA
HETATM   27  C   UNL     1      -2.874  -3.643 -31.655  1.00  0.00     0.210 C 
ENDBRANCH  22  26
ENDBRANCH   1  20
TORSDOF 7
ENDMDL
MODEL 6
REMARK VINA RESULT:      -7.4      5.346      7.612
REMARK  7 active torsions:
REMARK  status: ('A' for Active; 'I' for Inactive)
REMARK    1  A    between atoms: O_2  and  C_3 
REMARK    2  A    between atoms: C_5  and  C_6 
REMARK    3  A    between atoms: C_10  and  N_11 
REMARK    4  A    between atoms: N_11  and  C_12 
REMARK    5  A    between atoms: C_12  and  S_13 
REMARK    6  A    between atoms: N_15  and  C_17 
REMARK    7  A    between atoms: C_17  and  C_18 
ROOT
HETATM    1  C   UNL     1      -6.557  -1.010 -34.264  1.00  0.00     0.064 A 
HETATM    2  N   UNL     1      -6.772  -0.194 -35.348  1.00  0.00    -0.276 N 
HETATM    3  H   UNL     1      -6.653  -0.424 -36.329  1.00  0.00     0.189 HD
HETATM    4  N   UNL     1      -7.183   1.052 -35.036  1.00  0.00    -0.156 NA
HETATM    5  C   UNL     1      -7.272   1.032 -33.706  1.00  0.00     0.151 A 
HETATM    6  C   UNL     1      -6.907  -0.224 -33.181  1.00  0.00     0.084 A 
ENDROOT
BRANCH   5   7
HETATM    7  N   UNL     1      -7.637   2.063 -32.923  1.00  0.00    -0.320 N 
HETATM    8  H   UNL     1      -7.064   2.317 -32.128  1.00  0.00     0.169 HD
BRANCH   7   9
HETATM    9  C   UNL     1      -8.774   2.890 -33.037  1.00  0.00     0.141 C 
HETATM   10  N   UNL     1      -9.647   2.651 -33.988  1.00  0.00    -0.365 N 
HETATM   11  H   UNL     1      -9.410   1.853 -34.587  1.00  0.00     0.162 HD
BRANCH   9  12
HETATM   12  S   UNL     1      -8.922   4.161 -31.886  1.00  0.00    -0.099 SA
HETATM   13  C   UNL     1      -9.766   3.271 -30.559  1.00  0.00     0.099 C 
ENDBRANCH   9  12
BRANCH  10  14
HETATM   14  C   UNL     1     -10.882   3.391 -34.221  1.00  0.00     0.186 C 
BRANCH  14  15
HETATM   15  C   UNL     1     -12.055   2.478 -34.168  1.00  0.00     0.070 A 
HETATM   16  O   UNL     1     -12.842   2.517 -33.051  1.00  0.00    -0.325 OA
HETATM   17  C   UNL     1     -13.839   1.615 -33.235  1.00  0.00     0.142 A 
HETATM   18  C   UNL     1     -13.708   0.993 -34.454  1.00  0.00     0.027 A 
HETATM   19  C   UNL     1     -12.555   1.549 -35.059  1.00  0.00     0.036 A 
ENDBRANCH  14  15
ENDBRANCH  10  14
ENDBRANCH   7   9
ENDBRANCH   5   7
BRANCH   1  20
HETATM   20  C   UNL     1      -6.060  -2.389 -34.333  1.00  0.00    -0.005 A 
HETATM   21  C   UNL     1      -4.843  -2.729 -33.722  1.00  0.00     0.050 A 
HETATM   22  C   UNL     1      -4.311  -4.021 -33.806  1.00  0.00     0.069 A 
HETATM   23  C   UNL     1      -5.016  -5.005 -34.492  1.00  0.00     0.037 A 
HETATM   24  C   UNL     1      -6.233  -4.691 -35.100  1.00  0.00     0.004 A 
HETATM   25  C   UNL     1      -6.749  -3.393 -35.025  1.00  0.00     0.014 A 
BRANCH  22  26
HETATM   26  O   UNL     1      -3.109  -4.184 -33.173  1.00  0.00    -0.356 OA
HETATM   27  C   UNL     1      -2.967  -3.565 -31.900  1.00  0.00     0.210 C 
ENDBRANCH  22  26
ENDBRANCH   1  20
TORSDOF 7
ENDMDL
MODEL 7
REMARK VINA RESULT:      -7.1      2.204      3.051
REMARK  7 active torsions:
REMARK  status: ('A' for Active; 'I' for Inactive)
REMARK    1  A    between atoms: O_2  and  C_3 
REMARK    2  A    between atoms: C_5  and  C_6 
REMARK    3  A    between atoms: C_10  and  N_11 
REMARK    4  A    between atoms: N_11  and  C_12 
REMARK    5  A    between atoms: C_12  and  S_13 
REMARK    6  A    between atoms: N_15  and  C_17 
REMARK    7  A    between atoms: C_17  and  C_18 
ROOT
HETATM    1  C   UNL     1      -4.016   1.541 -32.174  1.00  0.00     0.064 A 
HETATM    2  N   UNL     1      -4.890   2.396 -32.799  1.00  0.00    -0.276 N 
HETATM    3  H   UNL     1      -5.596   2.163 -33.490  1.00  0.00     0.189 HD
HETATM    4  N   UNL     1      -4.765   3.688 -32.435  1.00  0.00    -0.156 NA
HETATM    5  C   UNL     1      -3.801   3.665 -31.514  1.00  0.00     0.151 A 
HETATM    6  C   UNL     1      -3.313   2.359 -31.308  1.00  0.00     0.084 A 
ENDROOT
BRANCH   5   7
HETATM    7  N   UNL     1      -3.310   4.731 -30.858  1.00  0.00    -0.320 N 
HETATM    8  H   UNL     1      -3.834   5.135 -30.091  1.00  0.00     0.169 HD
BRANCH   7   9
HETATM    9  C   UNL     1      -2.107   5.430 -31.097  1.00  0.00     0.141 C 
HETATM   10  N   UNL     1      -1.576   6.139 -30.129  1.00  0.00    -0.365 N 
HETATM   11  H   UNL     1      -2.107   6.120 -29.252  1.00  0.00     0.162 HD
BRANCH   9  12
HETATM   12  S   UNL     1      -1.427   5.277 -32.670  1.00  0.00    -0.099 SA
HETATM   13  C   UNL     1      -2.315   6.604 -33.515  1.00  0.00     0.099 C 
ENDBRANCH   9  12
BRANCH  10  14
HETATM   14  C   UNL     1      -0.328   6.891 -30.205  1.00  0.00     0.186 C 
BRANCH  14  15
HETATM   15  C   UNL     1       0.202   7.162 -28.842  1.00  0.00     0.070 A 
HETATM   16  O   UNL     1      -0.279   6.407 -27.809  1.00  0.00    -0.325 OA
HETATM   17  C   UNL     1       0.351   6.827 -26.683  1.00  0.00     0.142 A 
HETATM   18  C   UNL     1       1.229   7.843 -26.971  1.00  0.00     0.027 A 
HETATM   19  C   UNL     1       1.135   8.063 -28.367  1.00  0.00     0.036 A 
ENDBRANCH  14  15
ENDBRANCH  10  14
ENDBRANCH   7   9
ENDBRANCH   5   7
BRANCH   1  20
HETATM   20  C   UNL     1      -3.915   0.100 -32.434  1.00  0.00    -0.005 A 
HETATM   21  C   UNL     1      -4.679  -0.486 -33.455  1.00  0.00     0.050 A 
HETATM   22  C   UNL     1      -4.647  -1.863 -33.702  1.00  0.00     0.069 A 
HETATM   23  C   UNL     1      -3.818  -2.675 -32.934  1.00  0.00     0.037 A 
HETATM   24  C   UNL     1      -3.043  -2.111 -31.918  1.00  0.00     0.004 A 
HETATM   25  C   UNL     1      -3.093  -0.736 -31.667  1.00  0.00     0.014 A 
BRANCH  22  26
HETATM   26  O   UNL     1      -5.462  -2.278 -34.719  1.00  0.00    -0.356 OA
HETATM   27  C   UNL     1      -6.862  -2.122 -34.522  1.00  0.00     0.210 C 
ENDBRANCH  22  26
ENDBRANCH   1  20
TORSDOF 7
ENDMDL
MODEL 8
REMARK VINA RESULT:      -6.9      2.954      3.980
REMARK  7 active torsions:
REMARK  status: ('A' for Active; 'I' for Inactive)
REMARK    1  A    between atoms: O_2  and  C_3 
REMARK    2  A    between atoms: C_5  and  C_6 
REMARK    3  A    between atoms: C_10  and  N_11 
REMARK    4  A    between atoms: N_11  and  C_12 
REMARK    5  A    between atoms: C_12  and  S_13 
REMARK    6  A    between atoms: N_15  and  C_17 
REMARK    7  A    between atoms: C_17  and  C_18 
ROOT
HETATM    1  C   UNL     1      -4.677   1.870 -32.654  1.00  0.00     0.064 A 
HETATM    2  N   UNL     1      -3.671   1.419 -31.836  1.00  0.00    -0.276 N 
HETATM    3  H   UNL     1      -3.449   0.457 -31.601  1.00  0.00     0.189 HD
HETATM    4  N   UNL     1      -2.914   2.393 -31.292  1.00  0.00    -0.156 NA
HETATM    5  C   UNL     1      -3.424   3.513 -31.804  1.00  0.00     0.151 A 
HETATM    6  C   UNL     1      -4.508   3.243 -32.662  1.00  0.00     0.084 A 
ENDROOT
BRANCH   5   7
HETATM    7  N   UNL     1      -3.003   4.764 -31.544  1.00  0.00    -0.320 N 
HETATM    8  H   UNL     1      -3.679   5.509 -31.434  1.00  0.00     0.169 HD
BRANCH   7   9
HETATM    9  C   UNL     1      -1.679   5.231 -31.406  1.00  0.00     0.141 C 
HETATM   10  N   UNL     1      -0.981   4.880 -30.351  1.00  0.00    -0.365 N 
HETATM   11  H   UNL     1      -1.486   4.275 -29.696  1.00  0.00     0.162 HD
BRANCH   9  12
HETATM   12  S   UNL     1      -1.081   6.236 -32.669  1.00  0.00    -0.099 SA
HETATM   13  C   UNL     1      -1.675   7.841 -32.088  1.00  0.00     0.099 C 
ENDBRANCH   9  12
BRANCH  10  14
HETATM   14  C   UNL     1       0.401   5.253 -30.077  1.00  0.00     0.186 C 
BRANCH  14  15
HETATM   15  C   UNL     1       0.461   6.288 -29.010  1.00  0.00     0.070 A 
HETATM   16  O   UNL     1       0.293   5.880 -27.716  1.00  0.00    -0.325 OA
HETATM   17  C   UNL     1       0.395   6.985 -26.935  1.00  0.00     0.142 A 
HETATM   18  C   UNL     1       0.626   8.101 -27.704  1.00  0.00     0.027 A 
HETATM   19  C   UNL     1       0.668   7.654 -29.046  1.00  0.00     0.036 A 
ENDBRANCH  14  15
ENDBRANCH  10  14
ENDBRANCH   7   9
ENDBRANCH   5   7
BRANCH   1  20
HETATM   20  C   UNL     1      -5.667   1.018 -33.322  1.00  0.00    -0.005 A 
HETATM   21  C   UNL     1      -6.936   1.528 -33.639  1.00  0.00     0.050 A 
HETATM   22  C   UNL     1      -7.923   0.733 -34.232  1.00  0.00     0.069 A 
HETATM   23  C   UNL     1      -7.637  -0.593 -34.542  1.00  0.00     0.037 A 
HETATM   24  C   UNL     1      -6.378  -1.118 -34.243  1.00  0.00     0.004 A 
HETATM   25  C   UNL     1      -5.402  -0.322 -33.636  1.00  0.00     0.014 A 
BRANCH  22  26
HETATM   26  O   UNL     1      -9.110   1.375 -34.459  1.00  0.00    -0.356 OA
HETATM   27  C   UNL     1     -10.224   0.957 -33.679  1.00  0.00     0.210 C 
ENDBRANCH  22  26
ENDBRANCH   1  20
TORSDOF 7
ENDMDL
MODEL 9
REMARK VINA RESULT:      -6.9      5.277      8.732
REMARK  7 active torsions:
REMARK  status: ('A' for Active; 'I' for Inactive)
REMARK    1  A    between atoms: O_2  and  C_3 
REMARK    2  A    between atoms: C_5  and  C_6 
REMARK    3  A    between atoms: C_10  and  N_11 
REMARK    4  A    between atoms: N_11  and  C_12 
REMARK    5  A    between atoms: C_12  and  S_13 
REMARK    6  A    between atoms: N_15  and  C_17 
REMARK    7  A    between atoms: C_17  and  C_18 
ROOT
HETATM    1  C   UNL     1      -9.275   1.852 -34.027  1.00  0.00     0.064 A 
HETATM    2  N   UNL     1      -8.703   1.069 -35.000  1.00  0.00    -0.276 N 
HETATM    3  H   UNL     1      -9.143   0.703 -35.838  1.00  0.00     0.189 HD
HETATM    4  N   UNL     1      -7.408   0.763 -34.781  1.00  0.00    -0.156 NA
HETATM    5  C   UNL     1      -7.120   1.401 -33.646  1.00  0.00     0.151 A 
HETATM    6  C   UNL     1      -8.237   2.099 -33.146  1.00  0.00     0.084 A 
ENDROOT
BRANCH   5   7
HETATM    7  N   UNL     1      -5.933   1.388 -33.013  1.00  0.00    -0.320 N 
HETATM    8  H   UNL     1      -5.546   2.252 -32.653  1.00  0.00     0.169 HD
BRANCH   7   9
HETATM    9  C   UNL     1      -5.083   0.289 -32.769  1.00  0.00     0.141 C 
HETATM   10  N   UNL     1      -4.902  -0.604 -33.713  1.00  0.00    -0.365 N 
HETATM   11  H   UNL     1      -5.420  -0.414 -34.577  1.00  0.00     0.162 HD
BRANCH   9  12
HETATM   12  S   UNL     1      -4.334   0.224 -31.220  1.00  0.00    -0.099 SA
HETATM   13  C   UNL     1      -5.516   1.205 -30.269  1.00  0.00     0.099 C 
ENDBRANCH   9  12
BRANCH  10  14
HETATM   14  C   UNL     1      -4.037  -1.775 -33.629  1.00  0.00     0.186 C 
BRANCH  14  15
HETATM   15  C   UNL     1      -4.733  -2.978 -34.158  1.00  0.00     0.070 A 
HETATM   16  O   UNL     1      -4.163  -4.198 -33.925  1.00  0.00    -0.325 OA
HETATM   17  C   UNL     1      -4.974  -5.130 -34.488  1.00  0.00     0.142 A 
HETATM   18  C   UNL     1      -6.058  -4.530 -35.084  1.00  0.00     0.027 A 
HETATM   19  C   UNL     1      -5.905  -3.139 -34.873  1.00  0.00     0.036 A 
ENDBRANCH  14  15
ENDBRANCH  10  14
ENDBRANCH   7   9
ENDBRANCH   5   7
BRANCH   1  20
HETATM   20  C   UNL     1     -10.679   2.277 -34.004  1.00  0.00    -0.005 A 
HETATM   21  C   UNL     1     -11.693   1.340 -33.753  1.00  0.00     0.050 A 
HETATM   22  C   UNL     1     -13.047   1.696 -33.770  1.00  0.00     0.069 A 
HETATM   23  C   UNL     1     -13.401   3.019 -34.019  1.00  0.00     0.037 A 
HETATM   24  C   UNL     1     -12.407   3.969 -34.263  1.00  0.00     0.004 A 
HETATM   25  C   UNL     1     -11.058   3.601 -34.260  1.00  0.00     0.014 A 
BRANCH  22  26
HETATM   26  O   UNL     1     -13.910   0.664 -33.525  1.00  0.00    -0.356 OA
HETATM   27  C   UNL     1     -15.113   0.640 -34.283  1.00  0.00     0.210 C 
ENDBRANCH  22  26
ENDBRANCH   1  20
TORSDOF 7
ENDMDL
MODEL 10
REMARK VINA RESULT:      -6.8      2.489      8.446
REMARK  7 active torsions:
REMARK  status: ('A' for Active; 'I' for Inactive)
REMARK    1  A    between atoms: O_2  and  C_3 
REMARK    2  A    between atoms: C_5  and  C_6 
REMARK    3  A    between atoms: C_10  and  N_11 
REMARK    4  A    between atoms: N_11  and  C_12 
REMARK    5  A    between atoms: C_12  and  S_13 
REMARK    6  A    between atoms: N_15  and  C_17 
REMARK    7  A    between atoms: C_17  and  C_18 
ROOT
HETATM    1  C   UNL     1      -3.735   3.913 -32.770  1.00  0.00     0.064 A 
HETATM    2  N   UNL     1      -3.492   2.603 -32.434  1.00  0.00    -0.276 N 
HETATM    3  H   UNL     1      -2.607   2.189 -32.162  1.00  0.00     0.189 HD
HETATM    4  N   UNL     1      -4.574   1.802 -32.491  1.00  0.00    -0.156 NA
HETATM    5  C   UNL     1      -5.561   2.627 -32.840  1.00  0.00     0.151 A 
HETATM    6  C   UNL     1      -5.097   3.946 -33.012  1.00  0.00     0.084 A 
ENDROOT
BRANCH   5   7
HETATM    7  N   UNL     1      -6.847   2.283 -33.035  1.00  0.00    -0.320 N 
HETATM    8  H   UNL     1      -7.581   2.955 -32.850  1.00  0.00     0.169 HD
BRANCH   7   9
HETATM    9  C   UNL     1      -7.366   1.046 -33.473  1.00  0.00     0.141 C 
HETATM   10  N   UNL     1      -6.716   0.367 -34.390  1.00  0.00    -0.365 N 
HETATM   11  H   UNL     1      -5.857   0.819 -34.718  1.00  0.00     0.162 HD
BRANCH   9  12
HETATM   12  S   UNL     1      -8.833   0.523 -32.741  1.00  0.00    -0.099 SA
HETATM   13  C   UNL     1      -9.043   1.832 -31.513  1.00  0.00     0.099 C 
ENDBRANCH   9  12
BRANCH  10  14
HETATM   14  C   UNL     1      -7.102  -0.933 -34.925  1.00  0.00     0.186 C 
BRANCH  14  15
HETATM   15  C   UNL     1      -6.055  -1.950 -34.635  1.00  0.00     0.070 A 
HETATM   16  O   UNL     1      -4.999  -1.571 -33.854  1.00  0.00    -0.325 OA
HETATM   17  C   UNL     1      -4.192  -2.654 -33.725  1.00  0.00     0.142 A 
HETATM   18  C   UNL     1      -4.709  -3.726 -34.411  1.00  0.00     0.027 A 
HETATM   19  C   UNL     1      -5.914  -3.274 -35.001  1.00  0.00     0.036 A 
ENDBRANCH  14  15
ENDBRANCH  10  14
ENDBRANCH   7   9
ENDBRANCH   5   7
BRANCH   1  20
HETATM   20  C   UNL     1      -2.719   4.969 -32.837  1.00  0.00    -0.005 A 
HETATM   21  C   UNL     1      -1.559   4.879 -32.052  1.00  0.00     0.050 A 
HETATM   22  C   UNL     1      -0.589   5.889 -32.051  1.00  0.00     0.069 A 
HETATM   23  C   UNL     1      -0.763   7.002 -32.868  1.00  0.00     0.037 A 
HETATM   24  C   UNL     1      -1.906   7.108 -33.663  1.00  0.00     0.004 A 
HETATM   25  C   UNL     1      -2.878   6.102 -33.645  1.00  0.00     0.014 A 
BRANCH  22  26
HETATM   26  O   UNL     1       0.472   5.659 -31.219  1.00  0.00    -0.356 OA
HETATM   27  C   UNL     1       0.166   5.280 -29.882  1.00  0.00     0.210 C 
ENDBRANCH  22  26
ENDBRANCH   1  20
TORSDOF 7
ENDMDL
