MODEL 1
REMARK VINA RESULT:      -8.9      0.000      0.000
REMARK  7 active torsions:
REMARK  status: ('A' for Active; 'I' for Inactive)
REMARK    1  A    between atoms: C_2  and  C_3 
REMARK    2  A    between atoms: C_2  and  C_20 
REMARK    3  A    between atoms: C_3  and  C_4 
REMARK       I    between atoms: C_4  and  N_5 
REMARK    4  A    between atoms: N_5  and  C_6 
REMARK    5  A    between atoms: C_13  and  C_14 
REMARK       I    between atoms: C_14  and  N_15 
REMARK    6  A    between atoms: C_20  and  C_21 
REMARK    7  A    between atoms: C_22  and  O_23 
ROOT
HETATM    1  C   UNL     1      -7.171   0.481 -31.786  1.00  0.00     0.222 C 
HETATM    2  N   UNL     1      -7.871   0.340 -32.974  1.00  0.00    -0.327 N 
HETATM    3  O   UNL     1      -7.349   1.341 -30.933  1.00  0.00    -0.273 OA
HETATM    4  H   UNL     1      -7.556  -0.391 -33.598  1.00  0.00     0.169 HD
ENDROOT
BRANCH   2   5
HETATM    5  C   UNL     1      -8.994   1.073 -33.411  1.00  0.00     0.035 A 
HETATM    6  C   UNL     1     -10.295   0.554 -33.467  1.00  0.00     0.046 A 
HETATM    7  C   UNL     1     -11.349   1.368 -33.944  1.00  0.00     0.030 A 
HETATM    8  C   UNL     1     -11.063   2.665 -34.350  1.00  0.00     0.063 A 
HETATM    9  C   UNL     1     -12.755   1.219 -34.148  1.00  0.00     0.156 A 
HETATM   10  N   UNL     1     -12.258   3.189 -34.758  1.00  0.00    -0.277 N 
HETATM   11  C   UNL     1      -9.782   3.215 -34.305  1.00  0.00     0.034 A 
HETATM   12  H   UNL     1     -12.426   4.120 -35.121  1.00  0.00     0.189 HD
HETATM   13  N   UNL     1     -13.300   2.351 -34.650  1.00  0.00    -0.168 NA
HETATM   14  C   UNL     1      -8.757   2.391 -33.825  1.00  0.00     0.032 A 
BRANCH   9  15
HETATM   15  C   UNL     1     -13.583   0.035 -33.876  1.00  0.00     0.270 C 
HETATM   16  N   UNL     1     -14.878   0.153 -34.304  1.00  0.00    -0.365 N 
HETATM   17  H   UNL     1     -15.164   1.012 -34.756  1.00  0.00     0.159 HD
HETATM   18  H   UNL     1     -15.523  -0.607 -34.155  1.00  0.00     0.159 HD
HETATM   19  O   UNL     1     -13.189  -0.982 -33.319  1.00  0.00    -0.266 OA
ENDBRANCH   9  15
ENDBRANCH   2   5
BRANCH   1  20
HETATM   20  C   UNL     1      -6.075  -0.571 -31.650  1.00  0.00     0.107 C 
BRANCH  20  21
HETATM   21  C   UNL     1      -4.721  -0.113 -32.216  1.00  0.00    -0.006 C 
HETATM   22  C   UNL     1      -3.578  -0.187 -31.197  1.00  0.00     0.011 C 
BRANCH  21  23
HETATM   23  C   UNL     1      -4.372  -0.798 -33.561  1.00  0.00     0.046 C 
BRANCH  23  24
HETATM   24  C   UNL     1      -4.982  -2.116 -34.013  1.00  0.00    -0.024 A 
HETATM   25  C   UNL     1      -4.296  -3.315 -33.702  1.00  0.00     0.074 A 
HETATM   26  C   UNL     1      -4.806  -4.554 -34.112  1.00  0.00     0.037 A 
HETATM   27  C   UNL     1      -6.009  -4.624 -34.812  1.00  0.00     0.003 A 
HETATM   28  C   UNL     1      -6.707  -3.460 -35.100  1.00  0.00     0.001 A 
HETATM   29  C   UNL     1      -6.201  -2.220 -34.701  1.00  0.00     0.010 A 
BRANCH  25  30
HETATM   30  O   UNL     1      -3.121  -3.170 -33.006  1.00  0.00    -0.355 OA
HETATM   31  C   UNL     1      -3.037  -3.805 -31.736  1.00  0.00     0.210 C 
ENDBRANCH  25  30
ENDBRANCH  23  24
ENDBRANCH  21  23
ENDBRANCH  20  21
ENDBRANCH   1  20
TORSDOF 7
ENDMDL
MODEL 2
REMARK VINA RESULT:      -8.7      4.524      7.377
REMARK  7 active torsions:
REMARK  status: ('A' for Active; 'I' for Inactive)
REMARK    1  A    between atoms: C_2  and  C_3 
REMARK    2  A    between atoms: C_2  and  C_20 
REMARK    3  A    between atoms: C_3  and  C_4 
REMARK       I    between atoms: C_4  and  N_5 
REMARK    4  A    between atoms: N_5  and  C_6 
REMARK    5  A    between atoms: C_13  and  C_14 
REMARK       I    between atoms: C_14  and  N_15 
REMARK    6  A    between atoms: C_20  and  C_21 
REMARK    7  A    between atoms: C_22  and  O_23 
ROOT
HETATM    1  C   UNL     1      -6.121   1.643 -31.639  1.00  0.00     0.222 C 
HETATM    2  N   UNL     1      -4.959   1.859 -32.363  1.00  0.00    -0.327 N 
HETATM    3  O   UNL     1      -6.772   2.487 -31.037  1.00  0.00    -0.273 OA
HETATM    4  H   UNL     1      -4.511   1.039 -32.750  1.00  0.00     0.169 HD
ENDROOT
BRANCH   2   5
HETATM    5  C   UNL     1      -4.335   3.090 -32.655  1.00  0.00     0.035 A 
HETATM    6  C   UNL     1      -3.169   3.547 -32.027  1.00  0.00     0.046 A 
HETATM    7  C   UNL     1      -2.638   4.809 -32.379  1.00  0.00     0.030 A 
HETATM    8  C   UNL     1      -3.293   5.568 -33.341  1.00  0.00     0.063 A 
HETATM    9  C   UNL     1      -1.514   5.600 -31.989  1.00  0.00     0.156 A 
HETATM   10  N   UNL     1      -2.560   6.715 -33.459  1.00  0.00    -0.277 N 
HETATM   11  C   UNL     1      -4.453   5.143 -33.988  1.00  0.00     0.034 A 
HETATM   12  H   UNL     1      -2.747   7.502 -34.071  1.00  0.00     0.189 HD
HETATM   13  N   UNL     1      -1.481   6.772 -32.663  1.00  0.00    -0.168 NA
HETATM   14  C   UNL     1      -4.957   3.889 -33.626  1.00  0.00     0.032 A 
BRANCH   9  15
HETATM   15  C   UNL     1      -0.481   5.267 -30.997  1.00  0.00     0.270 C 
HETATM   16  N   UNL     1      -0.801   5.630 -29.717  1.00  0.00    -0.365 N 
HETATM   17  H   UNL     1      -1.689   6.086 -29.549  1.00  0.00     0.159 HD
HETATM   18  H   UNL     1      -0.150   5.448 -28.970  1.00  0.00     0.159 HD
HETATM   19  O   UNL     1       0.583   4.718 -31.253  1.00  0.00    -0.266 OA
ENDBRANCH   9  15
ENDBRANCH   2   5
BRANCH   1  20
HETATM   20  C   UNL     1      -6.515   0.169 -31.632  1.00  0.00     0.107 C 
BRANCH  20  21
HETATM   21  C   UNL     1      -7.259  -0.266 -32.905  1.00  0.00    -0.006 C 
HETATM   22  C   UNL     1      -8.279   0.767 -33.398  1.00  0.00     0.011 C 
BRANCH  21  23
HETATM   23  C   UNL     1      -6.301  -0.745 -34.024  1.00  0.00     0.046 C 
BRANCH  23  24
HETATM   24  C   UNL     1      -5.936  -2.205 -34.247  1.00  0.00    -0.024 A 
HETATM   25  C   UNL     1      -4.620  -2.622 -33.931  1.00  0.00     0.074 A 
HETATM   26  C   UNL     1      -4.227  -3.951 -34.136  1.00  0.00     0.037 A 
HETATM   27  C   UNL     1      -5.134  -4.886 -34.629  1.00  0.00     0.003 A 
HETATM   28  C   UNL     1      -6.436  -4.499 -34.915  1.00  0.00     0.001 A 
HETATM   29  C   UNL     1      -6.832  -3.173 -34.722  1.00  0.00     0.010 A 
BRANCH  25  30
HETATM   30  O   UNL     1      -3.782  -1.648 -33.445  1.00  0.00    -0.355 OA
HETATM   31  C   UNL     1      -3.352  -1.779 -32.096  1.00  0.00     0.210 C 
ENDBRANCH  25  30
ENDBRANCH  23  24
ENDBRANCH  21  23
ENDBRANCH  20  21
ENDBRANCH   1  20
TORSDOF 7
ENDMDL
MODEL 3
REMARK VINA RESULT:      -8.4      5.217      8.153
REMARK  7 active torsions:
REMARK  status: ('A' for Active; 'I' for Inactive)
REMARK    1  A    between atoms: C_2  and  C_3 
REMARK    2  A    between atoms: C_2  and  C_20 
REMARK    3  A    between atoms: C_3  and  C_4 
REMARK       I    between atoms: C_4  and  N_5 
REMARK    4  A    between atoms: N_5  and  C_6 
REMARK    5  A    between atoms: C_13  and  C_14 
REMARK       I    between atoms: C_14  and  N_15 
REMARK    6  A    between atoms: C_20  and  C_21 
REMARK    7  A    between atoms: C_22  and  O_23 
ROOT
HETATM    1  C   UNL     1      -5.508   2.934 -32.449  1.00  0.00     0.222 C 
HETATM    2  N   UNL     1      -4.211   2.998 -32.931  1.00  0.00    -0.327 N 
HETATM    3  O   UNL     1      -6.084   3.790 -31.790  1.00  0.00    -0.273 OA
HETATM    4  H   UNL     1      -3.867   2.175 -33.409  1.00  0.00     0.169 HD
ENDROOT
BRANCH   2   5
HETATM    5  C   UNL     1      -3.313   4.084 -32.865  1.00  0.00     0.035 A 
HETATM    6  C   UNL     1      -2.282   4.194 -31.922  1.00  0.00     0.046 A 
HETATM    7  C   UNL     1      -1.452   5.338 -31.929  1.00  0.00     0.030 A 
HETATM    8  C   UNL     1      -1.684   6.330 -32.874  1.00  0.00     0.063 A 
HETATM    9  C   UNL     1      -0.338   5.808 -31.168  1.00  0.00     0.156 A 
HETATM   10  N   UNL     1      -0.744   7.291 -32.630  1.00  0.00    -0.277 N 
HETATM   11  C   UNL     1      -2.698   6.252 -33.829  1.00  0.00     0.034 A 
HETATM   12  H   UNL     1      -0.617   8.165 -33.128  1.00  0.00     0.189 HD
HETATM   13  N   UNL     1       0.086   7.013 -31.613  1.00  0.00    -0.168 NA
HETATM   14  C   UNL     1      -3.504   5.108 -33.804  1.00  0.00     0.032 A 
BRANCH   9  15
HETATM   15  C   UNL     1       0.325   5.141 -30.038  1.00  0.00     0.270 C 
HETATM   16  N   UNL     1      -0.168   5.500 -28.813  1.00  0.00    -0.365 N 
HETATM   17  H   UNL     1      -0.921   6.175 -28.772  1.00  0.00     0.159 HD
HETATM   18  H   UNL     1       0.230   5.099 -27.979  1.00  0.00     0.159 HD
HETATM   19  O   UNL     1       1.240   4.333 -30.141  1.00  0.00    -0.266 OA
ENDBRANCH   9  15
ENDBRANCH   2   5
BRANCH   1  20
HETATM   20  C   UNL     1      -6.178   1.611 -32.807  1.00  0.00     0.107 C 
BRANCH  20  21
HETATM   21  C   UNL     1      -5.385   0.382 -32.333  1.00  0.00    -0.006 C 
HETATM   22  C   UNL     1      -6.179  -0.528 -31.389  1.00  0.00     0.011 C 
BRANCH  21  23
HETATM   23  C   UNL     1      -4.726  -0.392 -33.501  1.00  0.00     0.046 C 
BRANCH  23  24
HETATM   24  C   UNL     1      -5.185  -1.769 -33.960  1.00  0.00    -0.024 A 
HETATM   25  C   UNL     1      -4.392  -2.890 -33.613  1.00  0.00     0.074 A 
HETATM   26  C   UNL     1      -4.759  -4.177 -34.026  1.00  0.00     0.037 A 
HETATM   27  C   UNL     1      -5.925  -4.374 -34.764  1.00  0.00     0.003 A 
HETATM   28  C   UNL     1      -6.728  -3.289 -35.087  1.00  0.00     0.001 A 
HETATM   29  C   UNL     1      -6.363  -2.001 -34.685  1.00  0.00     0.010 A 
BRANCH  25  30
HETATM   30  O   UNL     1      -3.261  -2.620 -32.881  1.00  0.00    -0.355 OA
HETATM   31  C   UNL     1      -2.953  -3.509 -31.814  1.00  0.00     0.210 C 
ENDBRANCH  25  30
ENDBRANCH  23  24
ENDBRANCH  21  23
ENDBRANCH  20  21
ENDBRANCH   1  20
TORSDOF 7
ENDMDL
MODEL 4
REMARK VINA RESULT:      -8.4      4.070      6.554
REMARK  7 active torsions:
REMARK  status: ('A' for Active; 'I' for Inactive)
REMARK    1  A    between atoms: C_2  and  C_3 
REMARK    2  A    between atoms: C_2  and  C_20 
REMARK    3  A    between atoms: C_3  and  C_4 
REMARK       I    between atoms: C_4  and  N_5 
REMARK    4  A    between atoms: N_5  and  C_6 
REMARK    5  A    between atoms: C_13  and  C_14 
REMARK       I    between atoms: C_14  and  N_15 
REMARK    6  A    between atoms: C_20  and  C_21 
REMARK    7  A    between atoms: C_22  and  O_23 
ROOT
HETATM    1  C   UNL     1      -7.478   1.019 -32.520  1.00  0.00     0.222 C 
HETATM    2  N   UNL     1      -6.159   1.298 -32.201  1.00  0.00    -0.327 N 
HETATM    3  O   UNL     1      -8.407   1.817 -32.542  1.00  0.00    -0.273 OA
HETATM    4  H   UNL     1      -5.526   0.509 -32.173  1.00  0.00     0.169 HD
ENDROOT
BRANCH   2   5
HETATM    5  C   UNL     1      -5.577   2.556 -31.938  1.00  0.00     0.035 A 
HETATM    6  C   UNL     1      -4.841   3.291 -32.878  1.00  0.00     0.046 A 
HETATM    7  C   UNL     1      -4.279   4.533 -32.504  1.00  0.00     0.030 A 
HETATM    8  C   UNL     1      -4.470   4.992 -31.207  1.00  0.00     0.063 A 
HETATM    9  C   UNL     1      -3.497   5.544 -33.141  1.00  0.00     0.156 A 
HETATM   10  N   UNL     1      -3.816   6.191 -31.146  1.00  0.00    -0.277 N 
HETATM   11  C   UNL     1      -5.198   4.289 -30.247  1.00  0.00     0.034 A 
HETATM   12  H   UNL     1      -3.742   6.809 -30.346  1.00  0.00     0.189 HD
HETATM   13  N   UNL     1      -3.219   6.559 -32.291  1.00  0.00    -0.168 NA
HETATM   14  C   UNL     1      -5.748   3.064 -30.642  1.00  0.00     0.032 A 
BRANCH   9  15
HETATM   15  C   UNL     1      -3.013   5.566 -34.530  1.00  0.00     0.270 C 
HETATM   16  N   UNL     1      -1.651   5.659 -34.642  1.00  0.00    -0.365 N 
HETATM   17  H   UNL     1      -1.097   5.709 -33.797  1.00  0.00     0.159 HD
HETATM   18  H   UNL     1      -1.228   5.688 -35.556  1.00  0.00     0.159 HD
HETATM   19  O   UNL     1      -3.728   5.508 -35.521  1.00  0.00    -0.266 OA
ENDBRANCH   9  15
ENDBRANCH   2   5
BRANCH   1  20
HETATM   20  C   UNL     1      -7.684  -0.461 -32.826  1.00  0.00     0.107 C 
BRANCH  20  21
HETATM   21  C   UNL     1      -7.149  -0.875 -34.207  1.00  0.00    -0.006 C 
HETATM   22  C   UNL     1      -7.759  -0.075 -35.362  1.00  0.00     0.011 C 
BRANCH  21  23
HETATM   23  C   UNL     1      -5.602  -0.922 -34.259  1.00  0.00     0.046 C 
BRANCH  23  24
HETATM   24  C   UNL     1      -4.782  -2.110 -33.779  1.00  0.00    -0.024 A 
HETATM   25  C   UNL     1      -4.042  -1.974 -32.579  1.00  0.00     0.074 A 
HETATM   26  C   UNL     1      -3.256  -3.031 -32.103  1.00  0.00     0.037 A 
HETATM   27  C   UNL     1      -3.212  -4.241 -32.791  1.00  0.00     0.003 A 
HETATM   28  C   UNL     1      -3.953  -4.401 -33.954  1.00  0.00     0.001 A 
HETATM   29  C   UNL     1      -4.733  -3.347 -34.439  1.00  0.00     0.010 A 
BRANCH  25  30
HETATM   30  O   UNL     1      -4.138  -0.755 -31.951  1.00  0.00    -0.355 OA
HETATM   31  C   UNL     1      -2.960  -0.250 -31.335  1.00  0.00     0.210 C 
ENDBRANCH  25  30
ENDBRANCH  23  24
ENDBRANCH  21  23
ENDBRANCH  20  21
ENDBRANCH   1  20
TORSDOF 7
ENDMDL
MODEL 5
REMARK VINA RESULT:      -8.3      5.307      8.379
REMARK  7 active torsions:
REMARK  status: ('A' for Active; 'I' for Inactive)
REMARK    1  A    between atoms: C_2  and  C_3 
REMARK    2  A    between atoms: C_2  and  C_20 
REMARK    3  A    between atoms: C_3  and  C_4 
REMARK       I    between atoms: C_4  and  N_5 
REMARK    4  A    between atoms: N_5  and  C_6 
REMARK    5  A    between atoms: C_13  and  C_14 
REMARK       I    between atoms: C_14  and  N_15 
REMARK    6  A    between atoms: C_20  and  C_21 
REMARK    7  A    between atoms: C_22  and  O_23 
ROOT
HETATM    1  C   UNL     1      -5.367   2.919 -32.510  1.00  0.00     0.222 C 
HETATM    2  N   UNL     1      -4.120   3.074 -33.094  1.00  0.00    -0.327 N 
HETATM    3  O   UNL     1      -5.881   3.658 -31.681  1.00  0.00    -0.273 OA
HETATM    4  H   UNL     1      -3.820   2.337 -33.719  1.00  0.00     0.169 HD
ENDROOT
BRANCH   2   5
HETATM    5  C   UNL     1      -3.223   4.153 -32.950  1.00  0.00     0.035 A 
HETATM    6  C   UNL     1      -2.261   4.243 -31.935  1.00  0.00     0.046 A 
HETATM    7  C   UNL     1      -1.425   5.381 -31.867  1.00  0.00     0.030 A 
HETATM    8  C   UNL     1      -1.583   6.387 -32.813  1.00  0.00     0.063 A 
HETATM    9  C   UNL     1      -0.366   5.834 -31.023  1.00  0.00     0.156 A 
HETATM   10  N   UNL     1      -0.656   7.338 -32.490  1.00  0.00    -0.277 N 
HETATM   11  C   UNL     1      -2.527   6.328 -33.839  1.00  0.00     0.034 A 
HETATM   12  H   UNL     1      -0.489   8.217 -32.966  1.00  0.00     0.189 HD
HETATM   13  N   UNL     1       0.097   7.042 -31.420  1.00  0.00    -0.168 NA
HETATM   14  C   UNL     1      -3.340   5.190 -33.887  1.00  0.00     0.032 A 
BRANCH   9  15
HETATM   15  C   UNL     1       0.211   5.148 -29.857  1.00  0.00     0.270 C 
HETATM   16  N   UNL     1      -0.154   5.691 -28.655  1.00  0.00    -0.365 N 
HETATM   17  H   UNL     1      -0.767   6.497 -28.653  1.00  0.00     0.159 HD
HETATM   18  H   UNL     1       0.200   5.292 -27.800  1.00  0.00     0.159 HD
HETATM   19  O   UNL     1       0.955   4.177 -29.914  1.00  0.00    -0.266 OA
ENDBRANCH   9  15
ENDBRANCH   2   5
BRANCH   1  20
HETATM   20  C   UNL     1      -6.064   1.653 -32.998  1.00  0.00     0.107 C 
BRANCH  20  21
HETATM   21  C   UNL     1      -5.456   0.364 -32.420  1.00  0.00    -0.006 C 
HETATM   22  C   UNL     1      -6.369  -0.341 -31.411  1.00  0.00     0.011 C 
BRANCH  21  23
HETATM   23  C   UNL     1      -4.922  -0.590 -33.516  1.00  0.00     0.046 C 
BRANCH  23  24
HETATM   24  C   UNL     1      -4.298  -1.945 -33.218  1.00  0.00    -0.024 A 
HETATM   25  C   UNL     1      -4.604  -3.028 -34.078  1.00  0.00     0.074 A 
HETATM   26  C   UNL     1      -4.071  -4.301 -33.836  1.00  0.00     0.037 A 
HETATM   27  C   UNL     1      -3.213  -4.513 -32.760  1.00  0.00     0.003 A 
HETATM   28  C   UNL     1      -2.881  -3.455 -31.924  1.00  0.00     0.001 A 
HETATM   29  C   UNL     1      -3.416  -2.184 -32.154  1.00  0.00     0.010 A 
BRANCH  25  30
HETATM   30  O   UNL     1      -5.452  -2.744 -35.121  1.00  0.00    -0.355 OA
HETATM   31  C   UNL     1      -6.792  -3.209 -35.010  1.00  0.00     0.210 C 
ENDBRANCH  25  30
ENDBRANCH  23  24
ENDBRANCH  21  23
ENDBRANCH  20  21
ENDBRANCH   1  20
TORSDOF 7
ENDMDL
MODEL 6
REMARK VINA RESULT:      -8.0      5.345      7.822
REMARK  7 active torsions:
REMARK  status: ('A' for Active; 'I' for Inactive)
REMARK    1  A    between atoms: C_2  and  C_3 
REMARK    2  A    between atoms: C_2  and  C_20 
REMARK    3  A    between atoms: C_3  and  C_4 
REMARK       I    between atoms: C_4  and  N_5 
REMARK    4  A    between atoms: N_5  and  C_6 
REMARK    5  A    between atoms: C_13  and  C_14 
REMARK       I    between atoms: C_14  and  N_15 
REMARK    6  A    between atoms: C_20  and  C_21 
REMARK    7  A    between atoms: C_22  and  O_23 
ROOT
HETATM    1  C   UNL     1      -4.577   2.350 -30.914  1.00  0.00     0.222 C 
HETATM    2  N   UNL     1      -3.287   2.757 -31.211  1.00  0.00    -0.327 N 
HETATM    3  O   UNL     1      -5.599   3.013 -31.046  1.00  0.00    -0.273 OA
HETATM    4  H   UNL     1      -2.546   2.105 -30.986  1.00  0.00     0.169 HD
ENDROOT
BRANCH   2   5
HETATM    5  C   UNL     1      -2.874   3.961 -31.820  1.00  0.00     0.035 A 
HETATM    6  C   UNL     1      -2.791   5.190 -31.151  1.00  0.00     0.046 A 
HETATM    7  C   UNL     1      -2.388   6.343 -31.863  1.00  0.00     0.030 A 
HETATM    8  C   UNL     1      -2.086   6.227 -33.214  1.00  0.00     0.063 A 
HETATM    9  C   UNL     1      -2.184   7.724 -31.558  1.00  0.00     0.156 A 
HETATM   10  N   UNL     1      -1.743   7.486 -33.619  1.00  0.00    -0.277 N 
HETATM   11  C   UNL     1      -2.155   5.020 -33.910  1.00  0.00     0.034 A 
HETATM   12  H   UNL     1      -1.465   7.776 -34.550  1.00  0.00     0.189 HD
HETATM   13  N   UNL     1      -1.787   8.414 -32.651  1.00  0.00    -0.168 NA
HETATM   14  C   UNL     1      -2.553   3.892 -33.183  1.00  0.00     0.032 A 
BRANCH   9  15
HETATM   15  C   UNL     1      -2.357   8.394 -30.260  1.00  0.00     0.270 C 
HETATM   16  N   UNL     1      -3.657   8.708 -29.966  1.00  0.00    -0.365 N 
HETATM   17  H   UNL     1      -4.377   8.470 -30.636  1.00  0.00     0.159 HD
HETATM   18  H   UNL     1      -3.872   9.176 -29.100  1.00  0.00     0.159 HD
HETATM   19  O   UNL     1      -1.448   8.665 -29.486  1.00  0.00    -0.266 OA
ENDBRANCH   9  15
ENDBRANCH   2   5
BRANCH   1  20
HETATM   20  C   UNL     1      -4.606   0.935 -30.345  1.00  0.00     0.107 C 
BRANCH  20  21
HETATM   21  C   UNL     1      -5.529  -0.015 -31.127  1.00  0.00    -0.006 C 
HETATM   22  C   UNL     1      -7.019   0.229 -30.863  1.00  0.00     0.011 C 
BRANCH  21  23
HETATM   23  C   UNL     1      -5.187  -0.073 -32.636  1.00  0.00     0.046 C 
BRANCH  23  24
HETATM   24  C   UNL     1      -5.422  -1.301 -33.502  1.00  0.00    -0.024 A 
HETATM   25  C   UNL     1      -4.418  -2.300 -33.537  1.00  0.00     0.074 A 
HETATM   26  C   UNL     1      -4.577  -3.441 -34.333  1.00  0.00     0.037 A 
HETATM   27  C   UNL     1      -5.737  -3.621 -35.083  1.00  0.00     0.003 A 
HETATM   28  C   UNL     1      -6.743  -2.665 -35.038  1.00  0.00     0.001 A 
HETATM   29  C   UNL     1      -6.587  -1.519 -34.252  1.00  0.00     0.010 A 
BRANCH  25  30
HETATM   30  O   UNL     1      -3.305  -2.058 -32.769  1.00  0.00    -0.355 OA
HETATM   31  C   UNL     1      -2.963  -3.039 -31.797  1.00  0.00     0.210 C 
ENDBRANCH  25  30
ENDBRANCH  23  24
ENDBRANCH  21  23
ENDBRANCH  20  21
ENDBRANCH   1  20
TORSDOF 7
ENDMDL
MODEL 7
REMARK VINA RESULT:      -7.9      4.044      6.310
REMARK  7 active torsions:
REMARK  status: ('A' for Active; 'I' for Inactive)
REMARK    1  A    between atoms: C_2  and  C_3 
REMARK    2  A    between atoms: C_2  and  C_20 
REMARK    3  A    between atoms: C_3  and  C_4 
REMARK       I    between atoms: C_4  and  N_5 
REMARK    4  A    between atoms: N_5  and  C_6 
REMARK    5  A    between atoms: C_13  and  C_14 
REMARK       I    between atoms: C_14  and  N_15 
REMARK    6  A    between atoms: C_20  and  C_21 
REMARK    7  A    between atoms: C_22  and  O_23 
ROOT
HETATM    1  C   UNL     1      -7.222   1.076 -32.154  1.00  0.00     0.222 C 
HETATM    2  N   UNL     1      -5.899   1.437 -31.956  1.00  0.00    -0.327 N 
HETATM    3  O   UNL     1      -8.202   1.799 -32.030  1.00  0.00    -0.273 OA
HETATM    4  H   UNL     1      -5.213   0.699 -32.043  1.00  0.00     0.169 HD
ENDROOT
BRANCH   2   5
HETATM    5  C   UNL     1      -5.382   2.720 -31.677  1.00  0.00     0.035 A 
HETATM    6  C   UNL     1      -5.619   3.419 -30.486  1.00  0.00     0.046 A 
HETATM    7  C   UNL     1      -5.072   4.711 -30.317  1.00  0.00     0.030 A 
HETATM    8  C   UNL     1      -4.313   5.258 -31.344  1.00  0.00     0.063 A 
HETATM    9  C   UNL     1      -5.080   5.709 -29.294  1.00  0.00     0.156 A 
HETATM   10  N   UNL     1      -3.935   6.493 -30.898  1.00  0.00    -0.277 N 
HETATM   11  C   UNL     1      -4.055   4.590 -32.541  1.00  0.00     0.034 A 
HETATM   12  H   UNL     1      -3.371   7.177 -31.392  1.00  0.00     0.189 HD
HETATM   13  N   UNL     1      -4.375   6.801 -29.669  1.00  0.00    -0.168 NA
HETATM   14  C   UNL     1      -4.604   3.310 -32.683  1.00  0.00     0.032 A 
BRANCH   9  15
HETATM   15  C   UNL     1      -5.737   5.645 -27.981  1.00  0.00     0.270 C 
HETATM   16  N   UNL     1      -4.938   5.155 -26.982  1.00  0.00    -0.365 N 
HETATM   17  H   UNL     1      -3.992   4.879 -27.210  1.00  0.00     0.159 HD
HETATM   18  H   UNL     1      -5.306   5.068 -26.048  1.00  0.00     0.159 HD
HETATM   19  O   UNL     1      -6.891   5.988 -27.758  1.00  0.00    -0.266 OA
ENDBRANCH   9  15
ENDBRANCH   2   5
BRANCH   1  20
HETATM   20  C   UNL     1      -7.354  -0.397 -32.529  1.00  0.00     0.107 C 
BRANCH  20  21
HETATM   21  C   UNL     1      -7.537  -0.625 -34.038  1.00  0.00    -0.006 C 
HETATM   22  C   UNL     1      -8.225   0.544 -34.752  1.00  0.00     0.011 C 
BRANCH  21  23
HETATM   23  C   UNL     1      -6.231  -1.073 -34.739  1.00  0.00     0.046 C 
BRANCH  23  24
HETATM   24  C   UNL     1      -5.545  -2.402 -34.464  1.00  0.00    -0.024 A 
HETATM   25  C   UNL     1      -4.394  -2.406 -33.638  1.00  0.00     0.074 A 
HETATM   26  C   UNL     1      -3.714  -3.601 -33.369  1.00  0.00     0.037 A 
HETATM   27  C   UNL     1      -4.176  -4.807 -33.892  1.00  0.00     0.003 A 
HETATM   28  C   UNL     1      -5.319  -4.824 -34.679  1.00  0.00     0.001 A 
HETATM   29  C   UNL     1      -5.997  -3.634 -34.959  1.00  0.00     0.010 A 
BRANCH  25  30
HETATM   30  O   UNL     1      -4.000  -1.181 -33.155  1.00  0.00    -0.355 OA
HETATM   31  C   UNL     1      -3.197  -1.177 -31.981  1.00  0.00     0.210 C 
ENDBRANCH  25  30
ENDBRANCH  23  24
ENDBRANCH  21  23
ENDBRANCH  20  21
ENDBRANCH   1  20
TORSDOF 7
ENDMDL
MODEL 8
REMARK VINA RESULT:      -7.9      4.529      6.262
REMARK  7 active torsions:
REMARK  status: ('A' for Active; 'I' for Inactive)
REMARK    1  A    between atoms: C_2  and  C_3 
REMARK    2  A    between atoms: C_2  and  C_20 
REMARK    3  A    between atoms: C_3  and  C_4 
REMARK       I    between atoms: C_4  and  N_5 
REMARK    4  A    between atoms: N_5  and  C_6 
REMARK    5  A    between atoms: C_13  and  C_14 
REMARK       I    between atoms: C_14  and  N_15 
REMARK    6  A    between atoms: C_20  and  C_21 
REMARK    7  A    between atoms: C_22  and  O_23 
ROOT
HETATM    1  C   UNL     1      -6.532   2.953 -33.148  1.00  0.00     0.222 C 
HETATM    2  N   UNL     1      -6.855   2.812 -31.808  1.00  0.00    -0.327 N 
HETATM    3  O   UNL     1      -6.716   3.945 -33.842  1.00  0.00    -0.273 OA
HETATM    4  H   UNL     1      -6.690   1.902 -31.398  1.00  0.00     0.169 HD
ENDROOT
BRANCH   2   5
HETATM    5  C   UNL     1      -7.360   3.794 -30.930  1.00  0.00     0.035 A 
HETATM    6  C   UNL     1      -6.586   4.458 -29.968  1.00  0.00     0.046 A 
HETATM    7  C   UNL     1      -7.197   5.410 -29.120  1.00  0.00     0.030 A 
HETATM    8  C   UNL     1      -8.556   5.660 -29.261  1.00  0.00     0.063 A 
HETATM    9  C   UNL     1      -6.773   6.268 -28.059  1.00  0.00     0.156 A 
HETATM   10  N   UNL     1      -8.852   6.603 -28.317  1.00  0.00    -0.277 N 
HETATM   11  C   UNL     1      -9.356   5.020 -30.208  1.00  0.00     0.034 A 
HETATM   12  H   UNL     1      -9.757   7.021 -28.131  1.00  0.00     0.189 HD
HETATM   13  N   UNL     1      -7.806   6.996 -27.575  1.00  0.00    -0.168 NA
HETATM   14  C   UNL     1      -8.727   4.084 -31.039  1.00  0.00     0.032 A 
BRANCH   9  15
HETATM   15  C   UNL     1      -5.420   6.409 -27.502  1.00  0.00     0.270 C 
HETATM   16  N   UNL     1      -5.015   5.340 -26.748  1.00  0.00    -0.365 N 
HETATM   17  H   UNL     1      -5.650   4.561 -26.629  1.00  0.00     0.159 HD
HETATM   18  H   UNL     1      -4.103   5.350 -26.319  1.00  0.00     0.159 HD
HETATM   19  O   UNL     1      -4.691   7.377 -27.671  1.00  0.00    -0.266 OA
ENDBRANCH   9  15
ENDBRANCH   2   5
BRANCH   1  20
HETATM   20  C   UNL     1      -5.923   1.676 -33.719  1.00  0.00     0.107 C 
BRANCH  20  21
HETATM   21  C   UNL     1      -6.969   0.590 -34.024  1.00  0.00    -0.006 C 
HETATM   22  C   UNL     1      -7.160   0.333 -35.523  1.00  0.00     0.011 C 
BRANCH  21  23
HETATM   23  C   UNL     1      -6.735  -0.710 -33.216  1.00  0.00     0.046 C 
BRANCH  23  24
HETATM   24  C   UNL     1      -6.277  -2.018 -33.846  1.00  0.00    -0.024 A 
HETATM   25  C   UNL     1      -4.890  -2.302 -33.866  1.00  0.00     0.074 A 
HETATM   26  C   UNL     1      -4.414  -3.483 -34.451  1.00  0.00     0.037 A 
HETATM   27  C   UNL     1      -5.303  -4.406 -34.998  1.00  0.00     0.003 A 
HETATM   28  C   UNL     1      -6.667  -4.155 -34.960  1.00  0.00     0.001 A 
HETATM   29  C   UNL     1      -7.148  -2.975 -34.386  1.00  0.00     0.010 A 
BRANCH  25  30
HETATM   30  O   UNL     1      -4.074  -1.350 -33.305  1.00  0.00    -0.355 OA
HETATM   31  C   UNL     1      -3.365  -1.717 -32.128  1.00  0.00     0.210 C 
ENDBRANCH  25  30
ENDBRANCH  23  24
ENDBRANCH  21  23
ENDBRANCH  20  21
ENDBRANCH   1  20
TORSDOF 7
ENDMDL
MODEL 9
REMARK VINA RESULT:      -7.9      2.686      4.862
REMARK  7 active torsions:
REMARK  status: ('A' for Active; 'I' for Inactive)
REMARK    1  A    between atoms: C_2  and  C_3 
REMARK    2  A    between atoms: C_2  and  C_20 
REMARK    3  A    between atoms: C_3  and  C_4 
REMARK       I    between atoms: C_4  and  N_5 
REMARK    4  A    between atoms: N_5  and  C_6 
REMARK    5  A    between atoms: C_13  and  C_14 
REMARK       I    between atoms: C_14  and  N_15 
REMARK    6  A    between atoms: C_20  and  C_21 
REMARK    7  A    between atoms: C_22  and  O_23 
ROOT
HETATM    1  C   UNL     1      -8.929   0.405 -34.102  1.00  0.00     0.222 C 
HETATM    2  N   UNL     1      -9.751   1.291 -34.781  1.00  0.00    -0.327 N 
HETATM    3  O   UNL     1      -9.098  -0.023 -32.968  1.00  0.00    -0.273 OA
HETATM    4  H   UNL     1      -9.433   1.591 -35.693  1.00  0.00     0.169 HD
ENDROOT
BRANCH   2   5
HETATM    5  C   UNL     1     -10.998   1.805 -34.370  1.00  0.00     0.035 A 
HETATM    6  C   UNL     1     -11.182   2.603 -33.233  1.00  0.00     0.046 A 
HETATM    7  C   UNL     1     -12.481   3.048 -32.897  1.00  0.00     0.030 A 
HETATM    8  C   UNL     1     -13.547   2.677 -33.707  1.00  0.00     0.063 A 
HETATM    9  C   UNL     1     -13.063   3.845 -31.865  1.00  0.00     0.156 A 
HETATM   10  N   UNL     1     -14.652   3.242 -33.135  1.00  0.00    -0.277 N 
HETATM   11  C   UNL     1     -13.401   1.887 -34.848  1.00  0.00     0.034 A 
HETATM   12  H   UNL     1     -15.611   3.178 -33.458  1.00  0.00     0.189 HD
HETATM   13  N   UNL     1     -14.402   3.954 -32.025  1.00  0.00    -0.168 NA
HETATM   14  C   UNL     1     -12.105   1.462 -35.161  1.00  0.00     0.032 A 
BRANCH   9  15
HETATM   15  C   UNL     1     -12.380   4.498 -30.739  1.00  0.00     0.270 C 
HETATM   16  N   UNL     1     -11.913   3.628 -29.790  1.00  0.00    -0.365 N 
HETATM   17  H   UNL     1     -12.069   2.637 -29.923  1.00  0.00     0.159 HD
HETATM   18  H   UNL     1     -11.437   3.986 -28.978  1.00  0.00     0.159 HD
HETATM   19  O   UNL     1     -12.222   5.707 -30.622  1.00  0.00    -0.266 OA
ENDBRANCH   9  15
ENDBRANCH   2   5
BRANCH   1  20
HETATM   20  C   UNL     1      -7.708   0.019 -34.932  1.00  0.00     0.107 C 
BRANCH  20  21
HETATM   21  C   UNL     1      -6.757  -0.942 -34.200  1.00  0.00    -0.006 C 
HETATM   22  C   UNL     1      -6.307  -2.127 -35.062  1.00  0.00     0.011 C 
BRANCH  21  23
HETATM   23  C   UNL     1      -5.573  -0.209 -33.520  1.00  0.00     0.046 C 
BRANCH  23  24
HETATM   24  C   UNL     1      -5.705   0.568 -32.219  1.00  0.00    -0.024 A 
HETATM   25  C   UNL     1      -5.830   1.977 -32.289  1.00  0.00     0.074 A 
HETATM   26  C   UNL     1      -5.934   2.741 -31.119  1.00  0.00     0.037 A 
HETATM   27  C   UNL     1      -5.942   2.122 -29.872  1.00  0.00     0.003 A 
HETATM   28  C   UNL     1      -5.849   0.739 -29.788  1.00  0.00     0.001 A 
HETATM   29  C   UNL     1      -5.735  -0.029 -30.950  1.00  0.00     0.010 A 
BRANCH  25  30
HETATM   30  O   UNL     1      -5.820   2.517 -33.552  1.00  0.00    -0.355 OA
HETATM   31  C   UNL     1      -6.734   3.576 -33.810  1.00  0.00     0.210 C 
ENDBRANCH  25  30
ENDBRANCH  23  24
ENDBRANCH  21  23
ENDBRANCH  20  21
ENDBRANCH   1  20
TORSDOF 7
ENDMDL
MODEL 10
REMARK VINA RESULT:      -7.7      4.691      8.405
REMARK  7 active torsions:
REMARK  status: ('A' for Active; 'I' for Inactive)
REMARK    1  A    between atoms: C_2  and  C_3 
REMARK    2  A    between atoms: C_2  and  C_20 
REMARK    3  A    between atoms: C_3  and  C_4 
REMARK       I    between atoms: C_4  and  N_5 
REMARK    4  A    between atoms: N_5  and  C_6 
REMARK    5  A    between atoms: C_13  and  C_14 
REMARK       I    between atoms: C_14  and  N_15 
REMARK    6  A    between atoms: C_20  and  C_21 
REMARK    7  A    between atoms: C_22  and  O_23 
ROOT
HETATM    1  C   UNL     1      -6.728   2.474 -31.617  1.00  0.00     0.222 C 
HETATM    2  N   UNL     1      -6.228   2.086 -32.849  1.00  0.00    -0.327 N 
HETATM    3  O   UNL     1      -7.148   1.735 -30.735  1.00  0.00    -0.273 OA
HETATM    4  H   UNL     1      -5.978   2.830 -33.488  1.00  0.00     0.169 HD
ENDROOT
BRANCH   2   5
HETATM    5  C   UNL     1      -5.992   0.777 -33.317  1.00  0.00     0.035 A 
HETATM    6  C   UNL     1      -5.052  -0.099 -32.758  1.00  0.00     0.046 A 
HETATM    7  C   UNL     1      -4.878  -1.385 -33.319  1.00  0.00     0.030 A 
HETATM    8  C   UNL     1      -5.646  -1.746 -34.419  1.00  0.00     0.063 A 
HETATM    9  C   UNL     1      -4.058  -2.524 -33.053  1.00  0.00     0.156 A 
HETATM   10  N   UNL     1      -5.255  -3.018 -34.733  1.00  0.00    -0.277 N 
HETATM   11  C   UNL     1      -6.593  -0.902 -34.999  1.00  0.00     0.034 A 
HETATM   12  H   UNL     1      -5.605  -3.598 -35.487  1.00  0.00     0.189 HD
HETATM   13  N   UNL     1      -4.303  -3.522 -33.933  1.00  0.00    -0.168 NA
HETATM   14  C   UNL     1      -6.750   0.364 -34.423  1.00  0.00     0.032 A 
BRANCH   9  15
HETATM   15  C   UNL     1      -3.057  -2.683 -31.987  1.00  0.00     0.270 C 
HETATM   16  N   UNL     1      -2.395  -1.527 -31.669  1.00  0.00    -0.365 N 
HETATM   17  H   UNL     1      -2.629  -0.680 -32.172  1.00  0.00     0.159 HD
HETATM   18  H   UNL     1      -1.685  -1.540 -30.955  1.00  0.00     0.159 HD
HETATM   19  O   UNL     1      -2.807  -3.734 -31.413  1.00  0.00    -0.266 OA
ENDBRANCH   9  15
ENDBRANCH   2   5
BRANCH   1  20
HETATM   20  C   UNL     1      -6.741   3.992 -31.465  1.00  0.00     0.107 C 
BRANCH  20  21
HETATM   21  C   UNL     1      -6.136   4.727 -32.673  1.00  0.00    -0.006 C 
HETATM   22  C   UNL     1      -7.183   5.411 -33.558  1.00  0.00     0.011 C 
BRANCH  21  23
HETATM   23  C   UNL     1      -4.973   5.672 -32.278  1.00  0.00     0.046 C 
BRANCH  23  24
HETATM   24  C   UNL     1      -3.677   5.781 -33.065  1.00  0.00    -0.024 A 
HETATM   25  C   UNL     1      -2.801   6.854 -32.770  1.00  0.00     0.074 A 
HETATM   26  C   UNL     1      -1.603   7.011 -33.479  1.00  0.00     0.037 A 
HETATM   27  C   UNL     1      -1.246   6.098 -34.469  1.00  0.00     0.003 A 
HETATM   28  C   UNL     1      -2.080   5.025 -34.750  1.00  0.00     0.001 A 
HETATM   29  C   UNL     1      -3.280   4.867 -34.053  1.00  0.00     0.010 A 
BRANCH  25  30
HETATM   30  O   UNL     1      -3.216   7.711 -31.780  1.00  0.00    -0.355 OA
HETATM   31  C   UNL     1      -2.294   8.709 -31.358  1.00  0.00     0.210 C 
ENDBRANCH  25  30
ENDBRANCH  23  24
ENDBRANCH  21  23
ENDBRANCH  20  21
ENDBRANCH   1  20
TORSDOF 7
ENDMDL
