MODEL 1
REMARK VINA RESULT:      -7.3      0.000      0.000
REMARK  13 active torsions:
REMARK  status: ('A' for Active; 'I' for Inactive)
REMARK    1  A    between atoms: C_2  and  N_3 
REMARK    2  A    between atoms: N_3  and  C_5 
REMARK    3  A    between atoms: N_3  and  C_34 
REMARK    4  A    between atoms: C_5  and  C_6 
REMARK    5  A    between atoms: N_7  and  C_8 
REMARK    6  A    between atoms: C_12  and  N_13 
REMARK    7  A    between atoms: C_16  and  C_17 
REMARK       I    between atoms: C_17  and  N_18 
REMARK    8  A    between atoms: N_18  and  N_19 
REMARK    9  A    between atoms: C_20  and  C_21 
REMARK   10  A    between atoms: C_22  and  O_23 
REMARK   11  A    between atoms: C_25  and  N_26 
REMARK   12  A    between atoms: N_26  and  C_27 
REMARK   13  A    between atoms: N_26  and  C_29 
ROOT
HETATM    1  C   UNL     1      -2.677   7.062 -29.863  1.00  0.00     0.096 A 
HETATM    2  N   UNL     1      -3.225   8.088 -29.093  1.00  0.00    -0.215 N 
HETATM    3  N   UNL     1      -4.560   7.854 -28.955  1.00  0.00     0.012 NA
HETATM    4  N   UNL     1      -4.902   6.803 -29.680  1.00  0.00    -0.152 NA
HETATM    5  C   UNL     1      -3.775   6.313 -30.264  1.00  0.00     0.170 A 
ENDROOT
BRANCH   5   6
HETATM    6  C   UNL     1      -3.757   5.174 -31.169  1.00  0.00     0.293 C 
HETATM    7  N   UNL     1      -3.929   3.952 -30.550  1.00  0.00    -0.242 N 
HETATM    8  H   UNL     1      -4.066   3.903 -29.542  1.00  0.00     0.192 HD
HETATM    9  O   UNL     1      -3.612   5.360 -32.377  1.00  0.00    -0.264 OA
BRANCH   7  10
HETATM   10  N   UNL     1      -3.880   2.812 -31.291  1.00  0.00    -0.183 NA
HETATM   11  C   UNL     1      -4.898   2.015 -31.174  1.00  0.00     0.153 C 
BRANCH  11  12
HETATM   12  C   UNL     1      -4.957   0.743 -31.920  1.00  0.00     0.016 A 
HETATM   13  C   UNL     1      -4.014  -0.271 -31.748  1.00  0.00     0.079 A 
HETATM   14  C   UNL     1      -4.107  -1.456 -32.485  1.00  0.00     0.066 A 
HETATM   15  C   UNL     1      -5.135  -1.681 -33.418  1.00  0.00     0.032 A 
HETATM   16  C   UNL     1      -6.072  -0.640 -33.562  1.00  0.00     0.030 A 
HETATM   17  C   UNL     1      -5.993   0.554 -32.830  1.00  0.00     0.018 A 
BRANCH  13  18
HETATM   18  O   UNL     1      -2.965  -0.176 -30.871  1.00  0.00    -0.360 OA
HETATM   19  H   UNL     1      -3.060  -0.899 -30.216  1.00  0.00     0.217 HD
ENDBRANCH  13  18
BRANCH  15  20
HETATM   20  N   UNL     1      -5.216  -2.853 -34.160  1.00  0.00    -0.382 N 
BRANCH  20  21
HETATM   21  C   UNL     1      -6.507  -3.398 -34.605  1.00  0.00     0.118 C 
HETATM   22  C   UNL     1      -6.315  -4.511 -35.624  1.00  0.00     0.026 C 
ENDBRANCH  20  21
BRANCH  20  23
HETATM   23  C   UNL     1      -4.021  -3.640 -34.504  1.00  0.00     0.118 C 
HETATM   24  C   UNL     1      -3.715  -4.689 -33.443  1.00  0.00     0.026 C 
ENDBRANCH  20  23
ENDBRANCH  15  20
ENDBRANCH  11  12
ENDBRANCH   7  10
ENDBRANCH   5   6
BRANCH   1  25
HETATM   25  C   UNL     1      -1.232   6.810 -30.102  1.00  0.00     0.296 C 
BRANCH  25  26
HETATM   26  N   UNL     1      -0.556   5.956 -29.043  1.00  0.00    -0.066 N 
HETATM   27  H   UNL     1      -1.311   5.361 -28.644  1.00  0.00     0.280 HD
BRANCH  26  28
HETATM   28  C   UNL     1      -0.035   6.803 -27.893  1.00  0.00     0.231 C 
HETATM   29  C   UNL     1       0.864   7.915 -28.404  1.00  0.00     0.034 C 
ENDBRANCH  26  28
BRANCH  26  30
HETATM   30  C   UNL     1       0.514   5.059 -29.626  1.00  0.00     0.231 C 
HETATM   31  C   UNL     1       0.681   5.309 -31.115  1.00  0.00     0.034 C 
ENDBRANCH  26  30
ENDBRANCH  25  26
ENDBRANCH   1  25
BRANCH   2  32
HETATM   32  C   UNL     1      -2.609   9.245 -28.558  1.00  0.00     0.225 A 
HETATM   33  N   UNL     1      -2.116  10.181 -29.371  1.00  0.00    -0.081 NA
HETATM   34  O   UNL     1      -1.628  11.158 -28.498  1.00  0.00    -0.103 OA
HETATM   35  N   UNL     1      -1.860  10.809 -27.176  1.00  0.00    -0.083 NA
HETATM   36  C   UNL     1      -2.469   9.626 -27.211  1.00  0.00     0.201 A 
BRANCH  36  37
HETATM   37  N   UNL     1      -2.869   8.943 -26.128  1.00  0.00    -0.379 N 
HETATM   38  H   UNL     1      -2.688   9.314 -25.198  1.00  0.00     0.158 HD
HETATM   39  H   UNL     1      -3.534   8.173 -26.157  1.00  0.00     0.158 HD
ENDBRANCH  36  37
ENDBRANCH   2  32
TORSDOF 13
ENDMDL
MODEL 2
REMARK VINA RESULT:      -7.3      1.596      3.182
REMARK  13 active torsions:
REMARK  status: ('A' for Active; 'I' for Inactive)
REMARK    1  A    between atoms: C_2  and  N_3 
REMARK    2  A    between atoms: N_3  and  C_5 
REMARK    3  A    between atoms: N_3  and  C_34 
REMARK    4  A    between atoms: C_5  and  C_6 
REMARK    5  A    between atoms: N_7  and  C_8 
REMARK    6  A    between atoms: C_12  and  N_13 
REMARK    7  A    between atoms: C_16  and  C_17 
REMARK       I    between atoms: C_17  and  N_18 
REMARK    8  A    between atoms: N_18  and  N_19 
REMARK    9  A    between atoms: C_20  and  C_21 
REMARK   10  A    between atoms: C_22  and  O_23 
REMARK   11  A    between atoms: C_25  and  N_26 
REMARK   12  A    between atoms: N_26  and  C_27 
REMARK   13  A    between atoms: N_26  and  C_29 
ROOT
HETATM    1  C   UNL     1      -3.175   6.795 -30.098  1.00  0.00     0.096 A 
HETATM    2  N   UNL     1      -2.421   7.778 -29.455  1.00  0.00    -0.215 N 
HETATM    3  N   UNL     1      -1.181   7.804 -30.020  1.00  0.00     0.012 NA
HETATM    4  N   UNL     1      -1.078   6.827 -30.905  1.00  0.00    -0.152 NA
HETATM    5  C   UNL     1      -2.273   6.180 -30.956  1.00  0.00     0.170 A 
ENDROOT
BRANCH   5   6
HETATM    6  C   UNL     1      -2.534   5.019 -31.793  1.00  0.00     0.293 C 
HETATM    7  N   UNL     1      -2.576   3.821 -31.107  1.00  0.00    -0.242 N 
HETATM    8  H   UNL     1      -2.443   3.803 -30.098  1.00  0.00     0.192 HD
HETATM    9  O   UNL     1      -2.708   5.168 -33.002  1.00  0.00    -0.264 OA
BRANCH   7  10
HETATM   10  N   UNL     1      -2.765   2.661 -31.794  1.00  0.00    -0.183 NA
HETATM   11  C   UNL     1      -3.802   1.961 -31.451  1.00  0.00     0.153 C 
BRANCH  11  12
HETATM   12  C   UNL     1      -4.108   0.679 -32.117  1.00  0.00     0.016 A 
HETATM   13  C   UNL     1      -3.314  -0.456 -31.956  1.00  0.00     0.079 A 
HETATM   14  C   UNL     1      -3.639  -1.646 -32.614  1.00  0.00     0.066 A 
HETATM   15  C   UNL     1      -4.761  -1.756 -33.455  1.00  0.00     0.032 A 
HETATM   16  C   UNL     1      -5.543  -0.593 -33.590  1.00  0.00     0.030 A 
HETATM   17  C   UNL     1      -5.230   0.608 -32.936  1.00  0.00     0.018 A 
BRANCH  13  18
HETATM   18  O   UNL     1      -2.194  -0.480 -31.165  1.00  0.00    -0.360 OA
HETATM   19  H   UNL     1      -2.438  -0.911 -30.319  1.00  0.00     0.217 HD
ENDBRANCH  13  18
BRANCH  15  20
HETATM   20  N   UNL     1      -5.073  -2.935 -34.121  1.00  0.00    -0.382 N 
BRANCH  20  21
HETATM   21  C   UNL     1      -4.037  -3.910 -34.492  1.00  0.00     0.118 C 
HETATM   22  C   UNL     1      -3.755  -4.877 -33.353  1.00  0.00     0.026 C 
ENDBRANCH  20  21
BRANCH  20  23
HETATM   23  C   UNL     1      -6.449  -3.255 -34.535  1.00  0.00     0.118 C 
HETATM   24  C   UNL     1      -6.493  -4.477 -35.443  1.00  0.00     0.026 C 
ENDBRANCH  20  23
ENDBRANCH  15  20
ENDBRANCH  11  12
ENDBRANCH   7  10
ENDBRANCH   5   6
BRANCH   1  25
HETATM   25  C   UNL     1      -4.632   6.552 -29.939  1.00  0.00     0.296 C 
BRANCH  25  26
HETATM   26  N   UNL     1      -4.987   5.469 -28.936  1.00  0.00    -0.066 N 
HETATM   27  H   UNL     1      -4.082   5.026 -28.674  1.00  0.00     0.280 HD
BRANCH  26  28
HETATM   28  C   UNL     1      -5.824   4.371 -29.574  1.00  0.00     0.231 C 
HETATM   29  C   UNL     1      -6.285   4.778 -30.962  1.00  0.00     0.034 C 
ENDBRANCH  26  28
BRANCH  26  30
HETATM   30  C   UNL     1      -5.633   6.030 -27.688  1.00  0.00     0.231 C 
HETATM   31  C   UNL     1      -6.253   7.389 -27.962  1.00  0.00     0.034 C 
ENDBRANCH  26  30
ENDBRANCH  25  26
ENDBRANCH   1  25
BRANCH   2  32
HETATM   32  C   UNL     1      -2.762   8.607 -28.360  1.00  0.00     0.225 A 
HETATM   33  N   UNL     1      -3.223   9.842 -28.569  1.00  0.00    -0.081 NA
HETATM   34  O   UNL     1      -3.473  10.327 -27.282  1.00  0.00    -0.103 OA
HETATM   35  N   UNL     1      -3.184   9.369 -26.321  1.00  0.00    -0.083 NA
HETATM   36  C   UNL     1      -2.747   8.302 -26.987  1.00  0.00     0.201 A 
BRANCH  36  37
HETATM   37  N   UNL     1      -2.367   7.151 -26.413  1.00  0.00    -0.379 N 
HETATM   38  H   UNL     1      -3.047   6.580 -25.918  1.00  0.00     0.158 HD
HETATM   39  H   UNL     1      -1.484   6.684 -26.611  1.00  0.00     0.158 HD
ENDBRANCH  36  37
ENDBRANCH   2  32
TORSDOF 13
ENDMDL
MODEL 3
REMARK VINA RESULT:      -7.2      1.681      2.534
REMARK  13 active torsions:
REMARK  status: ('A' for Active; 'I' for Inactive)
REMARK    1  A    between atoms: C_2  and  N_3 
REMARK    2  A    between atoms: N_3  and  C_5 
REMARK    3  A    between atoms: N_3  and  C_34 
REMARK    4  A    between atoms: C_5  and  C_6 
REMARK    5  A    between atoms: N_7  and  C_8 
REMARK    6  A    between atoms: C_12  and  N_13 
REMARK    7  A    between atoms: C_16  and  C_17 
REMARK       I    between atoms: C_17  and  N_18 
REMARK    8  A    between atoms: N_18  and  N_19 
REMARK    9  A    between atoms: C_20  and  C_21 
REMARK   10  A    between atoms: C_22  and  O_23 
REMARK   11  A    between atoms: C_25  and  N_26 
REMARK   12  A    between atoms: N_26  and  C_27 
REMARK   13  A    between atoms: N_26  and  C_29 
ROOT
HETATM    1  C   UNL     1      -3.859   6.697 -30.355  1.00  0.00     0.096 A 
HETATM    2  N   UNL     1      -3.976   7.853 -29.581  1.00  0.00    -0.215 N 
HETATM    3  N   UNL     1      -5.056   7.714 -28.763  1.00  0.00     0.012 NA
HETATM    4  N   UNL     1      -5.686   6.587 -29.050  1.00  0.00    -0.152 NA
HETATM    5  C   UNL     1      -4.990   5.958 -30.034  1.00  0.00     0.170 A 
ENDROOT
BRANCH   5   6
HETATM    6  C   UNL     1      -5.396   4.699 -30.641  1.00  0.00     0.293 C 
HETATM    7  N   UNL     1      -4.779   3.585 -30.107  1.00  0.00    -0.242 N 
HETATM    8  H   UNL     1      -4.112   3.685 -29.344  1.00  0.00     0.192 HD
HETATM    9  O   UNL     1      -6.236   4.702 -31.541  1.00  0.00    -0.264 OA
BRANCH   7  10
HETATM   10  N   UNL     1      -5.045   2.357 -30.630  1.00  0.00    -0.183 NA
HETATM   11  C   UNL     1      -4.206   1.925 -31.520  1.00  0.00     0.153 C 
BRANCH  11  12
HETATM   12  C   UNL     1      -4.392   0.611 -32.167  1.00  0.00     0.016 A 
HETATM   13  C   UNL     1      -3.509  -0.451 -31.973  1.00  0.00     0.079 A 
HETATM   14  C   UNL     1      -3.723  -1.675 -32.614  1.00  0.00     0.066 A 
HETATM   15  C   UNL     1      -4.818  -1.892 -33.470  1.00  0.00     0.032 A 
HETATM   16  C   UNL     1      -5.693  -0.802 -33.638  1.00  0.00     0.030 A 
HETATM   17  C   UNL     1      -5.492   0.432 -33.001  1.00  0.00     0.018 A 
BRANCH  13  18
HETATM   18  O   UNL     1      -2.405  -0.368 -31.165  1.00  0.00    -0.360 OA
HETATM   19  H   UNL     1      -2.691   0.020 -30.311  1.00  0.00     0.217 HD
ENDBRANCH  13  18
BRANCH  15  20
HETATM   20  N   UNL     1      -5.020  -3.105 -34.119  1.00  0.00    -0.382 N 
BRANCH  20  21
HETATM   21  C   UNL     1      -3.908  -4.023 -34.404  1.00  0.00     0.118 C 
HETATM   22  C   UNL     1      -3.667  -4.976 -33.244  1.00  0.00     0.026 C 
ENDBRANCH  20  21
BRANCH  20  23
HETATM   23  C   UNL     1      -6.348  -3.519 -34.599  1.00  0.00     0.118 C 
HETATM   24  C   UNL     1      -6.247  -4.595 -35.673  1.00  0.00     0.026 C 
ENDBRANCH  20  23
ENDBRANCH  15  20
ENDBRANCH  11  12
ENDBRANCH   7  10
ENDBRANCH   5   6
BRANCH   1  25
HETATM   25  C   UNL     1      -2.722   6.336 -31.239  1.00  0.00     0.296 C 
BRANCH  25  26
HETATM   26  N   UNL     1      -2.752   6.992 -32.608  1.00  0.00    -0.066 N 
HETATM   27  H   UNL     1      -3.421   7.785 -32.521  1.00  0.00     0.280 HD
BRANCH  26  28
HETATM   28  C   UNL     1      -3.337   6.063 -33.660  1.00  0.00     0.231 C 
HETATM   29  C   UNL     1      -2.851   4.639 -33.454  1.00  0.00     0.034 C 
ENDBRANCH  26  28
BRANCH  26  30
HETATM   30  C   UNL     1      -1.400   7.539 -33.014  1.00  0.00     0.231 C 
HETATM   31  C   UNL     1      -0.307   7.016 -32.098  1.00  0.00     0.034 C 
ENDBRANCH  26  30
ENDBRANCH  25  26
ENDBRANCH   1  25
BRANCH   2  32
HETATM   32  C   UNL     1      -3.207   9.041 -29.610  1.00  0.00     0.225 A 
HETATM   33  N   UNL     1      -3.094   9.743 -30.740  1.00  0.00    -0.081 NA
HETATM   34  O   UNL     1      -2.304  10.837 -30.375  1.00  0.00    -0.103 OA
HETATM   35  N   UNL     1      -1.976  10.791 -29.028  1.00  0.00    -0.083 NA
HETATM   36  C   UNL     1      -2.536   9.682 -28.552  1.00  0.00     0.201 A 
BRANCH  36  37
HETATM   37  N   UNL     1      -2.455   9.276 -27.276  1.00  0.00    -0.379 N 
HETATM   38  H   UNL     1      -2.024   8.383 -27.052  1.00  0.00     0.158 HD
HETATM   39  H   UNL     1      -2.603   9.889 -26.477  1.00  0.00     0.158 HD
ENDBRANCH  36  37
ENDBRANCH   2  32
TORSDOF 13
ENDMDL
MODEL 4
REMARK VINA RESULT:      -7.0      6.068     11.131
REMARK  13 active torsions:
REMARK  status: ('A' for Active; 'I' for Inactive)
REMARK    1  A    between atoms: C_2  and  N_3 
REMARK    2  A    between atoms: N_3  and  C_5 
REMARK    3  A    between atoms: N_3  and  C_34 
REMARK    4  A    between atoms: C_5  and  C_6 
REMARK    5  A    between atoms: N_7  and  C_8 
REMARK    6  A    between atoms: C_12  and  N_13 
REMARK    7  A    between atoms: C_16  and  C_17 
REMARK       I    between atoms: C_17  and  N_18 
REMARK    8  A    between atoms: N_18  and  N_19 
REMARK    9  A    between atoms: C_20  and  C_21 
REMARK   10  A    between atoms: C_22  and  O_23 
REMARK   11  A    between atoms: C_25  and  N_26 
REMARK   12  A    between atoms: N_26  and  C_27 
REMARK   13  A    between atoms: N_26  and  C_29 
ROOT
HETATM    1  C   UNL     1     -11.015   2.013 -33.577  1.00  0.00     0.096 A 
HETATM    2  N   UNL     1     -11.992   1.024 -33.449  1.00  0.00    -0.215 N 
HETATM    3  N   UNL     1     -11.382  -0.134 -33.071  1.00  0.00     0.012 NA
HETATM    4  N   UNL     1     -10.071   0.040 -33.057  1.00  0.00    -0.152 NA
HETATM    5  C   UNL     1      -9.818   1.336 -33.384  1.00  0.00     0.170 A 
ENDROOT
BRANCH   5   6
HETATM    6  C   UNL     1      -8.481   1.897 -33.508  1.00  0.00     0.293 C 
HETATM    7  N   UNL     1      -8.058   2.606 -32.401  1.00  0.00    -0.242 N 
HETATM    8  H   UNL     1      -8.660   2.690 -31.584  1.00  0.00     0.192 HD
HETATM    9  O   UNL     1      -7.834   1.705 -34.537  1.00  0.00    -0.264 OA
BRANCH   7  10
HETATM   10  N   UNL     1      -6.842   3.218 -32.422  1.00  0.00    -0.183 NA
HETATM   11  C   UNL     1      -6.373   3.589 -31.270  1.00  0.00     0.153 C 
BRANCH  11  12
HETATM   12  C   UNL     1      -5.069   4.272 -31.165  1.00  0.00     0.016 A 
HETATM   13  C   UNL     1      -3.893   3.723 -31.675  1.00  0.00     0.079 A 
HETATM   14  C   UNL     1      -2.679   4.404 -31.543  1.00  0.00     0.066 A 
HETATM   15  C   UNL     1      -2.585   5.652 -30.901  1.00  0.00     0.032 A 
HETATM   16  C   UNL     1      -3.791   6.179 -30.403  1.00  0.00     0.030 A 
HETATM   17  C   UNL     1      -5.017   5.508 -30.528  1.00  0.00     0.018 A 
BRANCH  13  18
HETATM   18  O   UNL     1      -3.850   2.514 -32.321  1.00  0.00    -0.360 OA
HETATM   19  H   UNL     1      -3.607   1.833 -31.659  1.00  0.00     0.217 HD
ENDBRANCH  13  18
BRANCH  15  20
HETATM   20  N   UNL     1      -1.374   6.319 -30.757  1.00  0.00    -0.382 N 
BRANCH  20  21
HETATM   21  C   UNL     1      -0.519   6.627 -31.912  1.00  0.00     0.118 C 
HETATM   22  C   UNL     1      -1.250   7.494 -32.926  1.00  0.00     0.026 C 
ENDBRANCH  20  21
BRANCH  20  23
HETATM   23  C   UNL     1      -0.856   6.715 -29.437  1.00  0.00     0.118 C 
HETATM   24  C   UNL     1       0.559   7.272 -29.534  1.00  0.00     0.026 C 
ENDBRANCH  20  23
ENDBRANCH  15  20
ENDBRANCH  11  12
ENDBRANCH   7  10
ENDBRANCH   5   6
BRANCH   1  25
HETATM   25  C   UNL     1     -11.248   3.466 -33.782  1.00  0.00     0.296 C 
BRANCH  25  26
HETATM   26  N   UNL     1     -11.222   3.912 -35.233  1.00  0.00    -0.066 N 
HETATM   27  H   UNL     1     -10.755   3.140 -35.752  1.00  0.00     0.280 HD
BRANCH  26  28
HETATM   28  C   UNL     1     -10.343   5.138 -35.424  1.00  0.00     0.231 C 
HETATM   29  C   UNL     1      -9.566   5.450 -34.157  1.00  0.00     0.034 C 
ENDBRANCH  26  28
BRANCH  26  30
HETATM   30  C   UNL     1     -12.611   4.108 -35.800  1.00  0.00     0.231 C 
HETATM   31  C   UNL     1     -13.024   5.568 -35.730  1.00  0.00     0.034 C 
ENDBRANCH  26  30
ENDBRANCH  25  26
ENDBRANCH   1  25
BRANCH   2  32
HETATM   32  C   UNL     1     -13.382   1.088 -33.707  1.00  0.00     0.225 A 
HETATM   33  N   UNL     1     -13.893   0.505 -34.793  1.00  0.00    -0.081 NA
HETATM   34  O   UNL     1     -15.265   0.751 -34.690  1.00  0.00    -0.103 OA
HETATM   35  N   UNL     1     -15.562   1.454 -33.531  1.00  0.00    -0.083 NA
HETATM   36  C   UNL     1     -14.398   1.662 -32.920  1.00  0.00     0.201 A 
BRANCH  36  37
HETATM   37  N   UNL     1     -14.255   2.310 -31.754  1.00  0.00    -0.379 N 
HETATM   38  H   UNL     1     -13.657   1.925 -31.028  1.00  0.00     0.158 HD
HETATM   39  H   UNL     1     -14.534   3.278 -31.607  1.00  0.00     0.158 HD
ENDBRANCH  36  37
ENDBRANCH   2  32
TORSDOF 13
ENDMDL
MODEL 5
REMARK VINA RESULT:      -7.0      2.359     11.263
REMARK  13 active torsions:
REMARK  status: ('A' for Active; 'I' for Inactive)
REMARK    1  A    between atoms: C_2  and  N_3 
REMARK    2  A    between atoms: N_3  and  C_5 
REMARK    3  A    between atoms: N_3  and  C_34 
REMARK    4  A    between atoms: C_5  and  C_6 
REMARK    5  A    between atoms: N_7  and  C_8 
REMARK    6  A    between atoms: C_12  and  N_13 
REMARK    7  A    between atoms: C_16  and  C_17 
REMARK       I    between atoms: C_17  and  N_18 
REMARK    8  A    between atoms: N_18  and  N_19 
REMARK    9  A    between atoms: C_20  and  C_21 
REMARK   10  A    between atoms: C_22  and  O_23 
REMARK   11  A    between atoms: C_25  and  N_26 
REMARK   12  A    between atoms: N_26  and  C_27 
REMARK   13  A    between atoms: N_26  and  C_29 
ROOT
HETATM    1  C   UNL     1      -5.444  -1.168 -32.929  1.00  0.00     0.096 A 
HETATM    2  N   UNL     1      -4.864  -2.363 -33.357  1.00  0.00    -0.215 N 
HETATM    3  N   UNL     1      -3.587  -2.413 -32.884  1.00  0.00     0.012 NA
HETATM    4  N   UNL     1      -3.295  -1.276 -32.277  1.00  0.00    -0.152 NA
HETATM    5  C   UNL     1      -4.403  -0.488 -32.310  1.00  0.00     0.170 A 
ENDROOT
BRANCH   5   6
HETATM    6  C   UNL     1      -4.458   0.862 -31.770  1.00  0.00     0.293 C 
HETATM    7  N   UNL     1      -3.840   1.815 -32.556  1.00  0.00    -0.242 N 
HETATM    8  H   UNL     1      -3.407   1.549 -33.439  1.00  0.00     0.192 HD
HETATM    9  O   UNL     1      -5.036   1.067 -30.703  1.00  0.00    -0.264 OA
BRANCH   7  10
HETATM   10  N   UNL     1      -3.785   3.105 -32.127  1.00  0.00    -0.183 NA
HETATM   11  C   UNL     1      -2.607   3.552 -31.818  1.00  0.00     0.153 C 
BRANCH  11  12
HETATM   12  C   UNL     1      -2.420   4.933 -31.331  1.00  0.00     0.016 A 
HETATM   13  C   UNL     1      -1.159   5.503 -31.162  1.00  0.00     0.079 A 
HETATM   14  C   UNL     1      -1.033   6.813 -30.689  1.00  0.00     0.066 A 
HETATM   15  C   UNL     1      -2.149   7.605 -30.367  1.00  0.00     0.032 A 
HETATM   16  C   UNL     1      -3.407   7.001 -30.556  1.00  0.00     0.030 A 
HETATM   17  C   UNL     1      -3.550   5.688 -31.030  1.00  0.00     0.018 A 
BRANCH  13  18
HETATM   18  O   UNL     1       0.007   4.837 -31.439  1.00  0.00    -0.360 OA
HETATM   19  H   UNL     1       0.188   4.942 -32.397  1.00  0.00     0.217 HD
ENDBRANCH  13  18
BRANCH  15  20
HETATM   20  N   UNL     1      -2.021   8.902 -29.883  1.00  0.00    -0.382 N 
BRANCH  20  21
HETATM   21  C   UNL     1      -1.376   9.184 -28.592  1.00  0.00     0.118 C 
HETATM   22  C   UNL     1      -2.039   8.411 -27.462  1.00  0.00     0.026 C 
ENDBRANCH  20  21
BRANCH  20  23
HETATM   23  C   UNL     1      -2.562  10.062 -30.609  1.00  0.00     0.118 C 
HETATM   24  C   UNL     1      -3.486  10.894 -29.729  1.00  0.00     0.026 C 
ENDBRANCH  20  23
ENDBRANCH  15  20
ENDBRANCH  11  12
ENDBRANCH   7  10
ENDBRANCH   5   6
BRANCH   1  25
HETATM   25  C   UNL     1      -6.874  -0.786 -33.048  1.00  0.00     0.296 C 
BRANCH  25  26
HETATM   26  N   UNL     1      -7.144   0.702 -32.911  1.00  0.00    -0.066 N 
HETATM   27  H   UNL     1      -6.295   1.098 -32.457  1.00  0.00     0.280 HD
BRANCH  26  28
HETATM   28  C   UNL     1      -8.297   0.974 -31.957  1.00  0.00     0.231 C 
HETATM   29  C   UNL     1      -9.614   0.506 -32.552  1.00  0.00     0.034 C 
ENDBRANCH  26  28
BRANCH  26  30
HETATM   30  C   UNL     1      -7.337   1.378 -34.251  1.00  0.00     0.231 C 
HETATM   31  C   UNL     1      -7.279   0.365 -35.382  1.00  0.00     0.034 C 
ENDBRANCH  26  30
ENDBRANCH  25  26
ENDBRANCH   1  25
BRANCH   2  32
HETATM   32  C   UNL     1      -5.394  -3.378 -34.189  1.00  0.00     0.225 A 
HETATM   33  N   UNL     1      -6.451  -3.128 -34.965  1.00  0.00    -0.081 NA
HETATM   34  O   UNL     1      -6.658  -4.331 -35.645  1.00  0.00    -0.103 OA
HETATM   35  N   UNL     1      -5.708  -5.278 -35.289  1.00  0.00    -0.083 NA
HETATM   36  C   UNL     1      -4.923  -4.688 -34.389  1.00  0.00     0.201 A 
BRANCH  36  37
HETATM   37  N   UNL     1      -3.872  -5.274 -33.797  1.00  0.00    -0.379 N 
HETATM   38  H   UNL     1      -2.997  -5.382 -34.304  1.00  0.00     0.158 HD
HETATM   39  H   UNL     1      -3.805  -5.437 -32.794  1.00  0.00     0.158 HD
ENDBRANCH  36  37
ENDBRANCH   2  32
TORSDOF 13
ENDMDL
MODEL 6
REMARK VINA RESULT:      -7.0      7.882     10.712
REMARK  13 active torsions:
REMARK  status: ('A' for Active; 'I' for Inactive)
REMARK    1  A    between atoms: C_2  and  N_3 
REMARK    2  A    between atoms: N_3  and  C_5 
REMARK    3  A    between atoms: N_3  and  C_34 
REMARK    4  A    between atoms: C_5  and  C_6 
REMARK    5  A    between atoms: N_7  and  C_8 
REMARK    6  A    between atoms: C_12  and  N_13 
REMARK    7  A    between atoms: C_16  and  C_17 
REMARK       I    between atoms: C_17  and  N_18 
REMARK    8  A    between atoms: N_18  and  N_19 
REMARK    9  A    between atoms: C_20  and  C_21 
REMARK   10  A    between atoms: C_22  and  O_23 
REMARK   11  A    between atoms: C_25  and  N_26 
REMARK   12  A    between atoms: N_26  and  C_27 
REMARK   13  A    between atoms: N_26  and  C_29 
ROOT
HETATM    1  C   UNL     1     -13.492   4.397 -33.400  1.00  0.00     0.096 A 
HETATM    2  N   UNL     1     -14.229   5.578 -33.305  1.00  0.00    -0.215 N 
HETATM    3  N   UNL     1     -13.760   6.452 -34.239  1.00  0.00     0.012 NA
HETATM    4  N   UNL     1     -12.705   5.931 -34.841  1.00  0.00    -0.152 NA
HETATM    5  C   UNL     1     -12.505   4.686 -34.332  1.00  0.00     0.170 A 
ENDROOT
BRANCH   5   6
HETATM    6  C   UNL     1     -11.409   3.813 -34.725  1.00  0.00     0.293 C 
HETATM    7  N   UNL     1     -10.595   3.417 -33.682  1.00  0.00    -0.242 N 
HETATM    8  H   UNL     1     -10.793   3.726 -32.732  1.00  0.00     0.192 HD
HETATM    9  O   UNL     1     -11.287   3.483 -35.904  1.00  0.00    -0.264 OA
BRANCH   7  10
HETATM   10  N   UNL     1      -9.508   2.638 -33.937  1.00  0.00    -0.183 NA
HETATM   11  C   UNL     1      -9.471   1.497 -33.321  1.00  0.00     0.153 C 
BRANCH  11  12
HETATM   12  C   UNL     1      -8.338   0.569 -33.509  1.00  0.00     0.016 A 
HETATM   13  C   UNL     1      -7.597   0.066 -32.441  1.00  0.00     0.079 A 
HETATM   14  C   UNL     1      -6.526  -0.805 -32.669  1.00  0.00     0.066 A 
HETATM   15  C   UNL     1      -6.151  -1.208 -33.964  1.00  0.00     0.032 A 
HETATM   16  C   UNL     1      -6.924  -0.686 -35.018  1.00  0.00     0.030 A 
HETATM   17  C   UNL     1      -8.001   0.187 -34.805  1.00  0.00     0.018 A 
BRANCH  13  18
HETATM   18  O   UNL     1      -7.860   0.381 -31.133  1.00  0.00    -0.360 OA
HETATM   19  H   UNL     1      -7.055   0.181 -30.611  1.00  0.00     0.217 HD
ENDBRANCH  13  18
BRANCH  15  20
HETATM   20  N   UNL     1      -5.077  -2.060 -34.189  1.00  0.00    -0.382 N 
BRANCH  20  21
HETATM   21  C   UNL     1      -5.162  -3.175 -35.144  1.00  0.00     0.118 C 
HETATM   22  C   UNL     1      -6.323  -4.100 -34.812  1.00  0.00     0.026 C 
ENDBRANCH  20  21
BRANCH  20  23
HETATM   23  C   UNL     1      -3.809  -1.927 -33.454  1.00  0.00     0.118 C 
HETATM   24  C   UNL     1      -3.531  -3.148 -32.587  1.00  0.00     0.026 C 
ENDBRANCH  20  23
ENDBRANCH  15  20
ENDBRANCH  11  12
ENDBRANCH   7  10
ENDBRANCH   5   6
BRANCH   1  25
HETATM   25  C   UNL     1     -13.785   3.114 -32.711  1.00  0.00     0.296 C 
BRANCH  25  26
HETATM   26  N   UNL     1     -15.065   2.432 -33.161  1.00  0.00    -0.066 N 
HETATM   27  H   UNL     1     -15.522   3.102 -33.812  1.00  0.00     0.280 HD
BRANCH  26  28
HETATM   28  C   UNL     1     -16.032   2.241 -32.004  1.00  0.00     0.231 C 
HETATM   29  C   UNL     1     -17.406   2.789 -32.351  1.00  0.00     0.034 C 
ENDBRANCH  26  28
BRANCH  26  30
HETATM   30  C   UNL     1     -14.797   1.140 -33.903  1.00  0.00     0.231 C 
HETATM   31  C   UNL     1     -13.353   0.702 -33.727  1.00  0.00     0.034 C 
ENDBRANCH  26  30
ENDBRANCH  25  26
ENDBRANCH   1  25
BRANCH   2  32
HETATM   32  C   UNL     1     -15.254   5.934 -32.396  1.00  0.00     0.225 A 
HETATM   33  N   UNL     1     -15.009   5.964 -31.084  1.00  0.00    -0.081 NA
HETATM   34  O   UNL     1     -16.223   6.378 -30.528  1.00  0.00    -0.103 OA
HETATM   35  N   UNL     1     -17.171   6.615 -31.513  1.00  0.00    -0.083 NA
HETATM   36  C   UNL     1     -16.572   6.343 -32.670  1.00  0.00     0.201 A 
BRANCH  36  37
HETATM   37  N   UNL     1     -17.156   6.454 -33.873  1.00  0.00    -0.379 N 
HETATM   38  H   UNL     1     -17.846   5.768 -34.169  1.00  0.00     0.158 HD
HETATM   39  H   UNL     1     -17.122   7.296 -34.444  1.00  0.00     0.158 HD
ENDBRANCH  36  37
ENDBRANCH   2  32
TORSDOF 13
ENDMDL
MODEL 7
REMARK VINA RESULT:      -6.9      1.753      2.815
REMARK  13 active torsions:
REMARK  status: ('A' for Active; 'I' for Inactive)
REMARK    1  A    between atoms: C_2  and  N_3 
REMARK    2  A    between atoms: N_3  and  C_5 
REMARK    3  A    between atoms: N_3  and  C_34 
REMARK    4  A    between atoms: C_5  and  C_6 
REMARK    5  A    between atoms: N_7  and  C_8 
REMARK    6  A    between atoms: C_12  and  N_13 
REMARK    7  A    between atoms: C_16  and  C_17 
REMARK       I    between atoms: C_17  and  N_18 
REMARK    8  A    between atoms: N_18  and  N_19 
REMARK    9  A    between atoms: C_20  and  C_21 
REMARK   10  A    between atoms: C_22  and  O_23 
REMARK   11  A    between atoms: C_25  and  N_26 
REMARK   12  A    between atoms: N_26  and  C_27 
REMARK   13  A    between atoms: N_26  and  C_29 
ROOT
HETATM    1  C   UNL     1      -2.682   7.667 -27.570  1.00  0.00     0.096 A 
HETATM    2  N   UNL     1      -3.022   8.764 -26.778  1.00  0.00    -0.215 N 
HETATM    3  N   UNL     1      -4.252   9.205 -27.161  1.00  0.00     0.012 NA
HETATM    4  N   UNL     1      -4.660   8.519 -28.215  1.00  0.00    -0.152 NA
HETATM    5  C   UNL     1      -3.710   7.588 -28.500  1.00  0.00     0.170 A 
ENDROOT
BRANCH   5   6
HETATM    6  C   UNL     1      -3.788   6.664 -29.622  1.00  0.00     0.293 C 
HETATM    7  N   UNL     1      -4.605   5.572 -29.403  1.00  0.00    -0.242 N 
HETATM    8  H   UNL     1      -5.102   5.472 -28.519  1.00  0.00     0.192 HD
HETATM    9  O   UNL     1      -3.163   6.906 -30.653  1.00  0.00    -0.264 OA
BRANCH   7  10
HETATM   10  N   UNL     1      -4.717   4.615 -30.364  1.00  0.00    -0.183 NA
HETATM   11  C   UNL     1      -5.208   3.477 -29.978  1.00  0.00     0.153 C 
BRANCH  11  12
HETATM   12  C   UNL     1      -5.368   2.357 -30.926  1.00  0.00     0.016 A 
HETATM   13  C   UNL     1      -4.314   1.876 -31.702  1.00  0.00     0.079 A 
HETATM   14  C   UNL     1      -4.517   0.818 -32.594  1.00  0.00     0.066 A 
HETATM   15  C   UNL     1      -5.771   0.199 -32.750  1.00  0.00     0.032 A 
HETATM   16  C   UNL     1      -6.811   0.705 -31.948  1.00  0.00     0.030 A 
HETATM   17  C   UNL     1      -6.622   1.766 -31.048  1.00  0.00     0.018 A 
BRANCH  13  18
HETATM   18  O   UNL     1      -3.046   2.392 -31.644  1.00  0.00    -0.360 OA
HETATM   19  H   UNL     1      -2.581   2.132 -32.468  1.00  0.00     0.217 HD
ENDBRANCH  13  18
BRANCH  15  20
HETATM   20  N   UNL     1      -5.974  -0.842 -33.648  1.00  0.00    -0.382 N 
BRANCH  20  21
HETATM   21  C   UNL     1      -4.992  -1.923 -33.814  1.00  0.00     0.118 C 
HETATM   22  C   UNL     1      -5.512  -3.005 -34.747  1.00  0.00     0.026 C 
ENDBRANCH  20  21
BRANCH  20  23
HETATM   23  C   UNL     1      -7.159  -0.899 -34.519  1.00  0.00     0.118 C 
HETATM   24  C   UNL     1      -7.212   0.286 -35.475  1.00  0.00     0.026 C 
ENDBRANCH  20  23
ENDBRANCH  15  20
ENDBRANCH  11  12
ENDBRANCH   7  10
ENDBRANCH   5   6
BRANCH   1  25
HETATM   25  C   UNL     1      -1.524   6.758 -27.374  1.00  0.00     0.296 C 
BRANCH  25  26
HETATM   26  N   UNL     1      -0.292   7.120 -28.186  1.00  0.00    -0.066 N 
HETATM   27  H   UNL     1      -0.519   8.026 -28.645  1.00  0.00     0.280 HD
BRANCH  26  28
HETATM   28  C   UNL     1      -0.054   6.125 -29.311  1.00  0.00     0.231 C 
HETATM   29  C   UNL     1       0.374   6.837 -30.582  1.00  0.00     0.034 C 
ENDBRANCH  26  28
BRANCH  26  30
HETATM   30  C   UNL     1       0.933   7.309 -27.319  1.00  0.00     0.231 C 
HETATM   31  C   UNL     1       1.593   8.649 -27.596  1.00  0.00     0.034 C 
ENDBRANCH  26  30
ENDBRANCH  25  26
ENDBRANCH   1  25
BRANCH   2  32
HETATM   32  C   UNL     1      -2.269   9.423 -25.776  1.00  0.00     0.225 A 
HETATM   33  N   UNL     1      -1.307  10.284 -26.114  1.00  0.00    -0.081 NA
HETATM   34  O   UNL     1      -0.823  10.742 -24.886  1.00  0.00    -0.103 OA
HETATM   35  N   UNL     1      -1.517  10.171 -23.829  1.00  0.00    -0.083 NA
HETATM   36  C   UNL     1      -2.415   9.356 -24.379  1.00  0.00     0.201 A 
BRANCH  36  37
HETATM   37  N   UNL     1      -3.293   8.615 -23.687  1.00  0.00    -0.379 N 
HETATM   38  H   UNL     1      -3.347   8.702 -22.675  1.00  0.00     0.158 HD
HETATM   39  H   UNL     1      -4.070   8.114 -24.113  1.00  0.00     0.158 HD
ENDBRANCH  36  37
ENDBRANCH   2  32
TORSDOF 13
ENDMDL
MODEL 8
REMARK VINA RESULT:      -6.9      3.381     10.570
REMARK  13 active torsions:
REMARK  status: ('A' for Active; 'I' for Inactive)
REMARK    1  A    between atoms: C_2  and  N_3 
REMARK    2  A    between atoms: N_3  and  C_5 
REMARK    3  A    between atoms: N_3  and  C_34 
REMARK    4  A    between atoms: C_5  and  C_6 
REMARK    5  A    between atoms: N_7  and  C_8 
REMARK    6  A    between atoms: C_12  and  N_13 
REMARK    7  A    between atoms: C_16  and  C_17 
REMARK       I    between atoms: C_17  and  N_18 
REMARK    8  A    between atoms: N_18  and  N_19 
REMARK    9  A    between atoms: C_20  and  C_21 
REMARK   10  A    between atoms: C_22  and  O_23 
REMARK   11  A    between atoms: C_25  and  N_26 
REMARK   12  A    between atoms: N_26  and  C_27 
REMARK   13  A    between atoms: N_26  and  C_29 
ROOT
HETATM    1  C   UNL     1      -4.659   4.013 -32.372  1.00  0.00     0.096 A 
HETATM    2  N   UNL     1      -5.453   4.172 -33.508  1.00  0.00    -0.215 N 
HETATM    3  N   UNL     1      -4.784   4.963 -34.393  1.00  0.00     0.012 NA
HETATM    4  N   UNL     1      -3.665   5.397 -33.839  1.00  0.00    -0.152 NA
HETATM    5  C   UNL     1      -3.574   4.852 -32.596  1.00  0.00     0.170 A 
ENDROOT
BRANCH   5   6
HETATM    6  C   UNL     1      -2.491   5.126 -31.664  1.00  0.00     0.293 C 
HETATM    7  N   UNL     1      -2.689   6.243 -30.875  1.00  0.00    -0.242 N 
HETATM    8  H   UNL     1      -3.544   6.789 -30.965  1.00  0.00     0.192 HD
HETATM    9  O   UNL     1      -1.516   4.376 -31.626  1.00  0.00    -0.264 OA
BRANCH   7  10
HETATM   10  N   UNL     1      -1.720   6.626 -30.000  1.00  0.00    -0.183 NA
HETATM   11  C   UNL     1      -2.124   7.287 -28.959  1.00  0.00     0.153 C 
BRANCH  11  12
HETATM   12  C   UNL     1      -1.166   7.765 -27.943  1.00  0.00     0.016 A 
HETATM   13  C   UNL     1      -0.234   6.923 -27.338  1.00  0.00     0.079 A 
HETATM   14  C   UNL     1       0.648   7.420 -26.373  1.00  0.00     0.066 A 
HETATM   15  C   UNL     1       0.639   8.768 -25.973  1.00  0.00     0.032 A 
HETATM   16  C   UNL     1      -0.310   9.592 -26.608  1.00  0.00     0.030 A 
HETATM   17  C   UNL     1      -1.201   9.107 -27.577  1.00  0.00     0.018 A 
BRANCH  13  18
HETATM   18  O   UNL     1      -0.123   5.590 -27.639  1.00  0.00    -0.360 OA
HETATM   19  H   UNL     1       0.798   5.428 -27.935  1.00  0.00     0.217 HD
ENDBRANCH  13  18
BRANCH  15  20
HETATM   20  N   UNL     1       1.506   9.257 -25.003  1.00  0.00    -0.382 N 
BRANCH  20  21
HETATM   21  C   UNL     1       1.217  10.491 -24.258  1.00  0.00     0.118 C 
HETATM   22  C   UNL     1       0.456  10.197 -22.975  1.00  0.00     0.026 C 
ENDBRANCH  20  21
BRANCH  20  23
HETATM   23  C   UNL     1       2.785   8.595 -24.697  1.00  0.00     0.118 C 
HETATM   24  C   UNL     1       3.837   9.593 -24.230  1.00  0.00     0.026 C 
ENDBRANCH  20  23
ENDBRANCH  15  20
ENDBRANCH  11  12
ENDBRANCH   7  10
ENDBRANCH   5   6
BRANCH   1  25
HETATM   25  C   UNL     1      -4.906   3.082 -31.242  1.00  0.00     0.296 C 
BRANCH  25  26
HETATM   26  N   UNL     1      -4.913   1.612 -31.624  1.00  0.00    -0.066 N 
HETATM   27  H   UNL     1      -5.553   1.541 -32.442  1.00  0.00     0.280 HD
BRANCH  26  28
HETATM   28  C   UNL     1      -5.530   0.754 -30.531  1.00  0.00     0.231 C 
HETATM   29  C   UNL     1      -6.796   0.076 -31.024  1.00  0.00     0.034 C 
ENDBRANCH  26  28
BRANCH  26  30
HETATM   30  C   UNL     1      -3.543   1.118 -32.035  1.00  0.00     0.231 C 
HETATM   31  C   UNL     1      -3.095  -0.036 -31.155  1.00  0.00     0.034 C 
ENDBRANCH  26  30
ENDBRANCH  25  26
ENDBRANCH   1  25
BRANCH   2  32
HETATM   32  C   UNL     1      -6.761   3.697 -33.770  1.00  0.00     0.225 A 
HETATM   33  N   UNL     1      -6.987   2.388 -33.902  1.00  0.00    -0.081 NA
HETATM   34  O   UNL     1      -8.366   2.308 -34.116  1.00  0.00    -0.103 OA
HETATM   35  N   UNL     1      -8.952   3.565 -34.083  1.00  0.00    -0.083 NA
HETATM   36  C   UNL     1      -7.960   4.426 -33.866  1.00  0.00     0.201 A 
BRANCH  36  37
HETATM   37  N   UNL     1      -8.115   5.754 -33.761  1.00  0.00    -0.379 N 
HETATM   38  H   UNL     1      -8.949   6.137 -33.324  1.00  0.00     0.158 HD
HETATM   39  H   UNL     1      -7.360   6.425 -33.896  1.00  0.00     0.158 HD
ENDBRANCH  36  37
ENDBRANCH   2  32
TORSDOF 13
ENDMDL
MODEL 9
REMARK VINA RESULT:      -6.8     19.154     20.503
REMARK  13 active torsions:
REMARK  status: ('A' for Active; 'I' for Inactive)
REMARK    1  A    between atoms: C_2  and  N_3 
REMARK    2  A    between atoms: N_3  and  C_5 
REMARK    3  A    between atoms: N_3  and  C_34 
REMARK    4  A    between atoms: C_5  and  C_6 
REMARK    5  A    between atoms: N_7  and  C_8 
REMARK    6  A    between atoms: C_12  and  N_13 
REMARK    7  A    between atoms: C_16  and  C_17 
REMARK       I    between atoms: C_17  and  N_18 
REMARK    8  A    between atoms: N_18  and  N_19 
REMARK    9  A    between atoms: C_20  and  C_21 
REMARK   10  A    between atoms: C_22  and  O_23 
REMARK   11  A    between atoms: C_25  and  N_26 
REMARK   12  A    between atoms: N_26  and  C_27 
REMARK   13  A    between atoms: N_26  and  C_29 
ROOT
HETATM    1  C   UNL     1      -3.539 -16.670 -30.125  1.00  0.00     0.096 A 
HETATM    2  N   UNL     1      -3.242 -16.520 -28.769  1.00  0.00    -0.215 N 
HETATM    3  N   UNL     1      -4.384 -16.161 -28.118  1.00  0.00     0.012 NA
HETATM    4  N   UNL     1      -5.354 -15.974 -28.997  1.00  0.00    -0.152 NA
HETATM    5  C   UNL     1      -4.860 -16.256 -30.232  1.00  0.00     0.170 A 
ENDROOT
BRANCH   5   6
HETATM    6  C   UNL     1      -5.626 -16.129 -31.463  1.00  0.00     0.293 C 
HETATM    7  N   UNL     1      -5.391 -14.961 -32.161  1.00  0.00    -0.242 N 
HETATM    8  H   UNL     1      -4.718 -14.281 -31.812  1.00  0.00     0.192 HD
HETATM    9  O   UNL     1      -6.390 -17.033 -31.799  1.00  0.00    -0.264 OA
BRANCH   7  10
HETATM   10  N   UNL     1      -6.088 -14.711 -33.303  1.00  0.00    -0.183 NA
HETATM   11  C   UNL     1      -5.389 -14.666 -34.396  1.00  0.00     0.153 C 
BRANCH  11  12
HETATM   12  C   UNL     1      -6.031 -14.393 -35.697  1.00  0.00     0.016 A 
HETATM   13  C   UNL     1      -7.103 -13.512 -35.834  1.00  0.00     0.079 A 
HETATM   14  C   UNL     1      -7.683 -13.292 -37.087  1.00  0.00     0.066 A 
HETATM   15  C   UNL     1      -7.225 -13.937 -38.249  1.00  0.00     0.032 A 
HETATM   16  C   UNL     1      -6.138 -14.815 -38.077  1.00  0.00     0.030 A 
HETATM   17  C   UNL     1      -5.545 -15.046 -36.827  1.00  0.00     0.018 A 
BRANCH  13  18
HETATM   18  O   UNL     1      -7.642 -12.822 -34.779  1.00  0.00    -0.360 OA
HETATM   19  H   UNL     1      -6.969 -12.181 -34.468  1.00  0.00     0.217 HD
ENDBRANCH  13  18
BRANCH  15  20
HETATM   20  N   UNL     1      -7.814 -13.729 -39.491  1.00  0.00    -0.382 N 
BRANCH  20  21
HETATM   21  C   UNL     1      -9.270 -13.808 -39.678  1.00  0.00     0.118 C 
HETATM   22  C   UNL     1      -9.856 -12.451 -40.037  1.00  0.00     0.026 C 
ENDBRANCH  20  21
BRANCH  20  23
HETATM   23  C   UNL     1      -7.014 -13.464 -40.698  1.00  0.00     0.118 C 
HETATM   24  C   UNL     1      -6.257 -12.147 -40.592  1.00  0.00     0.026 C 
ENDBRANCH  20  23
ENDBRANCH  15  20
ENDBRANCH  11  12
ENDBRANCH   7  10
ENDBRANCH   5   6
BRANCH   1  25
HETATM   25  C   UNL     1      -2.646 -17.235 -31.169  1.00  0.00     0.296 C 
BRANCH  25  26
HETATM   26  N   UNL     1      -1.999 -16.202 -32.075  1.00  0.00    -0.066 N 
HETATM   27  H   UNL     1      -2.434 -15.293 -31.814  1.00  0.00     0.280 HD
BRANCH  26  28
HETATM   28  C   UNL     1      -2.357 -16.436 -33.534  1.00  0.00     0.231 C 
HETATM   29  C   UNL     1      -1.280 -15.885 -34.451  1.00  0.00     0.034 C 
ENDBRANCH  26  28
BRANCH  26  30
HETATM   30  C   UNL     1      -0.504 -16.104 -31.860  1.00  0.00     0.231 C 
HETATM   31  C   UNL     1       0.036 -17.373 -31.222  1.00  0.00     0.034 C 
ENDBRANCH  26  30
ENDBRANCH  25  26
ENDBRANCH   1  25
BRANCH   2  32
HETATM   32  C   UNL     1      -2.000 -16.629 -28.099  1.00  0.00     0.225 A 
HETATM   33  N   UNL     1      -1.703 -17.733 -27.409  1.00  0.00    -0.081 NA
HETATM   34  O   UNL     1      -0.414 -17.487 -26.927  1.00  0.00    -0.103 OA
HETATM   35  N   UNL     1       0.054 -16.253 -27.355  1.00  0.00    -0.083 NA
HETATM   36  C   UNL     1      -0.925 -15.722 -28.083  1.00  0.00     0.201 A 
BRANCH  36  37
HETATM   37  N   UNL     1      -0.862 -14.524 -28.684  1.00  0.00    -0.379 N 
HETATM   38  H   UNL     1      -0.544 -13.710 -28.165  1.00  0.00     0.158 HD
HETATM   39  H   UNL     1      -0.907 -14.394 -29.693  1.00  0.00     0.158 HD
ENDBRANCH  36  37
ENDBRANCH   2  32
TORSDOF 13
ENDMDL
MODEL 10
REMARK VINA RESULT:      -6.8      4.170      5.476
REMARK  13 active torsions:
REMARK  status: ('A' for Active; 'I' for Inactive)
REMARK    1  A    between atoms: C_2  and  N_3 
REMARK    2  A    between atoms: N_3  and  C_5 
REMARK    3  A    between atoms: N_3  and  C_34 
REMARK    4  A    between atoms: C_5  and  C_6 
REMARK    5  A    between atoms: N_7  and  C_8 
REMARK    6  A    between atoms: C_12  and  N_13 
REMARK    7  A    between atoms: C_16  and  C_17 
REMARK       I    between atoms: C_17  and  N_18 
REMARK    8  A    between atoms: N_18  and  N_19 
REMARK    9  A    between atoms: C_20  and  C_21 
REMARK   10  A    between atoms: C_22  and  O_23 
REMARK   11  A    between atoms: C_25  and  N_26 
REMARK   12  A    between atoms: N_26  and  C_27 
REMARK   13  A    between atoms: N_26  and  C_29 
ROOT
HETATM    1  C   UNL     1      -1.428   6.352 -30.034  1.00  0.00     0.096 A 
HETATM    2  N   UNL     1      -0.208   6.157 -29.383  1.00  0.00    -0.215 N 
HETATM    3  N   UNL     1       0.427   5.105 -29.970  1.00  0.00     0.012 NA
HETATM    4  N   UNL     1      -0.364   4.561 -30.879  1.00  0.00    -0.152 NA
HETATM    5  C   UNL     1      -1.512   5.288 -30.923  1.00  0.00     0.170 A 
ENDROOT
BRANCH   5   6
HETATM    6  C   UNL     1      -2.643   4.972 -31.782  1.00  0.00     0.293 C 
HETATM    7  N   UNL     1      -3.689   4.343 -31.136  1.00  0.00    -0.242 N 
HETATM    8  H   UNL     1      -3.634   4.149 -30.138  1.00  0.00     0.192 HD
HETATM    9  O   UNL     1      -2.608   5.282 -32.972  1.00  0.00    -0.264 OA
BRANCH   7  10
HETATM   10  N   UNL     1      -4.782   3.955 -31.850  1.00  0.00    -0.183 NA
HETATM   11  C   UNL     1      -5.932   4.315 -31.369  1.00  0.00     0.153 C 
BRANCH  11  12
HETATM   12  C   UNL     1      -7.189   3.946 -32.048  1.00  0.00     0.016 A 
HETATM   13  C   UNL     1      -7.478   4.338 -33.354  1.00  0.00     0.079 A 
HETATM   14  C   UNL     1      -8.688   3.971 -33.953  1.00  0.00     0.066 A 
HETATM   15  C   UNL     1      -9.654   3.203 -33.280  1.00  0.00     0.032 A 
HETATM   16  C   UNL     1      -9.328   2.818 -31.965  1.00  0.00     0.030 A 
HETATM   17  C   UNL     1      -8.119   3.178 -31.352  1.00  0.00     0.018 A 
BRANCH  13  18
HETATM   18  O   UNL     1      -6.621   5.089 -34.117  1.00  0.00    -0.360 OA
HETATM   19  H   UNL     1      -7.092   5.330 -34.942  1.00  0.00     0.217 HD
ENDBRANCH  13  18
BRANCH  15  20
HETATM   20  N   UNL     1     -10.862   2.852 -33.871  1.00  0.00    -0.382 N 
BRANCH  20  21
HETATM   21  C   UNL     1     -11.102   1.500 -34.396  1.00  0.00     0.118 C 
HETATM   22  C   UNL     1     -12.231   0.808 -33.647  1.00  0.00     0.026 C 
ENDBRANCH  20  21
BRANCH  20  23
HETATM   23  C   UNL     1     -11.953   3.824 -34.047  1.00  0.00     0.118 C 
HETATM   24  C   UNL     1     -12.338   3.977 -35.513  1.00  0.00     0.026 C 
ENDBRANCH  20  23
ENDBRANCH  15  20
ENDBRANCH  11  12
ENDBRANCH   7  10
ENDBRANCH   5   6
BRANCH   1  25
HETATM   25  C   UNL     1      -2.354   7.500 -29.854  1.00  0.00     0.296 C 
BRANCH  25  26
HETATM   26  N   UNL     1      -3.164   7.462 -28.570  1.00  0.00    -0.066 N 
HETATM   27  H   UNL     1      -2.718   6.729 -27.982  1.00  0.00     0.280 HD
BRANCH  26  28
HETATM   28  C   UNL     1      -4.588   6.991 -28.823  1.00  0.00     0.231 C 
HETATM   29  C   UNL     1      -5.199   7.723 -30.004  1.00  0.00     0.034 C 
ENDBRANCH  26  28
BRANCH  26  30
HETATM   30  C   UNL     1      -3.120   8.778 -27.824  1.00  0.00     0.231 C 
HETATM   31  C   UNL     1      -2.026   9.677 -28.373  1.00  0.00     0.034 C 
ENDBRANCH  26  30
ENDBRANCH  25  26
ENDBRANCH   1  25
BRANCH   2  32
HETATM   32  C   UNL     1       0.335   6.830 -28.263  1.00  0.00     0.225 A 
HETATM   33  N   UNL     1       1.173   7.855 -28.434  1.00  0.00    -0.081 NA
HETATM   34  O   UNL     1       1.464   8.269 -27.132  1.00  0.00    -0.103 OA
HETATM   35  N   UNL     1       0.778   7.506 -26.198  1.00  0.00    -0.083 NA
HETATM   36  C   UNL     1       0.077   6.616 -26.897  1.00  0.00     0.201 A 
BRANCH  36  37
HETATM   37  N   UNL     1      -0.729   5.690 -26.356  1.00  0.00    -0.379 N 
HETATM   38  H   UNL     1      -1.019   5.771 -25.385  1.00  0.00     0.158 HD
HETATM   39  H   UNL     1      -1.256   5.011 -26.902  1.00  0.00     0.158 HD
ENDBRANCH  36  37
ENDBRANCH   2  32
TORSDOF 13
ENDMDL
