MODEL 1
REMARK VINA RESULT:      -9.4      0.000      0.000
REMARK  4 active torsions:
REMARK  status: ('A' for Active; 'I' for Inactive)
REMARK    1  A    between atoms: C_8  and  C_9 
REMARK    2  A    between atoms: C_12  and  N_13 
REMARK       I    between atoms: N_13  and  C_14 
REMARK    3  A    between atoms: C_14  and  C_15 
REMARK    4  A    between atoms: C_18  and  N_19 
ROOT
HETATM    1  C   UNL     1      -0.172   7.081 -28.935  1.00  0.00     0.010 A 
HETATM    2  C   UNL     1       0.820   8.068 -28.970  1.00  0.00     0.017 A 
HETATM    3  C   UNL     1       1.573   8.374 -27.826  1.00  0.00     0.030 A 
HETATM    4  C   UNL     1       1.353   7.697 -26.626  1.00  0.00     0.035 A 
HETATM    5  C   UNL     1       0.328   6.749 -26.571  1.00  0.00     0.030 A 
HETATM    6  C   UNL     1      -0.427   6.447 -27.712  1.00  0.00     0.017 A 
ENDROOT
BRANCH   4   7
HETATM    7  N   UNL     1       2.137   7.865 -25.465  1.00  0.00    -0.323 N 
HETATM    8  C   UNL     1       2.238   9.003 -24.683  1.00  0.00     0.256 C 
HETATM    9  O   UNL     1       1.573  10.026 -24.789  1.00  0.00    -0.267 OA
HETATM   10  H   UNL     1       2.781   7.110 -25.273  1.00  0.00     0.169 HD
BRANCH   8  11
HETATM   11  C   UNL     1       3.327   8.974 -23.663  1.00  0.00     0.032 A 
HETATM   12  C   UNL     1       4.567   9.581 -23.856  1.00  0.00     0.019 A 
HETATM   13  C   UNL     1       5.521   9.580 -22.825  1.00  0.00     0.031 A 
HETATM   14  C   UNL     1       5.274   8.971 -21.580  1.00  0.00     0.045 A 
HETATM   15  C   UNL     1       4.034   8.331 -21.427  1.00  0.00     0.031 A 
HETATM   16  C   UNL     1       3.076   8.328 -22.452  1.00  0.00     0.019 A 
BRANCH  14  17
HETATM   17  N   UNL     1       6.234   9.014 -20.516  1.00  0.00    -0.252 N 
HETATM   18  C   UNL     1       7.099   7.987 -20.200  1.00  0.00     0.231 C 
HETATM   19  O   UNL     1       7.277   6.916 -20.765  1.00  0.00    -0.273 OA
HETATM   20  C   UNL     1       7.870   8.354 -18.969  1.00  0.00     0.113 C 
HETATM   21  C   UNL     1       7.632   9.831 -18.818  1.00  0.00     0.113 C 
HETATM   22  C   UNL     1       6.440  10.096 -19.686  1.00  0.00     0.231 C 
HETATM   23  O   UNL     1       5.820  11.149 -19.605  1.00  0.00    -0.273 OA
ENDBRANCH  14  17
ENDBRANCH   8  11
ENDBRANCH   4   7
BRANCH   1  24
HETATM   24  C   UNL     1      -0.916   6.656 -30.126  1.00  0.00     0.139 A 
HETATM   25  N   UNL     1      -0.335   6.190 -31.286  1.00  0.00    -0.338 N 
HETATM   26  C   UNL     1      -1.319   5.770 -32.142  1.00  0.00     0.063 A 
HETATM   27  H   UNL     1       0.656   6.115 -31.457  1.00  0.00     0.167 HD
HETATM   28  C   UNL     1      -2.497   6.039 -31.461  1.00  0.00     0.086 A 
HETATM   29  C   UNL     1      -1.281   5.183 -33.406  1.00  0.00     0.032 A 
HETATM   30  C   UNL     1      -3.724   5.718 -32.057  1.00  0.00     0.040 A 
HETATM   31  N   UNL     1      -2.233   6.594 -30.233  1.00  0.00    -0.228 NA
HETATM   32  C   UNL     1      -3.730   5.125 -33.332  1.00  0.00    -0.060 A 
HETATM   33  C   UNL     1      -5.027   4.730 -33.978  1.00  0.00     0.048 C 
HETATM   34  C   UNL     1      -2.516   4.860 -33.985  1.00  0.00     0.009 A 
ENDBRANCH   1  24
TORSDOF 4
ENDMDL
MODEL 2
REMARK VINA RESULT:      -8.9      4.303     12.956
REMARK  4 active torsions:
REMARK  status: ('A' for Active; 'I' for Inactive)
REMARK    1  A    between atoms: C_8  and  C_9 
REMARK    2  A    between atoms: C_12  and  N_13 
REMARK       I    between atoms: N_13  and  C_14 
REMARK    3  A    between atoms: C_14  and  C_15 
REMARK    4  A    between atoms: C_18  and  N_19 
ROOT
HETATM    1  C   UNL     1       1.220   8.142 -26.757  1.00  0.00     0.010 A 
HETATM    2  C   UNL     1       1.419   8.406 -28.117  1.00  0.00     0.017 A 
HETATM    3  C   UNL     1       0.763   7.652 -29.101  1.00  0.00     0.030 A 
HETATM    4  C   UNL     1      -0.108   6.622 -28.746  1.00  0.00     0.035 A 
HETATM    5  C   UNL     1      -0.269   6.318 -27.392  1.00  0.00     0.030 A 
HETATM    6  C   UNL     1       0.389   7.068 -26.410  1.00  0.00     0.017 A 
ENDROOT
BRANCH   4   7
HETATM    7  N   UNL     1      -0.889   5.891 -29.667  1.00  0.00    -0.323 N 
HETATM    8  C   UNL     1      -1.943   6.365 -30.431  1.00  0.00     0.256 C 
HETATM    9  O   UNL     1      -2.307   7.531 -30.532  1.00  0.00    -0.267 OA
HETATM   10  H   UNL     1      -0.731   4.893 -29.662  1.00  0.00     0.169 HD
BRANCH   8  11
HETATM   11  C   UNL     1      -2.740   5.316 -31.130  1.00  0.00     0.032 A 
HETATM   12  C   UNL     1      -2.214   4.505 -32.135  1.00  0.00     0.019 A 
HETATM   13  C   UNL     1      -2.999   3.486 -32.702  1.00  0.00     0.031 A 
HETATM   14  C   UNL     1      -4.324   3.250 -32.293  1.00  0.00     0.045 A 
HETATM   15  C   UNL     1      -4.843   4.109 -31.310  1.00  0.00     0.031 A 
HETATM   16  C   UNL     1      -4.066   5.128 -30.739  1.00  0.00     0.019 A 
BRANCH  14  17
HETATM   17  N   UNL     1      -5.104   2.179 -32.841  1.00  0.00    -0.252 N 
HETATM   18  C   UNL     1      -4.901   0.843 -32.566  1.00  0.00     0.231 C 
HETATM   19  O   UNL     1      -4.113   0.317 -31.792  1.00  0.00    -0.273 OA
HETATM   20  C   UNL     1      -5.834   0.021 -33.404  1.00  0.00     0.113 C 
HETATM   21  C   UNL     1      -6.839   1.018 -33.911  1.00  0.00     0.113 C 
HETATM   22  C   UNL     1      -6.177   2.344 -33.692  1.00  0.00     0.231 C 
HETATM   23  O   UNL     1      -6.608   3.361 -34.220  1.00  0.00    -0.273 OA
ENDBRANCH  14  17
ENDBRANCH   8  11
ENDBRANCH   4   7
BRANCH   1  24
HETATM   24  C   UNL     1       1.804   8.964 -25.690  1.00  0.00     0.139 A 
HETATM   25  N   UNL     1       1.116   9.925 -24.980  1.00  0.00    -0.338 N 
HETATM   26  C   UNL     1       1.926  10.410 -23.986  1.00  0.00     0.063 A 
HETATM   27  H   UNL     1       0.155  10.189 -25.127  1.00  0.00     0.167 HD
HETATM   28  C   UNL     1       3.121   9.729 -24.162  1.00  0.00     0.086 A 
HETATM   29  C   UNL     1       1.717  11.345 -22.973  1.00  0.00     0.032 A 
HETATM   30  C   UNL     1       4.190   9.982 -23.290  1.00  0.00     0.040 A 
HETATM   31  N   UNL     1       3.034   8.857 -25.218  1.00  0.00    -0.228 NA
HETATM   32  C   UNL     1       4.021  10.918 -22.255  1.00  0.00    -0.060 A 
HETATM   33  C   UNL     1       5.133  11.178 -21.280  1.00  0.00     0.048 C 
HETATM   34  C   UNL     1       2.792  11.580 -22.105  1.00  0.00     0.009 A 
ENDBRANCH   1  24
TORSDOF 4
ENDMDL
MODEL 3
REMARK VINA RESULT:      -8.8      4.498     13.104
REMARK  4 active torsions:
REMARK  status: ('A' for Active; 'I' for Inactive)
REMARK    1  A    between atoms: C_8  and  C_9 
REMARK    2  A    between atoms: C_12  and  N_13 
REMARK       I    between atoms: N_13  and  C_14 
REMARK    3  A    between atoms: C_14  and  C_15 
REMARK    4  A    between atoms: C_18  and  N_19 
ROOT
HETATM    1  C   UNL     1       0.621   8.323 -26.913  1.00  0.00     0.010 A 
HETATM    2  C   UNL     1      -0.681   7.909 -26.610  1.00  0.00     0.017 A 
HETATM    3  C   UNL     1      -1.430   7.155 -27.528  1.00  0.00     0.030 A 
HETATM    4  C   UNL     1      -0.890   6.798 -28.763  1.00  0.00     0.035 A 
HETATM    5  C   UNL     1       0.389   7.254 -29.093  1.00  0.00     0.030 A 
HETATM    6  C   UNL     1       1.134   8.010 -28.178  1.00  0.00     0.017 A 
ENDROOT
BRANCH   4   7
HETATM    7  N   UNL     1      -1.531   5.952 -29.694  1.00  0.00    -0.323 N 
HETATM    8  C   UNL     1      -2.608   6.265 -30.504  1.00  0.00     0.256 C 
HETATM    9  O   UNL     1      -3.121   7.370 -30.646  1.00  0.00    -0.267 OA
HETATM   10  H   UNL     1      -1.241   4.984 -29.659  1.00  0.00     0.169 HD
BRANCH   8  11
HETATM   11  C   UNL     1      -3.231   5.106 -31.206  1.00  0.00     0.032 A 
HETATM   12  C   UNL     1      -2.573   4.368 -32.189  1.00  0.00     0.019 A 
HETATM   13  C   UNL     1      -3.191   3.242 -32.758  1.00  0.00     0.031 A 
HETATM   14  C   UNL     1      -4.478   2.823 -32.374  1.00  0.00     0.045 A 
HETATM   15  C   UNL     1      -5.135   3.608 -31.413  1.00  0.00     0.031 A 
HETATM   16  C   UNL     1      -4.525   4.734 -30.840  1.00  0.00     0.019 A 
BRANCH  14  17
HETATM   17  N   UNL     1      -5.084   1.646 -32.924  1.00  0.00    -0.252 N 
HETATM   18  C   UNL     1      -6.193   1.647 -33.744  1.00  0.00     0.231 C 
HETATM   19  O   UNL     1      -6.817   2.590 -34.209  1.00  0.00    -0.273 OA
HETATM   20  C   UNL     1      -6.596   0.231 -34.028  1.00  0.00     0.113 C 
HETATM   21  C   UNL     1      -5.405  -0.579 -33.598  1.00  0.00     0.113 C 
HETATM   22  C   UNL     1      -4.622   0.360 -32.732  1.00  0.00     0.231 C 
HETATM   23  O   UNL     1      -3.720  -0.047 -32.010  1.00  0.00    -0.273 OA
ENDBRANCH  14  17
ENDBRANCH   8  11
ENDBRANCH   4   7
BRANCH   1  24
HETATM   24  C   UNL     1       1.478   9.025 -25.951  1.00  0.00     0.139 A 
HETATM   25  N   UNL     1       1.155  10.218 -25.341  1.00  0.00    -0.338 N 
HETATM   26  C   UNL     1       2.120  10.524 -24.417  1.00  0.00     0.063 A 
HETATM   27  H   UNL     1       0.316  10.753 -25.505  1.00  0.00     0.167 HD
HETATM   28  C   UNL     1       3.037   9.490 -24.532  1.00  0.00     0.086 A 
HETATM   29  C   UNL     1       2.258  11.574 -23.510  1.00  0.00     0.032 A 
HETATM   30  C   UNL     1       4.171   9.482 -23.708  1.00  0.00     0.040 A 
HETATM   31  N   UNL     1       2.636   8.587 -25.485  1.00  0.00    -0.228 NA
HETATM   32  C   UNL     1       4.347  10.524 -22.779  1.00  0.00    -0.060 A 
HETATM   33  C   UNL     1       5.529  10.520 -21.853  1.00  0.00     0.048 C 
HETATM   34  C   UNL     1       3.391  11.548 -22.687  1.00  0.00     0.009 A 
ENDBRANCH   1  24
TORSDOF 4
ENDMDL
MODEL 4
REMARK VINA RESULT:      -8.5      5.123      8.315
REMARK  4 active torsions:
REMARK  status: ('A' for Active; 'I' for Inactive)
REMARK    1  A    between atoms: C_8  and  C_9 
REMARK    2  A    between atoms: C_12  and  N_13 
REMARK       I    between atoms: N_13  and  C_14 
REMARK    3  A    between atoms: C_14  and  C_15 
REMARK    4  A    between atoms: C_18  and  N_19 
ROOT
HETATM    1  C   UNL     1      -4.433   2.339 -32.160  1.00  0.00     0.010 A 
HETATM    2  C   UNL     1      -3.158   2.855 -32.419  1.00  0.00     0.017 A 
HETATM    3  C   UNL     1      -2.716   4.032 -31.795  1.00  0.00     0.030 A 
HETATM    4  C   UNL     1      -3.538   4.714 -30.897  1.00  0.00     0.035 A 
HETATM    5  C   UNL     1      -4.831   4.233 -30.676  1.00  0.00     0.030 A 
HETATM    6  C   UNL     1      -5.273   3.061 -31.301  1.00  0.00     0.017 A 
ENDROOT
BRANCH   4   7
HETATM    7  N   UNL     1      -3.131   5.838 -30.146  1.00  0.00    -0.323 N 
HETATM    8  C   UNL     1      -2.165   6.767 -30.490  1.00  0.00     0.256 C 
HETATM    9  O   UNL     1      -1.576   6.848 -31.562  1.00  0.00    -0.267 OA
HETATM   10  H   UNL     1      -3.504   5.881 -29.208  1.00  0.00     0.169 HD
BRANCH   8  11
HETATM   11  C   UNL     1      -1.772   7.705 -29.398  1.00  0.00     0.032 A 
HETATM   12  C   UNL     1      -2.007   9.078 -29.454  1.00  0.00     0.019 A 
HETATM   13  C   UNL     1      -1.677   9.895 -28.358  1.00  0.00     0.031 A 
HETATM   14  C   UNL     1      -1.101   9.373 -27.186  1.00  0.00     0.045 A 
HETATM   15  C   UNL     1      -0.836   7.994 -27.173  1.00  0.00     0.031 A 
HETATM   16  C   UNL     1      -1.162   7.172 -28.262  1.00  0.00     0.019 A 
BRANCH  14  17
HETATM   17  N   UNL     1      -0.811  10.204 -26.054  1.00  0.00    -0.252 N 
HETATM   18  C   UNL     1      -1.600  10.294 -24.925  1.00  0.00     0.231 C 
HETATM   19  O   UNL     1      -2.612   9.673 -24.631  1.00  0.00    -0.273 OA
HETATM   20  C   UNL     1      -1.034  11.339 -24.012  1.00  0.00     0.113 C 
HETATM   21  C   UNL     1       0.350  11.580 -24.548  1.00  0.00     0.113 C 
HETATM   22  C   UNL     1       0.309  11.000 -25.929  1.00  0.00     0.231 C 
HETATM   23  O   UNL     1       1.189  11.244 -26.744  1.00  0.00    -0.273 OA
ENDBRANCH  14  17
ENDBRANCH   8  11
ENDBRANCH   4   7
BRANCH   1  24
HETATM   24  C   UNL     1      -4.902   1.062 -32.708  1.00  0.00     0.139 A 
HETATM   25  N   UNL     1      -6.097   0.890 -33.374  1.00  0.00    -0.338 N 
HETATM   26  C   UNL     1      -6.160  -0.393 -33.853  1.00  0.00     0.063 A 
HETATM   27  H   UNL     1      -6.789   1.605 -33.535  1.00  0.00     0.167 HD
HETATM   28  C   UNL     1      -4.981  -0.976 -33.414  1.00  0.00     0.086 A 
HETATM   29  C   UNL     1      -7.110  -1.067 -34.620  1.00  0.00     0.032 A 
HETATM   30  C   UNL     1      -4.712  -2.312 -33.742  1.00  0.00     0.040 A 
HETATM   31  N   UNL     1      -4.228  -0.076 -32.703  1.00  0.00    -0.228 NA
HETATM   32  C   UNL     1      -5.644  -3.028 -34.514  1.00  0.00    -0.060 A 
HETATM   33  C   UNL     1      -5.364  -4.447 -34.918  1.00  0.00     0.048 C 
HETATM   34  C   UNL     1      -6.822  -2.399 -34.947  1.00  0.00     0.009 A 
ENDBRANCH   1  24
TORSDOF 4
ENDMDL
MODEL 5
REMARK VINA RESULT:      -8.4      6.043      9.170
REMARK  4 active torsions:
REMARK  status: ('A' for Active; 'I' for Inactive)
REMARK    1  A    between atoms: C_8  and  C_9 
REMARK    2  A    between atoms: C_12  and  N_13 
REMARK       I    between atoms: N_13  and  C_14 
REMARK    3  A    between atoms: C_14  and  C_15 
REMARK    4  A    between atoms: C_18  and  N_19 
ROOT
HETATM    1  C   UNL     1      -4.545   1.657 -32.397  1.00  0.00     0.010 A 
HETATM    2  C   UNL     1      -3.332   2.350 -32.483  1.00  0.00     0.017 A 
HETATM    3  C   UNL     1      -3.127   3.536 -31.761  1.00  0.00     0.030 A 
HETATM    4  C   UNL     1      -4.128   4.049 -30.936  1.00  0.00     0.035 A 
HETATM    5  C   UNL     1      -5.359   3.391 -30.888  1.00  0.00     0.030 A 
HETATM    6  C   UNL     1      -5.565   2.210 -31.611  1.00  0.00     0.017 A 
ENDROOT
BRANCH   4   7
HETATM    7  N   UNL     1      -3.964   5.171 -30.095  1.00  0.00    -0.323 N 
HETATM    8  C   UNL     1      -3.890   6.499 -30.477  1.00  0.00     0.256 C 
HETATM    9  O   UNL     1      -4.076   6.948 -31.602  1.00  0.00    -0.267 OA
HETATM   10  H   UNL     1      -3.754   4.952 -29.131  1.00  0.00     0.169 HD
BRANCH   8  11
HETATM   11  C   UNL     1      -3.470   7.445 -29.403  1.00  0.00     0.032 A 
HETATM   12  C   UNL     1      -4.371   8.224 -28.679  1.00  0.00     0.019 A 
HETATM   13  C   UNL     1      -3.914   9.040 -27.630  1.00  0.00     0.031 A 
HETATM   14  C   UNL     1      -2.554   9.110 -27.277  1.00  0.00     0.045 A 
HETATM   15  C   UNL     1      -1.663   8.348 -28.051  1.00  0.00     0.031 A 
HETATM   16  C   UNL     1      -2.111   7.531 -29.099  1.00  0.00     0.019 A 
BRANCH  14  17
HETATM   17  N   UNL     1      -2.100   9.908 -26.176  1.00  0.00    -0.252 N 
HETATM   18  C   UNL     1      -1.292  11.020 -26.296  1.00  0.00     0.231 C 
HETATM   19  O   UNL     1      -0.874  11.575 -27.302  1.00  0.00    -0.273 OA
HETATM   20  C   UNL     1      -0.942  11.523 -24.928  1.00  0.00     0.113 C 
HETATM   21  C   UNL     1      -1.917  10.821 -24.023  1.00  0.00     0.113 C 
HETATM   22  C   UNL     1      -2.435   9.689 -24.856  1.00  0.00     0.231 C 
HETATM   23  O   UNL     1      -3.059   8.766 -24.351  1.00  0.00    -0.273 OA
ENDBRANCH  14  17
ENDBRANCH   8  11
ENDBRANCH   4   7
BRANCH   1  24
HETATM   24  C   UNL     1      -4.772   0.363 -33.051  1.00  0.00     0.139 A 
HETATM   25  N   UNL     1      -3.846  -0.656 -33.111  1.00  0.00    -0.338 N 
HETATM   26  C   UNL     1      -4.428  -1.756 -33.684  1.00  0.00     0.063 A 
HETATM   27  H   UNL     1      -2.909  -0.620 -32.741  1.00  0.00     0.167 HD
HETATM   28  C   UNL     1      -5.714  -1.336 -33.992  1.00  0.00     0.086 A 
HETATM   29  C   UNL     1      -3.961  -3.045 -33.939  1.00  0.00     0.032 A 
HETATM   30  C   UNL     1      -6.605  -2.235 -34.595  1.00  0.00     0.040 A 
HETATM   31  N   UNL     1      -5.905  -0.031 -33.610  1.00  0.00    -0.228 NA
HETATM   32  C   UNL     1      -6.173  -3.545 -34.869  1.00  0.00    -0.060 A 
HETATM   33  C   UNL     1      -7.117  -4.543 -35.474  1.00  0.00     0.048 C 
HETATM   34  C   UNL     1      -4.866  -3.934 -34.534  1.00  0.00     0.009 A 
ENDBRANCH   1  24
TORSDOF 4
ENDMDL
MODEL 6
REMARK VINA RESULT:      -8.4     15.117     17.322
REMARK  4 active torsions:
REMARK  status: ('A' for Active; 'I' for Inactive)
REMARK    1  A    between atoms: C_8  and  C_9 
REMARK    2  A    between atoms: C_12  and  N_13 
REMARK       I    between atoms: N_13  and  C_14 
REMARK    3  A    between atoms: C_14  and  C_15 
REMARK    4  A    between atoms: C_18  and  N_19 
ROOT
HETATM    1  C   UNL     1     -12.199   5.746 -35.650  1.00  0.00     0.010 A 
HETATM    2  C   UNL     1     -10.867   5.932 -35.261  1.00  0.00     0.017 A 
HETATM    3  C   UNL     1     -10.056   4.839 -34.922  1.00  0.00     0.030 A 
HETATM    4  C   UNL     1     -10.558   3.538 -34.969  1.00  0.00     0.035 A 
HETATM    5  C   UNL     1     -11.901   3.350 -35.305  1.00  0.00     0.030 A 
HETATM    6  C   UNL     1     -12.712   4.442 -35.639  1.00  0.00     0.017 A 
ENDROOT
BRANCH   4   7
HETATM    7  N   UNL     1      -9.781   2.380 -34.751  1.00  0.00    -0.323 N 
HETATM    8  C   UNL     1      -9.287   1.920 -33.542  1.00  0.00     0.256 C 
HETATM    9  O   UNL     1      -9.538   2.370 -32.431  1.00  0.00    -0.267 OA
HETATM   10  H   UNL     1      -9.455   1.922 -35.591  1.00  0.00     0.169 HD
BRANCH   8  11
HETATM   11  C   UNL     1      -8.295   0.810 -33.645  1.00  0.00     0.032 A 
HETATM   12  C   UNL     1      -7.702   0.214 -32.533  1.00  0.00     0.019 A 
HETATM   13  C   UNL     1      -6.832  -0.877 -32.698  1.00  0.00     0.031 A 
HETATM   14  C   UNL     1      -6.521  -1.399 -33.967  1.00  0.00     0.045 A 
HETATM   15  C   UNL     1      -7.098  -0.752 -35.073  1.00  0.00     0.031 A 
HETATM   16  C   UNL     1      -7.969   0.336 -34.916  1.00  0.00     0.019 A 
BRANCH  14  17
HETATM   17  N   UNL     1      -5.669  -2.541 -34.125  1.00  0.00    -0.252 N 
HETATM   18  C   UNL     1      -4.354  -2.599 -33.712  1.00  0.00     0.231 C 
HETATM   19  O   UNL     1      -3.692  -1.774 -33.098  1.00  0.00    -0.273 OA
HETATM   20  C   UNL     1      -3.761  -3.906 -34.144  1.00  0.00     0.113 C 
HETATM   21  C   UNL     1      -4.955  -4.741 -34.519  1.00  0.00     0.113 C 
HETATM   22  C   UNL     1      -6.058  -3.741 -34.683  1.00  0.00     0.231 C 
HETATM   23  O   UNL     1      -7.111  -4.044 -35.230  1.00  0.00    -0.273 OA
ENDBRANCH  14  17
ENDBRANCH   8  11
ENDBRANCH   4   7
BRANCH   1  24
HETATM   24  C   UNL     1     -13.056   6.845 -36.110  1.00  0.00     0.139 A 
HETATM   25  N   UNL     1     -12.612   8.120 -36.384  1.00  0.00    -0.338 N 
HETATM   26  C   UNL     1     -13.648   8.852 -36.904  1.00  0.00     0.063 A 
HETATM   27  H   UNL     1     -11.666   8.449 -36.275  1.00  0.00     0.167 HD
HETATM   28  C   UNL     1     -14.721   7.974 -36.891  1.00  0.00     0.086 A 
HETATM   29  C   UNL     1     -13.732  10.159 -37.383  1.00  0.00     0.032 A 
HETATM   30  C   UNL     1     -15.966   8.403 -37.374  1.00  0.00     0.040 A 
HETATM   31  N   UNL     1     -14.346   6.753 -36.390  1.00  0.00    -0.228 NA
HETATM   32  C   UNL     1     -16.093   9.715 -37.866  1.00  0.00    -0.060 A 
HETATM   33  C   UNL     1     -17.401  10.189 -38.430  1.00  0.00     0.048 C 
HETATM   34  C   UNL     1     -14.979  10.570 -37.870  1.00  0.00     0.009 A 
ENDBRANCH   1  24
TORSDOF 4
ENDMDL
MODEL 7
REMARK VINA RESULT:      -8.0     12.481     13.779
REMARK  4 active torsions:
REMARK  status: ('A' for Active; 'I' for Inactive)
REMARK    1  A    between atoms: C_8  and  C_9 
REMARK    2  A    between atoms: C_12  and  N_13 
REMARK       I    between atoms: N_13  and  C_14 
REMARK    3  A    between atoms: C_14  and  C_15 
REMARK    4  A    between atoms: C_18  and  N_19 
ROOT
HETATM    1  C   UNL     1      -7.497   1.947 -31.954  1.00  0.00     0.010 A 
HETATM    2  C   UNL     1      -6.748   2.647 -31.002  1.00  0.00     0.017 A 
HETATM    3  C   UNL     1      -7.312   3.713 -30.283  1.00  0.00     0.030 A 
HETATM    4  C   UNL     1      -8.636   4.095 -30.498  1.00  0.00     0.035 A 
HETATM    5  C   UNL     1      -9.371   3.434 -31.486  1.00  0.00     0.030 A 
HETATM    6  C   UNL     1      -8.807   2.374 -32.206  1.00  0.00     0.017 A 
ENDROOT
BRANCH   4   7
HETATM    7  N   UNL     1      -9.310   5.079 -29.743  1.00  0.00    -0.323 N 
HETATM    8  C   UNL     1      -9.418   6.428 -30.034  1.00  0.00     0.256 C 
HETATM    9  O   UNL     1      -9.051   6.986 -31.061  1.00  0.00    -0.267 OA
HETATM   10  H   UNL     1      -9.632   4.772 -28.836  1.00  0.00     0.169 HD
BRANCH   8  11
HETATM   11  C   UNL     1      -9.976   7.269 -28.936  1.00  0.00     0.032 A 
HETATM   12  C   UNL     1     -11.248   7.837 -28.984  1.00  0.00     0.019 A 
HETATM   13  C   UNL     1     -11.740   8.558 -27.883  1.00  0.00     0.031 A 
HETATM   14  C   UNL     1     -10.982   8.742 -26.712  1.00  0.00     0.045 A 
HETATM   15  C   UNL     1      -9.688   8.197 -26.707  1.00  0.00     0.031 A 
HETATM   16  C   UNL     1      -9.190   7.475 -27.802  1.00  0.00     0.019 A 
BRANCH  14  17
HETATM   17  N   UNL     1     -11.508   9.439 -25.574  1.00  0.00    -0.252 N 
HETATM   18  C   UNL     1     -11.229  10.754 -25.265  1.00  0.00     0.231 C 
HETATM   19  O   UNL     1     -10.576  11.580 -25.887  1.00  0.00    -0.273 OA
HETATM   20  C   UNL     1     -11.867  11.097 -23.953  1.00  0.00     0.113 C 
HETATM   21  C   UNL     1     -12.839   9.973 -23.718  1.00  0.00     0.113 C 
HETATM   22  C   UNL     1     -12.384   8.898 -24.656  1.00  0.00     0.231 C 
HETATM   23  O   UNL     1     -12.795   7.750 -24.551  1.00  0.00    -0.273 OA
ENDBRANCH  14  17
ENDBRANCH   8  11
ENDBRANCH   4   7
BRANCH   1  24
HETATM   24  C   UNL     1      -6.986   0.765 -32.658  1.00  0.00     0.139 A 
HETATM   25  N   UNL     1      -5.657   0.402 -32.713  1.00  0.00    -0.338 N 
HETATM   26  C   UNL     1      -5.551  -0.810 -33.344  1.00  0.00     0.063 A 
HETATM   27  H   UNL     1      -4.891   0.913 -32.305  1.00  0.00     0.167 HD
HETATM   28  C   UNL     1      -6.856  -1.127 -33.690  1.00  0.00     0.086 A 
HETATM   29  C   UNL     1      -4.463  -1.637 -33.621  1.00  0.00     0.032 A 
HETATM   30  C   UNL     1      -7.118  -2.332 -34.356  1.00  0.00     0.040 A 
HETATM   31  N   UNL     1      -7.722  -0.146 -33.274  1.00  0.00    -0.228 NA
HETATM   32  C   UNL     1      -6.048  -3.195 -34.654  1.00  0.00    -0.060 A 
HETATM   33  C   UNL     1      -6.301  -4.512 -35.329  1.00  0.00     0.048 C 
HETATM   34  C   UNL     1      -4.741  -2.842 -34.280  1.00  0.00     0.009 A 
ENDBRANCH   1  24
TORSDOF 4
ENDMDL
MODEL 8
REMARK VINA RESULT:      -8.0      8.088     10.466
REMARK  4 active torsions:
REMARK  status: ('A' for Active; 'I' for Inactive)
REMARK    1  A    between atoms: C_8  and  C_9 
REMARK    2  A    between atoms: C_12  and  N_13 
REMARK       I    between atoms: N_13  and  C_14 
REMARK    3  A    between atoms: C_14  and  C_15 
REMARK    4  A    between atoms: C_18  and  N_19 
ROOT
HETATM    1  C   UNL     1      -4.965   1.581 -32.522  1.00  0.00     0.010 A 
HETATM    2  C   UNL     1      -3.858   1.994 -31.772  1.00  0.00     0.017 A 
HETATM    3  C   UNL     1      -3.865   3.222 -31.093  1.00  0.00     0.030 A 
HETATM    4  C   UNL     1      -4.981   4.059 -31.146  1.00  0.00     0.035 A 
HETATM    5  C   UNL     1      -6.067   3.676 -31.937  1.00  0.00     0.030 A 
HETATM    6  C   UNL     1      -6.058   2.452 -32.618  1.00  0.00     0.017 A 
ENDROOT
BRANCH   4   7
HETATM    7  N   UNL     1      -5.112   5.253 -30.406  1.00  0.00    -0.323 N 
HETATM    8  C   UNL     1      -4.351   6.403 -30.533  1.00  0.00     0.256 C 
HETATM    9  O   UNL     1      -3.508   6.631 -31.392  1.00  0.00    -0.267 OA
HETATM   10  H   UNL     1      -5.747   5.200 -29.622  1.00  0.00     0.169 HD
BRANCH   8  11
HETATM   11  C   UNL     1      -4.551   7.416 -29.456  1.00  0.00     0.032 A 
HETATM   12  C   UNL     1      -5.113   8.670 -29.686  1.00  0.00     0.019 A 
HETATM   13  C   UNL     1      -5.340   9.549 -28.613  1.00  0.00     0.031 A 
HETATM   14  C   UNL     1      -5.009   9.210 -27.288  1.00  0.00     0.045 A 
HETATM   15  C   UNL     1      -4.404   7.958 -27.090  1.00  0.00     0.031 A 
HETATM   16  C   UNL     1      -4.175   7.075 -28.156  1.00  0.00     0.019 A 
BRANCH  14  17
HETATM   17  N   UNL     1      -5.286  10.092 -26.192  1.00  0.00    -0.252 N 
HETATM   18  C   UNL     1      -6.499  10.171 -25.538  1.00  0.00     0.231 C 
HETATM   19  O   UNL     1      -7.511   9.503 -25.691  1.00  0.00    -0.273 OA
HETATM   20  C   UNL     1      -6.441  11.276 -24.527  1.00  0.00     0.113 C 
HETATM   21  C   UNL     1      -4.973  11.580 -24.405  1.00  0.00     0.113 C 
HETATM   22  C   UNL     1      -4.371  10.955 -25.627  1.00  0.00     0.231 C 
HETATM   23  O   UNL     1      -3.230  11.224 -25.978  1.00  0.00    -0.273 OA
ENDBRANCH  14  17
ENDBRANCH   8  11
ENDBRANCH   4   7
BRANCH   1  24
HETATM   24  C   UNL     1      -5.045   0.265 -33.167  1.00  0.00     0.139 A 
HETATM   25  N   UNL     1      -4.045  -0.683 -33.135  1.00  0.00    -0.338 N 
HETATM   26  C   UNL     1      -4.499  -1.831 -33.729  1.00  0.00     0.063 A 
HETATM   27  H   UNL     1      -3.145  -0.573 -32.695  1.00  0.00     0.167 HD
HETATM   28  C   UNL     1      -5.783  -1.513 -34.144  1.00  0.00     0.086 A 
HETATM   29  C   UNL     1      -3.920  -3.086 -33.922  1.00  0.00     0.032 A 
HETATM   30  C   UNL     1      -6.556  -2.484 -34.795  1.00  0.00     0.040 A 
HETATM   31  N   UNL     1      -6.098  -0.221 -33.803  1.00  0.00    -0.228 NA
HETATM   32  C   UNL     1      -6.009  -3.762 -35.009  1.00  0.00    -0.060 A 
HETATM   33  C   UNL     1      -6.828  -4.836 -35.666  1.00  0.00     0.048 C 
HETATM   34  C   UNL     1      -4.708  -4.048 -34.567  1.00  0.00     0.009 A 
ENDBRANCH   1  24
TORSDOF 4
ENDMDL
MODEL 9
REMARK VINA RESULT:      -7.9     14.054     18.298
REMARK  4 active torsions:
REMARK  status: ('A' for Active; 'I' for Inactive)
REMARK    1  A    between atoms: C_8  and  C_9 
REMARK    2  A    between atoms: C_12  and  N_13 
REMARK       I    between atoms: N_13  and  C_14 
REMARK    3  A    between atoms: C_14  and  C_15 
REMARK    4  A    between atoms: C_18  and  N_19 
ROOT
HETATM    1  C   UNL     1      -7.365   1.279 -33.814  1.00  0.00     0.010 A 
HETATM    2  C   UNL     1      -8.689   1.028 -34.191  1.00  0.00     0.017 A 
HETATM    3  C   UNL     1      -9.580   2.082 -34.441  1.00  0.00     0.030 A 
HETATM    4  C   UNL     1      -9.164   3.409 -34.324  1.00  0.00     0.035 A 
HETATM    5  C   UNL     1      -7.859   3.666 -33.896  1.00  0.00     0.030 A 
HETATM    6  C   UNL     1      -6.972   2.613 -33.643  1.00  0.00     0.017 A 
ENDROOT
BRANCH   4   7
HETATM    7  N   UNL     1      -9.962   4.523 -34.664  1.00  0.00    -0.323 N 
HETATM    8  C   UNL     1     -11.252   4.787 -34.238  1.00  0.00     0.256 C 
HETATM    9  O   UNL     1     -11.887   4.164 -33.396  1.00  0.00    -0.267 OA
HETATM   10  H   UNL     1      -9.583   5.111 -35.393  1.00  0.00     0.169 HD
BRANCH   8  11
HETATM   11  C   UNL     1     -11.936   5.906 -34.949  1.00  0.00     0.032 A 
HETATM   12  C   UNL     1     -11.408   7.194 -35.027  1.00  0.00     0.019 A 
HETATM   13  C   UNL     1     -12.069   8.183 -35.776  1.00  0.00     0.031 A 
HETATM   14  C   UNL     1     -13.272   7.924 -36.458  1.00  0.00     0.045 A 
HETATM   15  C   UNL     1     -13.804   6.630 -36.327  1.00  0.00     0.031 A 
HETATM   16  C   UNL     1     -13.150   5.638 -35.583  1.00  0.00     0.019 A 
BRANCH  14  17
HETATM   17  N   UNL     1     -13.916   8.924 -37.258  1.00  0.00    -0.252 N 
HETATM   18  C   UNL     1     -13.665   9.136 -38.598  1.00  0.00     0.231 C 
HETATM   19  O   UNL     1     -12.942   8.514 -39.363  1.00  0.00    -0.273 OA
HETATM   20  C   UNL     1     -14.444  10.330 -39.061  1.00  0.00     0.113 C 
HETATM   21  C   UNL     1     -15.443  10.561 -37.961  1.00  0.00     0.113 C 
HETATM   22  C   UNL     1     -14.893   9.786 -36.803  1.00  0.00     0.231 C 
HETATM   23  O   UNL     1     -15.320   9.953 -35.668  1.00  0.00    -0.273 OA
ENDBRANCH  14  17
ENDBRANCH   8  11
ENDBRANCH   4   7
BRANCH   1  24
HETATM   24  C   UNL     1      -6.369   0.215 -33.639  1.00  0.00     0.139 A 
HETATM   25  N   UNL     1      -5.444   0.172 -32.619  1.00  0.00    -0.338 N 
HETATM   26  C   UNL     1      -4.758  -1.013 -32.688  1.00  0.00     0.063 A 
HETATM   27  H   UNL     1      -5.327   0.870 -31.901  1.00  0.00     0.167 HD
HETATM   28  C   UNL     1      -5.286  -1.644 -33.804  1.00  0.00     0.086 A 
HETATM   29  C   UNL     1      -3.763  -1.575 -31.888  1.00  0.00     0.032 A 
HETATM   30  C   UNL     1      -4.807  -2.910 -34.169  1.00  0.00     0.040 A 
HETATM   31  N   UNL     1      -6.263  -0.873 -34.383  1.00  0.00    -0.228 NA
HETATM   32  C   UNL     1      -3.803  -3.512 -33.388  1.00  0.00    -0.060 A 
HETATM   33  C   UNL     1      -3.300  -4.885 -33.729  1.00  0.00     0.048 C 
HETATM   34  C   UNL     1      -3.301  -2.844 -32.261  1.00  0.00     0.009 A 
ENDBRANCH   1  24
TORSDOF 4
ENDMDL
MODEL 10
REMARK VINA RESULT:      -7.9      4.701      8.611
REMARK  4 active torsions:
REMARK  status: ('A' for Active; 'I' for Inactive)
REMARK    1  A    between atoms: C_8  and  C_9 
REMARK    2  A    between atoms: C_12  and  N_13 
REMARK       I    between atoms: N_13  and  C_14 
REMARK    3  A    between atoms: C_14  and  C_15 
REMARK    4  A    between atoms: C_18  and  N_19 
ROOT
HETATM    1  C   UNL     1      -6.958   3.544 -31.718  1.00  0.00     0.010 A 
HETATM    2  C   UNL     1      -6.186   3.030 -30.669  1.00  0.00     0.017 A 
HETATM    3  C   UNL     1      -5.150   3.785 -30.099  1.00  0.00     0.030 A 
HETATM    4  C   UNL     1      -4.869   5.071 -30.562  1.00  0.00     0.035 A 
HETATM    5  C   UNL     1      -5.601   5.568 -31.643  1.00  0.00     0.030 A 
HETATM    6  C   UNL     1      -6.632   4.812 -32.215  1.00  0.00     0.017 A 
ENDROOT
BRANCH   4   7
HETATM    7  N   UNL     1      -3.922   5.936 -29.973  1.00  0.00    -0.323 N 
HETATM    8  C   UNL     1      -2.648   6.219 -30.434  1.00  0.00     0.256 C 
HETATM    9  O   UNL     1      -2.160   5.863 -31.500  1.00  0.00    -0.267 OA
HETATM   10  H   UNL     1      -4.170   6.276 -29.054  1.00  0.00     0.169 HD
BRANCH   8  11
HETATM   11  C   UNL     1      -1.783   6.974 -29.481  1.00  0.00     0.032 A 
HETATM   12  C   UNL     1      -0.427   7.208 -29.705  1.00  0.00     0.019 A 
HETATM   13  C   UNL     1       0.312   7.990 -28.802  1.00  0.00     0.031 A 
HETATM   14  C   UNL     1      -0.270   8.554 -27.652  1.00  0.00     0.045 A 
HETATM   15  C   UNL     1      -1.627   8.267 -27.428  1.00  0.00     0.031 A 
HETATM   16  C   UNL     1      -2.372   7.488 -28.325  1.00  0.00     0.019 A 
BRANCH  14  17
HETATM   17  N   UNL     1       0.478   9.389 -26.760  1.00  0.00    -0.252 N 
HETATM   18  C   UNL     1       1.457   8.936 -25.899  1.00  0.00     0.231 C 
HETATM   19  O   UNL     1       1.920   7.812 -25.768  1.00  0.00    -0.273 OA
HETATM   20  C   UNL     1       1.934  10.078 -25.053  1.00  0.00     0.113 C 
HETATM   21  C   UNL     1       1.405  11.297 -25.756  1.00  0.00     0.113 C 
HETATM   22  C   UNL     1       0.341  10.759 -26.664  1.00  0.00     0.231 C 
HETATM   23  O   UNL     1      -0.468  11.503 -27.201  1.00  0.00    -0.273 OA
ENDBRANCH  14  17
ENDBRANCH   8  11
ENDBRANCH   4   7
BRANCH   1  24
HETATM   24  C   UNL     1      -8.114   2.834 -32.279  1.00  0.00     0.139 A 
HETATM   25  N   UNL     1      -8.325   1.477 -32.172  1.00  0.00    -0.338 N 
HETATM   26  C   UNL     1      -9.552   1.172 -32.700  1.00  0.00     0.063 A 
HETATM   27  H   UNL     1      -7.705   0.819 -31.725  1.00  0.00     0.167 HD
HETATM   28  C   UNL     1     -10.036   2.390 -33.154  1.00  0.00     0.086 A 
HETATM   29  C   UNL     1     -10.264  -0.023 -32.804  1.00  0.00     0.032 A 
HETATM   30  C   UNL     1     -11.301   2.446 -33.755  1.00  0.00     0.040 A 
HETATM   31  N   UNL     1      -9.138   3.396 -32.901  1.00  0.00    -0.228 NA
HETATM   32  C   UNL     1     -12.052   1.263 -33.879  1.00  0.00    -0.060 A 
HETATM   33  C   UNL     1     -13.427   1.298 -34.480  1.00  0.00     0.048 C 
HETATM   34  C   UNL     1     -11.530   0.051 -33.399  1.00  0.00     0.009 A 
ENDBRANCH   1  24
TORSDOF 4
ENDMDL
