MODEL 1
REMARK VINA RESULT:      -9.5      0.000      0.000
REMARK  7 active torsions:
REMARK  status: ('A' for Active; 'I' for Inactive)
REMARK    1  A    between atoms: C_3  and  N_4 
REMARK       I    between atoms: N_4  and  C_5 
REMARK    2  A    between atoms: C_5  and  C_6 
REMARK       I    between atoms: C_6  and  N_7 
REMARK    3  A    between atoms: N_7  and  C_8 
REMARK    4  A    between atoms: C_8  and  C_9 
REMARK    5  A    between atoms: C_9  and  C_10 
REMARK    6  A    between atoms: C_12  and  O_13 
REMARK    7  A    between atoms: N_20  and  C_21 
ROOT
HETATM    1  N   UNL     1      -3.642   3.728 -32.624  1.00  0.00    -0.302 N 
HETATM    2  C   UNL     1      -3.700   2.452 -32.120  1.00  0.00     0.315 C 
HETATM    3  O   UNL     1      -2.934   1.841 -31.388  1.00  0.00    -0.262 OA
HETATM    4  H   UNL     1      -4.403   3.996 -33.238  1.00  0.00     0.171 HD
ENDROOT
BRANCH   2   5
HETATM    5  C   UNL     1      -4.970   1.729 -32.613  1.00  0.00     0.309 C 
HETATM    6  N   UNL     1      -5.019   0.390 -32.293  1.00  0.00    -0.353 N 
HETATM    7  H   UNL     1      -4.173   0.002 -31.879  1.00  0.00     0.162 HD
HETATM    8  O   UNL     1      -5.815   2.354 -33.240  1.00  0.00    -0.262 OA
BRANCH   6   9
HETATM    9  C   UNL     1      -6.083  -0.464 -32.772  1.00  0.00     0.128 C 
BRANCH   9  10
HETATM   10  C   UNL     1      -5.881  -0.872 -34.231  1.00  0.00     0.058 C 
BRANCH  10  11
HETATM   11  C   UNL     1      -5.701  -2.364 -34.372  1.00  0.00    -0.054 A 
HETATM   12  C   UNL     1      -4.470  -2.968 -34.079  1.00  0.00     0.043 A 
HETATM   13  C   UNL     1      -4.317  -4.343 -34.244  1.00  0.00     0.066 A 
HETATM   14  C   UNL     1      -5.368  -5.129 -34.700  1.00  0.00     0.036 A 
HETATM   15  C   UNL     1      -6.594  -4.536 -34.996  1.00  0.00     0.003 A 
HETATM   16  C   UNL     1      -6.760  -3.159 -34.836  1.00  0.00     0.007 A 
BRANCH  13  17
HETATM   17  O   UNL     1      -3.134  -4.965 -33.971  1.00  0.00    -0.361 OA
HETATM   18  H   UNL     1      -3.233  -5.475 -33.152  1.00  0.00     0.217 HD
ENDBRANCH  13  17
ENDBRANCH  10  11
ENDBRANCH   9  10
ENDBRANCH   6   9
ENDBRANCH   2   5
BRANCH   1  19
HETATM   19  C   UNL     1      -2.660   4.653 -32.370  1.00  0.00     0.158 A 
HETATM   20  C   UNL     1      -1.840   5.239 -33.364  1.00  0.00     0.003 A 
HETATM   21  C   UNL     1      -1.847   5.022 -34.831  1.00  0.00     0.054 C 
HETATM   22  C   UNL     1      -1.033   6.113 -32.666  1.00  0.00     0.129 A 
HETATM   23  N   UNL     1      -1.344   5.998 -31.331  1.00  0.00    -0.241 N 
HETATM   24  N   UNL     1      -2.376   5.131 -31.164  1.00  0.00    -0.149 NA
BRANCH  23  25
HETATM   25  C   UNL     1      -0.804   6.681 -30.198  1.00  0.00     0.079 A 
HETATM   26  C   UNL     1       0.272   6.222 -29.422  1.00  0.00     0.062 A 
HETATM   27 CL   UNL     1       1.021   4.669 -29.555  1.00  0.00    -0.082 Cl
HETATM   28  C   UNL     1       0.755   7.012 -28.364  1.00  0.00     0.026 A 
HETATM   29  C   UNL     1       0.172   8.241 -28.058  1.00  0.00     0.002 A 
HETATM   30  C   UNL     1      -0.914   8.688 -28.797  1.00  0.00     0.002 A 
HETATM   31  C   UNL     1      -1.402   7.914 -29.851  1.00  0.00     0.033 A 
ENDBRANCH  23  25
ENDBRANCH   1  19
TORSDOF 7
ENDMDL
MODEL 2
REMARK VINA RESULT:      -9.3      1.600      2.129
REMARK  7 active torsions:
REMARK  status: ('A' for Active; 'I' for Inactive)
REMARK    1  A    between atoms: C_3  and  N_4 
REMARK       I    between atoms: N_4  and  C_5 
REMARK    2  A    between atoms: C_5  and  C_6 
REMARK       I    between atoms: C_6  and  N_7 
REMARK    3  A    between atoms: N_7  and  C_8 
REMARK    4  A    between atoms: C_8  and  C_9 
REMARK    5  A    between atoms: C_9  and  C_10 
REMARK    6  A    between atoms: C_12  and  O_13 
REMARK    7  A    between atoms: N_20  and  C_21 
ROOT
HETATM    1  N   UNL     1      -2.675   3.447 -32.295  1.00  0.00    -0.302 N 
HETATM    2  C   UNL     1      -4.015   3.189 -32.138  1.00  0.00     0.315 C 
HETATM    3  O   UNL     1      -4.944   3.922 -31.830  1.00  0.00    -0.262 OA
HETATM    4  H   UNL     1      -2.097   2.650 -32.537  1.00  0.00     0.171 HD
ENDROOT
BRANCH   2   5
HETATM    5  C   UNL     1      -4.318   1.700 -32.405  1.00  0.00     0.309 C 
HETATM    6  N   UNL     1      -5.656   1.413 -32.550  1.00  0.00    -0.353 N 
HETATM    7  H   UNL     1      -6.298   2.177 -32.349  1.00  0.00     0.162 HD
HETATM    8  O   UNL     1      -3.395   0.898 -32.459  1.00  0.00    -0.262 OA
BRANCH   6   9
HETATM    9  C   UNL     1      -6.127   0.053 -32.694  1.00  0.00     0.128 C 
BRANCH   9  10
HETATM   10  C   UNL     1      -6.132  -0.404 -34.152  1.00  0.00     0.058 C 
BRANCH  10  11
HETATM   11  C   UNL     1      -5.705  -1.845 -34.285  1.00  0.00    -0.054 A 
HETATM   12  C   UNL     1      -6.572  -2.802 -34.834  1.00  0.00     0.043 A 
HETATM   13  C   UNL     1      -6.168  -4.133 -34.920  1.00  0.00     0.066 A 
HETATM   14  C   UNL     1      -4.917  -4.531 -34.466  1.00  0.00     0.036 A 
HETATM   15  C   UNL     1      -4.052  -3.588 -33.916  1.00  0.00     0.003 A 
HETATM   16  C   UNL     1      -4.444  -2.251 -33.822  1.00  0.00     0.007 A 
BRANCH  13  17
HETATM   17  O   UNL     1      -6.984  -5.090 -35.447  1.00  0.00    -0.361 OA
HETATM   18  H   UNL     1      -7.838  -5.059 -34.987  1.00  0.00     0.217 HD
ENDBRANCH  13  17
ENDBRANCH  10  11
ENDBRANCH   9  10
ENDBRANCH   6   9
ENDBRANCH   2   5
BRANCH   1  19
HETATM   19  C   UNL     1      -2.066   4.669 -32.155  1.00  0.00     0.158 A 
HETATM   20  C   UNL     1      -1.605   5.459 -33.235  1.00  0.00     0.003 A 
HETATM   21  C   UNL     1      -1.672   5.185 -34.691  1.00  0.00     0.054 C 
HETATM   22  C   UNL     1      -1.100   6.593 -32.635  1.00  0.00     0.129 A 
HETATM   23  N   UNL     1      -1.224   6.439 -31.273  1.00  0.00    -0.241 N 
HETATM   24  N   UNL     1      -1.859   5.273 -30.991  1.00  0.00    -0.149 NA
BRANCH  23  25
HETATM   25  C   UNL     1      -0.858   7.321 -30.211  1.00  0.00     0.079 A 
HETATM   26  C   UNL     1      -1.661   8.361 -29.718  1.00  0.00     0.062 A 
HETATM   27 CL   UNL     1      -3.147   8.904 -30.416  1.00  0.00    -0.082 Cl
HETATM   28  C   UNL     1      -1.216   9.127 -28.626  1.00  0.00     0.026 A 
HETATM   29  C   UNL     1       0.021   8.885 -28.031  1.00  0.00     0.002 A 
HETATM   30  C   UNL     1       0.838   7.882 -28.533  1.00  0.00     0.002 A 
HETATM   31  C   UNL     1       0.408   7.113 -29.615  1.00  0.00     0.033 A 
ENDBRANCH  23  25
ENDBRANCH   1  19
TORSDOF 7
ENDMDL
MODEL 3
REMARK VINA RESULT:      -9.3      3.133      9.409
REMARK  7 active torsions:
REMARK  status: ('A' for Active; 'I' for Inactive)
REMARK    1  A    between atoms: C_3  and  N_4 
REMARK       I    between atoms: N_4  and  C_5 
REMARK    2  A    between atoms: C_5  and  C_6 
REMARK       I    between atoms: C_6  and  N_7 
REMARK    3  A    between atoms: N_7  and  C_8 
REMARK    4  A    between atoms: C_8  and  C_9 
REMARK    5  A    between atoms: C_9  and  C_10 
REMARK    6  A    between atoms: C_12  and  O_13 
REMARK    7  A    between atoms: N_20  and  C_21 
ROOT
HETATM    1  N   UNL     1      -3.664   3.143 -32.686  1.00  0.00    -0.302 N 
HETATM    2  C   UNL     1      -4.447   4.024 -33.391  1.00  0.00     0.315 C 
HETATM    3  O   UNL     1      -5.588   3.922 -33.818  1.00  0.00    -0.262 OA
HETATM    4  H   UNL     1      -2.727   3.462 -32.466  1.00  0.00     0.171 HD
ENDROOT
BRANCH   2   5
HETATM    5  C   UNL     1      -3.682   5.337 -33.658  1.00  0.00     0.309 C 
HETATM    6  N   UNL     1      -3.090   5.882 -32.541  1.00  0.00    -0.353 N 
HETATM    7  H   UNL     1      -3.317   5.435 -31.655  1.00  0.00     0.162 HD
HETATM    8  O   UNL     1      -3.657   5.801 -34.790  1.00  0.00    -0.262 OA
BRANCH   6   9
HETATM    9  C   UNL     1      -2.428   7.168 -32.586  1.00  0.00     0.128 C 
BRANCH   9  10
HETATM   10  C   UNL     1      -0.906   7.032 -32.594  1.00  0.00     0.058 C 
BRANCH  10  11
HETATM   11  C   UNL     1      -0.374   6.664 -31.231  1.00  0.00    -0.054 A 
HETATM   12  C   UNL     1       0.128   5.378 -30.982  1.00  0.00     0.043 A 
HETATM   13  C   UNL     1       0.587   5.049 -29.707  1.00  0.00     0.066 A 
HETATM   14  C   UNL     1       0.554   5.978 -28.674  1.00  0.00     0.036 A 
HETATM   15  C   UNL     1       0.055   7.256 -28.914  1.00  0.00     0.003 A 
HETATM   16  C   UNL     1      -0.410   7.598 -30.185  1.00  0.00     0.007 A 
BRANCH  13  17
HETATM   17  O   UNL     1       1.080   3.808 -29.428  1.00  0.00    -0.361 OA
HETATM   18  H   UNL     1       1.014   3.261 -30.225  1.00  0.00     0.217 HD
ENDBRANCH  13  17
ENDBRANCH  10  11
ENDBRANCH   9  10
ENDBRANCH   6   9
ENDBRANCH   2   5
BRANCH   1  19
HETATM   19  C   UNL     1      -4.037   1.891 -32.263  1.00  0.00     0.158 A 
HETATM   20  C   UNL     1      -4.810   1.638 -31.105  1.00  0.00     0.003 A 
HETATM   21  C   UNL     1      -5.381   2.600 -30.131  1.00  0.00     0.054 C 
HETATM   22  C   UNL     1      -4.962   0.267 -31.091  1.00  0.00     0.129 A 
HETATM   23  N   UNL     1      -4.270  -0.244 -32.164  1.00  0.00    -0.241 N 
HETATM   24  N   UNL     1      -3.743   0.766 -32.904  1.00  0.00    -0.149 NA
BRANCH  23  25
HETATM   25  C   UNL     1      -4.113  -1.595 -32.599  1.00  0.00     0.079 A 
HETATM   26  C   UNL     1      -4.753  -2.160 -33.713  1.00  0.00     0.062 A 
HETATM   27 CL   UNL     1      -5.994  -1.406 -34.652  1.00  0.00    -0.082 Cl
HETATM   28  C   UNL     1      -4.474  -3.489 -34.077  1.00  0.00     0.026 A 
HETATM   29  C   UNL     1      -3.582  -4.267 -33.341  1.00  0.00     0.002 A 
HETATM   30  C   UNL     1      -2.970  -3.729 -32.218  1.00  0.00     0.002 A 
HETATM   31  C   UNL     1      -3.237  -2.410 -31.846  1.00  0.00     0.033 A 
ENDBRANCH  23  25
ENDBRANCH   1  19
TORSDOF 7
ENDMDL
MODEL 4
REMARK VINA RESULT:      -9.1      2.574      9.500
REMARK  7 active torsions:
REMARK  status: ('A' for Active; 'I' for Inactive)
REMARK    1  A    between atoms: C_3  and  N_4 
REMARK       I    between atoms: N_4  and  C_5 
REMARK    2  A    between atoms: C_5  and  C_6 
REMARK       I    between atoms: C_6  and  N_7 
REMARK    3  A    between atoms: N_7  and  C_8 
REMARK    4  A    between atoms: C_8  and  C_9 
REMARK    5  A    between atoms: C_9  and  C_10 
REMARK    6  A    between atoms: C_12  and  O_13 
REMARK    7  A    between atoms: N_20  and  C_21 
ROOT
HETATM    1  N   UNL     1      -4.821   3.077 -32.207  1.00  0.00    -0.302 N 
HETATM    2  C   UNL     1      -3.581   3.432 -31.736  1.00  0.00     0.315 C 
HETATM    3  O   UNL     1      -2.682   2.761 -31.251  1.00  0.00    -0.262 OA
HETATM    4  H   UNL     1      -5.401   3.836 -32.545  1.00  0.00     0.171 HD
ENDROOT
BRANCH   2   5
HETATM    5  C   UNL     1      -3.365   4.954 -31.868  1.00  0.00     0.309 C 
HETATM    6  N   UNL     1      -2.591   5.324 -32.944  1.00  0.00    -0.353 N 
HETATM    7  H   UNL     1      -2.151   4.562 -33.457  1.00  0.00     0.162 HD
HETATM    8  O   UNL     1      -3.864   5.708 -31.042  1.00  0.00    -0.262 OA
BRANCH   6   9
HETATM    9  C   UNL     1      -2.196   6.700 -33.155  1.00  0.00     0.128 C 
BRANCH   9  10
HETATM   10  C   UNL     1      -0.706   6.918 -32.895  1.00  0.00     0.058 C 
BRANCH  10  11
HETATM   11  C   UNL     1      -0.340   6.607 -31.465  1.00  0.00    -0.054 A 
HETATM   12  C   UNL     1       0.240   5.376 -31.124  1.00  0.00     0.043 A 
HETATM   13  C   UNL     1       0.543   5.098 -29.793  1.00  0.00     0.066 A 
HETATM   14  C   UNL     1       0.276   6.024 -28.791  1.00  0.00     0.036 A 
HETATM   15  C   UNL     1      -0.302   7.248 -29.121  1.00  0.00     0.003 A 
HETATM   16  C   UNL     1      -0.612   7.538 -30.450  1.00  0.00     0.007 A 
BRANCH  13  17
HETATM   17  O   UNL     1       1.106   3.912 -29.424  1.00  0.00    -0.361 OA
HETATM   18  H   UNL     1       2.065   4.033 -29.349  1.00  0.00     0.217 HD
ENDBRANCH  13  17
ENDBRANCH  10  11
ENDBRANCH   9  10
ENDBRANCH   6   9
ENDBRANCH   2   5
BRANCH   1  19
HETATM   19  C   UNL     1      -5.330   1.802 -32.259  1.00  0.00     0.158 A 
HETATM   20  C   UNL     1      -6.508   1.386 -31.595  1.00  0.00     0.003 A 
HETATM   21  C   UNL     1      -7.432   2.175 -30.745  1.00  0.00     0.054 C 
HETATM   22  C   UNL     1      -6.646   0.060 -31.948  1.00  0.00     0.129 A 
HETATM   23  N   UNL     1      -5.573  -0.279 -32.738  1.00  0.00    -0.241 N 
HETATM   24  N   UNL     1      -4.793   0.810 -32.960  1.00  0.00    -0.149 NA
BRANCH  23  25
HETATM   25  C   UNL     1      -5.246  -1.522 -33.362  1.00  0.00     0.079 A 
HETATM   26  C   UNL     1      -4.160  -2.337 -33.007  1.00  0.00     0.062 A 
HETATM   27 CL   UNL     1      -2.902  -1.914 -31.897  1.00  0.00    -0.082 Cl
HETATM   28  C   UNL     1      -3.973  -3.570 -33.655  1.00  0.00     0.026 A 
HETATM   29  C   UNL     1      -4.839  -3.995 -34.661  1.00  0.00     0.002 A 
HETATM   30  C   UNL     1      -5.897  -3.181 -35.043  1.00  0.00     0.002 A 
HETATM   31  C   UNL     1      -6.094  -1.955 -34.406  1.00  0.00     0.033 A 
ENDBRANCH  23  25
ENDBRANCH   1  19
TORSDOF 7
ENDMDL
MODEL 5
REMARK VINA RESULT:      -9.0      3.462      9.894
REMARK  7 active torsions:
REMARK  status: ('A' for Active; 'I' for Inactive)
REMARK    1  A    between atoms: C_3  and  N_4 
REMARK       I    between atoms: N_4  and  C_5 
REMARK    2  A    between atoms: C_5  and  C_6 
REMARK       I    between atoms: C_6  and  N_7 
REMARK    3  A    between atoms: N_7  and  C_8 
REMARK    4  A    between atoms: C_8  and  C_9 
REMARK    5  A    between atoms: C_9  and  C_10 
REMARK    6  A    between atoms: C_12  and  O_13 
REMARK    7  A    between atoms: N_20  and  C_21 
ROOT
HETATM    1  N   UNL     1      -3.971   5.430 -32.829  1.00  0.00    -0.302 N 
HETATM    2  C   UNL     1      -3.238   5.980 -33.852  1.00  0.00     0.315 C 
HETATM    3  O   UNL     1      -3.305   5.825 -35.063  1.00  0.00    -0.262 OA
HETATM    4  H   UNL     1      -3.700   5.706 -31.893  1.00  0.00     0.171 HD
ENDROOT
BRANCH   2   5
HETATM    5  C   UNL     1      -2.161   6.935 -33.297  1.00  0.00     0.309 C 
HETATM    6  N   UNL     1      -1.855   6.731 -31.970  1.00  0.00    -0.353 N 
HETATM    7  H   UNL     1      -2.447   6.066 -31.476  1.00  0.00     0.162 HD
HETATM    8  O   UNL     1      -1.672   7.784 -34.030  1.00  0.00    -0.262 OA
BRANCH   6   9
HETATM    9  C   UNL     1      -0.950   7.607 -31.259  1.00  0.00     0.128 C 
BRANCH   9  10
HETATM   10  C   UNL     1       0.269   6.861 -30.720  1.00  0.00     0.058 C 
BRANCH  10  11
HETATM   11  C   UNL     1       0.392   7.003 -29.223  1.00  0.00    -0.054 A 
HETATM   12  C   UNL     1      -0.251   6.101 -28.363  1.00  0.00     0.043 A 
HETATM   13  C   UNL     1      -0.148   6.268 -26.983  1.00  0.00     0.066 A 
HETATM   14  C   UNL     1       0.582   7.320 -26.442  1.00  0.00     0.036 A 
HETATM   15  C   UNL     1       1.221   8.222 -27.291  1.00  0.00     0.003 A 
HETATM   16  C   UNL     1       1.125   8.067 -28.675  1.00  0.00     0.007 A 
BRANCH  13  17
HETATM   17  O   UNL     1      -0.761   5.412 -26.116  1.00  0.00    -0.361 OA
HETATM   18  H   UNL     1      -1.427   5.904 -25.612  1.00  0.00     0.217 HD
ENDBRANCH  13  17
ENDBRANCH  10  11
ENDBRANCH   9  10
ENDBRANCH   6   9
ENDBRANCH   2   5
BRANCH   1  19
HETATM   19  C   UNL     1      -5.021   4.556 -32.968  1.00  0.00     0.158 A 
HETATM   20  C   UNL     1      -6.383   4.920 -32.846  1.00  0.00     0.003 A 
HETATM   21  C   UNL     1      -6.976   6.250 -32.569  1.00  0.00     0.054 C 
HETATM   22  C   UNL     1      -7.070   3.748 -33.087  1.00  0.00     0.129 A 
HETATM   23  N   UNL     1      -6.144   2.752 -33.291  1.00  0.00    -0.241 N 
HETATM   24  N   UNL     1      -4.888   3.267 -33.260  1.00  0.00    -0.149 NA
BRANCH  23  25
HETATM   25  C   UNL     1      -6.332   1.365 -33.580  1.00  0.00     0.079 A 
HETATM   26  C   UNL     1      -5.989   0.312 -32.718  1.00  0.00     0.062 A 
HETATM   27 CL   UNL     1      -5.101   0.465 -31.242  1.00  0.00    -0.082 Cl
HETATM   28  C   UNL     1      -6.277  -1.014 -33.089  1.00  0.00     0.026 A 
HETATM   29  C   UNL     1      -6.885  -1.305 -34.309  1.00  0.00     0.002 A 
HETATM   30  C   UNL     1      -7.197  -0.274 -35.183  1.00  0.00     0.002 A 
HETATM   31  C   UNL     1      -6.918   1.047 -34.827  1.00  0.00     0.033 A 
ENDBRANCH  23  25
ENDBRANCH   1  19
TORSDOF 7
ENDMDL
MODEL 6
REMARK VINA RESULT:      -8.6      1.929      2.290
REMARK  7 active torsions:
REMARK  status: ('A' for Active; 'I' for Inactive)
REMARK    1  A    between atoms: C_3  and  N_4 
REMARK       I    between atoms: N_4  and  C_5 
REMARK    2  A    between atoms: C_5  and  C_6 
REMARK       I    between atoms: C_6  and  N_7 
REMARK    3  A    between atoms: N_7  and  C_8 
REMARK    4  A    between atoms: C_8  and  C_9 
REMARK    5  A    between atoms: C_9  and  C_10 
REMARK    6  A    between atoms: C_12  and  O_13 
REMARK    7  A    between atoms: N_20  and  C_21 
ROOT
HETATM    1  N   UNL     1      -5.017   3.734 -33.019  1.00  0.00    -0.302 N 
HETATM    2  C   UNL     1      -6.205   4.054 -33.630  1.00  0.00     0.315 C 
HETATM    3  O   UNL     1      -6.641   5.125 -34.027  1.00  0.00    -0.262 OA
HETATM    4  H   UNL     1      -4.901   2.760 -32.761  1.00  0.00     0.171 HD
ENDROOT
BRANCH   2   5
HETATM    5  C   UNL     1      -7.085   2.799 -33.799  1.00  0.00     0.309 C 
HETATM    6  N   UNL     1      -6.516   1.810 -34.570  1.00  0.00    -0.353 N 
HETATM    7  H   UNL     1      -5.645   2.057 -35.036  1.00  0.00     0.162 HD
HETATM    8  O   UNL     1      -8.189   2.761 -33.273  1.00  0.00    -0.262 OA
BRANCH   6   9
HETATM    9  C   UNL     1      -7.245   0.612 -34.924  1.00  0.00     0.128 C 
BRANCH   9  10
HETATM   10  C   UNL     1      -7.280  -0.401 -33.781  1.00  0.00     0.058 C 
BRANCH  10  11
HETATM   11  C   UNL     1      -6.436  -1.614 -34.087  1.00  0.00    -0.054 A 
HETATM   12  C   UNL     1      -7.023  -2.787 -34.584  1.00  0.00     0.043 A 
HETATM   13  C   UNL     1      -6.229  -3.906 -34.832  1.00  0.00     0.066 A 
HETATM   14  C   UNL     1      -4.861  -3.880 -34.591  1.00  0.00     0.036 A 
HETATM   15  C   UNL     1      -4.272  -2.719 -34.095  1.00  0.00     0.003 A 
HETATM   16  C   UNL     1      -5.055  -1.592 -33.841  1.00  0.00     0.007 A 
BRANCH  13  17
HETATM   17  O   UNL     1      -6.765  -5.064 -35.314  1.00  0.00    -0.361 OA
HETATM   18  H   UNL     1      -6.546  -5.140 -36.256  1.00  0.00     0.217 HD
ENDBRANCH  13  17
ENDBRANCH  10  11
ENDBRANCH   9  10
ENDBRANCH   6   9
ENDBRANCH   2   5
BRANCH   1  19
HETATM   19  C   UNL     1      -3.995   4.605 -32.734  1.00  0.00     0.158 A 
HETATM   20  C   UNL     1      -3.238   5.294 -33.712  1.00  0.00     0.003 A 
HETATM   21  C   UNL     1      -3.362   5.257 -35.189  1.00  0.00     0.054 C 
HETATM   22  C   UNL     1      -2.358   6.063 -32.980  1.00  0.00     0.129 A 
HETATM   23  N   UNL     1      -2.570   5.793 -31.648  1.00  0.00    -0.241 N 
HETATM   24  N   UNL     1      -3.608   4.929 -31.506  1.00  0.00    -0.149 NA
BRANCH  23  25
HETATM   25  C   UNL     1      -1.928   6.325 -30.488  1.00  0.00     0.079 A 
HETATM   26  C   UNL     1      -0.559   6.204 -30.202  1.00  0.00     0.062 A 
HETATM   27 CL   UNL     1       0.573   5.234 -31.079  1.00  0.00    -0.082 Cl
HETATM   28  C   UNL     1      -0.030   6.822 -29.055  1.00  0.00     0.026 A 
HETATM   29  C   UNL     1      -0.845   7.541 -28.182  1.00  0.00     0.002 A 
HETATM   30  C   UNL     1      -2.206   7.637 -28.438  1.00  0.00     0.002 A 
HETATM   31  C   UNL     1      -2.744   7.030 -29.574  1.00  0.00     0.033 A 
ENDBRANCH  23  25
ENDBRANCH   1  19
TORSDOF 7
ENDMDL
MODEL 7
REMARK VINA RESULT:      -8.6      3.210     10.074
REMARK  7 active torsions:
REMARK  status: ('A' for Active; 'I' for Inactive)
REMARK    1  A    between atoms: C_3  and  N_4 
REMARK       I    between atoms: N_4  and  C_5 
REMARK    2  A    between atoms: C_5  and  C_6 
REMARK       I    between atoms: C_6  and  N_7 
REMARK    3  A    between atoms: N_7  and  C_8 
REMARK    4  A    between atoms: C_8  and  C_9 
REMARK    5  A    between atoms: C_9  and  C_10 
REMARK    6  A    between atoms: C_12  and  O_13 
REMARK    7  A    between atoms: N_20  and  C_21 
ROOT
HETATM    1  N   UNL     1      -3.096   3.990 -32.081  1.00  0.00    -0.302 N 
HETATM    2  C   UNL     1      -3.057   4.954 -33.058  1.00  0.00     0.315 C 
HETATM    3  O   UNL     1      -3.722   5.097 -34.074  1.00  0.00    -0.262 OA
HETATM    4  H   UNL     1      -2.412   4.083 -31.339  1.00  0.00     0.171 HD
ENDROOT
BRANCH   2   5
HETATM    5  C   UNL     1      -1.955   5.991 -32.755  1.00  0.00     0.309 C 
HETATM    6  N   UNL     1      -1.967   6.466 -31.463  1.00  0.00    -0.353 N 
HETATM    7  H   UNL     1      -2.761   6.180 -30.893  1.00  0.00     0.162 HD
HETATM    8  O   UNL     1      -1.178   6.322 -33.640  1.00  0.00    -0.262 OA
BRANCH   6   9
HETATM    9  C   UNL     1      -1.077   7.524 -31.037  1.00  0.00     0.128 C 
BRANCH   9  10
HETATM   10  C   UNL     1       0.279   6.987 -30.581  1.00  0.00     0.058 C 
BRANCH  10  11
HETATM   11  C   UNL     1       0.433   7.068 -29.082  1.00  0.00    -0.054 A 
HETATM   12  C   UNL     1      -0.173   6.118 -28.247  1.00  0.00     0.043 A 
HETATM   13  C   UNL     1      -0.043   6.228 -26.864  1.00  0.00     0.066 A 
HETATM   14  C   UNL     1       0.679   7.270 -26.295  1.00  0.00     0.036 A 
HETATM   15  C   UNL     1       1.282   8.219 -27.118  1.00  0.00     0.003 A 
HETATM   16  C   UNL     1       1.158   8.121 -28.504  1.00  0.00     0.007 A 
BRANCH  13  17
HETATM   17  O   UNL     1      -0.619   5.323 -26.021  1.00  0.00    -0.361 OA
HETATM   18  H   UNL     1      -0.593   5.678 -25.119  1.00  0.00     0.217 HD
ENDBRANCH  13  17
ENDBRANCH  10  11
ENDBRANCH   9  10
ENDBRANCH   6   9
ENDBRANCH   2   5
BRANCH   1  19
HETATM   19  C   UNL     1      -3.968   2.931 -32.026  1.00  0.00     0.158 A 
HETATM   20  C   UNL     1      -5.015   2.807 -31.082  1.00  0.00     0.003 A 
HETATM   21  C   UNL     1      -5.410   3.736 -29.996  1.00  0.00     0.054 C 
HETATM   22  C   UNL     1      -5.637   1.623 -31.418  1.00  0.00     0.129 A 
HETATM   23  N   UNL     1      -4.951   1.072 -32.475  1.00  0.00    -0.241 N 
HETATM   24  N   UNL     1      -3.954   1.905 -32.870  1.00  0.00    -0.149 NA
BRANCH  23  25
HETATM   25  C   UNL     1      -5.187  -0.139 -33.195  1.00  0.00     0.079 A 
HETATM   26  C   UNL     1      -6.238  -0.342 -34.102  1.00  0.00     0.062 A 
HETATM   27 CL   UNL     1      -7.555   0.746 -34.380  1.00  0.00    -0.082 Cl
HETATM   28  C   UNL     1      -6.335  -1.561 -34.796  1.00  0.00     0.026 A 
HETATM   29  C   UNL     1      -5.412  -2.584 -34.587  1.00  0.00     0.002 A 
HETATM   30  C   UNL     1      -4.389  -2.407 -33.666  1.00  0.00     0.002 A 
HETATM   31  C   UNL     1      -4.281  -1.201 -32.972  1.00  0.00     0.033 A 
ENDBRANCH  23  25
ENDBRANCH   1  19
TORSDOF 7
ENDMDL
MODEL 8
REMARK VINA RESULT:      -8.5      6.228      9.164
REMARK  7 active torsions:
REMARK  status: ('A' for Active; 'I' for Inactive)
REMARK    1  A    between atoms: C_3  and  N_4 
REMARK       I    between atoms: N_4  and  C_5 
REMARK    2  A    between atoms: C_5  and  C_6 
REMARK       I    between atoms: C_6  and  N_7 
REMARK    3  A    between atoms: N_7  and  C_8 
REMARK    4  A    between atoms: C_8  and  C_9 
REMARK    5  A    between atoms: C_9  and  C_10 
REMARK    6  A    between atoms: C_12  and  O_13 
REMARK    7  A    between atoms: N_20  and  C_21 
ROOT
HETATM    1  N   UNL     1      -8.750   2.526 -33.109  1.00  0.00    -0.302 N 
HETATM    2  C   UNL     1      -8.077   2.418 -31.916  1.00  0.00     0.315 C 
HETATM    3  O   UNL     1      -8.383   2.769 -30.786  1.00  0.00    -0.262 OA
HETATM    4  H   UNL     1      -8.264   2.172 -33.925  1.00  0.00     0.171 HD
ENDROOT
BRANCH   2   5
HETATM    5  C   UNL     1      -6.710   1.734 -32.124  1.00  0.00     0.309 C 
HETATM    6  N   UNL     1      -6.776   0.364 -32.242  1.00  0.00    -0.353 N 
HETATM    7  H   UNL     1      -7.687  -0.054 -32.062  1.00  0.00     0.162 HD
HETATM    8  O   UNL     1      -5.694   2.416 -32.160  1.00  0.00    -0.262 OA
BRANCH   6   9
HETATM    9  C   UNL     1      -5.581  -0.447 -32.330  1.00  0.00     0.128 C 
BRANCH   9  10
HETATM   10  C   UNL     1      -5.191  -0.744 -33.777  1.00  0.00     0.058 C 
BRANCH  10  11
HETATM   11  C   UNL     1      -5.337  -2.209 -34.103  1.00  0.00    -0.054 A 
HETATM   12  C   UNL     1      -4.260  -3.092 -33.936  1.00  0.00     0.043 A 
HETATM   13  C   UNL     1      -4.408  -4.436 -34.272  1.00  0.00     0.066 A 
HETATM   14  C   UNL     1      -5.610  -4.919 -34.775  1.00  0.00     0.036 A 
HETATM   15  C   UNL     1      -6.684  -4.048 -34.946  1.00  0.00     0.003 A 
HETATM   16  C   UNL     1      -6.549  -2.699 -34.615  1.00  0.00     0.007 A 
BRANCH  13  17
HETATM   17  O   UNL     1      -3.382  -5.323 -34.124  1.00  0.00    -0.361 OA
HETATM   18  H   UNL     1      -3.412  -5.686 -33.226  1.00  0.00     0.217 HD
ENDBRANCH  13  17
ENDBRANCH  10  11
ENDBRANCH   9  10
ENDBRANCH   6   9
ENDBRANCH   2   5
BRANCH   1  19
HETATM   19  C   UNL     1     -10.001   3.064 -33.284  1.00  0.00     0.158 A 
HETATM   20  C   UNL     1     -10.253   4.321 -33.882  1.00  0.00     0.003 A 
HETATM   21  C   UNL     1      -9.291   5.301 -34.442  1.00  0.00     0.054 C 
HETATM   22  C   UNL     1     -11.628   4.433 -33.871  1.00  0.00     0.129 A 
HETATM   23  N   UNL     1     -12.136   3.314 -33.255  1.00  0.00    -0.241 N 
HETATM   24  N   UNL     1     -11.131   2.458 -32.938  1.00  0.00    -0.149 NA
BRANCH  23  25
HETATM   25  C   UNL     1     -13.491   2.942 -32.995  1.00  0.00     0.079 A 
HETATM   26  C   UNL     1     -14.107   1.773 -33.467  1.00  0.00     0.062 A 
HETATM   27 CL   UNL     1     -13.425   0.662 -34.604  1.00  0.00    -0.082 Cl
HETATM   28  C   UNL     1     -15.432   1.485 -33.095  1.00  0.00     0.026 A 
HETATM   29  C   UNL     1     -16.156   2.350 -32.277  1.00  0.00     0.002 A 
HETATM   30  C   UNL     1     -15.567   3.526 -31.833  1.00  0.00     0.002 A 
HETATM   31  C   UNL     1     -14.252   3.823 -32.193  1.00  0.00     0.033 A 
ENDBRANCH  23  25
ENDBRANCH   1  19
TORSDOF 7
ENDMDL
MODEL 9
REMARK VINA RESULT:      -8.3      1.916      2.449
REMARK  7 active torsions:
REMARK  status: ('A' for Active; 'I' for Inactive)
REMARK    1  A    between atoms: C_3  and  N_4 
REMARK       I    between atoms: N_4  and  C_5 
REMARK    2  A    between atoms: C_5  and  C_6 
REMARK       I    between atoms: C_6  and  N_7 
REMARK    3  A    between atoms: N_7  and  C_8 
REMARK    4  A    between atoms: C_8  and  C_9 
REMARK    5  A    between atoms: C_9  and  C_10 
REMARK    6  A    between atoms: C_12  and  O_13 
REMARK    7  A    between atoms: N_20  and  C_21 
ROOT
HETATM    1  N   UNL     1      -4.334   4.073 -32.808  1.00  0.00    -0.302 N 
HETATM    2  C   UNL     1      -5.364   4.532 -33.593  1.00  0.00     0.315 C 
HETATM    3  O   UNL     1      -5.503   5.580 -34.206  1.00  0.00    -0.262 OA
HETATM    4  H   UNL     1      -4.472   3.163 -32.385  1.00  0.00     0.171 HD
ENDROOT
BRANCH   2   5
HETATM    5  C   UNL     1      -6.504   3.494 -33.654  1.00  0.00     0.309 C 
HETATM    6  N   UNL     1      -6.190   2.350 -34.354  1.00  0.00    -0.353 N 
HETATM    7  H   UNL     1      -5.300   2.364 -34.849  1.00  0.00     0.162 HD
HETATM    8  O   UNL     1      -7.573   3.740 -33.112  1.00  0.00    -0.262 OA
BRANCH   6   9
HETATM    9  C   UNL     1      -7.176   1.322 -34.606  1.00  0.00     0.128 C 
BRANCH   9  10
HETATM   10  C   UNL     1      -7.261   0.313 -33.461  1.00  0.00     0.058 C 
BRANCH  10  11
HETATM   11  C   UNL     1      -6.272  -0.812 -33.637  1.00  0.00    -0.054 A 
HETATM   12  C   UNL     1      -5.164  -0.932 -32.786  1.00  0.00     0.043 A 
HETATM   13  C   UNL     1      -4.246  -1.962 -32.985  1.00  0.00     0.066 A 
HETATM   14  C   UNL     1      -4.411  -2.876 -34.019  1.00  0.00     0.036 A 
HETATM   15  C   UNL     1      -5.508  -2.762 -34.871  1.00  0.00     0.003 A 
HETATM   16  C   UNL     1      -6.433  -1.734 -34.683  1.00  0.00     0.007 A 
BRANCH  13  17
HETATM   17  O   UNL     1      -3.156  -2.109 -32.179  1.00  0.00    -0.361 OA
HETATM   18  H   UNL     1      -3.317  -2.846 -31.570  1.00  0.00     0.217 HD
ENDBRANCH  13  17
ENDBRANCH  10  11
ENDBRANCH   9  10
ENDBRANCH   6   9
ENDBRANCH   2   5
BRANCH   1  19
HETATM   19  C   UNL     1      -3.157   4.733 -32.556  1.00  0.00     0.158 A 
HETATM   20  C   UNL     1      -2.202   5.068 -33.546  1.00  0.00     0.003 A 
HETATM   21  C   UNL     1      -2.241   4.818 -35.007  1.00  0.00     0.054 C 
HETATM   22  C   UNL     1      -1.214   5.735 -32.852  1.00  0.00     0.129 A 
HETATM   23  N   UNL     1      -1.564   5.740 -31.522  1.00  0.00    -0.241 N 
HETATM   24  N   UNL     1      -2.781   5.161 -31.356  1.00  0.00    -0.149 NA
BRANCH  23  25
HETATM   25  C   UNL     1      -0.888   6.300 -30.395  1.00  0.00     0.079 A 
HETATM   26  C   UNL     1      -1.101   7.593 -29.892  1.00  0.00     0.062 A 
HETATM   27 CL   UNL     1      -2.062   8.821 -30.642  1.00  0.00    -0.082 Cl
HETATM   28  C   UNL     1      -0.416   8.014 -28.738  1.00  0.00     0.026 A 
HETATM   29  C   UNL     1       0.487   7.174 -28.089  1.00  0.00     0.002 A 
HETATM   30  C   UNL     1       0.730   5.906 -28.598  1.00  0.00     0.002 A 
HETATM   31  C   UNL     1       0.056   5.475 -29.742  1.00  0.00     0.033 A 
ENDBRANCH  23  25
ENDBRANCH   1  19
TORSDOF 7
ENDMDL
MODEL 10
REMARK VINA RESULT:      -8.2      2.860     10.220
REMARK  7 active torsions:
REMARK  status: ('A' for Active; 'I' for Inactive)
REMARK    1  A    between atoms: C_3  and  N_4 
REMARK       I    between atoms: N_4  and  C_5 
REMARK    2  A    between atoms: C_5  and  C_6 
REMARK       I    between atoms: C_6  and  N_7 
REMARK    3  A    between atoms: N_7  and  C_8 
REMARK    4  A    between atoms: C_8  and  C_9 
REMARK    5  A    between atoms: C_9  and  C_10 
REMARK    6  A    between atoms: C_12  and  O_13 
REMARK    7  A    between atoms: N_20  and  C_21 
ROOT
HETATM    1  N   UNL     1      -3.013   3.017 -31.252  1.00  0.00    -0.302 N 
HETATM    2  C   UNL     1      -2.844   4.156 -32.000  1.00  0.00     0.315 C 
HETATM    3  O   UNL     1      -3.401   4.540 -33.018  1.00  0.00    -0.262 OA
HETATM    4  H   UNL     1      -2.402   2.919 -30.450  1.00  0.00     0.171 HD
ENDROOT
BRANCH   2   5
HETATM    5  C   UNL     1      -1.740   5.046 -31.392  1.00  0.00     0.309 C 
HETATM    6  N   UNL     1      -1.961   6.398 -31.537  1.00  0.00    -0.353 N 
HETATM    7  H   UNL     1      -2.751   6.657 -32.125  1.00  0.00     0.162 HD
HETATM    8  O   UNL     1      -0.774   4.524 -30.851  1.00  0.00    -0.262 OA
BRANCH   6   9
HETATM    9  C   UNL     1      -0.975   7.374 -31.126  1.00  0.00     0.128 C 
BRANCH   9  10
HETATM   10  C   UNL     1      -1.555   8.406 -30.160  1.00  0.00     0.058 C 
BRANCH  10  11
HETATM   11  C   UNL     1      -1.062   8.188 -28.751  1.00  0.00    -0.054 A 
HETATM   12  C   UNL     1      -1.101   6.914 -28.167  1.00  0.00     0.043 A 
HETATM   13  C   UNL     1      -0.668   6.740 -26.853  1.00  0.00     0.066 A 
HETATM   14  C   UNL     1      -0.198   7.815 -26.108  1.00  0.00     0.036 A 
HETATM   15  C   UNL     1      -0.159   9.085 -26.681  1.00  0.00     0.003 A 
HETATM   16  C   UNL     1      -0.591   9.272 -27.995  1.00  0.00     0.007 A 
BRANCH  13  17
HETATM   17  O   UNL     1      -0.694   5.517 -26.252  1.00  0.00    -0.361 OA
HETATM   18  H   UNL     1      -0.870   5.638 -25.306  1.00  0.00     0.217 HD
ENDBRANCH  13  17
ENDBRANCH  10  11
ENDBRANCH   9  10
ENDBRANCH   6   9
ENDBRANCH   2   5
BRANCH   1  19
HETATM   19  C   UNL     1      -3.925   2.019 -31.496  1.00  0.00     0.158 A 
HETATM   20  C   UNL     1      -5.205   1.944 -30.897  1.00  0.00     0.003 A 
HETATM   21  C   UNL     1      -5.842   2.870 -29.930  1.00  0.00     0.054 C 
HETATM   22  C   UNL     1      -5.772   0.814 -31.449  1.00  0.00     0.129 A 
HETATM   23  N   UNL     1      -4.843   0.244 -32.288  1.00  0.00    -0.241 N 
HETATM   24  N   UNL     1      -3.728   1.016 -32.345  1.00  0.00    -0.149 NA
BRANCH  23  25
HETATM   25  C   UNL     1      -4.932  -0.930 -33.097  1.00  0.00     0.079 A 
HETATM   26  C   UNL     1      -4.136  -2.075 -32.942  1.00  0.00     0.062 A 
HETATM   27 CL   UNL     1      -2.772  -2.218 -31.887  1.00  0.00    -0.082 Cl
HETATM   28  C   UNL     1      -4.356  -3.194 -33.764  1.00  0.00     0.026 A 
HETATM   29  C   UNL     1      -5.345  -3.184 -34.746  1.00  0.00     0.002 A 
HETATM   30  C   UNL     1      -6.115  -2.044 -34.931  1.00  0.00     0.002 A 
HETATM   31  C   UNL     1      -5.907  -0.927 -34.121  1.00  0.00     0.033 A 
ENDBRANCH  23  25
ENDBRANCH   1  19
TORSDOF 7
ENDMDL
