MODEL 1
REMARK VINA RESULT:      -8.1      0.000      0.000
REMARK  6 active torsions:
REMARK  status: ('A' for Active; 'I' for Inactive)
REMARK    1  A    between atoms: O_2  and  C_3 
REMARK    2  A    between atoms: C_3  and  C_4 
REMARK    3  A    between atoms: C_4  and  N_5 
REMARK       I    between atoms: N_5  and  C_6 
REMARK    4  A    between atoms: C_6  and  C_7 
REMARK    5  A    between atoms: C_12  and  C_13 
REMARK    6  A    between atoms: C_21  and  C_22 
ROOT
HETATM    1  C   UNL     1      -4.638   4.284 -33.517  1.00  0.00     0.170 A 
HETATM    2  N   UNL     1      -5.915   4.056 -33.914  1.00  0.00    -0.163 NA
HETATM    3  N   UNL     1      -6.371   3.151 -33.035  1.00  0.00    -0.238 N 
HETATM    4  C   UNL     1      -5.419   2.705 -32.158  1.00  0.00     0.145 A 
HETATM    5  N   UNL     1      -5.700   1.715 -31.270  1.00  0.00    -0.365 N 
HETATM    6  C   UNL     1      -6.852   0.837 -31.493  1.00  0.00     0.118 C 
HETATM    7  C   UNL     1      -8.033   1.746 -31.880  1.00  0.00     0.066 C 
HETATM    8  C   UNL     1      -7.711   2.596 -33.128  1.00  0.00     0.221 C 
HETATM    9  C   UNL     1      -4.292   3.449 -32.419  1.00  0.00     0.115 A 
HETATM   10 CL   UNL     1      -2.802   3.341 -31.614  1.00  0.00    -0.077 Cl
HETATM   11  H   UNL     1      -4.948   1.320 -30.704  1.00  0.00     0.162 HD
ENDROOT
BRANCH   1  12
HETATM   12  C   UNL     1      -3.798   5.273 -34.211  1.00  0.00     0.273 C 
HETATM   13  N   UNL     1      -2.975   5.981 -33.361  1.00  0.00    -0.353 N 
HETATM   14  H   UNL     1      -3.141   5.845 -32.367  1.00  0.00     0.162 HD
HETATM   15  O   UNL     1      -3.825   5.465 -35.423  1.00  0.00    -0.266 OA
BRANCH  13  16
HETATM   16  C   UNL     1      -2.157   7.089 -33.806  1.00  0.00     0.149 C 
BRANCH  16  17
HETATM   17  C   UNL     1      -1.338   7.707 -32.672  1.00  0.00     0.186 C 
BRANCH  17  18
HETATM   18  O   UNL     1      -1.903   8.974 -32.318  1.00  0.00    -0.394 OA
HETATM   19  C   UNL     1      -2.449   8.950 -31.005  1.00  0.00     0.201 C 
ENDBRANCH  17  18
ENDBRANCH  16  17
ENDBRANCH  13  16
ENDBRANCH   1  12
BRANCH   8  20
HETATM   20  C   UNL     1      -8.757   3.679 -33.283  1.00  0.00     0.409 C 
HETATM   21  F   UNL     1      -8.531   4.735 -32.468  1.00  0.00    -0.169 F 
HETATM   22  F   UNL     1      -8.877   4.136 -34.546  1.00  0.00    -0.169 F 
HETATM   23  F   UNL     1      -9.978   3.184 -32.942  1.00  0.00    -0.169 F 
ENDBRANCH   8  20
BRANCH   6  24
HETATM   24  C   UNL     1      -6.548  -0.293 -32.478  1.00  0.00    -0.035 A 
HETATM   25  C   UNL     1      -7.522  -0.781 -33.371  1.00  0.00     0.011 A 
HETATM   26  C   UNL     1      -7.227  -1.794 -34.290  1.00  0.00     0.024 A 
HETATM   27  C   UNL     1      -5.946  -2.329 -34.341  1.00  0.00     0.034 A 
HETATM   28 CL   UNL     1      -5.578  -3.575 -35.468  1.00  0.00    -0.084 Cl
HETATM   29  C   UNL     1      -4.956  -1.851 -33.490  1.00  0.00     0.024 A 
HETATM   30  C   UNL     1      -5.251  -0.833 -32.575  1.00  0.00     0.011 A 
ENDBRANCH   6  24
TORSDOF 6
ENDMDL
MODEL 2
REMARK VINA RESULT:      -7.9      4.356      7.631
REMARK  6 active torsions:
REMARK  status: ('A' for Active; 'I' for Inactive)
REMARK    1  A    between atoms: O_2  and  C_3 
REMARK    2  A    between atoms: C_3  and  C_4 
REMARK    3  A    between atoms: C_4  and  N_5 
REMARK       I    between atoms: N_5  and  C_6 
REMARK    4  A    between atoms: C_6  and  C_7 
REMARK    5  A    between atoms: C_12  and  C_13 
REMARK    6  A    between atoms: C_21  and  C_22 
ROOT
HETATM    1  C   UNL     1      -9.350   2.015 -32.958  1.00  0.00     0.170 A 
HETATM    2  N   UNL     1      -8.392   1.367 -33.667  1.00  0.00    -0.163 NA
HETATM    3  N   UNL     1      -7.463   1.056 -32.749  1.00  0.00    -0.238 N 
HETATM    4  C   UNL     1      -7.725   1.565 -31.506  1.00  0.00     0.145 A 
HETATM    5  N   UNL     1      -6.830   1.421 -30.492  1.00  0.00    -0.365 N 
HETATM    6  C   UNL     1      -5.432   1.098 -30.792  1.00  0.00     0.118 C 
HETATM    7  C   UNL     1      -5.452  -0.034 -31.835  1.00  0.00     0.066 C 
HETATM    8  C   UNL     1      -6.228   0.377 -33.105  1.00  0.00     0.221 C 
HETATM    9  C   UNL     1      -8.961   2.161 -31.597  1.00  0.00     0.115 A 
HETATM   10 CL   UNL     1      -9.803   2.938 -30.346  1.00  0.00    -0.077 Cl
HETATM   11  H   UNL     1      -6.991   1.904 -29.608  1.00  0.00     0.162 HD
ENDROOT
BRANCH   1  12
HETATM   12  C   UNL     1     -10.583   2.482 -33.609  1.00  0.00     0.273 C 
HETATM   13  N   UNL     1     -11.727   1.938 -33.064  1.00  0.00    -0.353 N 
HETATM   14  H   UNL     1     -11.584   1.189 -32.391  1.00  0.00     0.162 HD
HETATM   15  O   UNL     1     -10.605   3.269 -34.551  1.00  0.00    -0.266 OA
BRANCH  13  16
HETATM   16  C   UNL     1     -13.043   2.156 -33.626  1.00  0.00     0.149 C 
BRANCH  16  17
HETATM   17  C   UNL     1     -13.405   1.121 -34.692  1.00  0.00     0.186 C 
BRANCH  17  18
HETATM   18  O   UNL     1     -14.817   0.889 -34.662  1.00  0.00    -0.394 OA
HETATM   19  C   UNL     1     -15.397   1.364 -33.454  1.00  0.00     0.201 C 
ENDBRANCH  17  18
ENDBRANCH  16  17
ENDBRANCH  13  16
ENDBRANCH   1  12
BRANCH   8  20
HETATM   20  C   UNL     1      -6.487  -0.848 -33.955  1.00  0.00     0.409 C 
HETATM   21  F   UNL     1      -7.583  -1.532 -33.555  1.00  0.00    -0.169 F 
HETATM   22  F   UNL     1      -6.613  -0.575 -35.270  1.00  0.00    -0.169 F 
HETATM   23  F   UNL     1      -5.436  -1.707 -33.846  1.00  0.00    -0.169 F 
ENDBRANCH   8  20
BRANCH   6  24
HETATM   24  C   UNL     1      -4.614   2.331 -31.181  1.00  0.00    -0.035 A 
HETATM   25  C   UNL     1      -3.560   2.258 -32.112  1.00  0.00     0.011 A 
HETATM   26  C   UNL     1      -2.837   3.396 -32.487  1.00  0.00     0.024 A 
HETATM   27  C   UNL     1      -3.165   4.633 -31.945  1.00  0.00     0.034 A 
HETATM   28 CL   UNL     1      -2.279   6.034 -32.401  1.00  0.00    -0.084 Cl
HETATM   29  C   UNL     1      -4.217   4.741 -31.042  1.00  0.00     0.024 A 
HETATM   30  C   UNL     1      -4.943   3.602 -30.673  1.00  0.00     0.011 A 
ENDBRANCH   6  24
TORSDOF 6
ENDMDL
MODEL 3
REMARK VINA RESULT:      -7.6      1.732      1.948
REMARK  6 active torsions:
REMARK  status: ('A' for Active; 'I' for Inactive)
REMARK    1  A    between atoms: O_2  and  C_3 
REMARK    2  A    between atoms: C_3  and  C_4 
REMARK    3  A    between atoms: C_4  and  N_5 
REMARK       I    between atoms: N_5  and  C_6 
REMARK    4  A    between atoms: C_6  and  C_7 
REMARK    5  A    between atoms: C_12  and  C_13 
REMARK    6  A    between atoms: C_21  and  C_22 
ROOT
HETATM    1  C   UNL     1      -6.461   4.677 -32.277  1.00  0.00     0.170 A 
HETATM    2  N   UNL     1      -7.316   4.268 -33.247  1.00  0.00    -0.163 NA
HETATM    3  N   UNL     1      -7.880   3.162 -32.737  1.00  0.00    -0.238 N 
HETATM    4  C   UNL     1      -7.353   2.779 -31.533  1.00  0.00     0.145 A 
HETATM    5  N   UNL     1      -7.748   1.624 -30.935  1.00  0.00    -0.365 N 
HETATM    6  C   UNL     1      -8.414   0.584 -31.724  1.00  0.00     0.118 C 
HETATM    7  C   UNL     1      -9.476   1.292 -32.586  1.00  0.00     0.066 C 
HETATM    8  C   UNL     1      -8.846   2.376 -33.486  1.00  0.00     0.221 C 
HETATM    9  C   UNL     1      -6.455   3.762 -31.187  1.00  0.00     0.115 A 
HETATM   10 CL   UNL     1      -5.518   3.824 -29.774  1.00  0.00    -0.077 Cl
HETATM   11  H   UNL     1      -7.264   1.300 -30.098  1.00  0.00     0.162 HD
ENDROOT
BRANCH   1  12
HETATM   12  C   UNL     1      -5.674   5.910 -32.437  1.00  0.00     0.273 C 
HETATM   13  N   UNL     1      -4.338   5.675 -32.682  1.00  0.00    -0.353 N 
HETATM   14  H   UNL     1      -4.031   4.710 -32.583  1.00  0.00     0.162 HD
HETATM   15  O   UNL     1      -6.145   7.040 -32.354  1.00  0.00    -0.266 OA
BRANCH  13  16
HETATM   16  C   UNL     1      -3.355   6.736 -32.748  1.00  0.00     0.149 C 
BRANCH  16  17
HETATM   17  C   UNL     1      -2.506   6.672 -34.018  1.00  0.00     0.186 C 
BRANCH  17  18
HETATM   18  O   UNL     1      -1.374   7.537 -33.872  1.00  0.00    -0.394 OA
HETATM   19  C   UNL     1      -0.852   7.491 -32.550  1.00  0.00     0.201 C 
ENDBRANCH  17  18
ENDBRANCH  16  17
ENDBRANCH  13  16
ENDBRANCH   1  12
BRANCH   8  20
HETATM   20  C   UNL     1      -9.941   3.242 -34.071  1.00  0.00     0.409 C 
HETATM   21  F   UNL     1     -10.555   4.000 -33.135  1.00  0.00    -0.169 F 
HETATM   22  F   UNL     1      -9.515   4.054 -35.061  1.00  0.00    -0.169 F 
HETATM   23  F   UNL     1     -10.903   2.450 -34.619  1.00  0.00    -0.169 F 
ENDBRANCH   8  20
BRANCH   6  24
HETATM   24  C   UNL     1      -7.425  -0.293 -32.494  1.00  0.00    -0.035 A 
HETATM   25  C   UNL     1      -7.765  -0.889 -33.725  1.00  0.00     0.011 A 
HETATM   26  C   UNL     1      -6.844  -1.663 -34.439  1.00  0.00     0.024 A 
HETATM   27  C   UNL     1      -5.560  -1.846 -33.940  1.00  0.00     0.034 A 
HETATM   28 CL   UNL     1      -4.426  -2.798 -34.814  1.00  0.00    -0.084 Cl
HETATM   29  C   UNL     1      -5.187  -1.250 -32.741  1.00  0.00     0.024 A 
HETATM   30  C   UNL     1      -6.108  -0.470 -32.030  1.00  0.00     0.011 A 
ENDBRANCH   6  24
TORSDOF 6
ENDMDL
MODEL 4
REMARK VINA RESULT:      -7.5      4.346      6.953
REMARK  6 active torsions:
REMARK  status: ('A' for Active; 'I' for Inactive)
REMARK    1  A    between atoms: O_2  and  C_3 
REMARK    2  A    between atoms: C_3  and  C_4 
REMARK    3  A    between atoms: C_4  and  N_5 
REMARK       I    between atoms: N_5  and  C_6 
REMARK    4  A    between atoms: C_6  and  C_7 
REMARK    5  A    between atoms: C_12  and  C_13 
REMARK    6  A    between atoms: C_21  and  C_22 
ROOT
HETATM    1  C   UNL     1     -10.289   3.680 -32.261  1.00  0.00     0.170 A 
HETATM    2  N   UNL     1      -9.401   3.259 -31.326  1.00  0.00    -0.163 NA
HETATM    3  N   UNL     1      -8.235   3.206 -31.988  1.00  0.00    -0.238 N 
HETATM    4  C   UNL     1      -8.348   3.470 -33.327  1.00  0.00     0.145 A 
HETATM    5  N   UNL     1      -7.273   3.359 -34.152  1.00  0.00    -0.365 N 
HETATM    6  C   UNL     1      -6.104   2.581 -33.730  1.00  0.00     0.118 C 
HETATM    7  C   UNL     1      -5.798   2.995 -32.278  1.00  0.00     0.066 C 
HETATM    8  C   UNL     1      -7.009   2.756 -31.351  1.00  0.00     0.221 C 
HETATM    9  C   UNL     1      -9.663   3.818 -33.531  1.00  0.00     0.115 A 
HETATM   10 CL   UNL     1     -10.372   4.271 -35.004  1.00  0.00    -0.077 Cl
HETATM   11  H   UNL     1      -7.402   3.448 -35.160  1.00  0.00     0.162 HD
ENDROOT
BRANCH   1  12
HETATM   12  C   UNL     1     -11.698   3.915 -31.908  1.00  0.00     0.273 C 
HETATM   13  N   UNL     1     -12.542   2.912 -32.339  1.00  0.00    -0.353 N 
HETATM   14  H   UNL     1     -12.127   2.220 -32.959  1.00  0.00     0.162 HD
HETATM   15  O   UNL     1     -12.098   4.903 -31.301  1.00  0.00    -0.266 OA
BRANCH  13  16
HETATM   16  C   UNL     1     -13.982   2.993 -32.216  1.00  0.00     0.149 C 
BRANCH  16  17
HETATM   17  C   UNL     1     -14.693   1.793 -32.844  1.00  0.00     0.186 C 
BRANCH  17  18
HETATM   18  O   UNL     1     -13.872   1.251 -33.884  1.00  0.00    -0.394 OA
HETATM   19  C   UNL     1     -13.648  -0.141 -33.697  1.00  0.00     0.201 C 
ENDBRANCH  17  18
ENDBRANCH  16  17
ENDBRANCH  13  16
ENDBRANCH   1  12
BRANCH   8  20
HETATM   20  C   UNL     1      -6.774   3.454 -30.028  1.00  0.00     0.409 C 
HETATM   21  F   UNL     1      -6.922   4.794 -30.120  1.00  0.00    -0.169 F 
HETATM   22  F   UNL     1      -7.570   3.006 -29.035  1.00  0.00    -0.169 F 
HETATM   23  F   UNL     1      -5.496   3.232 -29.618  1.00  0.00    -0.169 F 
ENDBRANCH   8  20
BRANCH   6  24
HETATM   24  C   UNL     1      -6.284   1.079 -33.957  1.00  0.00    -0.035 A 
HETATM   25  C   UNL     1      -7.197   0.577 -34.905  1.00  0.00     0.011 A 
HETATM   26  C   UNL     1      -7.333  -0.797 -35.130  1.00  0.00     0.024 A 
HETATM   27  C   UNL     1      -6.548  -1.695 -34.418  1.00  0.00     0.034 A 
HETATM   28 CL   UNL     1      -6.712  -3.385 -34.690  1.00  0.00    -0.084 Cl
HETATM   29  C   UNL     1      -5.620  -1.229 -33.493  1.00  0.00     0.024 A 
HETATM   30  C   UNL     1      -5.481   0.147 -33.274  1.00  0.00     0.011 A 
ENDBRANCH   6  24
TORSDOF 6
ENDMDL
MODEL 5
REMARK VINA RESULT:      -7.3      4.085      6.535
REMARK  6 active torsions:
REMARK  status: ('A' for Active; 'I' for Inactive)
REMARK    1  A    between atoms: O_2  and  C_3 
REMARK    2  A    between atoms: C_3  and  C_4 
REMARK    3  A    between atoms: C_4  and  N_5 
REMARK       I    between atoms: N_5  and  C_6 
REMARK    4  A    between atoms: C_6  and  C_7 
REMARK    5  A    between atoms: C_12  and  C_13 
REMARK    6  A    between atoms: C_21  and  C_22 
ROOT
HETATM    1  C   UNL     1      -9.367   1.860 -33.118  1.00  0.00     0.170 A 
HETATM    2  N   UNL     1      -8.390   1.203 -33.792  1.00  0.00    -0.163 NA
HETATM    3  N   UNL     1      -7.488   0.903 -32.844  1.00  0.00    -0.238 N 
HETATM    4  C   UNL     1      -7.784   1.428 -31.615  1.00  0.00     0.145 A 
HETATM    5  N   UNL     1      -6.919   1.297 -30.575  1.00  0.00    -0.365 N 
HETATM    6  C   UNL     1      -5.513   0.970 -30.830  1.00  0.00     0.118 C 
HETATM    7  C   UNL     1      -5.504  -0.176 -31.860  1.00  0.00     0.066 C 
HETATM    8  C   UNL     1      -6.244   0.220 -33.156  1.00  0.00     0.221 C 
HETATM    9  C   UNL     1      -9.017   2.023 -31.749  1.00  0.00     0.115 A 
HETATM   10 CL   UNL     1      -9.894   2.816 -30.532  1.00  0.00    -0.077 Cl
HETATM   11  H   UNL     1      -7.105   1.790 -29.702  1.00  0.00     0.162 HD
ENDROOT
BRANCH   1  12
HETATM   12  C   UNL     1     -10.581   2.319 -33.811  1.00  0.00     0.273 C 
HETATM   13  N   UNL     1     -10.317   3.163 -34.870  1.00  0.00    -0.353 N 
HETATM   14  H   UNL     1      -9.354   3.477 -34.958  1.00  0.00     0.162 HD
HETATM   15  O   UNL     1     -11.719   2.000 -33.484  1.00  0.00    -0.266 OA
BRANCH  13  16
HETATM   16  C   UNL     1     -11.361   3.835 -35.613  1.00  0.00     0.149 C 
BRANCH  16  17
HETATM   17  C   UNL     1     -11.494   5.311 -35.235  1.00  0.00     0.186 C 
BRANCH  17  18
HETATM   18  O   UNL     1     -10.188   5.886 -35.116  1.00  0.00    -0.394 OA
HETATM   19  C   UNL     1     -10.076   6.685 -33.945  1.00  0.00     0.201 C 
ENDBRANCH  17  18
ENDBRANCH  16  17
ENDBRANCH  13  16
ENDBRANCH   1  12
BRANCH   8  20
HETATM   20  C   UNL     1      -6.478  -1.016 -33.998  1.00  0.00     0.409 C 
HETATM   21  F   UNL     1      -7.614  -1.665 -33.656  1.00  0.00    -0.169 F 
HETATM   22  F   UNL     1      -6.514  -0.766 -35.323  1.00  0.00    -0.169 F 
HETATM   23  F   UNL     1      -5.458  -1.897 -33.806  1.00  0.00    -0.169 F 
ENDBRANCH   8  20
BRANCH   6  24
HETATM   24  C   UNL     1      -4.684   2.197 -31.211  1.00  0.00    -0.035 A 
HETATM   25  C   UNL     1      -3.623   2.118 -32.135  1.00  0.00     0.011 A 
HETATM   26  C   UNL     1      -2.890   3.252 -32.502  1.00  0.00     0.024 A 
HETATM   27  C   UNL     1      -3.213   4.490 -31.961  1.00  0.00     0.034 A 
HETATM   28 CL   UNL     1      -2.314   5.886 -32.408  1.00  0.00    -0.084 Cl
HETATM   29  C   UNL     1      -4.270   4.604 -31.065  1.00  0.00     0.024 A 
HETATM   30  C   UNL     1      -5.007   3.470 -30.704  1.00  0.00     0.011 A 
ENDBRANCH   6  24
TORSDOF 6
ENDMDL
MODEL 6
REMARK VINA RESULT:      -7.1      3.948      5.631
REMARK  6 active torsions:
REMARK  status: ('A' for Active; 'I' for Inactive)
REMARK    1  A    between atoms: O_2  and  C_3 
REMARK    2  A    between atoms: C_3  and  C_4 
REMARK    3  A    between atoms: C_4  and  N_5 
REMARK       I    between atoms: N_5  and  C_6 
REMARK    4  A    between atoms: C_6  and  C_7 
REMARK    5  A    between atoms: C_12  and  C_13 
REMARK    6  A    between atoms: C_21  and  C_22 
ROOT
HETATM    1  C   UNL     1      -2.919   7.065 -30.545  1.00  0.00     0.170 A 
HETATM    2  N   UNL     1      -2.350   6.253 -31.470  1.00  0.00    -0.163 NA
HETATM    3  N   UNL     1      -3.343   6.005 -32.338  1.00  0.00    -0.238 N 
HETATM    4  C   UNL     1      -4.550   6.530 -31.961  1.00  0.00     0.145 A 
HETATM    5  N   UNL     1      -5.674   6.282 -32.684  1.00  0.00    -0.365 N 
HETATM    6  C   UNL     1      -5.710   5.150 -33.615  1.00  0.00     0.118 C 
HETATM    7  C   UNL     1      -4.394   5.190 -34.412  1.00  0.00     0.066 C 
HETATM    8  C   UNL     1      -3.163   5.126 -33.482  1.00  0.00     0.221 C 
HETATM    9  C   UNL     1      -4.302   7.257 -30.820  1.00  0.00     0.115 A 
HETATM   10 CL   UNL     1      -5.433   8.149 -29.924  1.00  0.00    -0.077 Cl
HETATM   11  H   UNL     1      -6.579   6.587 -32.325  1.00  0.00     0.162 HD
ENDROOT
BRANCH   1  12
HETATM   12  C   UNL     1      -2.127   7.608 -29.431  1.00  0.00     0.273 C 
HETATM   13  N   UNL     1      -2.098   6.780 -28.328  1.00  0.00    -0.353 N 
HETATM   14  H   UNL     1      -2.728   5.982 -28.357  1.00  0.00     0.162 HD
HETATM   15  O   UNL     1      -1.552   8.692 -29.462  1.00  0.00    -0.266 OA
BRANCH  13  16
HETATM   16  C   UNL     1      -1.487   7.166 -27.074  1.00  0.00     0.149 C 
BRANCH  16  17
HETATM   17  C   UNL     1      -0.269   6.310 -26.727  1.00  0.00     0.186 C 
BRANCH  17  18
HETATM   18  O   UNL     1       0.803   6.632 -27.619  1.00  0.00    -0.394 OA
HETATM   19  C   UNL     1       1.280   7.953 -27.403  1.00  0.00     0.201 C 
ENDBRANCH  17  18
ENDBRANCH  16  17
ENDBRANCH  13  16
ENDBRANCH   1  12
BRANCH   8  20
HETATM   20  C   UNL     1      -1.919   5.478 -34.269  1.00  0.00     0.409 C 
HETATM   21  F   UNL     1      -0.783   5.187 -33.596  1.00  0.00    -0.169 F 
HETATM   22  F   UNL     1      -1.860   4.882 -35.478  1.00  0.00    -0.169 F 
HETATM   23  F   UNL     1      -1.895   6.818 -34.506  1.00  0.00    -0.169 F 
ENDBRANCH   8  20
BRANCH   6  24
HETATM   24  C   UNL     1      -6.010   3.824 -32.915  1.00  0.00    -0.035 A 
HETATM   25  C   UNL     1      -5.812   2.585 -33.556  1.00  0.00     0.011 A 
HETATM   26  C   UNL     1      -6.058   1.375 -32.899  1.00  0.00     0.024 A 
HETATM   27  C   UNL     1      -6.497   1.382 -31.581  1.00  0.00     0.034 A 
HETATM   28 CL   UNL     1      -6.803  -0.103 -30.768  1.00  0.00    -0.084 Cl
HETATM   29  C   UNL     1      -6.679   2.587 -30.912  1.00  0.00     0.024 A 
HETATM   30  C   UNL     1      -6.426   3.797 -31.570  1.00  0.00     0.011 A 
ENDBRANCH   6  24
TORSDOF 6
ENDMDL
MODEL 7
REMARK VINA RESULT:      -7.1      3.864      6.762
REMARK  6 active torsions:
REMARK  status: ('A' for Active; 'I' for Inactive)
REMARK    1  A    between atoms: O_2  and  C_3 
REMARK    2  A    between atoms: C_3  and  C_4 
REMARK    3  A    between atoms: C_4  and  N_5 
REMARK       I    between atoms: N_5  and  C_6 
REMARK    4  A    between atoms: C_6  and  C_7 
REMARK    5  A    between atoms: C_12  and  C_13 
REMARK    6  A    between atoms: C_21  and  C_22 
ROOT
HETATM    1  C   UNL     1      -5.532   0.486 -32.729  1.00  0.00     0.170 A 
HETATM    2  N   UNL     1      -5.734   1.590 -33.492  1.00  0.00    -0.163 NA
HETATM    3  N   UNL     1      -6.616   2.315 -32.786  1.00  0.00    -0.238 N 
HETATM    4  C   UNL     1      -7.073   1.685 -31.660  1.00  0.00     0.145 A 
HETATM    5  N   UNL     1      -8.044   2.247 -30.892  1.00  0.00    -0.365 N 
HETATM    6  C   UNL     1      -8.896   3.302 -31.449  1.00  0.00     0.118 C 
HETATM    7  C   UNL     1      -7.963   4.286 -32.179  1.00  0.00     0.066 C 
HETATM    8  C   UNL     1      -7.139   3.579 -33.277  1.00  0.00     0.221 C 
HETATM    9  C   UNL     1      -6.361   0.511 -31.572  1.00  0.00     0.115 A 
HETATM   10 CL   UNL     1      -6.494  -0.663 -30.355  1.00  0.00    -0.077 Cl
HETATM   11  H   UNL     1      -8.449   1.712 -30.124  1.00  0.00     0.162 HD
ENDROOT
BRANCH   1  12
HETATM   12  C   UNL     1      -4.574  -0.550 -33.142  1.00  0.00     0.273 C 
HETATM   13  N   UNL     1      -5.132  -1.513 -33.957  1.00  0.00    -0.353 N 
HETATM   14  H   UNL     1      -6.143  -1.478 -34.057  1.00  0.00     0.162 HD
HETATM   15  O   UNL     1      -3.397  -0.573 -32.797  1.00  0.00    -0.266 OA
BRANCH  13  16
HETATM   16  C   UNL     1      -4.410  -2.695 -34.381  1.00  0.00     0.149 C 
BRANCH  16  17
HETATM   17  C   UNL     1      -5.336  -3.881 -34.653  1.00  0.00     0.186 C 
BRANCH  17  18
HETATM   18  O   UNL     1      -4.642  -5.098 -34.355  1.00  0.00    -0.394 OA
HETATM   19  C   UNL     1      -3.539  -4.868 -33.487  1.00  0.00     0.201 C 
ENDBRANCH  17  18
ENDBRANCH  16  17
ENDBRANCH  13  16
ENDBRANCH   1  12
BRANCH   8  20
HETATM   20  C   UNL     1      -6.033   4.500 -33.746  1.00  0.00     0.409 C 
HETATM   21  F   UNL     1      -5.020   4.585 -32.854  1.00  0.00    -0.169 F 
HETATM   22  F   UNL     1      -5.516   4.154 -34.943  1.00  0.00    -0.169 F 
HETATM   23  F   UNL     1      -6.523   5.760 -33.895  1.00  0.00    -0.169 F 
ENDBRANCH   8  20
BRANCH   6  24
HETATM   24  C   UNL     1     -10.047   2.746 -32.289  1.00  0.00    -0.035 A 
HETATM   25  C   UNL     1     -10.017   1.440 -32.815  1.00  0.00     0.011 A 
HETATM   26  C   UNL     1     -11.088   0.928 -33.556  1.00  0.00     0.024 A 
HETATM   27  C   UNL     1     -12.216   1.710 -33.773  1.00  0.00     0.034 A 
HETATM   28 CL   UNL     1     -13.534   1.085 -34.684  1.00  0.00    -0.084 Cl
HETATM   29  C   UNL     1     -12.285   2.994 -33.245  1.00  0.00     0.024 A 
HETATM   30  C   UNL     1     -11.215   3.503 -32.499  1.00  0.00     0.011 A 
ENDBRANCH   6  24
TORSDOF 6
ENDMDL
MODEL 8
REMARK VINA RESULT:      -7.1      3.406      4.491
REMARK  6 active torsions:
REMARK  status: ('A' for Active; 'I' for Inactive)
REMARK    1  A    between atoms: O_2  and  C_3 
REMARK    2  A    between atoms: C_3  and  C_4 
REMARK    3  A    between atoms: C_4  and  N_5 
REMARK       I    between atoms: N_5  and  C_6 
REMARK    4  A    between atoms: C_6  and  C_7 
REMARK    5  A    between atoms: C_12  and  C_13 
REMARK    6  A    between atoms: C_21  and  C_22 
ROOT
HETATM    1  C   UNL     1      -5.217   4.226 -31.877  1.00  0.00     0.170 A 
HETATM    2  N   UNL     1      -5.760   3.281 -31.071  1.00  0.00    -0.163 NA
HETATM    3  N   UNL     1      -6.178   2.330 -31.921  1.00  0.00    -0.238 N 
HETATM    4  C   UNL     1      -6.028   2.665 -33.240  1.00  0.00     0.145 A 
HETATM    5  N   UNL     1      -6.494   1.851 -34.223  1.00  0.00    -0.365 N 
HETATM    6  C   UNL     1      -7.503   0.834 -33.913  1.00  0.00     0.118 C 
HETATM    7  C   UNL     1      -7.043   0.132 -32.621  1.00  0.00     0.066 C 
HETATM    8  C   UNL     1      -6.867   1.136 -31.461  1.00  0.00     0.221 C 
HETATM    9  C   UNL     1      -5.372   3.874 -33.247  1.00  0.00     0.115 A 
HETATM   10 CL   UNL     1      -4.898   4.759 -34.615  1.00  0.00    -0.077 Cl
HETATM   11  H   UNL     1      -6.474   2.170 -35.192  1.00  0.00     0.162 HD
ENDROOT
BRANCH   1  12
HETATM   12  C   UNL     1      -4.591   5.431 -31.310  1.00  0.00     0.273 C 
HETATM   13  N   UNL     1      -3.248   5.272 -31.042  1.00  0.00    -0.353 N 
HETATM   14  H   UNL     1      -2.888   4.325 -31.128  1.00  0.00     0.162 HD
HETATM   15  O   UNL     1      -5.194   6.475 -31.084  1.00  0.00    -0.266 OA
BRANCH  13  16
HETATM   16  C   UNL     1      -2.460   6.280 -30.365  1.00  0.00     0.149 C 
BRANCH  16  17
HETATM   17  C   UNL     1      -1.361   6.861 -31.255  1.00  0.00     0.186 C 
BRANCH  17  18
HETATM   18  O   UNL     1      -1.514   6.353 -32.585  1.00  0.00    -0.394 OA
HETATM   19  C   UNL     1      -1.792   7.396 -33.511  1.00  0.00     0.201 C 
ENDBRANCH  17  18
ENDBRANCH  16  17
ENDBRANCH  13  16
ENDBRANCH   1  12
BRANCH   8  20
HETATM   20  C   UNL     1      -6.127   0.465 -30.324  1.00  0.00     0.409 C 
HETATM   21  F   UNL     1      -4.822   0.258 -30.608  1.00  0.00    -0.169 F 
HETATM   22  F   UNL     1      -6.206   1.139 -29.158  1.00  0.00    -0.169 F 
HETATM   23  F   UNL     1      -6.670  -0.761 -30.089  1.00  0.00    -0.169 F 
ENDBRANCH   8  20
BRANCH   6  24
HETATM   24  C   UNL     1      -8.921   1.405 -33.876  1.00  0.00    -0.035 A 
HETATM   25  C   UNL     1      -9.197   2.730 -34.265  1.00  0.00     0.011 A 
HETATM   26  C   UNL     1     -10.502   3.235 -34.259  1.00  0.00     0.024 A 
HETATM   27  C   UNL     1     -11.558   2.418 -33.876  1.00  0.00     0.034 A 
HETATM   28 CL   UNL     1     -13.164   3.034 -33.866  1.00  0.00    -0.084 Cl
HETATM   29  C   UNL     1     -11.321   1.098 -33.510  1.00  0.00     0.024 A 
HETATM   30  C   UNL     1     -10.015   0.592 -33.523  1.00  0.00     0.011 A 
ENDBRANCH   6  24
TORSDOF 6
ENDMDL
MODEL 9
REMARK VINA RESULT:      -7.0      5.420      7.567
REMARK  6 active torsions:
REMARK  status: ('A' for Active; 'I' for Inactive)
REMARK    1  A    between atoms: O_2  and  C_3 
REMARK    2  A    between atoms: C_3  and  C_4 
REMARK    3  A    between atoms: C_4  and  N_5 
REMARK       I    between atoms: N_5  and  C_6 
REMARK    4  A    between atoms: C_6  and  C_7 
REMARK    5  A    between atoms: C_12  and  C_13 
REMARK    6  A    between atoms: C_21  and  C_22 
ROOT
HETATM    1  C   UNL     1      -2.137   7.629 -28.230  1.00  0.00     0.170 A 
HETATM    2  N   UNL     1      -1.230   6.678 -28.568  1.00  0.00    -0.163 NA
HETATM    3  N   UNL     1      -1.577   6.328 -29.816  1.00  0.00    -0.238 N 
HETATM    4  C   UNL     1      -2.726   6.927 -30.258  1.00  0.00     0.145 A 
HETATM    5  N   UNL     1      -3.263   6.600 -31.463  1.00  0.00    -0.365 N 
HETATM    6  C   UNL     1      -2.880   5.346 -32.118  1.00  0.00     0.118 C 
HETATM    7  C   UNL     1      -1.347   5.242 -32.015  1.00  0.00     0.066 C 
HETATM    8  C   UNL     1      -0.871   5.289 -30.547  1.00  0.00     0.221 C 
HETATM    9  C   UNL     1      -3.095   7.807 -29.267  1.00  0.00     0.115 A 
HETATM   10 CL   UNL     1      -4.438   8.843 -29.284  1.00  0.00    -0.077 Cl
HETATM   11  H   UNL     1      -4.176   6.972 -31.724  1.00  0.00     0.162 HD
ENDROOT
BRANCH   1  12
HETATM   12  C   UNL     1      -2.063   8.311 -26.929  1.00  0.00     0.273 C 
HETATM   13  N   UNL     1      -2.751   7.656 -25.930  1.00  0.00    -0.353 N 
HETATM   14  H   UNL     1      -3.334   6.877 -26.230  1.00  0.00     0.162 HD
HETATM   15  O   UNL     1      -1.461   9.364 -26.740  1.00  0.00    -0.266 OA
BRANCH  13  16
HETATM   16  C   UNL     1      -2.922   8.209 -24.603  1.00  0.00     0.149 C 
BRANCH  16  17
HETATM   17  C   UNL     1      -4.242   8.965 -24.448  1.00  0.00     0.186 C 
BRANCH  17  18
HETATM   18  O   UNL     1      -5.162   8.516 -25.448  1.00  0.00    -0.394 OA
HETATM   19  C   UNL     1      -5.851   9.607 -26.047  1.00  0.00     0.201 C 
ENDBRANCH  17  18
ENDBRANCH  16  17
ENDBRANCH  13  16
ENDBRANCH   1  12
BRANCH   8  20
HETATM   20  C   UNL     1       0.628   5.496 -30.511  1.00  0.00     0.409 C 
HETATM   21  F   UNL     1       1.146   5.295 -29.278  1.00  0.00    -0.169 F 
HETATM   22  F   UNL     1       1.301   4.721 -31.386  1.00  0.00    -0.169 F 
HETATM   23  F   UNL     1       0.917   6.784 -30.846  1.00  0.00    -0.169 F 
ENDBRANCH   8  20
BRANCH   6  24
HETATM   24  C   UNL     1      -3.654   4.141 -31.580  1.00  0.00    -0.035 A 
HETATM   25  C   UNL     1      -3.216   2.820 -31.799  1.00  0.00     0.011 A 
HETATM   26  C   UNL     1      -3.913   1.725 -31.276  1.00  0.00     0.024 A 
HETATM   27  C   UNL     1      -5.055   1.932 -30.512  1.00  0.00     0.034 A 
HETATM   28 CL   UNL     1      -5.915   0.590 -29.868  1.00  0.00    -0.084 Cl
HETATM   29  C   UNL     1      -5.497   3.225 -30.257  1.00  0.00     0.024 A 
HETATM   30  C   UNL     1      -4.796   4.320 -30.776  1.00  0.00     0.011 A 
ENDBRANCH   6  24
TORSDOF 6
ENDMDL
MODEL 10
REMARK VINA RESULT:      -6.9      4.192      6.373
REMARK  6 active torsions:
REMARK  status: ('A' for Active; 'I' for Inactive)
REMARK    1  A    between atoms: O_2  and  C_3 
REMARK    2  A    between atoms: C_3  and  C_4 
REMARK    3  A    between atoms: C_4  and  N_5 
REMARK       I    between atoms: N_5  and  C_6 
REMARK    4  A    between atoms: C_6  and  C_7 
REMARK    5  A    between atoms: C_12  and  C_13 
REMARK    6  A    between atoms: C_21  and  C_22 
ROOT
HETATM    1  C   UNL     1      -1.475   4.824 -31.608  1.00  0.00     0.170 A 
HETATM    2  N   UNL     1      -2.408   3.887 -31.305  1.00  0.00    -0.163 NA
HETATM    3  N   UNL     1      -3.322   4.012 -32.280  1.00  0.00    -0.238 N 
HETATM    4  C   UNL     1      -3.078   5.054 -33.134  1.00  0.00     0.145 A 
HETATM    5  N   UNL     1      -3.964   5.373 -34.115  1.00  0.00    -0.365 N 
HETATM    6  C   UNL     1      -5.349   4.900 -34.030  1.00  0.00     0.118 C 
HETATM    7  C   UNL     1      -5.287   3.412 -33.639  1.00  0.00     0.066 C 
HETATM    8  C   UNL     1      -4.530   3.205 -32.310  1.00  0.00     0.221 C 
HETATM    9  C   UNL     1      -1.866   5.579 -32.749  1.00  0.00     0.115 A 
HETATM   10 CL   UNL     1      -1.053   6.880 -33.472  1.00  0.00    -0.077 Cl
HETATM   11  H   UNL     1      -3.820   6.219 -34.666  1.00  0.00     0.162 HD
ENDROOT
BRANCH   1  12
HETATM   12  C   UNL     1      -0.262   4.971 -30.789  1.00  0.00     0.273 C 
HETATM   13  N   UNL     1      -0.519   5.433 -29.515  1.00  0.00    -0.353 N 
HETATM   14  H   UNL     1      -1.471   5.747 -29.340  1.00  0.00     0.162 HD
HETATM   15  O   UNL     1       0.870   4.722 -31.189  1.00  0.00    -0.266 OA
BRANCH  13  16
HETATM   16  C   UNL     1       0.531   5.773 -28.578  1.00  0.00     0.149 C 
BRANCH  16  17
HETATM   17  C   UNL     1       0.508   7.250 -28.182  1.00  0.00     0.186 C 
BRANCH  17  18
HETATM   18  O   UNL     1       0.531   7.355 -26.754  1.00  0.00    -0.394 OA
HETATM   19  C   UNL     1       1.795   7.807 -26.286  1.00  0.00     0.201 C 
ENDBRANCH  17  18
ENDBRANCH  16  17
ENDBRANCH  13  16
ENDBRANCH   1  12
BRANCH   8  20
HETATM   20  C   UNL     1      -4.226   1.733 -32.129  1.00  0.00     0.409 C 
HETATM   21  F   UNL     1      -3.083   1.362 -32.750  1.00  0.00    -0.169 F 
HETATM   22  F   UNL     1      -4.148   1.354 -30.836  1.00  0.00    -0.169 F 
HETATM   23  F   UNL     1      -5.224   0.991 -32.681  1.00  0.00    -0.169 F 
ENDBRANCH   8  20
BRANCH   6  24
HETATM   24  C   UNL     1      -6.215   5.778 -33.125  1.00  0.00    -0.035 A 
HETATM   25  C   UNL     1      -5.663   6.817 -32.351  1.00  0.00     0.011 A 
HETATM   26  C   UNL     1      -6.467   7.636 -31.550  1.00  0.00     0.024 A 
HETATM   27  C   UNL     1      -7.841   7.438 -31.518  1.00  0.00     0.034 A 
HETATM   28 CL   UNL     1      -8.833   8.440 -30.534  1.00  0.00    -0.084 Cl
HETATM   29  C   UNL     1      -8.419   6.436 -32.289  1.00  0.00     0.024 A 
HETATM   30  C   UNL     1      -7.614   5.621 -33.096  1.00  0.00     0.011 A 
ENDBRANCH   6  24
TORSDOF 6
ENDMDL
