MODEL 1
REMARK VINA RESULT:      -8.3      0.000      0.000
REMARK  6 active torsions:
REMARK  status: ('A' for Active; 'I' for Inactive)
REMARK    1  A    between atoms: O_2  and  C_3 
REMARK    2  A    between atoms: C_7  and  C_8 
REMARK    3  A    between atoms: C_8  and  C_9 
REMARK       I    between atoms: C_9  and  N_10 
REMARK    4  A    between atoms: N_10  and  C_11 
REMARK    5  A    between atoms: C_12  and  C_13 
REMARK       I    between atoms: C_13  and  N_14 
REMARK    6  A    between atoms: N_14  and  C_15 
ROOT
HETATM    1  C   UNL     1      -4.395  -0.278 -32.449  1.00  0.00     0.226 C 
HETATM    2  N   UNL     1      -4.261  -0.983 -33.631  1.00  0.00    -0.326 N 
HETATM    3  O   UNL     1      -5.253  -0.484 -31.593  1.00  0.00    -0.273 OA
HETATM    4  H   UNL     1      -3.679  -0.564 -34.351  1.00  0.00     0.169 HD
ENDROOT
BRANCH   2   5
HETATM    5  C   UNL     1      -4.883  -2.215 -33.966  1.00  0.00     0.050 A 
HETATM    6  C   UNL     1      -6.180  -2.222 -34.515  1.00  0.00     0.058 A 
HETATM    7  C   UNL     1      -6.759  -3.410 -34.986  1.00  0.00     0.019 A 
HETATM    8  C   UNL     1      -6.065  -4.612 -34.882  1.00  0.00     0.001 A 
HETATM    9  C   UNL     1      -4.797  -4.625 -34.309  1.00  0.00     0.002 A 
HETATM   10  C   UNL     1      -4.209  -3.437 -33.859  1.00  0.00     0.030 A 
BRANCH   6  11
HETATM   11  C   UNL     1      -7.026  -1.005 -34.580  1.00  0.00     0.254 C 
HETATM   12  N   UNL     1      -7.866  -0.826 -33.498  1.00  0.00    -0.352 N 
HETATM   13  H   UNL     1      -7.935  -1.569 -32.810  1.00  0.00     0.163 HD
HETATM   14  O   UNL     1      -6.967  -0.264 -35.553  1.00  0.00    -0.268 OA
BRANCH  12  15
HETATM   15  C   UNL     1      -8.853   0.205 -33.466  1.00  0.00     0.084 A 
HETATM   16  C   UNL     1     -10.193  -0.048 -32.834  1.00  0.00     0.027 A 
HETATM   17  C   UNL     1      -9.216   0.876 -32.169  1.00  0.00     0.027 A 
ENDBRANCH  12  15
ENDBRANCH   6  11
ENDBRANCH   2   5
BRANCH   1  18
HETATM   18  C   UNL     1      -3.313   0.764 -32.211  1.00  0.00     0.144 C 
BRANCH  18  19
HETATM   19  C   UNL     1      -3.807   2.166 -32.102  1.00  0.00    -0.014 A 
HETATM   20  C   UNL     1      -4.905   2.763 -32.796  1.00  0.00     0.006 A 
HETATM   21  C   UNL     1      -5.033   4.045 -32.276  1.00  0.00     0.088 A 
HETATM   22  C   UNL     1      -5.815   2.353 -33.784  1.00  0.00     0.017 A 
HETATM   23  C   UNL     1      -6.028   4.952 -32.637  1.00  0.00     0.074 A 
HETATM   24  O   UNL     1      -4.060   4.279 -31.354  1.00  0.00    -0.321 OA
HETATM   25  C   UNL     1      -6.950   4.510 -33.589  1.00  0.00     0.070 A 
HETATM   26  C   UNL     1      -6.825   3.245 -34.175  1.00  0.00     0.038 A 
HETATM   27  C   UNL     1      -3.330   3.143 -31.248  1.00  0.00     0.151 A 
BRANCH  25  28
HETATM   28  O   UNL     1      -8.007   5.256 -34.044  1.00  0.00    -0.356 OA
HETATM   29  C   UNL     1      -9.234   4.543 -34.182  1.00  0.00     0.210 C 
ENDBRANCH  25  28
ENDBRANCH  18  19
ENDBRANCH   1  18
TORSDOF 6
ENDMDL
MODEL 2
REMARK VINA RESULT:      -8.3      3.550      8.041
REMARK  6 active torsions:
REMARK  status: ('A' for Active; 'I' for Inactive)
REMARK    1  A    between atoms: O_2  and  C_3 
REMARK    2  A    between atoms: C_7  and  C_8 
REMARK    3  A    between atoms: C_8  and  C_9 
REMARK       I    between atoms: C_9  and  N_10 
REMARK    4  A    between atoms: N_10  and  C_11 
REMARK    5  A    between atoms: C_12  and  C_13 
REMARK       I    between atoms: C_13  and  N_14 
REMARK    6  A    between atoms: N_14  and  C_15 
ROOT
HETATM    1  C   UNL     1      -4.351   2.963 -31.535  1.00  0.00     0.226 C 
HETATM    2  N   UNL     1      -3.043   3.401 -31.638  1.00  0.00    -0.326 N 
HETATM    3  O   UNL     1      -5.314   3.467 -32.109  1.00  0.00    -0.273 OA
HETATM    4  H   UNL     1      -2.390   3.062 -30.936  1.00  0.00     0.169 HD
ENDROOT
BRANCH   2   5
HETATM    5  C   UNL     1      -2.518   4.307 -32.596  1.00  0.00     0.050 A 
HETATM    6  C   UNL     1      -1.442   5.149 -32.253  1.00  0.00     0.058 A 
HETATM    7  C   UNL     1      -0.814   5.949 -33.220  1.00  0.00     0.019 A 
HETATM    8  C   UNL     1      -1.275   5.947 -34.533  1.00  0.00     0.001 A 
HETATM    9  C   UNL     1      -2.361   5.148 -34.878  1.00  0.00     0.002 A 
HETATM   10  C   UNL     1      -2.974   4.332 -33.920  1.00  0.00     0.030 A 
BRANCH   6  11
HETATM   11  C   UNL     1      -0.946   5.284 -30.861  1.00  0.00     0.254 C 
HETATM   12  N   UNL     1      -1.284   6.469 -30.239  1.00  0.00    -0.352 N 
HETATM   13  H   UNL     1      -1.733   7.195 -30.789  1.00  0.00     0.163 HD
HETATM   14  O   UNL     1      -0.268   4.396 -30.360  1.00  0.00    -0.268 OA
BRANCH  12  15
HETATM   15  C   UNL     1      -0.765   6.829 -28.959  1.00  0.00     0.084 A 
HETATM   16  C   UNL     1       0.575   7.500 -28.846  1.00  0.00     0.027 A 
HETATM   17  C   UNL     1      -0.676   8.273 -28.549  1.00  0.00     0.027 A 
ENDBRANCH  12  15
ENDBRANCH   6  11
ENDBRANCH   2   5
BRANCH   1  18
HETATM   18  C   UNL     1      -4.531   1.707 -30.698  1.00  0.00     0.144 C 
BRANCH  18  19
HETATM   19  C   UNL     1      -4.112   0.443 -31.368  1.00  0.00    -0.014 A 
HETATM   20  C   UNL     1      -4.853  -0.335 -32.310  1.00  0.00     0.006 A 
HETATM   21  C   UNL     1      -3.999  -1.350 -32.724  1.00  0.00     0.088 A 
HETATM   22  C   UNL     1      -6.138  -0.277 -32.875  1.00  0.00     0.017 A 
HETATM   23  C   UNL     1      -4.310  -2.304 -33.691  1.00  0.00     0.074 A 
HETATM   24  O   UNL     1      -2.814  -1.268 -32.060  1.00  0.00    -0.321 OA
HETATM   25  C   UNL     1      -5.577  -2.203 -34.273  1.00  0.00     0.070 A 
HETATM   26  C   UNL     1      -6.485  -1.227 -33.847  1.00  0.00     0.038 A 
HETATM   27  C   UNL     1      -2.885  -0.182 -31.252  1.00  0.00     0.151 A 
BRANCH  25  28
HETATM   28  O   UNL     1      -6.042  -3.039 -35.256  1.00  0.00    -0.356 OA
HETATM   29  C   UNL     1      -6.318  -4.372 -34.834  1.00  0.00     0.210 C 
ENDBRANCH  25  28
ENDBRANCH  18  19
ENDBRANCH   1  18
TORSDOF 6
ENDMDL
MODEL 3
REMARK VINA RESULT:      -8.2      3.866      6.790
REMARK  6 active torsions:
REMARK  status: ('A' for Active; 'I' for Inactive)
REMARK    1  A    between atoms: O_2  and  C_3 
REMARK    2  A    between atoms: C_7  and  C_8 
REMARK    3  A    between atoms: C_8  and  C_9 
REMARK       I    between atoms: C_9  and  N_10 
REMARK    4  A    between atoms: N_10  and  C_11 
REMARK    5  A    between atoms: C_12  and  C_13 
REMARK       I    between atoms: C_13  and  N_14 
REMARK    6  A    between atoms: N_14  and  C_15 
ROOT
HETATM    1  C   UNL     1      -9.595   0.528 -33.323  1.00  0.00     0.226 C 
HETATM    2  N   UNL     1      -8.268   0.914 -33.361  1.00  0.00    -0.326 N 
HETATM    3  O   UNL     1     -10.060  -0.338 -32.586  1.00  0.00    -0.273 OA
HETATM    4  H   UNL     1      -7.970   1.454 -34.170  1.00  0.00     0.169 HD
ENDROOT
BRANCH   2   5
HETATM    5  C   UNL     1      -7.259   0.604 -32.411  1.00  0.00     0.050 A 
HETATM    6  C   UNL     1      -6.230  -0.298 -32.745  1.00  0.00     0.058 A 
HETATM    7  C   UNL     1      -5.147  -0.511 -31.879  1.00  0.00     0.019 A 
HETATM    8  C   UNL     1      -5.096   0.144 -30.653  1.00  0.00     0.001 A 
HETATM    9  C   UNL     1      -6.124   1.010 -30.293  1.00  0.00     0.002 A 
HETATM   10  C   UNL     1      -7.194   1.242 -31.166  1.00  0.00     0.030 A 
BRANCH   6  11
HETATM   11  C   UNL     1      -6.251  -1.108 -33.988  1.00  0.00     0.254 C 
HETATM   12  N   UNL     1      -5.850  -2.419 -33.830  1.00  0.00    -0.352 N 
HETATM   13  H   UNL     1      -5.469  -2.705 -32.934  1.00  0.00     0.163 HD
HETATM   14  O   UNL     1      -6.579  -0.596 -35.051  1.00  0.00    -0.268 OA
BRANCH  12  15
HETATM   15  C   UNL     1      -5.665  -3.296 -34.942  1.00  0.00     0.084 A 
HETATM   16  C   UNL     1      -5.305  -4.738 -34.719  1.00  0.00     0.027 A 
HETATM   17  C   UNL     1      -6.666  -4.378 -35.238  1.00  0.00     0.027 A 
ENDBRANCH  12  15
ENDBRANCH   6  11
ENDBRANCH   2   5
BRANCH   1  18
HETATM   18  C   UNL     1     -10.512   1.334 -34.229  1.00  0.00     0.144 C 
BRANCH  18  19
HETATM   19  C   UNL     1     -11.553   2.129 -33.518  1.00  0.00    -0.014 A 
HETATM   20  C   UNL     1     -12.967   1.922 -33.522  1.00  0.00     0.006 A 
HETATM   21  C   UNL     1     -13.492   2.846 -32.628  1.00  0.00     0.088 A 
HETATM   22  C   UNL     1     -13.854   1.041 -34.164  1.00  0.00     0.017 A 
HETATM   23  C   UNL     1     -14.840   2.944 -32.288  1.00  0.00     0.074 A 
HETATM   24  O   UNL     1     -12.500   3.628 -32.122  1.00  0.00    -0.321 OA
HETATM   25  C   UNL     1     -15.700   2.031 -32.903  1.00  0.00     0.070 A 
HETATM   26  C   UNL     1     -15.219   1.118 -33.848  1.00  0.00     0.038 A 
HETATM   27  C   UNL     1     -11.335   3.187 -32.655  1.00  0.00     0.151 A 
BRANCH  25  28
HETATM   28  O   UNL     1     -17.050   1.965 -32.669  1.00  0.00    -0.356 OA
HETATM   29  C   UNL     1     -17.580   3.037 -31.892  1.00  0.00     0.210 C 
ENDBRANCH  25  28
ENDBRANCH  18  19
ENDBRANCH   1  18
TORSDOF 6
ENDMDL
MODEL 4
REMARK VINA RESULT:      -8.2      3.560      8.019
REMARK  6 active torsions:
REMARK  status: ('A' for Active; 'I' for Inactive)
REMARK    1  A    between atoms: O_2  and  C_3 
REMARK    2  A    between atoms: C_7  and  C_8 
REMARK    3  A    between atoms: C_8  and  C_9 
REMARK       I    between atoms: C_9  and  N_10 
REMARK    4  A    between atoms: N_10  and  C_11 
REMARK    5  A    between atoms: C_12  and  C_13 
REMARK       I    between atoms: C_13  and  N_14 
REMARK    6  A    between atoms: N_14  and  C_15 
ROOT
HETATM    1  C   UNL     1      -4.213   3.257 -31.162  1.00  0.00     0.226 C 
HETATM    2  N   UNL     1      -2.975   3.293 -31.778  1.00  0.00    -0.326 N 
HETATM    3  O   UNL     1      -5.005   4.195 -31.110  1.00  0.00    -0.273 OA
HETATM    4  H   UNL     1      -2.324   2.547 -31.543  1.00  0.00     0.169 HD
ENDROOT
BRANCH   2   5
HETATM    5  C   UNL     1      -2.494   4.283 -32.675  1.00  0.00     0.050 A 
HETATM    6  C   UNL     1      -1.465   5.157 -32.273  1.00  0.00     0.058 A 
HETATM    7  C   UNL     1      -0.876   6.046 -33.185  1.00  0.00     0.019 A 
HETATM    8  C   UNL     1      -1.332   6.101 -34.498  1.00  0.00     0.001 A 
HETATM    9  C   UNL     1      -2.373   5.270 -34.899  1.00  0.00     0.002 A 
HETATM   10  C   UNL     1      -2.947   4.365 -33.997  1.00  0.00     0.030 A 
BRANCH   6  11
HETATM   11  C   UNL     1      -0.981   5.230 -30.873  1.00  0.00     0.254 C 
HETATM   12  N   UNL     1      -1.308   6.396 -30.209  1.00  0.00    -0.352 N 
HETATM   13  H   UNL     1      -1.740   7.149 -30.736  1.00  0.00     0.163 HD
HETATM   14  O   UNL     1      -0.322   4.314 -30.399  1.00  0.00    -0.268 OA
BRANCH  12  15
HETATM   15  C   UNL     1      -0.797   6.699 -28.911  1.00  0.00     0.084 A 
HETATM   16  C   UNL     1       0.618   7.179 -28.746  1.00  0.00     0.027 A 
HETATM   17  C   UNL     1      -0.523   8.123 -28.510  1.00  0.00     0.027 A 
ENDBRANCH  12  15
ENDBRANCH   6  11
ENDBRANCH   2   5
BRANCH   1  18
HETATM   18  C   UNL     1      -4.597   1.899 -30.599  1.00  0.00     0.144 C 
BRANCH  18  19
HETATM   19  C   UNL     1      -5.566   1.128 -31.429  1.00  0.00    -0.014 A 
HETATM   20  C   UNL     1      -5.281   0.097 -32.376  1.00  0.00     0.006 A 
HETATM   21  C   UNL     1      -6.514  -0.382 -32.803  1.00  0.00     0.088 A 
HETATM   22  C   UNL     1      -4.120  -0.499 -32.898  1.00  0.00     0.017 A 
HETATM   23  C   UNL     1      -6.689  -1.442 -33.691  1.00  0.00     0.074 A 
HETATM   24  O   UNL     1      -7.520   0.321 -32.217  1.00  0.00    -0.321 OA
HETATM   25  C   UNL     1      -5.523  -2.049 -34.165  1.00  0.00     0.070 A 
HETATM   26  C   UNL     1      -4.262  -1.564 -33.800  1.00  0.00     0.038 A 
HETATM   27  C   UNL     1      -6.944   1.223 -31.386  1.00  0.00     0.151 A 
BRANCH  25  28
HETATM   28  O   UNL     1      -5.506  -3.119 -35.023  1.00  0.00    -0.356 OA
HETATM   29  C   UNL     1      -6.613  -4.009 -34.901  1.00  0.00     0.210 C 
ENDBRANCH  25  28
ENDBRANCH  18  19
ENDBRANCH   1  18
TORSDOF 6
ENDMDL
MODEL 5
REMARK VINA RESULT:      -7.9      1.670      2.047
REMARK  6 active torsions:
REMARK  status: ('A' for Active; 'I' for Inactive)
REMARK    1  A    between atoms: O_2  and  C_3 
REMARK    2  A    between atoms: C_7  and  C_8 
REMARK    3  A    between atoms: C_8  and  C_9 
REMARK       I    between atoms: C_9  and  N_10 
REMARK    4  A    between atoms: N_10  and  C_11 
REMARK    5  A    between atoms: C_12  and  C_13 
REMARK       I    between atoms: C_13  and  N_14 
REMARK    6  A    between atoms: N_14  and  C_15 
ROOT
HETATM    1  C   UNL     1      -4.505  -0.432 -32.074  1.00  0.00     0.226 C 
HETATM    2  N   UNL     1      -4.237  -1.031 -33.291  1.00  0.00    -0.326 N 
HETATM    3  O   UNL     1      -5.451  -0.709 -31.340  1.00  0.00    -0.273 OA
HETATM    4  H   UNL     1      -3.581  -0.553 -33.903  1.00  0.00     0.169 HD
ENDROOT
BRANCH   2   5
HETATM    5  C   UNL     1      -4.812  -2.225 -33.801  1.00  0.00     0.050 A 
HETATM    6  C   UNL     1      -6.051  -2.181 -34.469  1.00  0.00     0.058 A 
HETATM    7  C   UNL     1      -6.570  -3.320 -35.104  1.00  0.00     0.019 A 
HETATM    8  C   UNL     1      -5.877  -4.525 -35.049  1.00  0.00     0.001 A 
HETATM    9  C   UNL     1      -4.670  -4.592 -34.361  1.00  0.00     0.002 A 
HETATM   10  C   UNL     1      -4.139  -3.452 -33.746  1.00  0.00     0.030 A 
BRANCH   6  11
HETATM   11  C   UNL     1      -6.899  -0.964 -34.499  1.00  0.00     0.254 C 
HETATM   12  N   UNL     1      -7.813  -0.872 -33.468  1.00  0.00    -0.352 N 
HETATM   13  H   UNL     1      -7.925  -1.666 -32.846  1.00  0.00     0.163 HD
HETATM   14  O   UNL     1      -6.777  -0.150 -35.405  1.00  0.00    -0.268 OA
BRANCH  12  15
HETATM   15  C   UNL     1      -8.808   0.152 -33.425  1.00  0.00     0.084 A 
HETATM   16  C   UNL     1     -10.144  -0.115 -32.789  1.00  0.00     0.027 A 
HETATM   17  C   UNL     1      -9.170   0.812 -32.123  1.00  0.00     0.027 A 
ENDBRANCH  12  15
ENDBRANCH   6  11
ENDBRANCH   2   5
BRANCH   1  18
HETATM   18  C   UNL     1      -3.462   0.580 -31.627  1.00  0.00     0.144 C 
BRANCH  18  19
HETATM   19  C   UNL     1      -3.863   2.006 -31.787  1.00  0.00    -0.014 A 
HETATM   20  C   UNL     1      -4.949   2.686 -31.153  1.00  0.00     0.006 A 
HETATM   21  C   UNL     1      -4.842   4.017 -31.537  1.00  0.00     0.088 A 
HETATM   22  C   UNL     1      -5.990   2.328 -30.281  1.00  0.00     0.017 A 
HETATM   23  C   UNL     1      -5.676   5.040 -31.091  1.00  0.00     0.074 A 
HETATM   24  O   UNL     1      -3.799   4.177 -32.396  1.00  0.00    -0.321 OA
HETATM   25  C   UNL     1      -6.679   4.672 -30.190  1.00  0.00     0.070 A 
HETATM   26  C   UNL     1      -6.851   3.334 -29.818  1.00  0.00     0.038 A 
HETATM   27  C   UNL     1      -3.210   2.966 -32.537  1.00  0.00     0.151 A 
BRANCH  25  28
HETATM   28  O   UNL     1      -7.572   5.549 -29.629  1.00  0.00    -0.356 OA
HETATM   29  C   UNL     1      -7.343   5.846 -28.253  1.00  0.00     0.210 C 
ENDBRANCH  25  28
ENDBRANCH  18  19
ENDBRANCH   1  18
TORSDOF 6
ENDMDL
MODEL 6
REMARK VINA RESULT:      -7.6      2.286      6.637
REMARK  6 active torsions:
REMARK  status: ('A' for Active; 'I' for Inactive)
REMARK    1  A    between atoms: O_2  and  C_3 
REMARK    2  A    between atoms: C_7  and  C_8 
REMARK    3  A    between atoms: C_8  and  C_9 
REMARK       I    between atoms: C_9  and  N_10 
REMARK    4  A    between atoms: N_10  and  C_11 
REMARK    5  A    between atoms: C_12  and  C_13 
REMARK       I    between atoms: C_13  and  N_14 
REMARK    6  A    between atoms: N_14  and  C_15 
ROOT
HETATM    1  C   UNL     1      -6.670   4.672 -33.375  1.00  0.00     0.226 C 
HETATM    2  N   UNL     1      -5.508   4.065 -33.814  1.00  0.00    -0.326 N 
HETATM    3  O   UNL     1      -6.723   5.625 -32.600  1.00  0.00    -0.273 OA
HETATM    4  H   UNL     1      -5.604   3.151 -34.249  1.00  0.00     0.169 HD
ENDROOT
BRANCH   2   5
HETATM    5  C   UNL     1      -4.184   4.563 -33.688  1.00  0.00     0.050 A 
HETATM    6  C   UNL     1      -3.305   3.994 -32.745  1.00  0.00     0.058 A 
HETATM    7  C   UNL     1      -1.954   4.369 -32.699  1.00  0.00     0.019 A 
HETATM    8  C   UNL     1      -1.471   5.343 -33.568  1.00  0.00     0.001 A 
HETATM    9  C   UNL     1      -2.336   5.939 -34.480  1.00  0.00     0.002 A 
HETATM   10  C   UNL     1      -3.680   5.550 -34.543  1.00  0.00     0.030 A 
BRANCH   6  11
HETATM   11  C   UNL     1      -3.754   3.018 -31.722  1.00  0.00     0.254 C 
HETATM   12  N   UNL     1      -3.339   1.720 -31.940  1.00  0.00    -0.352 N 
HETATM   13  H   UNL     1      -2.869   1.501 -32.813  1.00  0.00     0.163 HD
HETATM   14  O   UNL     1      -4.462   3.383 -30.792  1.00  0.00    -0.268 OA
BRANCH  12  15
HETATM   15  C   UNL     1      -3.803   0.630 -31.142  1.00  0.00     0.084 A 
HETATM   16  C   UNL     1      -5.158   0.030 -31.392  1.00  0.00     0.027 A 
HETATM   17  C   UNL     1      -3.921  -0.750 -31.727  1.00  0.00     0.027 A 
ENDBRANCH  12  15
ENDBRANCH   6  11
ENDBRANCH   2   5
BRANCH   1  18
HETATM   18  C   UNL     1      -7.942   4.125 -34.003  1.00  0.00     0.144 C 
BRANCH  18  19
HETATM   19  C   UNL     1      -8.352   2.778 -33.516  1.00  0.00    -0.014 A 
HETATM   20  C   UNL     1      -7.885   1.505 -33.968  1.00  0.00     0.006 A 
HETATM   21  C   UNL     1      -8.478   0.563 -33.137  1.00  0.00     0.088 A 
HETATM   22  C   UNL     1      -7.011   1.050 -34.970  1.00  0.00     0.017 A 
HETATM   23  C   UNL     1      -8.242  -0.809 -33.197  1.00  0.00     0.074 A 
HETATM   24  O   UNL     1      -9.306   1.175 -32.247  1.00  0.00    -0.321 OA
HETATM   25  C   UNL     1      -7.336  -1.238 -34.171  1.00  0.00     0.070 A 
HETATM   26  C   UNL     1      -6.757  -0.326 -35.062  1.00  0.00     0.038 A 
HETATM   27  C   UNL     1      -9.220   2.507 -32.475  1.00  0.00     0.151 A 
BRANCH  25  28
HETATM   28  O   UNL     1      -6.965  -2.545 -34.358  1.00  0.00    -0.356 OA
HETATM   29  C   UNL     1      -5.597  -2.740 -34.707  1.00  0.00     0.210 C 
ENDBRANCH  25  28
ENDBRANCH  18  19
ENDBRANCH   1  18
TORSDOF 6
ENDMDL
MODEL 7
REMARK VINA RESULT:      -7.6      2.724      4.784
REMARK  6 active torsions:
REMARK  status: ('A' for Active; 'I' for Inactive)
REMARK    1  A    between atoms: O_2  and  C_3 
REMARK    2  A    between atoms: C_7  and  C_8 
REMARK    3  A    between atoms: C_8  and  C_9 
REMARK       I    between atoms: C_9  and  N_10 
REMARK    4  A    between atoms: N_10  and  C_11 
REMARK    5  A    between atoms: C_12  and  C_13 
REMARK       I    between atoms: C_13  and  N_14 
REMARK    6  A    between atoms: N_14  and  C_15 
ROOT
HETATM    1  C   UNL     1      -6.446   3.653 -33.141  1.00  0.00     0.226 C 
HETATM    2  N   UNL     1      -6.776   2.720 -34.106  1.00  0.00    -0.326 N 
HETATM    3  O   UNL     1      -6.415   3.441 -31.931  1.00  0.00    -0.273 OA
HETATM    4  H   UNL     1      -7.001   3.077 -35.031  1.00  0.00     0.169 HD
ENDROOT
BRANCH   2   5
HETATM    5  C   UNL     1      -6.874   1.313 -33.937  1.00  0.00     0.050 A 
HETATM    6  C   UNL     1      -8.133   0.683 -34.001  1.00  0.00     0.058 A 
HETATM    7  C   UNL     1      -8.242  -0.716 -33.979  1.00  0.00     0.019 A 
HETATM    8  C   UNL     1      -7.100  -1.502 -33.857  1.00  0.00     0.001 A 
HETATM    9  C   UNL     1      -5.854  -0.892 -33.756  1.00  0.00     0.002 A 
HETATM   10  C   UNL     1      -5.741   0.503 -33.800  1.00  0.00     0.030 A 
BRANCH   6  11
HETATM   11  C   UNL     1      -9.406   1.444 -34.039  1.00  0.00     0.254 C 
HETATM   12  N   UNL     1     -10.496   0.773 -33.522  1.00  0.00    -0.352 N 
HETATM   13  H   UNL     1     -10.388  -0.203 -33.265  1.00  0.00     0.163 HD
HETATM   14  O   UNL     1      -9.438   2.566 -34.529  1.00  0.00    -0.268 OA
BRANCH  12  15
HETATM   15  C   UNL     1     -11.822   1.294 -33.616  1.00  0.00     0.084 A 
HETATM   16  C   UNL     1     -12.587   1.191 -34.907  1.00  0.00     0.027 A 
HETATM   17  C   UNL     1     -13.002   0.367 -33.723  1.00  0.00     0.027 A 
ENDBRANCH  12  15
ENDBRANCH   6  11
ENDBRANCH   2   5
BRANCH   1  18
HETATM   18  C   UNL     1      -6.018   5.004 -33.691  1.00  0.00     0.144 C 
BRANCH  18  19
HETATM   19  C   UNL     1      -4.564   5.125 -33.995  1.00  0.00    -0.014 A 
HETATM   20  C   UNL     1      -3.475   5.135 -33.070  1.00  0.00     0.006 A 
HETATM   21  C   UNL     1      -2.319   5.155 -33.841  1.00  0.00     0.088 A 
HETATM   22  C   UNL     1      -3.340   5.105 -31.672  1.00  0.00     0.017 A 
HETATM   23  C   UNL     1      -1.023   5.111 -33.329  1.00  0.00     0.074 A 
HETATM   24  O   UNL     1      -2.636   5.207 -35.163  1.00  0.00    -0.321 OA
HETATM   25  C   UNL     1      -0.911   5.037 -31.938  1.00  0.00     0.070 A 
HETATM   26  C   UNL     1      -2.049   5.067 -31.125  1.00  0.00     0.038 A 
HETATM   27  C   UNL     1      -3.988   5.180 -35.250  1.00  0.00     0.151 A 
BRANCH  25  28
HETATM   28  O   UNL     1       0.282   4.961 -31.265  1.00  0.00    -0.356 OA
HETATM   29  C   UNL     1       0.247   5.437 -29.921  1.00  0.00     0.210 C 
ENDBRANCH  25  28
ENDBRANCH  18  19
ENDBRANCH   1  18
TORSDOF 6
ENDMDL
MODEL 8
REMARK VINA RESULT:      -7.6      3.017      6.469
REMARK  6 active torsions:
REMARK  status: ('A' for Active; 'I' for Inactive)
REMARK    1  A    between atoms: O_2  and  C_3 
REMARK    2  A    between atoms: C_7  and  C_8 
REMARK    3  A    between atoms: C_8  and  C_9 
REMARK       I    between atoms: C_9  and  N_10 
REMARK    4  A    between atoms: N_10  and  C_11 
REMARK    5  A    between atoms: C_12  and  C_13 
REMARK       I    between atoms: C_13  and  N_14 
REMARK    6  A    between atoms: N_14  and  C_15 
ROOT
HETATM    1  C   UNL     1      -7.831   1.166 -34.015  1.00  0.00     0.226 C 
HETATM    2  N   UNL     1      -7.341   1.800 -32.888  1.00  0.00    -0.326 N 
HETATM    3  O   UNL     1      -7.221   1.028 -35.073  1.00  0.00    -0.273 OA
HETATM    4  H   UNL     1      -8.020   2.060 -32.177  1.00  0.00     0.169 HD
ENDROOT
BRANCH   2   5
HETATM    5  C   UNL     1      -5.993   2.165 -32.631  1.00  0.00     0.050 A 
HETATM    6  C   UNL     1      -4.999   1.171 -32.539  1.00  0.00     0.058 A 
HETATM    7  C   UNL     1      -3.643   1.514 -32.428  1.00  0.00     0.019 A 
HETATM    8  C   UNL     1      -3.265   2.852 -32.370  1.00  0.00     0.001 A 
HETATM    9  C   UNL     1      -4.239   3.844 -32.422  1.00  0.00     0.002 A 
HETATM   10  C   UNL     1      -5.591   3.505 -32.556  1.00  0.00     0.030 A 
BRANCH   6  11
HETATM   11  C   UNL     1      -5.320  -0.277 -32.500  1.00  0.00     0.254 C 
HETATM   12  N   UNL     1      -5.012  -0.968 -33.655  1.00  0.00    -0.352 N 
HETATM   13  H   UNL     1      -4.707  -0.442 -34.468  1.00  0.00     0.163 HD
HETATM   14  O   UNL     1      -5.842  -0.766 -31.507  1.00  0.00    -0.268 OA
BRANCH  12  15
HETATM   15  C   UNL     1      -5.390  -2.331 -33.847  1.00  0.00     0.084 A 
HETATM   16  C   UNL     1      -6.696  -2.670 -34.511  1.00  0.00     0.027 A 
HETATM   17  C   UNL     1      -5.403  -2.935 -35.225  1.00  0.00     0.027 A 
ENDBRANCH  12  15
ENDBRANCH   6  11
ENDBRANCH   2   5
BRANCH   1  18
HETATM   18  C   UNL     1      -9.205   0.540 -33.838  1.00  0.00     0.144 C 
BRANCH  18  19
HETATM   19  C   UNL     1     -10.341   1.504 -33.858  1.00  0.00    -0.014 A 
HETATM   20  C   UNL     1     -11.737   1.215 -33.761  1.00  0.00     0.006 A 
HETATM   21  C   UNL     1     -12.381   2.445 -33.716  1.00  0.00     0.088 A 
HETATM   22  C   UNL     1     -12.521   0.052 -33.682  1.00  0.00     0.017 A 
HETATM   23  C   UNL     1     -13.755   2.616 -33.561  1.00  0.00     0.074 A 
HETATM   24  O   UNL     1     -11.475   3.455 -33.828  1.00  0.00    -0.321 OA
HETATM   25  C   UNL     1     -14.513   1.449 -33.440  1.00  0.00     0.070 A 
HETATM   26  C   UNL     1     -13.909   0.190 -33.532  1.00  0.00     0.038 A 
HETATM   27  C   UNL     1     -10.249   2.883 -33.905  1.00  0.00     0.151 A 
BRANCH  25  28
HETATM   28  O   UNL     1     -15.872   1.428 -33.256  1.00  0.00    -0.356 OA
HETATM   29  C   UNL     1     -16.366   2.363 -32.299  1.00  0.00     0.210 C 
ENDBRANCH  25  28
ENDBRANCH  18  19
ENDBRANCH   1  18
TORSDOF 6
ENDMDL
MODEL 9
REMARK VINA RESULT:      -7.4      3.899      6.353
REMARK  6 active torsions:
REMARK  status: ('A' for Active; 'I' for Inactive)
REMARK    1  A    between atoms: O_2  and  C_3 
REMARK    2  A    between atoms: C_7  and  C_8 
REMARK    3  A    between atoms: C_8  and  C_9 
REMARK       I    between atoms: C_9  and  N_10 
REMARK    4  A    between atoms: N_10  and  C_11 
REMARK    5  A    between atoms: C_12  and  C_13 
REMARK       I    between atoms: C_13  and  N_14 
REMARK    6  A    between atoms: N_14  and  C_15 
ROOT
HETATM    1  C   UNL     1      -9.659   1.026 -34.219  1.00  0.00     0.226 C 
HETATM    2  N   UNL     1      -8.491   0.857 -34.941  1.00  0.00    -0.326 N 
HETATM    3  O   UNL     1      -9.964   0.397 -33.208  1.00  0.00    -0.273 OA
HETATM    4  H   UNL     1      -8.469   1.254 -35.876  1.00  0.00     0.169 HD
ENDROOT
BRANCH   2   5
HETATM    5  C   UNL     1      -7.328   0.152 -34.532  1.00  0.00     0.050 A 
HETATM    6  C   UNL     1      -6.441   0.734 -33.605  1.00  0.00     0.058 A 
HETATM    7  C   UNL     1      -5.365   0.004 -33.080  1.00  0.00     0.019 A 
HETATM    8  C   UNL     1      -5.138  -1.303 -33.499  1.00  0.00     0.001 A 
HETATM    9  C   UNL     1      -5.984  -1.878 -34.442  1.00  0.00     0.002 A 
HETATM   10  C   UNL     1      -7.072  -1.159 -34.952  1.00  0.00     0.030 A 
BRANCH   6  11
HETATM   11  C   UNL     1      -6.554   2.149 -33.173  1.00  0.00     0.254 C 
HETATM   12  N   UNL     1      -6.671   2.329 -31.809  1.00  0.00    -0.352 N 
HETATM   13  H   UNL     1      -6.787   1.510 -31.220  1.00  0.00     0.163 HD
HETATM   14  O   UNL     1      -6.564   3.048 -34.003  1.00  0.00    -0.268 OA
BRANCH  12  15
HETATM   15  C   UNL     1      -6.940   3.607 -31.232  1.00  0.00     0.084 A 
HETATM   16  C   UNL     1      -8.149   3.807 -30.361  1.00  0.00     0.027 A 
HETATM   17  C   UNL     1      -6.777   3.828 -29.754  1.00  0.00     0.027 A 
ENDBRANCH  12  15
ENDBRANCH   6  11
ENDBRANCH   2   5
BRANCH   1  18
HETATM   18  C   UNL     1     -10.552   2.150 -34.719  1.00  0.00     0.144 C 
BRANCH  18  19
HETATM   19  C   UNL     1     -11.424   2.767 -33.680  1.00  0.00    -0.014 A 
HETATM   20  C   UNL     1     -12.790   2.462 -33.390  1.00  0.00     0.006 A 
HETATM   21  C   UNL     1     -13.122   3.220 -32.274  1.00  0.00     0.088 A 
HETATM   22  C   UNL     1     -13.770   1.613 -33.932  1.00  0.00     0.017 A 
HETATM   23  C   UNL     1     -14.353   3.176 -31.623  1.00  0.00     0.074 A 
HETATM   24  O   UNL     1     -12.068   3.996 -31.901  1.00  0.00    -0.321 OA
HETATM   25  C   UNL     1     -15.300   2.293 -32.151  1.00  0.00     0.070 A 
HETATM   26  C   UNL     1     -15.022   1.551 -33.304  1.00  0.00     0.038 A 
HETATM   27  C   UNL     1     -11.047   3.713 -32.746  1.00  0.00     0.151 A 
BRANCH  25  28
HETATM   28  O   UNL     1     -16.552   2.101 -31.625  1.00  0.00    -0.356 OA
HETATM   29  C   UNL     1     -17.591   2.846 -32.256  1.00  0.00     0.210 C 
ENDBRANCH  25  28
ENDBRANCH  18  19
ENDBRANCH   1  18
TORSDOF 6
ENDMDL
MODEL 10
REMARK VINA RESULT:      -7.4     14.454     16.663
REMARK  6 active torsions:
REMARK  status: ('A' for Active; 'I' for Inactive)
REMARK    1  A    between atoms: O_2  and  C_3 
REMARK    2  A    between atoms: C_7  and  C_8 
REMARK    3  A    between atoms: C_8  and  C_9 
REMARK       I    between atoms: C_9  and  N_10 
REMARK    4  A    between atoms: N_10  and  C_11 
REMARK    5  A    between atoms: C_12  and  C_13 
REMARK       I    between atoms: C_13  and  N_14 
REMARK    6  A    between atoms: N_14  and  C_15 
ROOT
HETATM    1  C   UNL     1      -4.419 -13.351 -38.572  1.00  0.00     0.226 C 
HETATM    2  N   UNL     1      -5.490 -12.512 -38.327  1.00  0.00    -0.326 N 
HETATM    3  O   UNL     1      -4.500 -14.495 -39.014  1.00  0.00    -0.273 OA
HETATM    4  H   UNL     1      -5.312 -11.700 -37.742  1.00  0.00     0.169 HD
ENDROOT
BRANCH   2   5
HETATM    5  C   UNL     1      -6.828 -12.683 -38.771  1.00  0.00     0.050 A 
HETATM    6  C   UNL     1      -7.771 -13.316 -37.937  1.00  0.00     0.058 A 
HETATM    7  C   UNL     1      -9.128 -13.369 -38.292  1.00  0.00     0.019 A 
HETATM    8  C   UNL     1      -9.555 -12.825 -39.499  1.00  0.00     0.001 A 
HETATM    9  C   UNL     1      -8.628 -12.229 -40.349  1.00  0.00     0.002 A 
HETATM   10  C   UNL     1      -7.278 -12.154 -39.987  1.00  0.00     0.030 A 
BRANCH   6  11
HETATM   11  C   UNL     1      -7.390 -14.002 -36.678  1.00  0.00     0.254 C 
HETATM   12  N   UNL     1      -7.185 -13.163 -35.602  1.00  0.00    -0.352 N 
HETATM   13  H   UNL     1      -7.192 -12.160 -35.760  1.00  0.00     0.163 HD
HETATM   14  O   UNL     1      -7.254 -15.219 -36.657  1.00  0.00    -0.268 OA
BRANCH  12  15
HETATM   15  C   UNL     1      -6.669 -13.637 -34.358  1.00  0.00     0.084 A 
HETATM   16  C   UNL     1      -5.219 -14.017 -34.234  1.00  0.00     0.027 A 
HETATM   17  C   UNL     1      -5.732 -12.786 -33.545  1.00  0.00     0.027 A 
ENDBRANCH  12  15
ENDBRANCH   6  11
ENDBRANCH   2   5
BRANCH   1  18
HETATM   18  C   UNL     1      -3.056 -12.719 -38.335  1.00  0.00     0.144 C 
BRANCH  18  19
HETATM   19  C   UNL     1      -2.036 -13.632 -37.748  1.00  0.00    -0.014 A 
HETATM   20  C   UNL     1      -0.913 -14.226 -38.403  1.00  0.00     0.006 A 
HETATM   21  C   UNL     1      -0.206 -14.899 -37.414  1.00  0.00     0.088 A 
HETATM   22  C   UNL     1      -0.405 -14.247 -39.713  1.00  0.00     0.017 A 
HETATM   23  C   UNL     1       0.998 -15.570 -37.617  1.00  0.00     0.074 A 
HETATM   24  O   UNL     1      -0.850 -14.794 -36.220  1.00  0.00    -0.321 OA
HETATM   25  C   UNL     1       1.509 -15.543 -38.918  1.00  0.00     0.070 A 
HETATM   26  C   UNL     1       0.802 -14.920 -39.952  1.00  0.00     0.038 A 
HETATM   27  C   UNL     1      -1.946 -14.024 -36.426  1.00  0.00     0.151 A 
BRANCH  25  28
HETATM   28  O   UNL     1       2.692 -16.127 -39.294  1.00  0.00    -0.356 OA
HETATM   29  C   UNL     1       2.817 -17.507 -38.955  1.00  0.00     0.210 C 
ENDBRANCH  25  28
ENDBRANCH  18  19
ENDBRANCH   1  18
TORSDOF 6
ENDMDL
