MODEL 1
REMARK VINA RESULT:     -10.1      0.000      0.000
REMARK  6 active torsions:
REMARK  status: ('A' for Active; 'I' for Inactive)
REMARK    1  A    between atoms: C_4  and  C_5 
REMARK    2  A    between atoms: C_7  and  N_8 
REMARK    3  A    between atoms: N_11  and  C_13 
REMARK    4  A    between atoms: C_13  and  C_14 
REMARK       I    between atoms: C_14  and  N_15 
REMARK    5  A    between atoms: N_15  and  N_16 
REMARK       I    between atoms: N_16  and  C_17 
REMARK    6  A    between atoms: C_17  and  C_18 
ROOT
HETATM    1  N   UNL     1      -5.805   2.143 -32.333  1.00  0.00    -0.357 N 
HETATM    2  C   UNL     1      -5.979   3.565 -32.667  1.00  0.00     0.152 C 
HETATM    3  C   UNL     1      -4.739   4.090 -33.424  1.00  0.00     0.255 C 
HETATM    4  N   UNL     1      -3.475   3.828 -32.596  1.00  0.00    -0.060 N 
HETATM    5  H   UNL     1      -3.608   4.352 -31.715  1.00  0.00     0.280 HD
HETATM    6  C   UNL     1      -3.335   2.345 -32.255  1.00  0.00     0.255 C 
HETATM    7  C   UNL     1      -4.605   1.854 -31.528  1.00  0.00     0.152 C 
ENDROOT
BRANCH   4   8
HETATM    8  C   UNL     1      -2.222   4.431 -33.224  1.00  0.00     0.338 C 
BRANCH   8   9
HETATM    9  C   UNL     1      -1.486   5.322 -32.218  1.00  0.00     0.262 C 
HETATM   10  N   UNL     1      -1.772   5.067 -30.895  1.00  0.00    -0.266 N 
HETATM   11  H   UNL     1      -2.199   4.178 -30.617  1.00  0.00     0.190 HD
HETATM   12  O   UNL     1      -0.711   6.196 -32.613  1.00  0.00    -0.270 OA
BRANCH  10  13
HETATM   13  N   UNL     1      -0.850   5.532 -29.936  1.00  0.00    -0.263 N 
HETATM   14  C   UNL     1      -1.224   6.658 -29.226  1.00  0.00     0.270 C 
HETATM   15  O   UNL     1      -2.319   7.184 -29.422  1.00  0.00    -0.266 OA
HETATM   16  H   UNL     1       0.069   5.096 -29.897  1.00  0.00     0.190 HD
BRANCH  14  17
HETATM   17  C   UNL     1      -0.255   7.221 -28.248  1.00  0.00     0.033 A 
HETATM   18  C   UNL     1       0.789   8.075 -28.624  1.00  0.00     0.018 A 
HETATM   19  C   UNL     1       1.677   8.563 -27.657  1.00  0.00     0.020 A 
HETATM   20  C   UNL     1       1.523   8.195 -26.320  1.00  0.00     0.011 A 
HETATM   21 BR   UNL     1       2.726   8.852 -25.022  1.00  0.00    -0.051 Br
HETATM   22  C   UNL     1       0.492   7.340 -25.938  1.00  0.00     0.020 A 
HETATM   23  C   UNL     1      -0.394   6.850 -26.902  1.00  0.00     0.018 A 
ENDBRANCH  14  17
ENDBRANCH  10  13
ENDBRANCH   8   9
ENDBRANCH   4   8
BRANCH   1  24
HETATM   24  C   UNL     1      -6.217   1.167 -33.203  1.00  0.00     0.169 A 
HETATM   25  N   UNL     1      -5.635  -0.011 -33.276  1.00  0.00    -0.223 NA
HETATM   26  C   UNL     1      -6.298  -0.851 -34.166  1.00  0.00     0.076 A 
HETATM   27  C   UNL     1      -7.367  -0.265 -34.812  1.00  0.00     0.085 A 
HETATM   28  S   UNL     1      -7.556   1.347 -34.285  1.00  0.00    -0.062 SA
BRANCH  26  29
HETATM   29  C   UNL     1      -5.900  -2.244 -34.341  1.00  0.00    -0.007 A 
HETATM   30  C   UNL     1      -4.599  -2.639 -33.998  1.00  0.00     0.014 A 
HETATM   31  C   UNL     1      -4.201  -3.973 -34.121  1.00  0.00     0.001 A 
HETATM   32  C   UNL     1      -5.097  -4.927 -34.595  1.00  0.00     0.000 A 
HETATM   33  C   UNL     1      -6.390  -4.549 -34.951  1.00  0.00     0.001 A 
HETATM   34  C   UNL     1      -6.790  -3.215 -34.828  1.00  0.00     0.014 A 
ENDBRANCH  26  29
ENDBRANCH   1  24
TORSDOF 6
ENDMDL
MODEL 2
REMARK VINA RESULT:      -9.6      1.306      1.773
REMARK  6 active torsions:
REMARK  status: ('A' for Active; 'I' for Inactive)
REMARK    1  A    between atoms: C_4  and  C_5 
REMARK    2  A    between atoms: C_7  and  N_8 
REMARK    3  A    between atoms: N_11  and  C_13 
REMARK    4  A    between atoms: C_13  and  C_14 
REMARK       I    between atoms: C_14  and  N_15 
REMARK    5  A    between atoms: N_15  and  N_16 
REMARK       I    between atoms: N_16  and  C_17 
REMARK    6  A    between atoms: C_17  and  C_18 
ROOT
HETATM    1  N   UNL     1      -7.344   2.048 -32.214  1.00  0.00    -0.357 N 
HETATM    2  C   UNL     1      -7.777   3.423 -32.507  1.00  0.00     0.152 C 
HETATM    3  C   UNL     1      -6.563   4.290 -32.910  1.00  0.00     0.255 C 
HETATM    4  N   UNL     1      -5.493   4.228 -31.812  1.00  0.00    -0.060 N 
HETATM    5  H   UNL     1      -5.944   4.612 -30.965  1.00  0.00     0.280 HD
HETATM    6  C   UNL     1      -5.079   2.786 -31.523  1.00  0.00     0.255 C 
HETATM    7  C   UNL     1      -6.323   1.949 -31.155  1.00  0.00     0.152 C 
ENDROOT
BRANCH   4   8
HETATM    8  C   UNL     1      -4.315   5.159 -32.083  1.00  0.00     0.338 C 
BRANCH   8   9
HETATM    9  C   UNL     1      -3.796   5.771 -30.778  1.00  0.00     0.262 C 
HETATM   10  N   UNL     1      -2.476   5.498 -30.492  1.00  0.00    -0.266 N 
HETATM   11  H   UNL     1      -1.841   5.175 -31.227  1.00  0.00     0.190 HD
HETATM   12  O   UNL     1      -4.544   6.444 -30.066  1.00  0.00    -0.270 OA
BRANCH  10  13
HETATM   13  N   UNL     1      -1.829   6.346 -29.571  1.00  0.00    -0.263 N 
HETATM   14  C   UNL     1      -0.488   6.090 -29.344  1.00  0.00     0.270 C 
HETATM   15  O   UNL     1       0.085   5.185 -29.950  1.00  0.00    -0.266 OA
HETATM   16  H   UNL     1      -2.392   7.012 -29.047  1.00  0.00     0.190 HD
BRANCH  14  17
HETATM   17  C   UNL     1       0.220   6.919 -28.333  1.00  0.00     0.033 A 
HETATM   18  C   UNL     1       1.015   8.019 -28.680  1.00  0.00     0.018 A 
HETATM   19  C   UNL     1       1.667   8.754 -27.683  1.00  0.00     0.020 A 
HETATM   20  C   UNL     1       1.529   8.387 -26.343  1.00  0.00     0.011 A 
HETATM   21 BR   UNL     1       2.415   9.378 -25.003  1.00  0.00    -0.051 Br
HETATM   22  C   UNL     1       0.748   7.289 -25.990  1.00  0.00     0.020 A 
HETATM   23  C   UNL     1       0.097   6.553 -26.984  1.00  0.00     0.018 A 
ENDBRANCH  14  17
ENDBRANCH  10  13
ENDBRANCH   8   9
ENDBRANCH   4   8
BRANCH   1  24
HETATM   24  C   UNL     1      -7.299   1.104 -33.207  1.00  0.00     0.169 A 
HETATM   25  N   UNL     1      -6.559   0.019 -33.124  1.00  0.00    -0.223 NA
HETATM   26  C   UNL     1      -6.763  -0.820 -34.214  1.00  0.00     0.076 A 
HETATM   27  C   UNL     1      -7.636  -0.322 -35.160  1.00  0.00     0.085 A 
HETATM   28  S   UNL     1      -8.222   1.203 -34.668  1.00  0.00    -0.062 SA
BRANCH  26  29
HETATM   29  C   UNL     1      -6.129  -2.132 -34.297  1.00  0.00    -0.007 A 
HETATM   30  C   UNL     1      -6.871  -3.230 -34.757  1.00  0.00     0.014 A 
HETATM   31  C   UNL     1      -6.280  -4.491 -34.882  1.00  0.00     0.001 A 
HETATM   32  C   UNL     1      -4.942  -4.670 -34.541  1.00  0.00     0.000 A 
HETATM   33  C   UNL     1      -4.194  -3.592 -34.072  1.00  0.00     0.001 A 
HETATM   34  C   UNL     1      -4.784  -2.330 -33.948  1.00  0.00     0.014 A 
ENDBRANCH  26  29
ENDBRANCH   1  24
TORSDOF 6
ENDMDL
MODEL 3
REMARK VINA RESULT:      -9.5      5.103      9.634
REMARK  6 active torsions:
REMARK  status: ('A' for Active; 'I' for Inactive)
REMARK    1  A    between atoms: C_4  and  C_5 
REMARK    2  A    between atoms: C_7  and  N_8 
REMARK    3  A    between atoms: N_11  and  C_13 
REMARK    4  A    between atoms: C_13  and  C_14 
REMARK       I    between atoms: C_14  and  N_15 
REMARK    5  A    between atoms: N_15  and  N_16 
REMARK       I    between atoms: N_16  and  C_17 
REMARK    6  A    between atoms: C_17  and  C_18 
ROOT
HETATM    1  N   UNL     1      -7.804   4.265 -30.922  1.00  0.00    -0.357 N 
HETATM    2  C   UNL     1      -8.788   3.311 -30.390  1.00  0.00     0.152 C 
HETATM    3  C   UNL     1      -9.497   2.575 -31.548  1.00  0.00     0.255 C 
HETATM    4  N   UNL     1     -10.123   3.595 -32.508  1.00  0.00    -0.060 N 
HETATM    5  H   UNL     1     -10.809   4.122 -31.942  1.00  0.00     0.280 HD
HETATM    6  C   UNL     1      -9.076   4.579 -33.028  1.00  0.00     0.255 C 
HETATM    7  C   UNL     1      -8.372   5.269 -31.841  1.00  0.00     0.152 C 
ENDROOT
BRANCH   4   8
HETATM    8  C   UNL     1     -10.947   2.941 -33.612  1.00  0.00     0.338 C 
BRANCH   8   9
HETATM    9  C   UNL     1     -10.426   1.532 -33.915  1.00  0.00     0.262 C 
HETATM   10  N   UNL     1      -9.261   1.488 -34.649  1.00  0.00    -0.266 N 
HETATM   11  H   UNL     1      -8.658   2.313 -34.717  1.00  0.00     0.190 HD
HETATM   12  O   UNL     1     -11.044   0.542 -33.519  1.00  0.00    -0.270 OA
BRANCH  10  13
HETATM   13  N   UNL     1      -8.516   0.293 -34.601  1.00  0.00    -0.263 N 
HETATM   14  C   UNL     1      -7.217   0.402 -34.135  1.00  0.00     0.270 C 
HETATM   15  O   UNL     1      -6.779   1.489 -33.762  1.00  0.00    -0.266 OA
HETATM   16  H   UNL     1      -8.920  -0.547 -35.010  1.00  0.00     0.190 HD
BRANCH  14  17
HETATM   17  C   UNL     1      -6.373  -0.822 -34.126  1.00  0.00     0.033 A 
HETATM   18  C   UNL     1      -6.766  -2.017 -34.743  1.00  0.00     0.018 A 
HETATM   19  C   UNL     1      -5.932  -3.139 -34.689  1.00  0.00     0.020 A 
HETATM   20  C   UNL     1      -4.710  -3.069 -34.018  1.00  0.00     0.011 A 
HETATM   21 BR   UNL     1      -3.591  -4.588 -33.945  1.00  0.00    -0.051 Br
HETATM   22  C   UNL     1      -4.315  -1.888 -33.394  1.00  0.00     0.020 A 
HETATM   23  C   UNL     1      -5.147  -0.767 -33.445  1.00  0.00     0.018 A 
ENDBRANCH  14  17
ENDBRANCH  10  13
ENDBRANCH   8   9
ENDBRANCH   4   8
BRANCH   1  24
HETATM   24  C   UNL     1      -6.510   3.877 -31.153  1.00  0.00     0.169 A 
HETATM   25  N   UNL     1      -5.729   4.486 -32.020  1.00  0.00    -0.223 NA
HETATM   26  C   UNL     1      -4.440   3.963 -31.998  1.00  0.00     0.076 A 
HETATM   27  C   UNL     1      -4.272   2.901 -31.133  1.00  0.00     0.085 A 
HETATM   28  S   UNL     1      -5.737   2.569 -30.324  1.00  0.00    -0.062 SA
BRANCH  26  29
HETATM   29  C   UNL     1      -3.367   4.542 -32.799  1.00  0.00    -0.007 A 
HETATM   30  C   UNL     1      -2.102   4.734 -32.224  1.00  0.00     0.014 A 
HETATM   31  C   UNL     1      -1.045   5.253 -32.978  1.00  0.00     0.001 A 
HETATM   32  C   UNL     1      -1.242   5.594 -34.314  1.00  0.00     0.000 A 
HETATM   33  C   UNL     1      -2.496   5.420 -34.896  1.00  0.00     0.001 A 
HETATM   34  C   UNL     1      -3.554   4.900 -34.144  1.00  0.00     0.014 A 
ENDBRANCH  26  29
ENDBRANCH   1  24
TORSDOF 6
ENDMDL
MODEL 4
REMARK VINA RESULT:      -9.0      4.377     11.124
REMARK  6 active torsions:
REMARK  status: ('A' for Active; 'I' for Inactive)
REMARK    1  A    between atoms: C_4  and  C_5 
REMARK    2  A    between atoms: C_7  and  N_8 
REMARK    3  A    between atoms: N_11  and  C_13 
REMARK    4  A    between atoms: C_13  and  C_14 
REMARK       I    between atoms: C_14  and  N_15 
REMARK    5  A    between atoms: N_15  and  N_16 
REMARK       I    between atoms: N_16  and  C_17 
REMARK    6  A    between atoms: C_17  and  C_18 
ROOT
HETATM    1  N   UNL     1      -1.311   7.266 -32.002  1.00  0.00    -0.357 N 
HETATM    2  C   UNL     1      -2.412   8.239 -31.953  1.00  0.00     0.152 C 
HETATM    3  C   UNL     1      -3.756   7.511 -31.729  1.00  0.00     0.255 C 
HETATM    4  N   UNL     1      -3.958   6.444 -32.813  1.00  0.00    -0.060 N 
HETATM    5  H   UNL     1      -3.973   6.960 -33.709  1.00  0.00     0.280 HD
HETATM    6  C   UNL     1      -2.788   5.461 -32.846  1.00  0.00     0.255 C 
HETATM    7  C   UNL     1      -1.465   6.231 -33.041  1.00  0.00     0.152 C 
ENDROOT
BRANCH   4   8
HETATM    8  C   UNL     1      -5.322   5.767 -32.730  1.00  0.00     0.338 C 
BRANCH   8   9
HETATM    9  C   UNL     1      -5.313   4.433 -33.482  1.00  0.00     0.262 C 
HETATM   10  N   UNL     1      -5.184   3.316 -32.685  1.00  0.00    -0.266 N 
HETATM   11  H   UNL     1      -5.379   3.369 -31.680  1.00  0.00     0.190 HD
HETATM   12  O   UNL     1      -5.407   4.410 -34.710  1.00  0.00    -0.270 OA
BRANCH  10  13
HETATM   13  N   UNL     1      -5.585   2.082 -33.235  1.00  0.00    -0.263 N 
HETATM   14  C   UNL     1      -4.903   0.965 -32.789  1.00  0.00     0.270 C 
HETATM   15  O   UNL     1      -4.021   1.072 -31.937  1.00  0.00    -0.266 OA
HETATM   16  H   UNL     1      -6.259   2.089 -33.998  1.00  0.00     0.190 HD
BRANCH  14  17
HETATM   17  C   UNL     1      -5.249  -0.351 -33.389  1.00  0.00     0.033 A 
HETATM   18  C   UNL     1      -4.290  -1.337 -33.655  1.00  0.00     0.018 A 
HETATM   19  C   UNL     1      -4.677  -2.552 -34.233  1.00  0.00     0.020 A 
HETATM   20  C   UNL     1      -6.018  -2.779 -34.546  1.00  0.00     0.011 A 
HETATM   21 BR   UNL     1      -6.534  -4.418 -35.330  1.00  0.00    -0.051 Br
HETATM   22  C   UNL     1      -6.977  -1.801 -34.293  1.00  0.00     0.020 A 
HETATM   23  C   UNL     1      -6.593  -0.587 -33.718  1.00  0.00     0.018 A 
ENDBRANCH  14  17
ENDBRANCH  10  13
ENDBRANCH   8   9
ENDBRANCH   4   8
BRANCH   1  24
HETATM   24  C   UNL     1      -0.651   6.900 -30.858  1.00  0.00     0.169 A 
HETATM   25  N   UNL     1      -0.422   7.740 -29.870  1.00  0.00    -0.223 NA
HETATM   26  C   UNL     1       0.177   7.102 -28.789  1.00  0.00     0.076 A 
HETATM   27  C   UNL     1       0.452   5.766 -28.998  1.00  0.00     0.085 A 
HETATM   28  S   UNL     1      -0.065   5.300 -30.556  1.00  0.00    -0.062 SA
BRANCH  26  29
HETATM   29  C   UNL     1       0.436   7.804 -27.536  1.00  0.00    -0.007 A 
HETATM   30  C   UNL     1       1.755   8.127 -27.186  1.00  0.00     0.014 A 
HETATM   31  C   UNL     1       2.030   8.831 -26.009  1.00  0.00     0.001 A 
HETATM   32  C   UNL     1       0.990   9.214 -25.166  1.00  0.00     0.000 A 
HETATM   33  C   UNL     1      -0.325   8.891 -25.495  1.00  0.00     0.001 A 
HETATM   34  C   UNL     1      -0.601   8.187 -26.672  1.00  0.00     0.014 A 
ENDBRANCH  26  29
ENDBRANCH   1  24
TORSDOF 6
ENDMDL
MODEL 5
REMARK VINA RESULT:      -8.8      7.501     10.954
REMARK  6 active torsions:
REMARK  status: ('A' for Active; 'I' for Inactive)
REMARK    1  A    between atoms: C_4  and  C_5 
REMARK    2  A    between atoms: C_7  and  N_8 
REMARK    3  A    between atoms: N_11  and  C_13 
REMARK    4  A    between atoms: C_13  and  C_14 
REMARK       I    between atoms: C_14  and  N_15 
REMARK    5  A    between atoms: N_15  and  N_16 
REMARK       I    between atoms: N_16  and  C_17 
REMARK    6  A    between atoms: C_17  and  C_18 
ROOT
HETATM    1  N   UNL     1      -6.231   1.982 -31.912  1.00  0.00    -0.357 N 
HETATM    2  C   UNL     1      -7.454   1.693 -31.149  1.00  0.00     0.152 C 
HETATM    3  C   UNL     1      -8.479   0.960 -32.043  1.00  0.00     0.255 C 
HETATM    4  N   UNL     1      -8.752   1.786 -33.307  1.00  0.00    -0.060 N 
HETATM    5  H   UNL     1      -9.142   2.683 -32.972  1.00  0.00     0.280 HD
HETATM    6  C   UNL     1      -7.458   2.081 -34.065  1.00  0.00     0.255 C 
HETATM    7  C   UNL     1      -6.453   2.784 -33.129  1.00  0.00     0.152 C 
ENDROOT
BRANCH   4   8
HETATM    8  C   UNL     1      -9.848   1.185 -34.180  1.00  0.00     0.338 C 
BRANCH   8   9
HETATM    9  C   UNL     1     -11.145   1.991 -34.056  1.00  0.00     0.262 C 
HETATM   10  N   UNL     1     -12.045   1.506 -33.132  1.00  0.00    -0.266 N 
HETATM   11  H   UNL     1     -11.741   0.856 -32.401  1.00  0.00     0.190 HD
HETATM   12  O   UNL     1     -11.328   2.987 -34.758  1.00  0.00    -0.270 OA
BRANCH  10  13
HETATM   13  N   UNL     1     -13.032   2.398 -32.666  1.00  0.00    -0.263 N 
HETATM   14  C   UNL     1     -14.341   1.957 -32.749  1.00  0.00     0.270 C 
HETATM   15  O   UNL     1     -14.593   0.832 -33.181  1.00  0.00    -0.266 OA
HETATM   16  H   UNL     1     -12.750   3.341 -32.408  1.00  0.00     0.190 HD
BRANCH  14  17
HETATM   17  C   UNL     1     -15.420   2.889 -32.328  1.00  0.00     0.033 A 
HETATM   18  C   UNL     1     -15.171   4.215 -31.951  1.00  0.00     0.018 A 
HETATM   19  C   UNL     1     -16.229   5.040 -31.552  1.00  0.00     0.020 A 
HETATM   20  C   UNL     1     -17.532   4.540 -31.528  1.00  0.00     0.011 A 
HETATM   21 BR   UNL     1     -18.955   5.657 -30.984  1.00  0.00    -0.051 Br
HETATM   22  C   UNL     1     -17.789   3.221 -31.893  1.00  0.00     0.020 A 
HETATM   23  C   UNL     1     -16.733   2.395 -32.289  1.00  0.00     0.018 A 
ENDBRANCH  14  17
ENDBRANCH  10  13
ENDBRANCH   8   9
ENDBRANCH   4   8
BRANCH   1  24
HETATM   24  C   UNL     1      -5.200   1.079 -31.946  1.00  0.00     0.169 A 
HETATM   25  N   UNL     1      -5.360  -0.169 -32.334  1.00  0.00    -0.223 NA
HETATM   26  C   UNL     1      -4.148  -0.850 -32.368  1.00  0.00     0.076 A 
HETATM   27  C   UNL     1      -3.066  -0.107 -31.942  1.00  0.00     0.085 A 
HETATM   28  S   UNL     1      -3.569   1.467 -31.515  1.00  0.00    -0.062 SA
BRANCH  26  29
HETATM   29  C   UNL     1      -4.055  -2.220 -32.863  1.00  0.00    -0.007 A 
HETATM   30  C   UNL     1      -4.755  -2.583 -34.023  1.00  0.00     0.014 A 
HETATM   31  C   UNL     1      -4.657  -3.877 -34.542  1.00  0.00     0.001 A 
HETATM   32  C   UNL     1      -3.862  -4.826 -33.903  1.00  0.00     0.000 A 
HETATM   33  C   UNL     1      -3.169  -4.484 -32.743  1.00  0.00     0.001 A 
HETATM   34  C   UNL     1      -3.266  -3.189 -32.224  1.00  0.00     0.014 A 
ENDBRANCH  26  29
ENDBRANCH   1  24
TORSDOF 6
ENDMDL
MODEL 6
REMARK VINA RESULT:      -8.7      1.735      2.202
REMARK  6 active torsions:
REMARK  status: ('A' for Active; 'I' for Inactive)
REMARK    1  A    between atoms: C_4  and  C_5 
REMARK    2  A    between atoms: C_7  and  N_8 
REMARK    3  A    between atoms: N_11  and  C_13 
REMARK    4  A    between atoms: C_13  and  C_14 
REMARK       I    between atoms: C_14  and  N_15 
REMARK    5  A    between atoms: N_15  and  N_16 
REMARK       I    between atoms: N_16  and  C_17 
REMARK    6  A    between atoms: C_17  and  C_18 
ROOT
HETATM    1  N   UNL     1      -5.733   2.919 -32.385  1.00  0.00    -0.357 N 
HETATM    2  C   UNL     1      -5.644   3.789 -33.568  1.00  0.00     0.152 C 
HETATM    3  C   UNL     1      -4.371   4.662 -33.493  1.00  0.00     0.255 C 
HETATM    4  N   UNL     1      -4.357   5.450 -32.176  1.00  0.00    -0.060 N 
HETATM    5  H   UNL     1      -5.201   6.046 -32.202  1.00  0.00     0.280 HD
HETATM    6  C   UNL     1      -4.467   4.517 -30.972  1.00  0.00     0.255 C 
HETATM    7  C   UNL     1      -5.733   3.644 -31.101  1.00  0.00     0.152 C 
ENDROOT
BRANCH   4   8
HETATM    8  C   UNL     1      -3.191   6.429 -32.086  1.00  0.00     0.338 C 
BRANCH   8   9
HETATM    9  C   UNL     1      -2.980   6.890 -30.641  1.00  0.00     0.262 C 
HETATM   10  N   UNL     1      -1.874   6.359 -30.015  1.00  0.00    -0.266 N 
HETATM   11  H   UNL     1      -1.117   5.940 -30.564  1.00  0.00     0.190 HD
HETATM   12  O   UNL     1      -3.774   7.674 -30.116  1.00  0.00    -0.270 OA
BRANCH  10  13
HETATM   13  N   UNL     1      -1.388   7.038 -28.880  1.00  0.00    -0.263 N 
HETATM   14  C   UNL     1      -0.068   7.448 -28.933  1.00  0.00     0.270 C 
HETATM   15  O   UNL     1       0.608   7.243 -29.942  1.00  0.00    -0.266 OA
HETATM   16  H   UNL     1      -1.981   7.089 -28.055  1.00  0.00     0.190 HD
BRANCH  14  17
HETATM   17  C   UNL     1       0.507   8.113 -27.734  1.00  0.00     0.033 A 
HETATM   18  C   UNL     1       1.529   7.538 -26.968  1.00  0.00     0.018 A 
HETATM   19  C   UNL     1       2.020   8.209 -25.841  1.00  0.00     0.020 A 
HETATM   20  C   UNL     1       1.489   9.448 -25.480  1.00  0.00     0.011 A 
HETATM   21 BR   UNL     1       2.152  10.345 -23.956  1.00  0.00    -0.051 Br
HETATM   22  C   UNL     1       0.466  10.023 -26.231  1.00  0.00     0.020 A 
HETATM   23  C   UNL     1      -0.027   9.354 -27.355  1.00  0.00     0.018 A 
ENDBRANCH  14  17
ENDBRANCH  10  13
ENDBRANCH   8   9
ENDBRANCH   4   8
BRANCH   1  24
HETATM   24  C   UNL     1      -5.164   1.672 -32.392  1.00  0.00     0.169 A 
HETATM   25  N   UNL     1      -5.711   0.645 -33.007  1.00  0.00    -0.223 NA
HETATM   26  C   UNL     1      -4.893  -0.478 -32.945  1.00  0.00     0.076 A 
HETATM   27  C   UNL     1      -3.733  -0.299 -32.220  1.00  0.00     0.085 A 
HETATM   28  S   UNL     1      -3.657   1.300 -31.627  1.00  0.00    -0.062 SA
BRANCH  26  29
HETATM   29  C   UNL     1      -5.239  -1.714 -33.641  1.00  0.00    -0.007 A 
HETATM   30  C   UNL     1      -4.278  -2.728 -33.765  1.00  0.00     0.014 A 
HETATM   31  C   UNL     1      -4.592  -3.937 -34.395  1.00  0.00     0.001 A 
HETATM   32  C   UNL     1      -5.868  -4.142 -34.914  1.00  0.00     0.000 A 
HETATM   33  C   UNL     1      -6.830  -3.139 -34.808  1.00  0.00     0.001 A 
HETATM   34  C   UNL     1      -6.518  -1.931 -34.178  1.00  0.00     0.014 A 
ENDBRANCH  26  29
ENDBRANCH   1  24
TORSDOF 6
ENDMDL
MODEL 7
REMARK VINA RESULT:      -8.7      7.476     10.239
REMARK  6 active torsions:
REMARK  status: ('A' for Active; 'I' for Inactive)
REMARK    1  A    between atoms: C_4  and  C_5 
REMARK    2  A    between atoms: C_7  and  N_8 
REMARK    3  A    between atoms: N_11  and  C_13 
REMARK    4  A    between atoms: C_13  and  C_14 
REMARK       I    between atoms: C_14  and  N_15 
REMARK    5  A    between atoms: N_15  and  N_16 
REMARK       I    between atoms: N_16  and  C_17 
REMARK    6  A    between atoms: C_17  and  C_18 
ROOT
HETATM    1  N   UNL     1      -7.541   1.872 -32.465  1.00  0.00    -0.357 N 
HETATM    2  C   UNL     1      -8.534   1.592 -31.417  1.00  0.00     0.152 C 
HETATM    3  C   UNL     1      -9.726   0.807 -32.007  1.00  0.00     0.255 C 
HETATM    4  N   UNL     1     -10.320   1.577 -33.194  1.00  0.00    -0.060 N 
HETATM    5  H   UNL     1     -10.641   2.479 -32.805  1.00  0.00     0.280 HD
HETATM    6  C   UNL     1      -9.258   1.863 -34.255  1.00  0.00     0.255 C 
HETATM    7  C   UNL     1      -8.074   2.621 -33.617  1.00  0.00     0.152 C 
ENDROOT
BRANCH   4   8
HETATM    8  C   UNL     1     -11.580   0.922 -33.752  1.00  0.00     0.338 C 
BRANCH   8   9
HETATM    9  C   UNL     1     -12.364   1.909 -34.623  1.00  0.00     0.262 C 
HETATM   10  N   UNL     1     -12.760   3.063 -33.983  1.00  0.00    -0.266 N 
HETATM   11  H   UNL     1     -12.312   3.353 -33.108  1.00  0.00     0.190 HD
HETATM   12  O   UNL     1     -12.607   1.642 -35.801  1.00  0.00    -0.270 OA
BRANCH  10  13
HETATM   13  N   UNL     1     -13.095   4.166 -34.794  1.00  0.00    -0.263 N 
HETATM   14  C   UNL     1     -12.118   5.135 -34.939  1.00  0.00     0.270 C 
HETATM   15  O   UNL     1     -11.019   4.997 -34.402  1.00  0.00    -0.266 OA
HETATM   16  H   UNL     1     -14.052   4.249 -35.128  1.00  0.00     0.190 HD
BRANCH  14  17
HETATM   17  C   UNL     1     -12.448   6.347 -35.734  1.00  0.00     0.033 A 
HETATM   18  C   UNL     1     -11.608   7.467 -35.789  1.00  0.00     0.018 A 
HETATM   19  C   UNL     1     -11.981   8.584 -36.547  1.00  0.00     0.020 A 
HETATM   20  C   UNL     1     -13.191   8.583 -37.243  1.00  0.00     0.011 A 
HETATM   21 BR   UNL     1     -13.691  10.095 -38.258  1.00  0.00    -0.051 Br
HETATM   22  C   UNL     1     -14.036   7.477 -37.186  1.00  0.00     0.020 A 
HETATM   23  C   UNL     1     -13.667   6.362 -36.429  1.00  0.00     0.018 A 
ENDBRANCH  14  17
ENDBRANCH  10  13
ENDBRANCH   8   9
ENDBRANCH   4   8
BRANCH   1  24
HETATM   24  C   UNL     1      -6.526   0.986 -32.718  1.00  0.00     0.169 A 
HETATM   25  N   UNL     1      -6.744  -0.258 -33.088  1.00  0.00    -0.223 NA
HETATM   26  C   UNL     1      -5.553  -0.919 -33.373  1.00  0.00     0.076 A 
HETATM   27  C   UNL     1      -4.418  -0.165 -33.159  1.00  0.00     0.085 A 
HETATM   28  S   UNL     1      -4.847   1.394 -32.613  1.00  0.00    -0.062 SA
BRANCH  26  29
HETATM   29  C   UNL     1      -5.543  -2.280 -33.900  1.00  0.00    -0.007 A 
HETATM   30  C   UNL     1      -6.697  -2.792 -34.512  1.00  0.00     0.014 A 
HETATM   31  C   UNL     1      -6.706  -4.079 -35.059  1.00  0.00     0.001 A 
HETATM   32  C   UNL     1      -5.563  -4.871 -34.994  1.00  0.00     0.000 A 
HETATM   33  C   UNL     1      -4.412  -4.381 -34.379  1.00  0.00     0.001 A 
HETATM   34  C   UNL     1      -4.402  -3.094 -33.833  1.00  0.00     0.014 A 
ENDBRANCH  26  29
ENDBRANCH   1  24
TORSDOF 6
ENDMDL
MODEL 8
REMARK VINA RESULT:      -8.6      1.771      2.199
REMARK  6 active torsions:
REMARK  status: ('A' for Active; 'I' for Inactive)
REMARK    1  A    between atoms: C_4  and  C_5 
REMARK    2  A    between atoms: C_7  and  N_8 
REMARK    3  A    between atoms: N_11  and  C_13 
REMARK    4  A    between atoms: C_13  and  C_14 
REMARK       I    between atoms: C_14  and  N_15 
REMARK    5  A    between atoms: N_15  and  N_16 
REMARK       I    between atoms: N_16  and  C_17 
REMARK    6  A    between atoms: C_17  and  C_18 
ROOT
HETATM    1  N   UNL     1      -5.916   1.887 -32.253  1.00  0.00    -0.357 N 
HETATM    2  C   UNL     1      -6.694   2.546 -33.314  1.00  0.00     0.152 C 
HETATM    3  C   UNL     1      -5.814   3.575 -34.058  1.00  0.00     0.255 C 
HETATM    4  N   UNL     1      -5.218   4.571 -33.056  1.00  0.00    -0.060 N 
HETATM    5  H   UNL     1      -6.027   5.040 -32.617  1.00  0.00     0.280 HD
HETATM    6  C   UNL     1      -4.431   3.852 -31.962  1.00  0.00     0.255 C 
HETATM    7  C   UNL     1      -5.336   2.814 -31.265  1.00  0.00     0.152 C 
ENDROOT
BRANCH   4   8
HETATM    8  C   UNL     1      -4.436   5.693 -33.733  1.00  0.00     0.338 C 
BRANCH   8   9
HETATM    9  C   UNL     1      -3.297   6.181 -32.832  1.00  0.00     0.262 C 
HETATM   10  N   UNL     1      -3.693   6.931 -31.747  1.00  0.00    -0.266 N 
HETATM   11  H   UNL     1      -4.664   6.902 -31.421  1.00  0.00     0.190 HD
HETATM   12  O   UNL     1      -2.127   5.905 -33.104  1.00  0.00    -0.270 OA
BRANCH  10  13
HETATM   13  N   UNL     1      -2.782   7.046 -30.677  1.00  0.00    -0.263 N 
HETATM   14  C   UNL     1      -2.136   8.263 -30.554  1.00  0.00     0.270 C 
HETATM   15  O   UNL     1      -2.388   9.183 -31.332  1.00  0.00    -0.266 OA
HETATM   16  H   UNL     1      -2.565   6.213 -30.134  1.00  0.00     0.190 HD
BRANCH  14  17
HETATM   17  C   UNL     1      -1.120   8.410 -29.479  1.00  0.00     0.033 A 
HETATM   18  C   UNL     1       0.055   7.649 -29.441  1.00  0.00     0.018 A 
HETATM   19  C   UNL     1       0.969   7.824 -28.394  1.00  0.00     0.020 A 
HETATM   20  C   UNL     1       0.706   8.756 -27.388  1.00  0.00     0.011 A 
HETATM   21 BR   UNL     1       1.939   8.984 -25.976  1.00  0.00    -0.051 Br
HETATM   22  C   UNL     1      -0.464   9.511 -27.414  1.00  0.00     0.020 A 
HETATM   23  C   UNL     1      -1.378   9.336 -28.456  1.00  0.00     0.018 A 
ENDBRANCH  14  17
ENDBRANCH  10  13
ENDBRANCH   8   9
ENDBRANCH   4   8
BRANCH   1  24
HETATM   24  C   UNL     1      -5.211   0.740 -32.515  1.00  0.00     0.169 A 
HETATM   25  N   UNL     1      -5.774  -0.344 -33.005  1.00  0.00    -0.223 NA
HETATM   26  C   UNL     1      -4.831  -1.332 -33.268  1.00  0.00     0.076 A 
HETATM   27  C   UNL     1      -3.540  -0.995 -32.915  1.00  0.00     0.085 A 
HETATM   28  S   UNL     1      -3.506   0.583 -32.265  1.00  0.00    -0.062 SA
BRANCH  26  29
HETATM   29  C   UNL     1      -5.201  -2.589 -33.909  1.00  0.00    -0.007 A 
HETATM   30  C   UNL     1      -6.469  -2.719 -34.494  1.00  0.00     0.014 A 
HETATM   31  C   UNL     1      -6.838  -3.899 -35.147  1.00  0.00     0.001 A 
HETATM   32  C   UNL     1      -5.945  -4.966 -35.217  1.00  0.00     0.000 A 
HETATM   33  C   UNL     1      -4.686  -4.856 -34.631  1.00  0.00     0.001 A 
HETATM   34  C   UNL     1      -4.315  -3.676 -33.979  1.00  0.00     0.014 A 
ENDBRANCH  26  29
ENDBRANCH   1  24
TORSDOF 6
ENDMDL
MODEL 9
REMARK VINA RESULT:      -8.4      7.242     10.570
REMARK  6 active torsions:
REMARK  status: ('A' for Active; 'I' for Inactive)
REMARK    1  A    between atoms: C_4  and  C_5 
REMARK    2  A    between atoms: C_7  and  N_8 
REMARK    3  A    between atoms: N_11  and  C_13 
REMARK    4  A    between atoms: C_13  and  C_14 
REMARK       I    between atoms: C_14  and  N_15 
REMARK    5  A    between atoms: N_15  and  N_16 
REMARK       I    between atoms: N_16  and  C_17 
REMARK    6  A    between atoms: C_17  and  C_18 
ROOT
HETATM    1  N   UNL     1      -6.419   2.048 -33.590  1.00  0.00    -0.357 N 
HETATM    2  C   UNL     1      -6.061   3.348 -33.004  1.00  0.00     0.152 C 
HETATM    3  C   UNL     1      -6.726   3.510 -31.619  1.00  0.00     0.255 C 
HETATM    4  N   UNL     1      -8.243   3.316 -31.744  1.00  0.00    -0.060 N 
HETATM    5  H   UNL     1      -8.564   4.059 -32.387  1.00  0.00     0.280 HD
HETATM    6  C   UNL     1      -8.577   1.963 -32.370  1.00  0.00     0.255 C 
HETATM    7  C   UNL     1      -7.870   1.830 -33.736  1.00  0.00     0.152 C 
ENDROOT
BRANCH   4   8
HETATM    8  C   UNL     1      -8.982   3.583 -30.437  1.00  0.00     0.338 C 
BRANCH   8   9
HETATM    9  C   UNL     1     -10.376   4.157 -30.710  1.00  0.00     0.262 C 
HETATM   10  N   UNL     1     -11.276   3.268 -31.255  1.00  0.00    -0.266 N 
HETATM   11  H   UNL     1     -11.109   2.259 -31.197  1.00  0.00     0.190 HD
HETATM   12  O   UNL     1     -10.624   5.337 -30.452  1.00  0.00    -0.270 OA
BRANCH  10  13
HETATM   13  N   UNL     1     -12.645   3.583 -31.137  1.00  0.00    -0.263 N 
HETATM   14  C   UNL     1     -13.464   3.135 -32.158  1.00  0.00     0.270 C 
HETATM   15  O   UNL     1     -12.998   2.474 -33.086  1.00  0.00    -0.266 OA
HETATM   16  H   UNL     1     -12.935   4.208 -30.388  1.00  0.00     0.190 HD
BRANCH  14  17
HETATM   17  C   UNL     1     -14.904   3.499 -32.109  1.00  0.00     0.033 A 
HETATM   18  C   UNL     1     -15.348   4.827 -32.058  1.00  0.00     0.018 A 
HETATM   19  C   UNL     1     -16.719   5.104 -32.000  1.00  0.00     0.020 A 
HETATM   20  C   UNL     1     -17.643   4.058 -31.990  1.00  0.00     0.011 A 
HETATM   21 BR   UNL     1     -19.491   4.439 -31.907  1.00  0.00    -0.051 Br
HETATM   22  C   UNL     1     -17.211   2.735 -32.032  1.00  0.00     0.020 A 
HETATM   23  C   UNL     1     -15.842   2.455 -32.087  1.00  0.00     0.018 A 
ENDBRANCH  14  17
ENDBRANCH  10  13
ENDBRANCH   8   9
ENDBRANCH   4   8
BRANCH   1  24
HETATM   24  C   UNL     1      -5.648   0.940 -33.353  1.00  0.00     0.169 A 
HETATM   25  N   UNL     1      -5.982  -0.262 -33.773  1.00  0.00    -0.223 NA
HETATM   26  C   UNL     1      -4.989  -1.194 -33.488  1.00  0.00     0.076 A 
HETATM   27  C   UNL     1      -3.913  -0.684 -32.790  1.00  0.00     0.085 A 
HETATM   28  S   UNL     1      -4.139   0.984 -32.506  1.00  0.00    -0.062 SA
BRANCH  26  29
HETATM   29  C   UNL     1      -5.086  -2.576 -33.945  1.00  0.00    -0.007 A 
HETATM   30  C   UNL     1      -6.205  -2.981 -34.687  1.00  0.00     0.014 A 
HETATM   31  C   UNL     1      -6.308  -4.289 -35.170  1.00  0.00     0.001 A 
HETATM   32  C   UNL     1      -5.296  -5.210 -34.910  1.00  0.00     0.000 A 
HETATM   33  C   UNL     1      -4.183  -4.826 -34.166  1.00  0.00     0.001 A 
HETATM   34  C   UNL     1      -4.078  -3.518 -33.683  1.00  0.00     0.014 A 
ENDBRANCH  26  29
ENDBRANCH   1  24
TORSDOF 6
ENDMDL
MODEL 10
REMARK VINA RESULT:      -8.4      4.791      9.526
REMARK  6 active torsions:
REMARK  status: ('A' for Active; 'I' for Inactive)
REMARK    1  A    between atoms: C_4  and  C_5 
REMARK    2  A    between atoms: C_7  and  N_8 
REMARK    3  A    between atoms: N_11  and  C_13 
REMARK    4  A    between atoms: C_13  and  C_14 
REMARK       I    between atoms: C_14  and  N_15 
REMARK    5  A    between atoms: N_15  and  N_16 
REMARK       I    between atoms: N_16  and  C_17 
REMARK    6  A    between atoms: C_17  and  C_18 
ROOT
HETATM    1  N   UNL     1      -3.577   7.573 -27.829  1.00  0.00    -0.357 N 
HETATM    2  C   UNL     1      -4.119   6.700 -26.777  1.00  0.00     0.152 C 
HETATM    3  C   UNL     1      -5.317   5.891 -27.320  1.00  0.00     0.255 C 
HETATM    4  N   UNL     1      -6.371   6.846 -27.896  1.00  0.00    -0.060 N 
HETATM    5  H   UNL     1      -6.667   7.440 -27.104  1.00  0.00     0.280 HD
HETATM    6  C   UNL     1      -5.771   7.748 -28.973  1.00  0.00     0.255 C 
HETATM    7  C   UNL     1      -4.560   8.513 -28.398  1.00  0.00     0.152 C 
ENDROOT
BRANCH   4   8
HETATM    8  C   UNL     1      -7.641   6.126 -28.340  1.00  0.00     0.338 C 
BRANCH   8   9
HETATM    9  C   UNL     1      -7.319   5.049 -29.380  1.00  0.00     0.262 C 
HETATM   10  N   UNL     1      -7.393   3.753 -28.919  1.00  0.00    -0.266 N 
HETATM   11  H   UNL     1      -7.903   3.536 -28.058  1.00  0.00     0.190 HD
HETATM   12  O   UNL     1      -7.012   5.368 -30.531  1.00  0.00    -0.270 OA
BRANCH  10  13
HETATM   13  N   UNL     1      -7.530   2.734 -29.883  1.00  0.00    -0.263 N 
HETATM   14  C   UNL     1      -6.374   2.050 -30.216  1.00  0.00     0.270 C 
HETATM   15  O   UNL     1      -5.309   2.319 -29.660  1.00  0.00    -0.266 OA
HETATM   16  H   UNL     1      -8.424   2.633 -30.359  1.00  0.00     0.190 HD
BRANCH  14  17
HETATM   17  C   UNL     1      -6.457   1.009 -31.274  1.00  0.00     0.033 A 
HETATM   18  C   UNL     1      -7.606   0.813 -32.052  1.00  0.00     0.018 A 
HETATM   19  C   UNL     1      -7.627  -0.193 -33.026  1.00  0.00     0.020 A 
HETATM   20  C   UNL     1      -6.506  -1.002 -33.218  1.00  0.00     0.011 A 
HETATM   21 BR   UNL     1      -6.543  -2.360 -34.530  1.00  0.00    -0.051 Br
HETATM   22  C   UNL     1      -5.364  -0.820 -32.443  1.00  0.00     0.020 A 
HETATM   23  C   UNL     1      -5.340   0.183 -31.469  1.00  0.00     0.018 A 
ENDBRANCH  14  17
ENDBRANCH  10  13
ENDBRANCH   8   9
ENDBRANCH   4   8
BRANCH   1  24
HETATM   24  C   UNL     1      -2.591   7.126 -28.669  1.00  0.00     0.169 A 
HETATM   25  N   UNL     1      -2.838   6.678 -29.881  1.00  0.00    -0.223 NA
HETATM   26  C   UNL     1      -1.662   6.375 -30.560  1.00  0.00     0.076 A 
HETATM   27  C   UNL     1      -0.514   6.549 -29.816  1.00  0.00     0.085 A 
HETATM   28  S   UNL     1      -0.910   7.118 -28.256  1.00  0.00    -0.062 SA
BRANCH  26  29
HETATM   29  C   UNL     1      -1.675   5.956 -31.958  1.00  0.00    -0.007 A 
HETATM   30  C   UNL     1      -2.284   4.742 -32.310  1.00  0.00     0.014 A 
HETATM   31  C   UNL     1      -2.344   4.333 -33.646  1.00  0.00     0.001 A 
HETATM   32  C   UNL     1      -1.788   5.129 -34.644  1.00  0.00     0.000 A 
HETATM   33  C   UNL     1      -1.170   6.332 -34.310  1.00  0.00     0.001 A 
HETATM   34  C   UNL     1      -1.111   6.743 -32.975  1.00  0.00     0.014 A 
ENDBRANCH  26  29
ENDBRANCH   1  24
TORSDOF 6
ENDMDL
