MODEL 1
REMARK VINA RESULT:      -8.5      0.000      0.000
REMARK  10 active torsions:
REMARK  status: ('A' for Active; 'I' for Inactive)
REMARK    1  A    between atoms: C_2  and  N_3 
REMARK    2  A    between atoms: N_3  and  C_4 
REMARK    3  A    between atoms: N_3  and  C_37 
REMARK    4  A    between atoms: C_7  and  C_8 
REMARK    5  A    between atoms: N_9  and  C_11 
REMARK    6  A    between atoms: C_11  and  C_12 
REMARK       I    between atoms: C_12  and  N_13 
REMARK    7  A    between atoms: N_13  and  C_14 
REMARK    8  A    between atoms: C_20  and  C_21 
REMARK    9  A    between atoms: C_21  and  O_22 
REMARK   10  A    between atoms: C_28  and  O_29 
ROOT
HETATM    1  C   UNL     1     -10.064   2.021 -34.535  1.00  0.00     0.228 C 
HETATM    2  N   UNL     1      -9.650   3.471 -34.318  1.00  0.00    -0.054 N 
HETATM    3  H   UNL     1      -8.859   3.625 -34.967  1.00  0.00     0.281 HD
HETATM    4  C   UNL     1     -10.691   4.454 -34.796  1.00  0.00     0.239 C 
HETATM    5  C   UNL     1     -12.017   4.210 -34.095  1.00  0.00     0.066 C 
HETATM    6  C   UNL     1     -12.497   2.781 -34.333  1.00  0.00     0.065 C 
HETATM    7  C   UNL     1     -11.437   1.754 -33.858  1.00  0.00     0.055 C 
HETATM    8  C   UNL     1     -13.845   2.531 -33.633  1.00  0.00     0.038 C 
HETATM    9  C   UNL     1     -14.352   1.108 -33.861  1.00  0.00     0.003 C 
HETATM   10  C   UNL     1     -13.308   0.071 -33.470  1.00  0.00     0.001 C 
HETATM   11  C   UNL     1     -11.962   0.326 -34.147  1.00  0.00     0.010 C 
ENDROOT
BRANCH   2  12
HETATM   12  C   UNL     1      -9.013   3.851 -32.971  1.00  0.00     0.338 C 
BRANCH  12  13
HETATM   13  C   UNL     1      -7.675   4.558 -33.231  1.00  0.00     0.248 C 
HETATM   14  N   UNL     1      -6.625   3.714 -33.516  1.00  0.00    -0.319 N 
HETATM   15  H   UNL     1      -6.807   2.822 -33.980  1.00  0.00     0.169 HD
HETATM   16  O   UNL     1      -7.644   5.783 -33.114  1.00  0.00    -0.271 OA
BRANCH  14  17
HETATM   17  C   UNL     1      -5.277   4.050 -33.428  1.00  0.00     0.094 A 
HETATM   18  S   UNL     1      -4.495   4.790 -34.735  1.00  0.00    -0.076 SA
HETATM   19  C   UNL     1      -3.041   4.973 -33.868  1.00  0.00    -0.012 A 
HETATM   20  C   UNL     1      -1.869   5.624 -34.535  1.00  0.00     0.057 C 
HETATM   21  C   UNL     1      -3.131   4.468 -32.578  1.00  0.00    -0.030 A 
HETATM   22  C   UNL     1      -1.998   4.490 -31.595  1.00  0.00     0.050 C 
HETATM   23  C   UNL     1      -4.463   3.935 -32.308  1.00  0.00     0.080 A 
BRANCH  23  24
HETATM   24  C   UNL     1      -4.969   3.333 -31.067  1.00  0.00     0.296 C 
HETATM   25  O   UNL     1      -5.199   4.011 -30.067  1.00  0.00    -0.259 OA
BRANCH  24  26
HETATM   26  O   UNL     1      -5.163   1.991 -31.146  1.00  0.00    -0.322 OA
HETATM   27  C   UNL     1      -6.011   1.445 -30.136  1.00  0.00     0.213 C 
ENDBRANCH  24  26
ENDBRANCH  23  24
ENDBRANCH  14  17
ENDBRANCH  12  13
ENDBRANCH   2  12
BRANCH   1  28
HETATM   28  C   UNL     1      -8.925   1.064 -34.209  1.00  0.00    -0.027 A 
HETATM   29  C   UNL     1      -8.722   0.515 -32.935  1.00  0.00     0.011 A 
HETATM   30  C   UNL     1      -7.710  -0.428 -32.709  1.00  0.00     0.030 A 
HETATM   31  C   UNL     1      -6.843  -0.823 -33.732  1.00  0.00     0.030 A 
HETATM   32  C   UNL     1      -6.997  -0.211 -34.982  1.00  0.00     0.030 A 
HETATM   33  C   UNL     1      -8.024   0.709 -35.224  1.00  0.00     0.011 A 
BRANCH  31  34
HETATM   34  N   UNL     1      -5.871  -1.808 -33.574  1.00  0.00    -0.382 N 
BRANCH  34  35
HETATM   35  C   UNL     1      -4.729  -1.560 -32.682  1.00  0.00     0.118 C 
HETATM   36  C   UNL     1      -3.863  -0.420 -33.205  1.00  0.00     0.026 C 
ENDBRANCH  34  35
BRANCH  34  37
HETATM   37  C   UNL     1      -5.618  -2.647 -34.755  1.00  0.00     0.118 C 
HETATM   38  C   UNL     1      -6.575  -3.829 -34.839  1.00  0.00     0.026 C 
ENDBRANCH  34  37
ENDBRANCH  31  34
ENDBRANCH   1  28
BRANCH   6  39
HETATM   39  O   UNL     1     -12.663   2.634 -35.748  1.00  0.00    -0.389 OA
HETATM   40  H   UNL     1     -12.114   3.297 -36.211  1.00  0.00     0.210 HD
ENDBRANCH   6  39
TORSDOF 10
ENDMDL
MODEL 2
REMARK VINA RESULT:      -8.1      2.436      7.264
REMARK  10 active torsions:
REMARK  status: ('A' for Active; 'I' for Inactive)
REMARK    1  A    between atoms: C_2  and  N_3 
REMARK    2  A    between atoms: N_3  and  C_4 
REMARK    3  A    between atoms: N_3  and  C_37 
REMARK    4  A    between atoms: C_7  and  C_8 
REMARK    5  A    between atoms: N_9  and  C_11 
REMARK    6  A    between atoms: C_11  and  C_12 
REMARK       I    between atoms: C_12  and  N_13 
REMARK    7  A    between atoms: N_13  and  C_14 
REMARK    8  A    between atoms: C_20  and  C_21 
REMARK    9  A    between atoms: C_21  and  O_22 
REMARK   10  A    between atoms: C_28  and  O_29 
ROOT
HETATM    1  C   UNL     1      -5.886   2.690 -31.765  1.00  0.00     0.228 C 
HETATM    2  N   UNL     1      -7.263   3.342 -31.790  1.00  0.00    -0.054 N 
HETATM    3  H   UNL     1      -7.871   2.708 -31.241  1.00  0.00     0.281 HD
HETATM    4  C   UNL     1      -7.314   4.634 -31.013  1.00  0.00     0.239 C 
HETATM    5  C   UNL     1      -6.293   5.622 -31.552  1.00  0.00     0.066 C 
HETATM    6  C   UNL     1      -4.887   5.029 -31.494  1.00  0.00     0.065 C 
HETATM    7  C   UNL     1      -4.816   3.694 -32.280  1.00  0.00     0.055 C 
HETATM    8  C   UNL     1      -3.847   6.029 -32.031  1.00  0.00     0.038 C 
HETATM    9  C   UNL     1      -2.429   5.462 -31.978  1.00  0.00     0.003 C 
HETATM   10  C   UNL     1      -2.337   4.114 -32.680  1.00  0.00     0.001 C 
HETATM   11  C   UNL     1      -3.380   3.124 -32.165  1.00  0.00     0.010 C 
ENDROOT
BRANCH   2  12
HETATM   12  C   UNL     1      -8.018   3.396 -33.128  1.00  0.00     0.338 C 
BRANCH  12  13
HETATM   13  C   UNL     1      -9.316   2.586 -33.006  1.00  0.00     0.248 C 
HETATM   14  N   UNL     1     -10.320   2.976 -33.864  1.00  0.00    -0.319 N 
HETATM   15  H   UNL     1     -10.079   3.385 -34.769  1.00  0.00     0.169 HD
HETATM   16  O   UNL     1      -9.365   1.712 -32.140  1.00  0.00    -0.271 OA
BRANCH  14  17
HETATM   17  C   UNL     1     -11.670   2.671 -33.713  1.00  0.00     0.094 A 
HETATM   18  S   UNL     1     -12.377   1.445 -34.643  1.00  0.00    -0.076 SA
HETATM   19  C   UNL     1     -13.876   1.592 -33.849  1.00  0.00    -0.012 A 
HETATM   20  C   UNL     1     -15.006   0.697 -34.251  1.00  0.00     0.057 C 
HETATM   21  C   UNL     1     -13.858   2.580 -32.873  1.00  0.00    -0.030 A 
HETATM   22  C   UNL     1     -15.044   2.930 -32.023  1.00  0.00     0.050 C 
HETATM   23  C   UNL     1     -12.545   3.210 -32.779  1.00  0.00     0.080 A 
BRANCH  23  24
HETATM   24  C   UNL     1     -12.110   4.276 -31.866  1.00  0.00     0.296 C 
HETATM   25  O   UNL     1     -12.034   4.097 -30.651  1.00  0.00    -0.259 OA
BRANCH  24  26
HETATM   26  O   UNL     1     -11.796   5.440 -32.491  1.00  0.00    -0.322 OA
HETATM   27  C   UNL     1     -10.632   6.098 -31.990  1.00  0.00     0.213 C 
ENDBRANCH  24  26
ENDBRANCH  23  24
ENDBRANCH  14  17
ENDBRANCH  12  13
ENDBRANCH   2  12
BRANCH   1  28
HETATM   28  C   UNL     1      -5.913   1.309 -32.404  1.00  0.00    -0.027 A 
HETATM   29  C   UNL     1      -6.087   1.099 -33.780  1.00  0.00     0.011 A 
HETATM   30  C   UNL     1      -6.018  -0.189 -34.327  1.00  0.00     0.030 A 
HETATM   31  C   UNL     1      -5.817  -1.312 -33.520  1.00  0.00     0.030 A 
HETATM   32  C   UNL     1      -5.726  -1.107 -32.138  1.00  0.00     0.030 A 
HETATM   33  C   UNL     1      -5.763   0.179 -31.586  1.00  0.00     0.011 A 
BRANCH  31  34
HETATM   34  N   UNL     1      -5.669  -2.601 -34.026  1.00  0.00    -0.382 N 
BRANCH  34  35
HETATM   35  C   UNL     1      -4.350  -3.047 -34.497  1.00  0.00     0.118 C 
HETATM   36  C   UNL     1      -3.629  -3.855 -33.424  1.00  0.00     0.026 C 
ENDBRANCH  34  35
BRANCH  34  37
HETATM   37  C   UNL     1      -6.841  -3.146 -34.728  1.00  0.00     0.118 C 
HETATM   38  C   UNL     1      -6.557  -4.506 -35.355  1.00  0.00     0.026 C 
ENDBRANCH  34  37
ENDBRANCH  31  34
ENDBRANCH   1  28
BRANCH   6  39
HETATM   39  O   UNL     1      -4.613   4.755 -30.115  1.00  0.00    -0.389 OA
HETATM   40  H   UNL     1      -3.795   4.225 -30.046  1.00  0.00     0.210 HD
ENDBRANCH   6  39
TORSDOF 10
ENDMDL
MODEL 3
REMARK VINA RESULT:      -8.0      1.545      1.958
REMARK  10 active torsions:
REMARK  status: ('A' for Active; 'I' for Inactive)
REMARK    1  A    between atoms: C_2  and  N_3 
REMARK    2  A    between atoms: N_3  and  C_4 
REMARK    3  A    between atoms: N_3  and  C_37 
REMARK    4  A    between atoms: C_7  and  C_8 
REMARK    5  A    between atoms: N_9  and  C_11 
REMARK    6  A    between atoms: C_11  and  C_12 
REMARK       I    between atoms: C_12  and  N_13 
REMARK    7  A    between atoms: N_13  and  C_14 
REMARK    8  A    between atoms: C_20  and  C_21 
REMARK    9  A    between atoms: C_21  and  O_22 
REMARK   10  A    between atoms: C_28  and  O_29 
ROOT
HETATM    1  C   UNL     1     -10.351   2.126 -33.775  1.00  0.00     0.228 C 
HETATM    2  N   UNL     1      -9.921   3.306 -32.912  1.00  0.00    -0.054 N 
HETATM    3  H   UNL     1      -9.113   3.722 -33.408  1.00  0.00     0.281 HD
HETATM    4  C   UNL     1     -10.935   4.424 -32.901  1.00  0.00     0.239 C 
HETATM    5  C   UNL     1     -12.281   3.918 -32.408  1.00  0.00     0.066 C 
HETATM    6  C   UNL     1     -12.777   2.768 -33.281  1.00  0.00     0.065 C 
HETATM    7  C   UNL     1     -11.744   1.612 -33.313  1.00  0.00     0.055 C 
HETATM    8  C   UNL     1     -14.144   2.258 -32.791  1.00  0.00     0.038 C 
HETATM    9  C   UNL     1     -14.667   1.109 -33.652  1.00  0.00     0.003 C 
HETATM   10  C   UNL     1     -13.648  -0.017 -33.765  1.00  0.00     0.001 C 
HETATM   11  C   UNL     1     -12.283   0.487 -34.232  1.00  0.00     0.010 C 
ENDROOT
BRANCH   2  12
HETATM   12  C   UNL     1      -9.309   3.014 -31.533  1.00  0.00     0.338 C 
BRANCH  12  13
HETATM   13  C   UNL     1      -7.797   3.272 -31.588  1.00  0.00     0.248 C 
HETATM   14  N   UNL     1      -7.445   4.542 -31.987  1.00  0.00    -0.319 N 
HETATM   15  H   UNL     1      -8.070   5.325 -31.784  1.00  0.00     0.169 HD
HETATM   16  O   UNL     1      -7.047   2.330 -31.329  1.00  0.00    -0.271 OA
BRANCH  14  17
HETATM   17  C   UNL     1      -6.192   4.916 -32.463  1.00  0.00     0.094 A 
HETATM   18  S   UNL     1      -5.715   4.493 -34.032  1.00  0.00    -0.076 SA
HETATM   19  C   UNL     1      -4.247   5.347 -33.905  1.00  0.00    -0.012 A 
HETATM   20  C   UNL     1      -3.307   5.362 -35.071  1.00  0.00     0.057 C 
HETATM   21  C   UNL     1      -4.101   5.958 -32.667  1.00  0.00    -0.030 A 
HETATM   22  C   UNL     1      -2.900   6.770 -32.278  1.00  0.00     0.050 C 
HETATM   23  C   UNL     1      -5.261   5.718 -31.815  1.00  0.00     0.080 A 
BRANCH  23  24
HETATM   24  C   UNL     1      -5.504   6.202 -30.450  1.00  0.00     0.296 C 
HETATM   25  O   UNL     1      -5.605   7.401 -30.197  1.00  0.00    -0.259 OA
BRANCH  24  26
HETATM   26  O   UNL     1      -5.616   5.211 -29.527  1.00  0.00    -0.322 OA
HETATM   27  C   UNL     1      -6.591   5.443 -28.510  1.00  0.00     0.213 C 
ENDBRANCH  24  26
ENDBRANCH  23  24
ENDBRANCH  14  17
ENDBRANCH  12  13
ENDBRANCH   2  12
BRANCH   1  28
HETATM   28  C   UNL     1      -9.235   1.099 -33.907  1.00  0.00    -0.027 A 
HETATM   29  C   UNL     1      -8.204   1.199 -34.852  1.00  0.00     0.011 A 
HETATM   30  C   UNL     1      -7.154   0.271 -34.873  1.00  0.00     0.030 A 
HETATM   31  C   UNL     1      -7.119  -0.808 -33.986  1.00  0.00     0.030 A 
HETATM   32  C   UNL     1      -8.193  -0.951 -33.100  1.00  0.00     0.030 A 
HETATM   33  C   UNL     1      -9.229  -0.012 -33.050  1.00  0.00     0.011 A 
BRANCH  31  34
HETATM   34  N   UNL     1      -6.062  -1.713 -33.923  1.00  0.00    -0.382 N 
BRANCH  34  35
HETATM   35  C   UNL     1      -4.785  -1.292 -33.327  1.00  0.00     0.118 C 
HETATM   36  C   UNL     1      -5.001  -0.666 -31.954  1.00  0.00     0.026 C 
ENDBRANCH  34  35
BRANCH  34  37
HETATM   37  C   UNL     1      -5.989  -2.684 -35.025  1.00  0.00     0.118 C 
HETATM   38  C   UNL     1      -6.777  -3.953 -34.729  1.00  0.00     0.026 C 
ENDBRANCH  34  37
ENDBRANCH  31  34
ENDBRANCH   1  28
BRANCH   6  39
HETATM   39  O   UNL     1     -12.912   3.288 -34.609  1.00  0.00    -0.389 OA
HETATM   40  H   UNL     1     -12.359   2.763 -35.220  1.00  0.00     0.210 HD
ENDBRANCH   6  39
TORSDOF 10
ENDMDL
MODEL 4
REMARK VINA RESULT:      -7.9      2.354      6.275
REMARK  10 active torsions:
REMARK  status: ('A' for Active; 'I' for Inactive)
REMARK    1  A    between atoms: C_2  and  N_3 
REMARK    2  A    between atoms: N_3  and  C_4 
REMARK    3  A    between atoms: N_3  and  C_37 
REMARK    4  A    between atoms: C_7  and  C_8 
REMARK    5  A    between atoms: N_9  and  C_11 
REMARK    6  A    between atoms: C_11  and  C_12 
REMARK       I    between atoms: C_12  and  N_13 
REMARK    7  A    between atoms: N_13  and  C_14 
REMARK    8  A    between atoms: C_20  and  C_21 
REMARK    9  A    between atoms: C_21  and  O_22 
REMARK   10  A    between atoms: C_28  and  O_29 
ROOT
HETATM    1  C   UNL     1      -6.644   0.146 -32.656  1.00  0.00     0.228 C 
HETATM    2  N   UNL     1      -5.686   1.282 -32.315  1.00  0.00    -0.054 N 
HETATM    3  H   UNL     1      -6.089   1.728 -31.472  1.00  0.00     0.281 HD
HETATM    4  C   UNL     1      -4.341   0.790 -31.840  1.00  0.00     0.239 C 
HETATM    5  C   UNL     1      -3.696  -0.098 -32.892  1.00  0.00     0.066 C 
HETATM    6  C   UNL     1      -4.599  -1.282 -33.224  1.00  0.00     0.065 C 
HETATM    7  C   UNL     1      -5.992  -0.799 -33.705  1.00  0.00     0.055 C 
HETATM    8  C   UNL     1      -3.947  -2.190 -34.282  1.00  0.00     0.038 C 
HETATM    9  C   UNL     1      -4.829  -3.388 -34.630  1.00  0.00     0.003 C 
HETATM   10  C   UNL     1      -6.230  -2.954 -35.040  1.00  0.00     0.001 C 
HETATM   11  C   UNL     1      -6.875  -2.036 -34.002  1.00  0.00     0.010 C 
ENDROOT
BRANCH   2  12
HETATM   12  C   UNL     1      -5.603   2.477 -33.278  1.00  0.00     0.338 C 
BRANCH  12  13
HETATM   13  C   UNL     1      -5.530   3.775 -32.462  1.00  0.00     0.248 C 
HETATM   14  N   UNL     1      -4.894   4.818 -33.098  1.00  0.00    -0.319 N 
HETATM   15  H   UNL     1      -4.923   4.880 -34.118  1.00  0.00     0.169 HD
HETATM   16  O   UNL     1      -5.988   3.758 -31.320  1.00  0.00    -0.271 OA
BRANCH  14  17
HETATM   17  C   UNL     1      -4.379   5.948 -32.469  1.00  0.00     0.094 A 
HETATM   18  S   UNL     1      -5.419   7.163 -31.912  1.00  0.00    -0.076 SA
HETATM   19  C   UNL     1      -4.143   8.053 -31.220  1.00  0.00    -0.012 A 
HETATM   20  C   UNL     1      -4.448   9.336 -30.511  1.00  0.00     0.057 C 
HETATM   21  C   UNL     1      -2.912   7.440 -31.411  1.00  0.00    -0.030 A 
HETATM   22  C   UNL     1      -1.615   8.008 -30.913  1.00  0.00     0.050 C 
HETATM   23  C   UNL     1      -3.051   6.182 -32.137  1.00  0.00     0.080 A 
BRANCH  23  24
HETATM   24  C   UNL     1      -1.999   5.231 -32.520  1.00  0.00     0.296 C 
HETATM   25  O   UNL     1      -1.917   4.116 -32.007  1.00  0.00    -0.259 OA
BRANCH  24  26
HETATM   26  O   UNL     1      -1.162   5.696 -33.484  1.00  0.00    -0.322 OA
HETATM   27  C   UNL     1      -1.454   5.241 -34.805  1.00  0.00     0.213 C 
ENDBRANCH  24  26
ENDBRANCH  23  24
ENDBRANCH  14  17
ENDBRANCH  12  13
ENDBRANCH   2  12
BRANCH   1  28
HETATM   28  C   UNL     1      -8.041   0.669 -32.959  1.00  0.00    -0.027 A 
HETATM   29  C   UNL     1      -8.582   0.719 -34.252  1.00  0.00     0.011 A 
HETATM   30  C   UNL     1      -9.904   1.130 -34.465  1.00  0.00     0.030 A 
HETATM   31  C   UNL     1     -10.716   1.543 -33.405  1.00  0.00     0.030 A 
HETATM   32  C   UNL     1     -10.147   1.570 -32.127  1.00  0.00     0.030 A 
HETATM   33  C   UNL     1      -8.836   1.133 -31.901  1.00  0.00     0.011 A 
BRANCH  31  34
HETATM   34  N   UNL     1     -12.057   1.890 -33.559  1.00  0.00    -0.382 N 
BRANCH  34  35
HETATM   35  C   UNL     1     -12.937   1.035 -34.368  1.00  0.00     0.118 C 
HETATM   36  C   UNL     1     -13.301  -0.242 -33.619  1.00  0.00     0.026 C 
ENDBRANCH  34  35
BRANCH  34  37
HETATM   37  C   UNL     1     -12.343   3.333 -33.571  1.00  0.00     0.118 C 
HETATM   38  C   UNL     1     -12.446   3.889 -34.986  1.00  0.00     0.026 C 
ENDBRANCH  34  37
ENDBRANCH  31  34
ENDBRANCH   1  28
BRANCH   6  39
HETATM   39  O   UNL     1      -4.775  -2.020 -32.009  1.00  0.00    -0.389 OA
HETATM   40  H   UNL     1      -4.240  -2.837 -32.045  1.00  0.00     0.210 HD
ENDBRANCH   6  39
TORSDOF 10
ENDMDL
MODEL 5
REMARK VINA RESULT:      -7.9      2.394      7.413
REMARK  10 active torsions:
REMARK  status: ('A' for Active; 'I' for Inactive)
REMARK    1  A    between atoms: C_2  and  N_3 
REMARK    2  A    between atoms: N_3  and  C_4 
REMARK    3  A    between atoms: N_3  and  C_37 
REMARK    4  A    between atoms: C_7  and  C_8 
REMARK    5  A    between atoms: N_9  and  C_11 
REMARK    6  A    between atoms: C_11  and  C_12 
REMARK       I    between atoms: C_12  and  N_13 
REMARK    7  A    between atoms: N_13  and  C_14 
REMARK    8  A    between atoms: C_20  and  C_21 
REMARK    9  A    between atoms: C_21  and  O_22 
REMARK   10  A    between atoms: C_28  and  O_29 
ROOT
HETATM    1  C   UNL     1      -5.440   2.582 -31.850  1.00  0.00     0.228 C 
HETATM    2  N   UNL     1      -6.875   3.077 -31.713  1.00  0.00    -0.054 N 
HETATM    3  H   UNL     1      -7.322   2.424 -31.045  1.00  0.00     0.281 HD
HETATM    4  C   UNL     1      -6.969   4.411 -31.014  1.00  0.00     0.239 C 
HETATM    5  C   UNL     1      -6.156   5.460 -31.754  1.00  0.00     0.066 C 
HETATM    6  C   UNL     1      -4.696   5.029 -31.865  1.00  0.00     0.065 C 
HETATM    7  C   UNL     1      -4.576   3.654 -32.573  1.00  0.00     0.055 C 
HETATM    8  C   UNL     1      -3.864   6.092 -32.606  1.00  0.00     0.038 C 
HETATM    9  C   UNL     1      -2.396   5.687 -32.726  1.00  0.00     0.003 C 
HETATM   10  C   UNL     1      -2.243   4.308 -33.353  1.00  0.00     0.001 C 
HETATM   11  C   UNL     1      -3.082   3.252 -32.634  1.00  0.00     0.010 C 
ENDROOT
BRANCH   2  12
HETATM   12  C   UNL     1      -7.807   2.948 -32.929  1.00  0.00     0.338 C 
BRANCH  12  13
HETATM   13  C   UNL     1      -9.233   2.656 -32.440  1.00  0.00     0.248 C 
HETATM   14  N   UNL     1     -10.180   3.567 -32.852  1.00  0.00    -0.319 N 
HETATM   15  H   UNL     1     -10.056   4.055 -33.741  1.00  0.00     0.169 HD
HETATM   16  O   UNL     1      -9.394   1.686 -31.698  1.00  0.00    -0.271 OA
BRANCH  14  17
HETATM   17  C   UNL     1     -11.432   3.742 -32.270  1.00  0.00     0.094 A 
HETATM   18  S   UNL     1     -11.648   4.885 -31.039  1.00  0.00    -0.076 SA
HETATM   19  C   UNL     1     -13.325   4.602 -30.957  1.00  0.00    -0.012 A 
HETATM   20  C   UNL     1     -14.150   5.380 -29.980  1.00  0.00     0.057 C 
HETATM   21  C   UNL     1     -13.738   3.631 -31.859  1.00  0.00    -0.030 A 
HETATM   22  C   UNL     1     -15.162   3.176 -31.997  1.00  0.00     0.050 C 
HETATM   23  C   UNL     1     -12.619   3.131 -32.651  1.00  0.00     0.080 A 
BRANCH  23  24
HETATM   24  C   UNL     1     -12.638   2.121 -33.718  1.00  0.00     0.296 C 
HETATM   25  O   UNL     1     -12.146   1.005 -33.562  1.00  0.00    -0.259 OA
BRANCH  24  26
HETATM   26  O   UNL     1     -13.254   2.535 -34.856  1.00  0.00    -0.322 OA
HETATM   27  C   UNL     1     -12.388   3.111 -35.834  1.00  0.00     0.213 C 
ENDBRANCH  24  26
ENDBRANCH  23  24
ENDBRANCH  14  17
ENDBRANCH  12  13
ENDBRANCH   2  12
BRANCH   1  28
HETATM   28  C   UNL     1      -5.392   1.161 -32.396  1.00  0.00    -0.027 A 
HETATM   29  C   UNL     1      -5.867   0.808 -33.667  1.00  0.00     0.011 A 
HETATM   30  C   UNL     1      -5.720  -0.498 -34.153  1.00  0.00     0.030 A 
HETATM   31  C   UNL     1      -5.135  -1.502 -33.377  1.00  0.00     0.030 A 
HETATM   32  C   UNL     1      -4.738  -1.165 -32.078  1.00  0.00     0.030 A 
HETATM   33  C   UNL     1      -4.853   0.144 -31.594  1.00  0.00     0.011 A 
BRANCH  31  34
HETATM   34  N   UNL     1      -4.904  -2.793 -33.844  1.00  0.00    -0.382 N 
BRANCH  34  35
HETATM   35  C   UNL     1      -3.632  -3.460 -33.526  1.00  0.00     0.118 C 
HETATM   36  C   UNL     1      -3.782  -4.976 -33.568  1.00  0.00     0.026 C 
ENDBRANCH  34  35
BRANCH  34  37
HETATM   37  C   UNL     1      -5.516  -3.120 -35.140  1.00  0.00     0.118 C 
HETATM   38  C   UNL     1      -6.790  -3.942 -34.987  1.00  0.00     0.026 C 
ENDBRANCH  34  37
ENDBRANCH  31  34
ENDBRANCH   1  28
BRANCH   6  39
HETATM   39  O   UNL     1      -4.204   4.890 -30.527  1.00  0.00    -0.389 OA
HETATM   40  H   UNL     1      -3.270   5.173 -30.493  1.00  0.00     0.210 HD
ENDBRANCH   6  39
TORSDOF 10
ENDMDL
MODEL 6
REMARK VINA RESULT:      -7.8      1.784      2.752
REMARK  10 active torsions:
REMARK  status: ('A' for Active; 'I' for Inactive)
REMARK    1  A    between atoms: C_2  and  N_3 
REMARK    2  A    between atoms: N_3  and  C_4 
REMARK    3  A    between atoms: N_3  and  C_37 
REMARK    4  A    between atoms: C_7  and  C_8 
REMARK    5  A    between atoms: N_9  and  C_11 
REMARK    6  A    between atoms: C_11  and  C_12 
REMARK       I    between atoms: C_12  and  N_13 
REMARK    7  A    between atoms: N_13  and  C_14 
REMARK    8  A    between atoms: C_20  and  C_21 
REMARK    9  A    between atoms: C_21  and  O_22 
REMARK   10  A    between atoms: C_28  and  O_29 
ROOT
HETATM    1  C   UNL     1     -10.995   2.424 -33.466  1.00  0.00     0.228 C 
HETATM    2  N   UNL     1     -10.692   3.538 -32.471  1.00  0.00    -0.054 N 
HETATM    3  H   UNL     1      -9.870   4.031 -32.862  1.00  0.00     0.281 HD
HETATM    4  C   UNL     1     -11.759   4.604 -32.445  1.00  0.00     0.239 C 
HETATM    5  C   UNL     1     -13.112   3.998 -32.109  1.00  0.00     0.066 C 
HETATM    6  C   UNL     1     -13.481   2.912 -33.116  1.00  0.00     0.065 C 
HETATM    7  C   UNL     1     -12.391   1.810 -33.166  1.00  0.00     0.055 C 
HETATM    8  C   UNL     1     -14.854   2.301 -32.786  1.00  0.00     0.038 C 
HETATM    9  C   UNL     1     -15.250   1.213 -33.784  1.00  0.00     0.003 C 
HETATM   10  C   UNL     1     -14.170   0.148 -33.912  1.00  0.00     0.001 C 
HETATM   11  C   UNL     1     -12.800   0.751 -34.220  1.00  0.00     0.010 C 
ENDROOT
BRANCH   2  12
HETATM   12  C   UNL     1     -10.175   3.147 -31.077  1.00  0.00     0.338 C 
BRANCH  12  13
HETATM   13  C   UNL     1      -8.710   3.587 -30.944  1.00  0.00     0.248 C 
HETATM   14  N   UNL     1      -7.896   3.197 -31.983  1.00  0.00    -0.319 N 
HETATM   15  H   UNL     1      -8.292   3.085 -32.919  1.00  0.00     0.169 HD
HETATM   16  O   UNL     1      -8.387   4.191 -29.921  1.00  0.00    -0.271 OA
BRANCH  14  17
HETATM   17  C   UNL     1      -6.506   3.143 -31.938  1.00  0.00     0.094 A 
HETATM   18  S   UNL     1      -5.727   1.849 -31.172  1.00  0.00    -0.076 SA
HETATM   19  C   UNL     1      -4.181   2.406 -31.618  1.00  0.00    -0.012 A 
HETATM   20  C   UNL     1      -2.975   1.620 -31.208  1.00  0.00     0.057 C 
HETATM   21  C   UNL     1      -4.239   3.585 -32.349  1.00  0.00    -0.030 A 
HETATM   22  C   UNL     1      -3.028   4.304 -32.865  1.00  0.00     0.050 C 
HETATM   23  C   UNL     1      -5.619   4.016 -32.554  1.00  0.00     0.080 A 
BRANCH  23  24
HETATM   24  C   UNL     1      -6.105   5.193 -33.286  1.00  0.00     0.296 C 
HETATM   25  O   UNL     1      -6.807   5.086 -34.291  1.00  0.00    -0.259 OA
BRANCH  24  26
HETATM   26  O   UNL     1      -5.722   6.376 -32.741  1.00  0.00    -0.322 OA
HETATM   27  C   UNL     1      -6.785   7.167 -32.208  1.00  0.00     0.213 C 
ENDBRANCH  24  26
ENDBRANCH  23  24
ENDBRANCH  14  17
ENDBRANCH  12  13
ENDBRANCH   2  12
BRANCH   1  28
HETATM   28  C   UNL     1      -9.821   1.462 -33.596  1.00  0.00    -0.027 A 
HETATM   29  C   UNL     1      -9.642   0.347 -32.764  1.00  0.00     0.011 A 
HETATM   30  C   UNL     1      -8.592  -0.554 -32.983  1.00  0.00     0.030 A 
HETATM   31  C   UNL     1      -7.663  -0.353 -34.007  1.00  0.00     0.030 A 
HETATM   32  C   UNL     1      -7.797   0.805 -34.783  1.00  0.00     0.030 A 
HETATM   33  C   UNL     1      -8.860   1.694 -34.592  1.00  0.00     0.011 A 
BRANCH  31  34
HETATM   34  N   UNL     1      -6.647  -1.257 -34.307  1.00  0.00    -0.382 N 
BRANCH  34  35
HETATM   35  C   UNL     1      -6.916  -2.700 -34.225  1.00  0.00     0.118 C 
HETATM   36  C   UNL     1      -6.015  -3.481 -35.175  1.00  0.00     0.026 C 
ENDBRANCH  34  35
BRANCH  34  37
HETATM   37  C   UNL     1      -5.285  -0.819 -33.968  1.00  0.00     0.118 C 
HETATM   38  C   UNL     1      -4.837  -1.326 -32.603  1.00  0.00     0.026 C 
ENDBRANCH  34  37
ENDBRANCH  31  34
ENDBRANCH   1  28
BRANCH   6  39
HETATM   39  O   UNL     1     -13.539   3.544 -34.400  1.00  0.00    -0.389 OA
HETATM   40  H   UNL     1     -14.123   4.326 -34.351  1.00  0.00     0.210 HD
ENDBRANCH   6  39
TORSDOF 10
ENDMDL
MODEL 7
REMARK VINA RESULT:      -7.6      1.693      1.971
REMARK  10 active torsions:
REMARK  status: ('A' for Active; 'I' for Inactive)
REMARK    1  A    between atoms: C_2  and  N_3 
REMARK    2  A    between atoms: N_3  and  C_4 
REMARK    3  A    between atoms: N_3  and  C_37 
REMARK    4  A    between atoms: C_7  and  C_8 
REMARK    5  A    between atoms: N_9  and  C_11 
REMARK    6  A    between atoms: C_11  and  C_12 
REMARK       I    between atoms: C_12  and  N_13 
REMARK    7  A    between atoms: N_13  and  C_14 
REMARK    8  A    between atoms: C_20  and  C_21 
REMARK    9  A    between atoms: C_21  and  O_22 
REMARK   10  A    between atoms: C_28  and  O_29 
ROOT
HETATM    1  C   UNL     1     -10.604   2.209 -34.113  1.00  0.00     0.228 C 
HETATM    2  N   UNL     1     -10.153   3.551 -33.550  1.00  0.00    -0.054 N 
HETATM    3  H   UNL     1      -9.373   3.851 -34.161  1.00  0.00     0.281 HD
HETATM    4  C   UNL     1     -11.181   4.639 -33.737  1.00  0.00     0.239 C 
HETATM    5  C   UNL     1     -12.497   4.249 -33.084  1.00  0.00     0.066 C 
HETATM    6  C   UNL     1     -13.015   2.934 -33.661  1.00  0.00     0.065 C 
HETATM    7  C   UNL     1     -11.968   1.803 -33.488  1.00  0.00     0.055 C 
HETATM    8  C   UNL     1     -14.352   2.538 -33.010  1.00  0.00     0.038 C 
HETATM    9  C   UNL     1     -14.896   1.226 -33.574  1.00  0.00     0.003 C 
HETATM   10  C   UNL     1     -13.867   0.107 -33.485  1.00  0.00     0.001 C 
HETATM   11  C   UNL     1     -12.531   0.502 -34.113  1.00  0.00     0.010 C 
ENDROOT
BRANCH   2  12
HETATM   12  C   UNL     1      -9.477   3.569 -32.169  1.00  0.00     0.338 C 
BRANCH  12  13
HETATM   13  C   UNL     1      -8.028   4.050 -32.325  1.00  0.00     0.248 C 
HETATM   14  N   UNL     1      -7.479   4.600 -31.188  1.00  0.00    -0.319 N 
HETATM   15  H   UNL     1      -7.794   4.279 -30.271  1.00  0.00     0.169 HD
HETATM   16  O   UNL     1      -7.511   3.952 -33.438  1.00  0.00    -0.271 OA
BRANCH  14  17
HETATM   17  C   UNL     1      -6.355   5.420 -31.155  1.00  0.00     0.094 A 
HETATM   18  S   UNL     1      -6.525   7.104 -31.224  1.00  0.00    -0.076 SA
HETATM   19  C   UNL     1      -4.855   7.364 -31.024  1.00  0.00    -0.012 A 
HETATM   20  C   UNL     1      -4.333   8.767 -30.990  1.00  0.00     0.057 C 
HETATM   21  C   UNL     1      -4.148   6.175 -30.909  1.00  0.00    -0.030 A 
HETATM   22  C   UNL     1      -2.660   6.106 -30.731  1.00  0.00     0.050 C 
HETATM   23  C   UNL     1      -5.038   5.020 -30.969  1.00  0.00     0.080 A 
BRANCH  23  24
HETATM   24  C   UNL     1      -4.690   3.596 -30.868  1.00  0.00     0.296 C 
HETATM   25  O   UNL     1      -3.903   3.065 -31.649  1.00  0.00    -0.259 OA
BRANCH  24  26
HETATM   26  O   UNL     1      -5.302   2.953 -29.839  1.00  0.00    -0.322 OA
HETATM   27  C   UNL     1      -5.718   1.618 -30.126  1.00  0.00     0.213 C 
ENDBRANCH  24  26
ENDBRANCH  23  24
ENDBRANCH  14  17
ENDBRANCH  12  13
ENDBRANCH   2  12
BRANCH   1  28
HETATM   28  C   UNL     1      -9.481   1.182 -34.069  1.00  0.00    -0.027 A 
HETATM   29  C   UNL     1      -8.465   1.109 -35.033  1.00  0.00     0.011 A 
HETATM   30  C   UNL     1      -7.407   0.200 -34.898  1.00  0.00     0.030 A 
HETATM   31  C   UNL     1      -7.348  -0.692 -33.824  1.00  0.00     0.030 A 
HETATM   32  C   UNL     1      -8.407  -0.672 -32.909  1.00  0.00     0.030 A 
HETATM   33  C   UNL     1      -9.451   0.252 -33.019  1.00  0.00     0.011 A 
BRANCH  31  34
HETATM   34  N   UNL     1      -6.282  -1.562 -33.610  1.00  0.00    -0.382 N 
BRANCH  34  35
HETATM   35  C   UNL     1      -5.199  -1.168 -32.697  1.00  0.00     0.118 C 
HETATM   36  C   UNL     1      -3.847  -1.208 -33.399  1.00  0.00     0.026 C 
ENDBRANCH  34  35
BRANCH  34  37
HETATM   37  C   UNL     1      -5.905  -2.402 -34.758  1.00  0.00     0.118 C 
HETATM   38  C   UNL     1      -6.709  -3.695 -34.816  1.00  0.00     0.026 C 
ENDBRANCH  34  37
ENDBRANCH  31  34
ENDBRANCH   1  28
BRANCH   6  39
HETATM   39  O   UNL     1     -13.215   3.150 -35.062  1.00  0.00    -0.389 OA
HETATM   40  H   UNL     1     -12.487   2.732 -35.563  1.00  0.00     0.210 HD
ENDBRANCH   6  39
TORSDOF 10
ENDMDL
MODEL 8
REMARK VINA RESULT:      -7.5      1.798      2.427
REMARK  10 active torsions:
REMARK  status: ('A' for Active; 'I' for Inactive)
REMARK    1  A    between atoms: C_2  and  N_3 
REMARK    2  A    between atoms: N_3  and  C_4 
REMARK    3  A    between atoms: N_3  and  C_37 
REMARK    4  A    between atoms: C_7  and  C_8 
REMARK    5  A    between atoms: N_9  and  C_11 
REMARK    6  A    between atoms: C_11  and  C_12 
REMARK       I    between atoms: C_12  and  N_13 
REMARK    7  A    between atoms: N_13  and  C_14 
REMARK    8  A    between atoms: C_20  and  C_21 
REMARK    9  A    between atoms: C_21  and  O_22 
REMARK   10  A    between atoms: C_28  and  O_29 
ROOT
HETATM    1  C   UNL     1      -9.395   2.218 -34.233  1.00  0.00     0.228 C 
HETATM    2  N   UNL     1      -8.664   3.431 -33.670  1.00  0.00    -0.054 N 
HETATM    3  H   UNL     1      -7.867   3.587 -34.312  1.00  0.00     0.281 HD
HETATM    4  C   UNL     1      -9.464   4.705 -33.793  1.00  0.00     0.239 C 
HETATM    5  C   UNL     1     -10.803   4.565 -33.087  1.00  0.00     0.066 C 
HETATM    6  C   UNL     1     -11.594   3.392 -33.660  1.00  0.00     0.065 C 
HETATM    7  C   UNL     1     -10.785   2.073 -33.552  1.00  0.00     0.055 C 
HETATM    8  C   UNL     1     -12.954   3.251 -32.955  1.00  0.00     0.038 C 
HETATM    9  C   UNL     1     -13.770   2.086 -33.514  1.00  0.00     0.003 C 
HETATM   10  C   UNL     1     -12.980   0.784 -33.489  1.00  0.00     0.001 C 
HETATM   11  C   UNL     1     -11.619   0.924 -34.171  1.00  0.00     0.010 C 
ENDROOT
BRANCH   2  12
HETATM   12  C   UNL     1      -7.941   3.283 -32.322  1.00  0.00     0.338 C 
BRANCH  12  13
HETATM   13  C   UNL     1      -6.454   3.612 -32.510  1.00  0.00     0.248 C 
HETATM   14  N   UNL     1      -5.750   3.785 -31.339  1.00  0.00    -0.319 N 
HETATM   15  H   UNL     1      -6.040   3.282 -30.498  1.00  0.00     0.169 HD
HETATM   16  O   UNL     1      -6.039   3.739 -33.662  1.00  0.00    -0.271 OA
BRANCH  14  17
HETATM   17  C   UNL     1      -4.523   4.431 -31.228  1.00  0.00     0.094 A 
HETATM   18  S   UNL     1      -3.141   3.767 -31.948  1.00  0.00    -0.076 SA
HETATM   19  C   UNL     1      -2.170   5.093 -31.503  1.00  0.00    -0.012 A 
HETATM   20  C   UNL     1      -0.725   5.104 -31.892  1.00  0.00     0.057 C 
HETATM   21  C   UNL     1      -2.884   6.053 -30.796  1.00  0.00    -0.030 A 
HETATM   22  C   UNL     1      -2.278   7.322 -30.274  1.00  0.00     0.050 C 
HETATM   23  C   UNL     1      -4.284   5.670 -30.647  1.00  0.00     0.080 A 
BRANCH  23  24
HETATM   24  C   UNL     1      -5.365   6.413 -29.986  1.00  0.00     0.296 C 
HETATM   25  O   UNL     1      -6.303   6.893 -30.620  1.00  0.00    -0.259 OA
BRANCH  24  26
HETATM   26  O   UNL     1      -5.230   6.496 -28.636  1.00  0.00    -0.322 OA
HETATM   27  C   UNL     1      -6.340   6.001 -27.888  1.00  0.00     0.213 C 
ENDBRANCH  24  26
ENDBRANCH  23  24
ENDBRANCH  14  17
ENDBRANCH  12  13
ENDBRANCH   2  12
BRANCH   1  28
HETATM   28  C   UNL     1      -8.496   0.990 -34.256  1.00  0.00    -0.027 A 
HETATM   29  C   UNL     1      -8.609  -0.065 -33.340  1.00  0.00     0.011 A 
HETATM   30  C   UNL     1      -7.813  -1.212 -33.459  1.00  0.00     0.030 A 
HETATM   31  C   UNL     1      -6.851  -1.328 -34.465  1.00  0.00     0.030 A 
HETATM   32  C   UNL     1      -6.684  -0.238 -35.328  1.00  0.00     0.030 A 
HETATM   33  C   UNL     1      -7.495   0.898 -35.235  1.00  0.00     0.011 A 
BRANCH  31  34
HETATM   34  N   UNL     1      -6.088  -2.476 -34.666  1.00  0.00    -0.382 N 
BRANCH  34  35
HETATM   35  C   UNL     1      -6.742  -3.792 -34.646  1.00  0.00     0.118 C 
HETATM   36  C   UNL     1      -5.763  -4.897 -35.022  1.00  0.00     0.026 C 
ENDBRANCH  34  35
BRANCH  34  37
HETATM   37  C   UNL     1      -4.706  -2.417 -34.165  1.00  0.00     0.118 C 
HETATM   38  C   UNL     1      -4.583  -1.561 -32.911  1.00  0.00     0.026 C 
ENDBRANCH  34  37
ENDBRANCH  31  34
ENDBRANCH   1  28
BRANCH   6  39
HETATM   39  O   UNL     1     -11.806   3.677 -35.048  1.00  0.00    -0.389 OA
HETATM   40  H   UNL     1     -10.946   3.682 -35.513  1.00  0.00     0.210 HD
ENDBRANCH   6  39
TORSDOF 10
ENDMDL
MODEL 9
REMARK VINA RESULT:      -7.5      2.189      6.091
REMARK  10 active torsions:
REMARK  status: ('A' for Active; 'I' for Inactive)
REMARK    1  A    between atoms: C_2  and  N_3 
REMARK    2  A    between atoms: N_3  and  C_4 
REMARK    3  A    between atoms: N_3  and  C_37 
REMARK    4  A    between atoms: C_7  and  C_8 
REMARK    5  A    between atoms: N_9  and  C_11 
REMARK    6  A    between atoms: C_11  and  C_12 
REMARK       I    between atoms: C_12  and  N_13 
REMARK    7  A    between atoms: N_13  and  C_14 
REMARK    8  A    between atoms: C_20  and  C_21 
REMARK    9  A    between atoms: C_21  and  O_22 
REMARK   10  A    between atoms: C_28  and  O_29 
ROOT
HETATM    1  C   UNL     1      -6.559  -0.091 -32.965  1.00  0.00     0.228 C 
HETATM    2  N   UNL     1      -5.503   1.005 -32.881  1.00  0.00    -0.054 N 
HETATM    3  H   UNL     1      -5.764   1.566 -32.051  1.00  0.00     0.281 HD
HETATM    4  C   UNL     1      -4.135   0.475 -32.529  1.00  0.00     0.239 C 
HETATM    5  C   UNL     1      -3.687  -0.563 -33.545  1.00  0.00     0.066 C 
HETATM    6  C   UNL     1      -4.691  -1.710 -33.622  1.00  0.00     0.065 C 
HETATM    7  C   UNL     1      -6.107  -1.185 -33.973  1.00  0.00     0.055 C 
HETATM    8  C   UNL     1      -4.237  -2.769 -34.643  1.00  0.00     0.038 C 
HETATM    9  C   UNL     1      -5.222  -3.933 -34.735  1.00  0.00     0.003 C 
HETATM   10  C   UNL     1      -6.640  -3.449 -35.010  1.00  0.00     0.001 C 
HETATM   11  C   UNL     1      -7.088  -2.383 -34.010  1.00  0.00     0.010 C 
ENDROOT
BRANCH   2  12
HETATM   12  C   UNL     1      -5.485   2.082 -33.978  1.00  0.00     0.338 C 
BRANCH  12  13
HETATM   13  C   UNL     1      -5.950   3.417 -33.379  1.00  0.00     0.248 C 
HETATM   14  N   UNL     1      -5.106   3.945 -32.428  1.00  0.00    -0.319 N 
HETATM   15  H   UNL     1      -4.104   3.753 -32.481  1.00  0.00     0.169 HD
HETATM   16  O   UNL     1      -7.034   3.864 -33.754  1.00  0.00    -0.271 OA
BRANCH  14  17
HETATM   17  C   UNL     1      -5.456   4.916 -31.494  1.00  0.00     0.094 A 
HETATM   18  S   UNL     1      -5.087   6.545 -31.777  1.00  0.00    -0.076 SA
HETATM   19  C   UNL     1      -5.881   7.056 -30.360  1.00  0.00    -0.012 A 
HETATM   20  C   UNL     1      -5.914   8.516 -30.028  1.00  0.00     0.057 C 
HETATM   21  C   UNL     1      -6.430   5.995 -29.653  1.00  0.00    -0.030 A 
HETATM   22  C   UNL     1      -7.179   6.154 -28.363  1.00  0.00     0.050 C 
HETATM   23  C   UNL     1      -6.193   4.725 -30.333  1.00  0.00     0.080 A 
BRANCH  23  24
HETATM   24  C   UNL     1      -6.624   3.381 -29.926  1.00  0.00     0.296 C 
HETATM   25  O   UNL     1      -7.780   3.150 -29.574  1.00  0.00    -0.259 OA
BRANCH  24  26
HETATM   26  O   UNL     1      -5.641   2.445 -29.992  1.00  0.00    -0.322 OA
HETATM   27  C   UNL     1      -6.001   1.158 -29.492  1.00  0.00     0.213 C 
ENDBRANCH  24  26
ENDBRANCH  23  24
ENDBRANCH  14  17
ENDBRANCH  12  13
ENDBRANCH   2  12
BRANCH   1  28
HETATM   28  C   UNL     1      -7.953   0.493 -33.146  1.00  0.00    -0.027 A 
HETATM   29  C   UNL     1      -8.741   0.950 -32.080  1.00  0.00     0.011 A 
HETATM   30  C   UNL     1      -9.982   1.558 -32.309  1.00  0.00     0.030 A 
HETATM   31  C   UNL     1     -10.498   1.692 -33.601  1.00  0.00     0.030 A 
HETATM   32  C   UNL     1      -9.746   1.159 -34.655  1.00  0.00     0.030 A 
HETATM   33  C   UNL     1      -8.492   0.578 -34.438  1.00  0.00     0.011 A 
BRANCH  31  34
HETATM   34  N   UNL     1     -11.692   2.351 -33.884  1.00  0.00    -0.382 N 
BRANCH  34  35
HETATM   35  C   UNL     1     -12.958   1.806 -33.373  1.00  0.00     0.118 C 
HETATM   36  C   UNL     1     -13.198   0.395 -33.896  1.00  0.00     0.026 C 
ENDBRANCH  34  35
BRANCH  34  37
HETATM   37  C   UNL     1     -11.745   3.042 -35.181  1.00  0.00     0.118 C 
HETATM   38  C   UNL     1     -12.760   4.178 -35.190  1.00  0.00     0.026 C 
ENDBRANCH  34  37
ENDBRANCH  31  34
ENDBRANCH   1  28
BRANCH   6  39
HETATM   39  O   UNL     1      -4.741  -2.300 -32.317  1.00  0.00    -0.389 OA
HETATM   40  H   UNL     1      -5.662  -2.553 -32.111  1.00  0.00     0.210 HD
ENDBRANCH   6  39
TORSDOF 10
ENDMDL
MODEL 10
REMARK VINA RESULT:      -7.5      2.220      6.273
REMARK  10 active torsions:
REMARK  status: ('A' for Active; 'I' for Inactive)
REMARK    1  A    between atoms: C_2  and  N_3 
REMARK    2  A    between atoms: N_3  and  C_4 
REMARK    3  A    between atoms: N_3  and  C_37 
REMARK    4  A    between atoms: C_7  and  C_8 
REMARK    5  A    between atoms: N_9  and  C_11 
REMARK    6  A    between atoms: C_11  and  C_12 
REMARK       I    between atoms: C_12  and  N_13 
REMARK    7  A    between atoms: N_13  and  C_14 
REMARK    8  A    between atoms: C_20  and  C_21 
REMARK    9  A    between atoms: C_21  and  O_22 
REMARK   10  A    between atoms: C_28  and  O_29 
ROOT
HETATM    1  C   UNL     1      -6.364  -0.193 -32.613  1.00  0.00     0.228 C 
HETATM    2  N   UNL     1      -5.374   0.896 -32.218  1.00  0.00    -0.054 N 
HETATM    3  H   UNL     1      -5.756   1.303 -31.346  1.00  0.00     0.281 HD
HETATM    4  C   UNL     1      -4.037   0.344 -31.789  1.00  0.00     0.239 C 
HETATM    5  C   UNL     1      -3.426  -0.497 -32.898  1.00  0.00     0.066 C 
HETATM    6  C   UNL     1      -4.364  -1.637 -33.288  1.00  0.00     0.065 C 
HETATM    7  C   UNL     1      -5.748  -1.092 -33.723  1.00  0.00     0.055 C 
HETATM    8  C   UNL     1      -3.746  -2.498 -34.404  1.00  0.00     0.038 C 
HETATM    9  C   UNL     1      -4.663  -3.651 -34.810  1.00  0.00     0.003 C 
HETATM   10  C   UNL     1      -6.056  -3.159 -35.177  1.00  0.00     0.001 C 
HETATM   11  C   UNL     1      -6.666  -2.287 -34.080  1.00  0.00     0.010 C 
ENDROOT
BRANCH   2  12
HETATM   12  C   UNL     1      -5.270   2.143 -33.112  1.00  0.00     0.338 C 
BRANCH  12  13
HETATM   13  C   UNL     1      -4.780   3.327 -32.267  1.00  0.00     0.248 C 
HETATM   14  N   UNL     1      -4.001   4.236 -32.948  1.00  0.00    -0.319 N 
HETATM   15  H   UNL     1      -4.148   4.374 -33.950  1.00  0.00     0.169 HD
HETATM   16  O   UNL     1      -5.075   3.336 -31.071  1.00  0.00    -0.271 OA
BRANCH  14  17
HETATM   17  C   UNL     1      -3.152   5.167 -32.358  1.00  0.00     0.094 A 
HETATM   18  S   UNL     1      -1.474   4.941 -32.403  1.00  0.00    -0.076 SA
HETATM   19  C   UNL     1      -1.169   6.435 -31.646  1.00  0.00    -0.012 A 
HETATM   20  C   UNL     1       0.247   6.850 -31.393  1.00  0.00     0.057 C 
HETATM   21  C   UNL     1      -2.339   7.120 -31.345  1.00  0.00    -0.030 A 
HETATM   22  C   UNL     1      -2.367   8.459 -30.668  1.00  0.00     0.050 C 
HETATM   23  C   UNL     1      -3.516   6.377 -31.781  1.00  0.00     0.080 A 
BRANCH  23  24
HETATM   24  C   UNL     1      -4.930   6.761 -31.666  1.00  0.00     0.296 C 
HETATM   25  O   UNL     1      -5.410   7.151 -30.603  1.00  0.00    -0.259 OA
BRANCH  24  26
HETATM   26  O   UNL     1      -5.624   6.657 -32.829  1.00  0.00    -0.322 OA
HETATM   27  C   UNL     1      -6.995   6.287 -32.680  1.00  0.00     0.213 C 
ENDBRANCH  24  26
ENDBRANCH  23  24
ENDBRANCH  14  17
ENDBRANCH  12  13
ENDBRANCH   2  12
BRANCH   1  28
HETATM   28  C   UNL     1      -7.750   0.382 -32.868  1.00  0.00    -0.027 A 
HETATM   29  C   UNL     1      -8.272   0.596 -34.152  1.00  0.00     0.011 A 
HETATM   30  C   UNL     1      -9.586   1.047 -34.331  1.00  0.00     0.030 A 
HETATM   31  C   UNL     1     -10.409   1.340 -33.239  1.00  0.00     0.030 A 
HETATM   32  C   UNL     1      -9.857   1.204 -31.960  1.00  0.00     0.030 A 
HETATM   33  C   UNL     1      -8.556   0.725 -31.772  1.00  0.00     0.011 A 
BRANCH  31  34
HETATM   34  N   UNL     1     -11.742   1.721 -33.367  1.00  0.00    -0.382 N 
BRANCH  34  35
HETATM   35  C   UNL     1     -12.585   1.074 -34.383  1.00  0.00     0.118 C 
HETATM   36  C   UNL     1     -13.581   0.116 -33.740  1.00  0.00     0.026 C 
ENDBRANCH  34  35
BRANCH  34  37
HETATM   37  C   UNL     1     -12.032   3.132 -33.068  1.00  0.00     0.118 C 
HETATM   38  C   UNL     1     -12.370   3.930 -34.322  1.00  0.00     0.026 C 
ENDBRANCH  34  37
ENDBRANCH  31  34
ENDBRANCH   1  28
BRANCH   6  39
HETATM   39  O   UNL     1      -4.545  -2.440 -32.115  1.00  0.00    -0.389 OA
HETATM   40  H   UNL     1      -5.365  -2.167 -31.659  1.00  0.00     0.210 HD
ENDBRANCH   6  39
TORSDOF 10
ENDMDL
