MODEL 1
REMARK VINA RESULT:      -8.6      0.000      0.000
REMARK  5 active torsions:
REMARK  status: ('A' for Active; 'I' for Inactive)
REMARK    1  A    between atoms: C_5  and  C_6 
REMARK    2  A    between atoms: C_6  and  C_7 
REMARK    3  A    between atoms: C_7  and  C_8 
REMARK       I    between atoms: C_8  and  N_9 
REMARK    4  A    between atoms: N_9  and  C_10 
REMARK    5  A    between atoms: C_12  and  C_13 
ROOT
HETATM    1  C   UNL     1      -4.810   2.960 -32.643  1.00  0.00     0.222 C 
HETATM    2  N   UNL     1      -3.436   2.935 -32.782  1.00  0.00    -0.327 N 
HETATM    3  O   UNL     1      -5.491   3.945 -32.368  1.00  0.00    -0.273 OA
HETATM    4  H   UNL     1      -2.994   2.031 -32.866  1.00  0.00     0.169 HD
ENDROOT
BRANCH   2   5
HETATM    5  C   UNL     1      -2.551   4.035 -32.747  1.00  0.00     0.035 A 
HETATM    6  C   UNL     1      -1.891   4.470 -31.593  1.00  0.00     0.042 A 
HETATM    7  C   UNL     1      -1.050   5.597 -31.616  1.00  0.00    -0.021 A 
HETATM    8  C   UNL     1      -0.874   6.281 -32.826  1.00  0.00     0.012 A 
HETATM    9  C   UNL     1      -1.529   5.856 -33.982  1.00  0.00     0.003 A 
HETATM   10  C   UNL     1      -2.368   4.743 -33.940  1.00  0.00     0.029 A 
BRANCH   7  11
HETATM   11  C   UNL     1      -0.386   6.071 -30.409  1.00  0.00     0.010 A 
HETATM   12  C   UNL     1      -0.271   7.374 -29.864  1.00  0.00     0.152 A 
HETATM   13  N   UNL     1       0.426   7.404 -28.724  1.00  0.00    -0.187 NA
HETATM   14  N   UNL     1       0.762   6.119 -28.532  1.00  0.00    -0.289 N 
HETATM   15  H   UNL     1       1.306   5.881 -27.710  1.00  0.00     0.188 HD
HETATM   16  C   UNL     1       0.304   5.285 -29.510  1.00  0.00     0.123 A 
ENDBRANCH   7  11
ENDBRANCH   2   5
BRANCH   1  17
HETATM   17  C   UNL     1      -5.496   1.636 -32.952  1.00  0.00     0.108 C 
BRANCH  17  18
HETATM   18  C   UNL     1      -4.662   0.369 -32.771  1.00  0.00     0.047 C 
BRANCH  18  19
HETATM   19  C   UNL     1      -5.092  -0.891 -33.487  1.00  0.00    -0.058 A 
HETATM   20  C   UNL     1      -4.249  -1.985 -33.709  1.00  0.00     0.007 A 
HETATM   21  C   UNL     1      -4.729  -3.140 -34.337  1.00  0.00     0.007 A 
HETATM   22  C   UNL     1      -6.064  -3.232 -34.743  1.00  0.00    -0.062 A 
HETATM   23  C   UNL     1      -6.589  -4.470 -35.407  1.00  0.00     0.048 C 
HETATM   24  C   UNL     1      -6.911  -2.144 -34.522  1.00  0.00     0.007 A 
HETATM   25  C   UNL     1      -6.432  -0.990 -33.899  1.00  0.00     0.007 A 
ENDBRANCH  18  19
ENDBRANCH  17  18
ENDBRANCH   1  17
TORSDOF 5
ENDMDL
MODEL 2
REMARK VINA RESULT:      -8.4      5.567      8.865
REMARK  5 active torsions:
REMARK  status: ('A' for Active; 'I' for Inactive)
REMARK    1  A    between atoms: C_5  and  C_6 
REMARK    2  A    between atoms: C_6  and  C_7 
REMARK    3  A    between atoms: C_7  and  C_8 
REMARK       I    between atoms: C_8  and  N_9 
REMARK    4  A    between atoms: N_9  and  C_10 
REMARK    5  A    between atoms: C_12  and  C_13 
ROOT
HETATM    1  C   UNL     1      -7.149   1.457 -31.566  1.00  0.00     0.222 C 
HETATM    2  N   UNL     1      -7.850   1.457 -32.757  1.00  0.00    -0.327 N 
HETATM    3  O   UNL     1      -7.461   2.063 -30.545  1.00  0.00    -0.273 OA
HETATM    4  H   UNL     1      -7.403   1.033 -33.558  1.00  0.00     0.169 HD
ENDROOT
BRANCH   2   5
HETATM    5  C   UNL     1      -9.105   2.052 -33.013  1.00  0.00     0.035 A 
HETATM    6  C   UNL     1     -10.277   1.328 -33.258  1.00  0.00     0.042 A 
HETATM    7  C   UNL     1     -11.490   1.981 -33.543  1.00  0.00    -0.021 A 
HETATM    8  C   UNL     1     -11.509   3.382 -33.571  1.00  0.00     0.012 A 
HETATM    9  C   UNL     1     -10.346   4.113 -33.330  1.00  0.00     0.003 A 
HETATM   10  C   UNL     1      -9.149   3.450 -33.059  1.00  0.00     0.029 A 
BRANCH   7  11
HETATM   11  C   UNL     1     -12.705   1.230 -33.829  1.00  0.00     0.010 A 
HETATM   12  C   UNL     1     -13.914   1.625 -34.452  1.00  0.00     0.152 A 
HETATM   13  N   UNL     1     -14.808   0.635 -34.533  1.00  0.00    -0.187 NA
HETATM   14  N   UNL     1     -14.176  -0.402 -33.962  1.00  0.00    -0.289 N 
HETATM   15  H   UNL     1     -14.661  -1.290 -33.905  1.00  0.00     0.188 HD
HETATM   16  C   UNL     1     -12.920  -0.097 -33.523  1.00  0.00     0.123 A 
ENDBRANCH   7  11
ENDBRANCH   2   5
BRANCH   1  17
HETATM   17  C   UNL     1      -5.934   0.539 -31.554  1.00  0.00     0.108 C 
BRANCH  17  18
HETATM   18  C   UNL     1      -5.220   0.322 -32.886  1.00  0.00     0.047 C 
BRANCH  18  19
HETATM   19  C   UNL     1      -5.386  -1.005 -33.590  1.00  0.00    -0.058 A 
HETATM   20  C   UNL     1      -4.335  -1.899 -33.822  1.00  0.00     0.007 A 
HETATM   21  C   UNL     1      -4.571  -3.134 -34.438  1.00  0.00     0.007 A 
HETATM   22  C   UNL     1      -5.862  -3.507 -34.822  1.00  0.00    -0.062 A 
HETATM   23  C   UNL     1      -6.125  -4.832 -35.472  1.00  0.00     0.048 C 
HETATM   24  C   UNL     1      -6.916  -2.620 -34.592  1.00  0.00     0.007 A 
HETATM   25  C   UNL     1      -6.681  -1.386 -33.981  1.00  0.00     0.007 A 
ENDBRANCH  18  19
ENDBRANCH  17  18
ENDBRANCH   1  17
TORSDOF 5
ENDMDL
MODEL 3
REMARK VINA RESULT:      -8.2      2.991      9.229
REMARK  5 active torsions:
REMARK  status: ('A' for Active; 'I' for Inactive)
REMARK    1  A    between atoms: C_5  and  C_6 
REMARK    2  A    between atoms: C_6  and  C_7 
REMARK    3  A    between atoms: C_7  and  C_8 
REMARK       I    between atoms: C_8  and  N_9 
REMARK    4  A    between atoms: N_9  and  C_10 
REMARK    5  A    between atoms: C_12  and  C_13 
ROOT
HETATM    1  C   UNL     1      -5.711   2.026 -31.453  1.00  0.00     0.222 C 
HETATM    2  N   UNL     1      -5.454   1.738 -32.780  1.00  0.00    -0.327 N 
HETATM    3  O   UNL     1      -6.541   1.468 -30.741  1.00  0.00    -0.273 OA
HETATM    4  H   UNL     1      -4.849   2.372 -33.283  1.00  0.00     0.169 HD
ENDROOT
BRANCH   2   5
HETATM    5  C   UNL     1      -6.003   0.691 -33.552  1.00  0.00     0.035 A 
HETATM    6  C   UNL     1      -5.504  -0.616 -33.563  1.00  0.00     0.042 A 
HETATM    7  C   UNL     1      -6.074  -1.606 -34.383  1.00  0.00    -0.021 A 
HETATM    8  C   UNL     1      -7.166  -1.263 -35.193  1.00  0.00     0.012 A 
HETATM    9  C   UNL     1      -7.669   0.038 -35.191  1.00  0.00     0.003 A 
HETATM   10  C   UNL     1      -7.086   1.011 -34.380  1.00  0.00     0.029 A 
BRANCH   7  11
HETATM   11  C   UNL     1      -5.538  -2.960 -34.419  1.00  0.00     0.010 A 
HETATM   12  C   UNL     1      -6.129  -4.181 -34.828  1.00  0.00     0.152 A 
HETATM   13  N   UNL     1      -5.303  -5.226 -34.713  1.00  0.00    -0.187 NA
HETATM   14  N   UNL     1      -4.177  -4.679 -34.229  1.00  0.00    -0.289 N 
HETATM   15  H   UNL     1      -3.383  -5.285 -34.055  1.00  0.00     0.188 HD
HETATM   16  C   UNL     1      -4.267  -3.331 -34.034  1.00  0.00     0.123 A 
ENDBRANCH   7  11
ENDBRANCH   2   5
BRANCH   1  17
HETATM   17  C   UNL     1      -4.793   3.081 -30.851  1.00  0.00     0.108 C 
BRANCH  17  18
HETATM   18  C   UNL     1      -4.530   4.328 -31.693  1.00  0.00     0.047 C 
BRANCH  18  19
HETATM   19  C   UNL     1      -3.214   5.051 -31.527  1.00  0.00    -0.058 A 
HETATM   20  C   UNL     1      -3.026   6.136 -30.663  1.00  0.00     0.007 A 
HETATM   21  C   UNL     1      -1.765   6.728 -30.523  1.00  0.00     0.007 A 
HETATM   22  C   UNL     1      -0.663   6.240 -31.231  1.00  0.00    -0.062 A 
HETATM   23  C   UNL     1       0.693   6.861 -31.079  1.00  0.00     0.048 C 
HETATM   24  C   UNL     1      -0.843   5.156 -32.094  1.00  0.00     0.007 A 
HETATM   25  C   UNL     1      -2.102   4.567 -32.236  1.00  0.00     0.007 A 
ENDBRANCH  18  19
ENDBRANCH  17  18
ENDBRANCH   1  17
TORSDOF 5
ENDMDL
MODEL 4
REMARK VINA RESULT:      -8.1      2.536      3.998
REMARK  5 active torsions:
REMARK  status: ('A' for Active; 'I' for Inactive)
REMARK    1  A    between atoms: C_5  and  C_6 
REMARK    2  A    between atoms: C_6  and  C_7 
REMARK    3  A    between atoms: C_7  and  C_8 
REMARK       I    between atoms: C_8  and  N_9 
REMARK    4  A    between atoms: N_9  and  C_10 
REMARK    5  A    between atoms: C_12  and  C_13 
ROOT
HETATM    1  C   UNL     1      -7.877   1.026 -32.951  1.00  0.00     0.222 C 
HETATM    2  N   UNL     1      -6.574   1.072 -32.494  1.00  0.00    -0.327 N 
HETATM    3  O   UNL     1      -8.673   1.963 -32.959  1.00  0.00    -0.273 OA
HETATM    4  H   UNL     1      -6.081   0.194 -32.412  1.00  0.00     0.169 HD
ENDROOT
BRANCH   2   5
HETATM    5  C   UNL     1      -5.860   2.207 -32.050  1.00  0.00     0.035 A 
HETATM    6  C   UNL     1      -4.858   2.839 -32.793  1.00  0.00     0.042 A 
HETATM    7  C   UNL     1      -4.158   3.945 -32.279  1.00  0.00    -0.021 A 
HETATM    8  C   UNL     1      -4.488   4.415 -31.000  1.00  0.00     0.012 A 
HETATM    9  C   UNL     1      -5.484   3.789 -30.250  1.00  0.00     0.003 A 
HETATM   10  C   UNL     1      -6.161   2.687 -30.771  1.00  0.00     0.029 A 
BRANCH   7  11
HETATM   11  C   UNL     1      -3.093   4.587 -33.038  1.00  0.00     0.010 A 
HETATM   12  C   UNL     1      -3.076   5.105 -34.356  1.00  0.00     0.152 A 
HETATM   13  N   UNL     1      -1.893   5.624 -34.699  1.00  0.00    -0.187 NA
HETATM   14  N   UNL     1      -1.144   5.441 -33.601  1.00  0.00    -0.289 N 
HETATM   15  H   UNL     1      -0.182   5.762 -33.614  1.00  0.00     0.188 HD
HETATM   16  C   UNL     1      -1.813   4.824 -32.583  1.00  0.00     0.123 A 
ENDBRANCH   7  11
ENDBRANCH   2   5
BRANCH   1  17
HETATM   17  C   UNL     1      -8.281  -0.307 -33.565  1.00  0.00     0.108 C 
BRANCH  17  18
HETATM   18  C   UNL     1      -7.449  -0.802 -34.747  1.00  0.00     0.047 C 
BRANCH  18  19
HETATM   19  C   UNL     1      -6.467  -1.928 -34.521  1.00  0.00    -0.058 A 
HETATM   20  C   UNL     1      -6.724  -3.262 -34.854  1.00  0.00     0.007 A 
HETATM   21  C   UNL     1      -5.748  -4.247 -34.662  1.00  0.00     0.007 A 
HETATM   22  C   UNL     1      -4.491  -3.918 -34.147  1.00  0.00    -0.062 A 
HETATM   23  C   UNL     1      -3.436  -4.965 -33.948  1.00  0.00     0.048 C 
HETATM   24  C   UNL     1      -4.226  -2.587 -33.815  1.00  0.00     0.007 A 
HETATM   25  C   UNL     1      -5.201  -1.604 -34.003  1.00  0.00     0.007 A 
ENDBRANCH  18  19
ENDBRANCH  17  18
ENDBRANCH   1  17
TORSDOF 5
ENDMDL
MODEL 5
REMARK VINA RESULT:      -7.9     17.096     18.776
REMARK  5 active torsions:
REMARK  status: ('A' for Active; 'I' for Inactive)
REMARK    1  A    between atoms: C_5  and  C_6 
REMARK    2  A    between atoms: C_6  and  C_7 
REMARK    3  A    between atoms: C_7  and  C_8 
REMARK       I    between atoms: C_8  and  N_9 
REMARK    4  A    between atoms: N_9  and  C_10 
REMARK    5  A    between atoms: C_12  and  C_13 
ROOT
HETATM    1  C   UNL     1      -5.359 -14.399 -36.483  1.00  0.00     0.222 C 
HETATM    2  N   UNL     1      -5.521 -13.128 -37.000  1.00  0.00    -0.327 N 
HETATM    3  O   UNL     1      -5.785 -15.440 -36.977  1.00  0.00    -0.273 OA
HETATM    4  H   UNL     1      -5.245 -12.351 -36.416  1.00  0.00     0.169 HD
ENDROOT
BRANCH   2   5
HETATM    5  C   UNL     1      -6.105 -12.774 -38.236  1.00  0.00     0.035 A 
HETATM    6  C   UNL     1      -7.468 -12.905 -38.522  1.00  0.00     0.042 A 
HETATM    7  C   UNL     1      -7.982 -12.568 -39.787  1.00  0.00    -0.021 A 
HETATM    8  C   UNL     1      -7.102 -12.087 -40.765  1.00  0.00     0.012 A 
HETATM    9  C   UNL     1      -5.740 -11.956 -40.491  1.00  0.00     0.003 A 
HETATM   10  C   UNL     1      -5.245 -12.304 -39.234  1.00  0.00     0.029 A 
BRANCH   7  11
HETATM   11  C   UNL     1      -9.396 -12.732 -40.098  1.00  0.00     0.010 A 
HETATM   12  C   UNL     1     -10.193 -13.899 -40.205  1.00  0.00     0.152 A 
HETATM   13  N   UNL     1     -11.467 -13.635 -40.510  1.00  0.00    -0.187 NA
HETATM   14  N   UNL     1     -11.494 -12.297 -40.600  1.00  0.00    -0.289 N 
HETATM   15  H   UNL     1     -12.374 -11.846 -40.826  1.00  0.00     0.188 HD
HETATM   16  C   UNL     1     -10.284 -11.711 -40.366  1.00  0.00     0.123 A 
ENDBRANCH   7  11
ENDBRANCH   2   5
BRANCH   1  17
HETATM   17  C   UNL     1      -4.493 -14.462 -35.231  1.00  0.00     0.108 C 
BRANCH  17  18
HETATM   18  C   UNL     1      -2.994 -14.667 -35.439  1.00  0.00     0.047 C 
BRANCH  18  19
HETATM   19  C   UNL     1      -2.413 -14.428 -36.813  1.00  0.00    -0.058 A 
HETATM   20  C   UNL     1      -1.929 -13.190 -37.248  1.00  0.00     0.007 A 
HETATM   21  C   UNL     1      -1.359 -13.052 -38.519  1.00  0.00     0.007 A 
HETATM   22  C   UNL     1      -1.247 -14.151 -39.377  1.00  0.00    -0.062 A 
HETATM   23  C   UNL     1      -0.628 -14.015 -40.735  1.00  0.00     0.048 C 
HETATM   24  C   UNL     1      -1.727 -15.391 -38.948  1.00  0.00     0.007 A 
HETATM   25  C   UNL     1      -2.299 -15.528 -37.681  1.00  0.00     0.007 A 
ENDBRANCH  18  19
ENDBRANCH  17  18
ENDBRANCH   1  17
TORSDOF 5
ENDMDL
MODEL 6
REMARK VINA RESULT:      -7.7      2.583      9.442
REMARK  5 active torsions:
REMARK  status: ('A' for Active; 'I' for Inactive)
REMARK    1  A    between atoms: C_5  and  C_6 
REMARK    2  A    between atoms: C_6  and  C_7 
REMARK    3  A    between atoms: C_7  and  C_8 
REMARK       I    between atoms: C_8  and  N_9 
REMARK    4  A    between atoms: N_9  and  C_10 
REMARK    5  A    between atoms: C_12  and  C_13 
ROOT
HETATM    1  C   UNL     1      -3.231   3.675 -32.299  1.00  0.00     0.222 C 
HETATM    2  N   UNL     1      -4.490   3.233 -32.659  1.00  0.00    -0.327 N 
HETATM    3  O   UNL     1      -2.469   3.118 -31.513  1.00  0.00    -0.273 OA
HETATM    4  H   UNL     1      -5.065   3.862 -33.201  1.00  0.00     0.169 HD
ENDROOT
BRANCH   2   5
HETATM    5  C   UNL     1      -5.110   2.018 -32.293  1.00  0.00     0.035 A 
HETATM    6  C   UNL     1      -5.139   0.880 -33.106  1.00  0.00     0.042 A 
HETATM    7  C   UNL     1      -5.805  -0.289 -32.698  1.00  0.00    -0.021 A 
HETATM    8  C   UNL     1      -6.439  -0.302 -31.448  1.00  0.00     0.012 A 
HETATM    9  C   UNL     1      -6.418   0.828 -30.631  1.00  0.00     0.003 A 
HETATM   10  C   UNL     1      -5.761   1.984 -31.055  1.00  0.00     0.029 A 
BRANCH   7  11
HETATM   11  C   UNL     1      -5.864  -1.466 -33.556  1.00  0.00     0.010 A 
HETATM   12  C   UNL     1      -6.966  -2.114 -34.167  1.00  0.00     0.152 A 
HETATM   13  N   UNL     1      -6.610  -3.179 -34.891  1.00  0.00    -0.187 NA
HETATM   14  N   UNL     1      -5.276  -3.219 -34.749  1.00  0.00    -0.289 N 
HETATM   15  H   UNL     1      -4.763  -3.956 -35.220  1.00  0.00     0.188 HD
HETATM   16  C   UNL     1      -4.783  -2.220 -33.960  1.00  0.00     0.123 A 
ENDBRANCH   7  11
ENDBRANCH   2   5
BRANCH   1  17
HETATM   17  C   UNL     1      -2.769   4.923 -33.037  1.00  0.00     0.108 C 
BRANCH  17  18
HETATM   18  C   UNL     1      -2.904   6.252 -32.297  1.00  0.00     0.047 C 
BRANCH  18  19
HETATM   19  C   UNL     1      -1.834   6.641 -31.303  1.00  0.00    -0.058 A 
HETATM   20  C   UNL     1      -0.464   6.458 -31.524  1.00  0.00     0.007 A 
HETATM   21  C   UNL     1       0.475   6.887 -30.579  1.00  0.00     0.007 A 
HETATM   22  C   UNL     1       0.067   7.519 -29.401  1.00  0.00    -0.062 A 
HETATM   23  C   UNL     1       1.067   7.991 -28.389  1.00  0.00     0.048 C 
HETATM   24  C   UNL     1      -1.298   7.707 -29.175  1.00  0.00     0.007 A 
HETATM   25  C   UNL     1      -2.236   7.276 -30.116  1.00  0.00     0.007 A 
ENDBRANCH  18  19
ENDBRANCH  17  18
ENDBRANCH   1  17
TORSDOF 5
ENDMDL
MODEL 7
REMARK VINA RESULT:      -7.5      2.173      2.597
REMARK  5 active torsions:
REMARK  status: ('A' for Active; 'I' for Inactive)
REMARK    1  A    between atoms: C_5  and  C_6 
REMARK    2  A    between atoms: C_6  and  C_7 
REMARK    3  A    between atoms: C_7  and  C_8 
REMARK       I    between atoms: C_8  and  N_9 
REMARK    4  A    between atoms: N_9  and  C_10 
REMARK    5  A    between atoms: C_12  and  C_13 
ROOT
HETATM    1  C   UNL     1      -5.479   3.313 -32.948  1.00  0.00     0.222 C 
HETATM    2  N   UNL     1      -4.100   3.363 -32.883  1.00  0.00    -0.327 N 
HETATM    3  O   UNL     1      -6.236   4.280 -32.980  1.00  0.00    -0.273 OA
HETATM    4  H   UNL     1      -3.612   2.495 -32.715  1.00  0.00     0.169 HD
ENDROOT
BRANCH   2   5
HETATM    5  C   UNL     1      -3.280   4.511 -32.949  1.00  0.00     0.035 A 
HETATM    6  C   UNL     1      -3.543   5.700 -32.259  1.00  0.00     0.042 A 
HETATM    7  C   UNL     1      -2.706   6.821 -32.396  1.00  0.00    -0.021 A 
HETATM    8  C   UNL     1      -1.588   6.728 -33.236  1.00  0.00     0.012 A 
HETATM    9  C   UNL     1      -1.319   5.548 -33.930  1.00  0.00     0.003 A 
HETATM   10  C   UNL     1      -2.165   4.448 -33.791  1.00  0.00     0.029 A 
BRANCH   7  11
HETATM   11  C   UNL     1      -2.994   8.070 -31.703  1.00  0.00     0.010 A 
HETATM   12  C   UNL     1      -2.165   9.182 -31.413  1.00  0.00     0.152 A 
HETATM   13  N   UNL     1      -2.804  10.151 -30.751  1.00  0.00    -0.187 NA
HETATM   14  N   UNL     1      -4.047   9.666 -30.614  1.00  0.00    -0.289 N 
HETATM   15  H   UNL     1      -4.737  10.234 -30.134  1.00  0.00     0.188 HD
HETATM   16  C   UNL     1      -4.211   8.426 -31.162  1.00  0.00     0.123 A 
ENDBRANCH   7  11
ENDBRANCH   2   5
BRANCH   1  17
HETATM   17  C   UNL     1      -6.051   1.907 -33.072  1.00  0.00     0.108 C 
BRANCH  17  18
HETATM   18  C   UNL     1      -5.078   0.747 -32.873  1.00  0.00     0.047 C 
BRANCH  18  19
HETATM   19  C   UNL     1      -5.419  -0.597 -33.473  1.00  0.00    -0.058 A 
HETATM   20  C   UNL     1      -6.706  -0.962 -33.881  1.00  0.00     0.007 A 
HETATM   21  C   UNL     1      -6.941  -2.208 -34.474  1.00  0.00     0.007 A 
HETATM   22  C   UNL     1      -5.893  -3.109 -34.685  1.00  0.00    -0.062 A 
HETATM   23  C   UNL     1      -6.133  -4.441 -35.330  1.00  0.00     0.048 C 
HETATM   24  C   UNL     1      -4.604  -2.750 -34.282  1.00  0.00     0.007 A 
HETATM   25  C   UNL     1      -4.371  -1.508 -33.686  1.00  0.00     0.007 A 
ENDBRANCH  18  19
ENDBRANCH  17  18
ENDBRANCH   1  17
TORSDOF 5
ENDMDL
MODEL 8
REMARK VINA RESULT:      -7.4      6.545      9.342
REMARK  5 active torsions:
REMARK  status: ('A' for Active; 'I' for Inactive)
REMARK    1  A    between atoms: C_5  and  C_6 
REMARK    2  A    between atoms: C_6  and  C_7 
REMARK    3  A    between atoms: C_7  and  C_8 
REMARK       I    between atoms: C_8  and  N_9 
REMARK    4  A    between atoms: N_9  and  C_10 
REMARK    5  A    between atoms: C_12  and  C_13 
ROOT
HETATM    1  C   UNL     1      -8.777   0.735 -33.665  1.00  0.00     0.222 C 
HETATM    2  N   UNL     1     -10.019   0.427 -33.142  1.00  0.00    -0.327 N 
HETATM    3  O   UNL     1      -8.562   1.459 -34.634  1.00  0.00    -0.273 OA
HETATM    4  H   UNL     1     -10.058  -0.295 -32.437  1.00  0.00     0.169 HD
ENDROOT
BRANCH   2   5
HETATM    5  C   UNL     1     -11.269   0.955 -33.533  1.00  0.00     0.035 A 
HETATM    6  C   UNL     1     -11.492   2.307 -33.816  1.00  0.00     0.042 A 
HETATM    7  C   UNL     1     -12.771   2.776 -34.165  1.00  0.00    -0.021 A 
HETATM    8  C   UNL     1     -13.829   1.859 -34.234  1.00  0.00     0.012 A 
HETATM    9  C   UNL     1     -13.617   0.510 -33.952  1.00  0.00     0.003 A 
HETATM   10  C   UNL     1     -12.344   0.062 -33.597  1.00  0.00     0.029 A 
BRANCH   7  11
HETATM   11  C   UNL     1     -13.013   4.188 -34.430  1.00  0.00     0.010 A 
HETATM   12  C   UNL     1     -13.535   5.211 -33.600  1.00  0.00     0.152 A 
HETATM   13  N   UNL     1     -13.605   6.397 -34.213  1.00  0.00    -0.187 NA
HETATM   14  N   UNL     1     -13.127   6.140 -35.440  1.00  0.00    -0.289 N 
HETATM   15  H   UNL     1     -13.076   6.902 -36.108  1.00  0.00     0.188 HD
HETATM   16  C   UNL     1     -12.763   4.837 -35.621  1.00  0.00     0.123 A 
ENDBRANCH   7  11
ENDBRANCH   2   5
BRANCH   1  17
HETATM   17  C   UNL     1      -7.606   0.164 -32.879  1.00  0.00     0.108 C 
BRANCH  17  18
HETATM   18  C   UNL     1      -6.239   0.191 -33.560  1.00  0.00     0.047 C 
BRANCH  18  19
HETATM   19  C   UNL     1      -5.435  -1.087 -33.624  1.00  0.00    -0.058 A 
HETATM   20  C   UNL     1      -4.389  -1.391 -32.746  1.00  0.00     0.007 A 
HETATM   21  C   UNL     1      -3.718  -2.617 -32.833  1.00  0.00     0.007 A 
HETATM   22  C   UNL     1      -4.087  -3.569 -33.788  1.00  0.00    -0.062 A 
HETATM   23  C   UNL     1      -3.382  -4.889 -33.880  1.00  0.00     0.048 C 
HETATM   24  C   UNL     1      -5.133  -3.273 -34.665  1.00  0.00     0.007 A 
HETATM   25  C   UNL     1      -5.800  -2.048 -34.582  1.00  0.00     0.007 A 
ENDBRANCH  18  19
ENDBRANCH  17  18
ENDBRANCH   1  17
TORSDOF 5
ENDMDL
MODEL 9
REMARK VINA RESULT:      -7.3     17.738     19.962
REMARK  5 active torsions:
REMARK  status: ('A' for Active; 'I' for Inactive)
REMARK    1  A    between atoms: C_5  and  C_6 
REMARK    2  A    between atoms: C_6  and  C_7 
REMARK    3  A    between atoms: C_7  and  C_8 
REMARK       I    between atoms: C_8  and  N_9 
REMARK    4  A    between atoms: N_9  and  C_10 
REMARK    5  A    between atoms: C_12  and  C_13 
ROOT
HETATM    1  C   UNL     1      -3.980 -15.236 -42.799  1.00  0.00     0.222 C 
HETATM    2  N   UNL     1      -4.788 -15.292 -41.680  1.00  0.00    -0.327 N 
HETATM    3  O   UNL     1      -3.860 -14.275 -43.555  1.00  0.00    -0.273 OA
HETATM    4  H   UNL     1      -4.901 -16.192 -41.234  1.00  0.00     0.169 HD
ENDROOT
BRANCH   2   5
HETATM    5  C   UNL     1      -5.546 -14.243 -41.116  1.00  0.00     0.035 A 
HETATM    6  C   UNL     1      -6.944 -14.230 -41.061  1.00  0.00     0.042 A 
HETATM    7  C   UNL     1      -7.641 -13.136 -40.519  1.00  0.00    -0.021 A 
HETATM    8  C   UNL     1      -6.909 -12.050 -40.021  1.00  0.00     0.012 A 
HETATM    9  C   UNL     1      -5.515 -12.052 -40.073  1.00  0.00     0.003 A 
HETATM   10  C   UNL     1      -4.838 -13.140 -40.623  1.00  0.00     0.029 A 
BRANCH   7  11
HETATM   11  C   UNL     1      -9.098 -13.107 -40.489  1.00  0.00     0.010 A 
HETATM   12  C   UNL     1     -10.048 -14.155 -40.558  1.00  0.00     0.152 A 
HETATM   13  N   UNL     1     -11.311 -13.721 -40.498  1.00  0.00    -0.187 NA
HETATM   14  N   UNL     1     -11.176 -12.390 -40.390  1.00  0.00    -0.289 N 
HETATM   15  H   UNL     1     -12.015 -11.824 -40.325  1.00  0.00     0.188 HD
HETATM   16  C   UNL     1      -9.876 -11.973 -40.384  1.00  0.00     0.123 A 
ENDBRANCH   7  11
ENDBRANCH   2   5
BRANCH   1  17
HETATM   17  C   UNL     1      -3.124 -16.476 -43.019  1.00  0.00     0.108 C 
BRANCH  17  18
HETATM   18  C   UNL     1      -1.805 -16.548 -42.252  1.00  0.00     0.047 C 
BRANCH  18  19
HETATM   19  C   UNL     1      -1.642 -15.703 -41.010  1.00  0.00    -0.058 A 
HETATM   20  C   UNL     1      -1.132 -14.400 -41.017  1.00  0.00     0.007 A 
HETATM   21  C   UNL     1      -1.054 -13.657 -39.833  1.00  0.00     0.007 A 
HETATM   22  C   UNL     1      -1.496 -14.195 -38.620  1.00  0.00    -0.062 A 
HETATM   23  C   UNL     1      -1.425 -13.403 -37.349  1.00  0.00     0.048 C 
HETATM   24  C   UNL     1      -2.007 -15.494 -38.606  1.00  0.00     0.007 A 
HETATM   25  C   UNL     1      -2.083 -16.237 -39.787  1.00  0.00     0.007 A 
ENDBRANCH  18  19
ENDBRANCH  17  18
ENDBRANCH   1  17
TORSDOF 5
ENDMDL
MODEL 10
REMARK VINA RESULT:      -7.2      3.679      8.810
REMARK  5 active torsions:
REMARK  status: ('A' for Active; 'I' for Inactive)
REMARK    1  A    between atoms: C_5  and  C_6 
REMARK    2  A    between atoms: C_6  and  C_7 
REMARK    3  A    between atoms: C_7  and  C_8 
REMARK       I    between atoms: C_8  and  N_9 
REMARK    4  A    between atoms: N_9  and  C_10 
REMARK    5  A    between atoms: C_12  and  C_13 
ROOT
HETATM    1  C   UNL     1      -3.986   4.880 -34.186  1.00  0.00     0.222 C 
HETATM    2  N   UNL     1      -3.852   3.901 -33.219  1.00  0.00    -0.327 N 
HETATM    3  O   UNL     1      -5.038   5.406 -34.540  1.00  0.00    -0.273 OA
HETATM    4  H   UNL     1      -2.949   3.456 -33.132  1.00  0.00     0.169 HD
ENDROOT
BRANCH   2   5
HETATM    5  C   UNL     1      -4.860   3.387 -32.375  1.00  0.00     0.035 A 
HETATM    6  C   UNL     1      -5.989   2.699 -32.834  1.00  0.00     0.042 A 
HETATM    7  C   UNL     1      -6.977   2.244 -31.943  1.00  0.00    -0.021 A 
HETATM    8  C   UNL     1      -6.809   2.484 -30.572  1.00  0.00     0.012 A 
HETATM    9  C   UNL     1      -5.689   3.171 -30.104  1.00  0.00     0.003 A 
HETATM   10  C   UNL     1      -4.723   3.625 -31.003  1.00  0.00     0.029 A 
BRANCH   7  11
HETATM   11  C   UNL     1      -8.168   1.555 -32.421  1.00  0.00     0.010 A 
HETATM   12  C   UNL     1      -8.771   1.525 -33.703  1.00  0.00     0.152 A 
HETATM   13  N   UNL     1      -9.870   0.766 -33.746  1.00  0.00    -0.187 NA
HETATM   14  N   UNL     1      -9.978   0.304 -32.491  1.00  0.00    -0.289 N 
HETATM   15  H   UNL     1     -10.752  -0.311 -32.268  1.00  0.00     0.188 HD
HETATM   16  C   UNL     1      -8.988   0.748 -31.661  1.00  0.00     0.123 A 
ENDBRANCH   7  11
ENDBRANCH   2   5
BRANCH   1  17
HETATM   17  C   UNL     1      -2.668   5.370 -34.770  1.00  0.00     0.108 C 
BRANCH  17  18
HETATM   18  C   UNL     1      -2.063   6.626 -34.148  1.00  0.00     0.047 C 
BRANCH  18  19
HETATM   19  C   UNL     1      -1.416   6.523 -32.786  1.00  0.00    -0.058 A 
HETATM   20  C   UNL     1      -0.702   5.402 -32.348  1.00  0.00     0.007 A 
HETATM   21  C   UNL     1      -0.087   5.395 -31.090  1.00  0.00     0.007 A 
HETATM   22  C   UNL     1      -0.159   6.510 -30.251  1.00  0.00    -0.062 A 
HETATM   23  C   UNL     1       0.506   6.514 -28.908  1.00  0.00     0.048 C 
HETATM   24  C   UNL     1      -0.869   7.633 -30.683  1.00  0.00     0.007 A 
HETATM   25  C   UNL     1      -1.486   7.640 -31.937  1.00  0.00     0.007 A 
ENDBRANCH  18  19
ENDBRANCH  17  18
ENDBRANCH   1  17
TORSDOF 5
ENDMDL
