MODEL 1
REMARK VINA RESULT:      -8.1      0.000      0.000
REMARK  3 active torsions:
REMARK  status: ('A' for Active; 'I' for Inactive)
REMARK    1  A    between atoms: C_2  and  N_3 
REMARK       I    between atoms: N_3  and  C_4 
REMARK    2  A    between atoms: C_4  and  C_5 
REMARK    3  A    between atoms: C_5  and  C_6 
ROOT
HETATM    1  C   UNL     1      -5.060   2.004 -32.515  1.00  0.00     0.286 C 
HETATM    2  N   UNL     1      -5.915   1.283 -33.565  1.00  0.00    -0.056 N 
HETATM    3  H   UNL     1      -6.907   1.559 -33.432  1.00  0.00     0.278 HD
HETATM    4  H   UNL     1      -5.645   1.613 -34.501  1.00  0.00     0.278 HD
HETATM    5  C   UNL     1      -5.857  -0.222 -33.508  1.00  0.00     0.209 C 
HETATM    6  C   UNL     1      -4.386  -0.676 -33.483  1.00  0.00     0.115 C 
HETATM    7  N   UNL     1      -3.669  -0.068 -32.376  1.00  0.00    -0.353 N 
HETATM    8  C   UNL     1      -3.806   1.252 -32.036  1.00  0.00     0.249 C 
HETATM    9  O   UNL     1      -2.956   1.796 -31.339  1.00  0.00    -0.271 OA
HETATM   10  C   UNL     1      -6.600  -0.808 -34.703  1.00  0.00     0.035 C 
HETATM   11  C   UNL     1      -6.524  -2.335 -34.677  1.00  0.00     0.002 C 
HETATM   12  C   UNL     1      -5.083  -2.839 -34.584  1.00  0.00     0.002 C 
HETATM   13  C   UNL     1      -4.316  -2.203 -33.422  1.00  0.00     0.027 C 
HETATM   14  H   UNL     1      -2.776  -0.465 -32.088  1.00  0.00     0.163 HD
ENDROOT
BRANCH   1  15
HETATM   15  C   UNL     1      -5.885   2.533 -31.337  1.00  0.00     0.146 C 
BRANCH  15  16
HETATM   16  C   UNL     1      -6.569   1.425 -30.597  1.00  0.00     0.224 C 
HETATM   17  N   UNL     1      -7.822   0.971 -30.812  1.00  0.00    -0.327 N 
HETATM   18  H   UNL     1      -8.019   0.200 -30.177  1.00  0.00     0.169 HD
HETATM   19  O   UNL     1      -5.953   0.958 -29.623  1.00  0.00    -0.273 OA
BRANCH  17  20
HETATM   20  C   UNL     1      -8.895   1.290 -31.666  1.00  0.00     0.034 A 
HETATM   21  C   UNL     1      -9.481   2.541 -31.835  1.00  0.00     0.031 A 
HETATM   22  C   UNL     1     -10.573   2.712 -32.702  1.00  0.00     0.026 A 
HETATM   23  C   UNL     1     -11.083   1.633 -33.414  1.00  0.00     0.034 A 
HETATM   24  C   UNL     1     -10.508   0.378 -33.268  1.00  0.00     0.026 A 
HETATM   25 CL   UNL     1     -12.422   1.851 -34.466  1.00  0.00    -0.084 Cl
HETATM   26  C   UNL     1      -9.421   0.212 -32.401  1.00  0.00     0.031 A 
ENDBRANCH  17  20
ENDBRANCH  15  16
ENDBRANCH   1  15
TORSDOF 3
ENDMDL
MODEL 2
REMARK VINA RESULT:      -7.9      3.118      6.140
REMARK  3 active torsions:
REMARK  status: ('A' for Active; 'I' for Inactive)
REMARK    1  A    between atoms: C_2  and  N_3 
REMARK       I    between atoms: N_3  and  C_4 
REMARK    2  A    between atoms: C_4  and  C_5 
REMARK    3  A    between atoms: C_5  and  C_6 
ROOT
HETATM    1  C   UNL     1      -8.084   2.926 -33.349  1.00  0.00     0.286 C 
HETATM    2  N   UNL     1      -9.195   1.896 -33.111  1.00  0.00    -0.056 N 
HETATM    3  H   UNL     1      -8.779   0.945 -33.141  1.00  0.00     0.278 HD
HETATM    4  H   UNL     1      -9.569   2.018 -32.161  1.00  0.00     0.278 HD
HETATM    5  C   UNL     1     -10.316   1.926 -34.118  1.00  0.00     0.209 C 
HETATM    6  C   UNL     1     -10.828   3.370 -34.270  1.00  0.00     0.115 C 
HETATM    7  N   UNL     1      -9.749   4.271 -34.638  1.00  0.00    -0.353 N 
HETATM    8  C   UNL     1      -8.509   4.222 -34.059  1.00  0.00     0.249 C 
HETATM    9  O   UNL     1      -7.755   5.187 -34.144  1.00  0.00    -0.271 OA
HETATM   10  C   UNL     1     -11.430   0.985 -33.672  1.00  0.00     0.035 C 
HETATM   11  C   UNL     1     -12.589   1.029 -34.668  1.00  0.00     0.002 C 
HETATM   12  C   UNL     1     -13.092   2.454 -34.907  1.00  0.00     0.002 C 
HETATM   13  C   UNL     1     -11.964   3.412 -35.293  1.00  0.00     0.027 C 
HETATM   14  H   UNL     1      -9.980   5.189 -35.015  1.00  0.00     0.163 HD
ENDROOT
BRANCH   1  15
HETATM   15  C   UNL     1      -6.833   2.315 -33.989  1.00  0.00     0.146 C 
BRANCH  15  16
HETATM   16  C   UNL     1      -5.896   1.764 -32.959  1.00  0.00     0.224 C 
HETATM   17  N   UNL     1      -5.503   0.477 -32.839  1.00  0.00    -0.327 N 
HETATM   18  H   UNL     1      -4.850   0.391 -32.064  1.00  0.00     0.169 HD
HETATM   19  O   UNL     1      -5.536   2.554 -32.069  1.00  0.00    -0.273 OA
BRANCH  17  20
HETATM   20  C   UNL     1      -5.766  -0.739 -33.496  1.00  0.00     0.034 A 
HETATM   21  C   UNL     1      -7.013  -1.232 -33.870  1.00  0.00     0.031 A 
HETATM   22  C   UNL     1      -7.135  -2.484 -34.495  1.00  0.00     0.026 A 
HETATM   23  C   UNL     1      -6.006  -3.251 -34.758  1.00  0.00     0.034 A 
HETATM   24  C   UNL     1      -4.752  -2.776 -34.402  1.00  0.00     0.026 A 
HETATM   25 CL   UNL     1      -6.166  -4.783 -35.516  1.00  0.00    -0.084 Cl
HETATM   26  C   UNL     1      -4.636  -1.529 -33.778  1.00  0.00     0.031 A 
ENDBRANCH  17  20
ENDBRANCH  15  16
ENDBRANCH   1  15
TORSDOF 3
ENDMDL
MODEL 3
REMARK VINA RESULT:      -7.7      3.776      6.015
REMARK  3 active torsions:
REMARK  status: ('A' for Active; 'I' for Inactive)
REMARK    1  A    between atoms: C_2  and  N_3 
REMARK       I    between atoms: N_3  and  C_4 
REMARK    2  A    between atoms: C_4  and  C_5 
REMARK    3  A    between atoms: C_5  and  C_6 
ROOT
HETATM    1  C   UNL     1      -5.700   3.842 -32.075  1.00  0.00     0.286 C 
HETATM    2  N   UNL     1      -5.098   4.371 -33.382  1.00  0.00    -0.056 N 
HETATM    3  H   UNL     1      -5.374   3.737 -34.156  1.00  0.00     0.278 HD
HETATM    4  H   UNL     1      -5.512   5.287 -33.596  1.00  0.00     0.278 HD
HETATM    5  C   UNL     1      -3.594   4.465 -33.397  1.00  0.00     0.209 C 
HETATM    6  C   UNL     1      -3.117   5.219 -32.141  1.00  0.00     0.115 C 
HETATM    7  N   UNL     1      -3.604   4.580 -30.931  1.00  0.00    -0.353 N 
HETATM    8  C   UNL     1      -4.887   4.118 -30.799  1.00  0.00     0.249 C 
HETATM    9  O   UNL     1      -5.348   3.904 -29.682  1.00  0.00    -0.271 OA
HETATM   10  C   UNL     1      -3.137   5.165 -34.672  1.00  0.00     0.035 C 
HETATM   11  C   UNL     1      -1.614   5.297 -34.687  1.00  0.00     0.002 C 
HETATM   12  C   UNL     1      -1.082   5.980 -33.427  1.00  0.00     0.002 C 
HETATM   13  C   UNL     1      -1.590   5.318 -32.145  1.00  0.00     0.027 C 
HETATM   14  H   UNL     1      -3.167   4.812 -30.040  1.00  0.00     0.163 HD
ENDROOT
BRANCH   1  15
HETATM   15  C   UNL     1      -6.125   2.373 -32.166  1.00  0.00     0.146 C 
BRANCH  15  16
HETATM   16  C   UNL     1      -6.818   2.075 -33.460  1.00  0.00     0.224 C 
HETATM   17  N   UNL     1      -6.704   0.945 -34.189  1.00  0.00    -0.327 N 
HETATM   18  H   UNL     1      -7.301   1.008 -35.011  1.00  0.00     0.169 HD
HETATM   19  O   UNL     1      -7.476   3.008 -33.953  1.00  0.00    -0.273 OA
BRANCH  17  20
HETATM   20  C   UNL     1      -5.984  -0.261 -34.104  1.00  0.00     0.034 A 
HETATM   21  C   UNL     1      -4.769  -0.461 -33.455  1.00  0.00     0.031 A 
HETATM   22  C   UNL     1      -4.141  -1.718 -33.475  1.00  0.00     0.026 A 
HETATM   23  C   UNL     1      -4.728  -2.788 -34.140  1.00  0.00     0.034 A 
HETATM   24  C   UNL     1      -5.945  -2.613 -34.785  1.00  0.00     0.026 A 
HETATM   25 CL   UNL     1      -3.950  -4.317 -34.164  1.00  0.00    -0.084 Cl
HETATM   26  C   UNL     1      -6.566  -1.359 -34.764  1.00  0.00     0.031 A 
ENDBRANCH  17  20
ENDBRANCH  15  16
ENDBRANCH   1  15
TORSDOF 3
ENDMDL
MODEL 4
REMARK VINA RESULT:      -7.7      4.215      6.444
REMARK  3 active torsions:
REMARK  status: ('A' for Active; 'I' for Inactive)
REMARK    1  A    between atoms: C_2  and  N_3 
REMARK       I    between atoms: N_3  and  C_4 
REMARK    2  A    between atoms: C_4  and  C_5 
REMARK    3  A    between atoms: C_5  and  C_6 
ROOT
HETATM    1  C   UNL     1      -3.812   3.895 -33.127  1.00  0.00     0.286 C 
HETATM    2  N   UNL     1      -2.655   3.775 -32.127  1.00  0.00    -0.056 N 
HETATM    3  H   UNL     1      -3.002   3.298 -31.273  1.00  0.00     0.278 HD
HETATM    4  H   UNL     1      -1.930   3.165 -32.525  1.00  0.00     0.278 HD
HETATM    5  C   UNL     1      -2.052   5.086 -31.694  1.00  0.00     0.209 C 
HETATM    6  C   UNL     1      -1.716   5.930 -32.937  1.00  0.00     0.115 C 
HETATM    7  N   UNL     1      -2.891   6.128 -33.768  1.00  0.00    -0.353 N 
HETATM    8  C   UNL     1      -3.779   5.124 -34.051  1.00  0.00     0.249 C 
HETATM    9  O   UNL     1      -4.545   5.235 -35.004  1.00  0.00    -0.271 OA
HETATM   10  C   UNL     1      -0.810   4.823 -30.848  1.00  0.00     0.035 C 
HETATM   11  C   UNL     1      -0.168   6.145 -30.427  1.00  0.00     0.002 C 
HETATM   12  C   UNL     1       0.125   7.052 -31.623  1.00  0.00     0.002 C 
HETATM   13  C   UNL     1      -1.105   7.265 -32.507  1.00  0.00     0.027 C 
HETATM   14  H   UNL     1      -2.879   6.863 -34.473  1.00  0.00     0.163 HD
ENDROOT
BRANCH   1  15
HETATM   15  C   UNL     1      -5.186   3.718 -32.472  1.00  0.00     0.146 C 
BRANCH  15  16
HETATM   16  C   UNL     1      -5.112   2.850 -31.254  1.00  0.00     0.224 C 
HETATM   17  N   UNL     1      -5.212   1.504 -31.222  1.00  0.00    -0.327 N 
HETATM   18  H   UNL     1      -5.107   1.177 -30.263  1.00  0.00     0.169 HD
HETATM   19  O   UNL     1      -5.061   3.443 -30.163  1.00  0.00    -0.273 OA
BRANCH  17  20
HETATM   20  C   UNL     1      -5.423   0.470 -32.153  1.00  0.00     0.034 A 
HETATM   21  C   UNL     1      -6.650  -0.010 -32.601  1.00  0.00     0.031 A 
HETATM   22  C   UNL     1      -6.716  -1.075 -33.514  1.00  0.00     0.026 A 
HETATM   23  C   UNL     1      -5.552  -1.666 -33.992  1.00  0.00     0.034 A 
HETATM   24  C   UNL     1      -4.317  -1.198 -33.566  1.00  0.00     0.026 A 
HETATM   25 CL   UNL     1      -5.644  -2.972 -35.103  1.00  0.00    -0.084 Cl
HETATM   26  C   UNL     1      -4.257  -0.137 -32.655  1.00  0.00     0.031 A 
ENDBRANCH  17  20
ENDBRANCH  15  16
ENDBRANCH   1  15
TORSDOF 3
ENDMDL
MODEL 5
REMARK VINA RESULT:      -7.4     14.535     16.306
REMARK  3 active torsions:
REMARK  status: ('A' for Active; 'I' for Inactive)
REMARK    1  A    between atoms: C_2  and  N_3 
REMARK       I    between atoms: N_3  and  C_4 
REMARK    2  A    between atoms: C_4  and  C_5 
REMARK    3  A    between atoms: C_5  and  C_6 
ROOT
HETATM    1  C   UNL     1      -3.871 -14.037 -40.042  1.00  0.00     0.286 C 
HETATM    2  N   UNL     1      -3.155 -14.558 -38.790  1.00  0.00    -0.056 N 
HETATM    3  H   UNL     1      -3.469 -14.002 -37.972  1.00  0.00     0.278 HD
HETATM    4  H   UNL     1      -3.452 -15.526 -38.612  1.00  0.00     0.278 HD
HETATM    5  C   UNL     1      -1.651 -14.477 -38.837  1.00  0.00     0.209 C 
HETATM    6  C   UNL     1      -1.146 -15.104 -40.149  1.00  0.00     0.115 C 
HETATM    7  N   UNL     1      -1.756 -14.465 -41.303  1.00  0.00    -0.353 N 
HETATM    8  C   UNL     1      -3.087 -14.150 -41.361  1.00  0.00     0.249 C 
HETATM    9  O   UNL     1      -3.618 -13.934 -42.446  1.00  0.00    -0.271 OA
HETATM   10  C   UNL     1      -1.062 -15.183 -37.620  1.00  0.00     0.035 C 
HETATM   11  C   UNL     1       0.465 -15.137 -37.670  1.00  0.00     0.002 C 
HETATM   12  C   UNL     1       1.017 -15.687 -38.986  1.00  0.00     0.002 C 
HETATM   13  C   UNL     1       0.381 -15.023 -40.208  1.00  0.00     0.027 C 
HETATM   14  H   UNL     1      -1.335 -14.598 -42.221  1.00  0.00     0.163 HD
ENDROOT
BRANCH   1  15
HETATM   15  C   UNL     1      -4.457 -12.634 -39.852  1.00  0.00     0.146 C 
BRANCH  15  16
HETATM   16  C   UNL     1      -4.873 -12.394 -38.434  1.00  0.00     0.224 C 
HETATM   17  N   UNL     1      -6.128 -12.472 -37.943  1.00  0.00    -0.327 N 
HETATM   18  H   UNL     1      -6.115 -12.278 -36.943  1.00  0.00     0.169 HD
HETATM   19  O   UNL     1      -3.986 -11.981 -37.668  1.00  0.00    -0.273 OA
BRANCH  17  20
HETATM   20  C   UNL     1      -7.413 -12.741 -38.451  1.00  0.00     0.034 A 
HETATM   21  C   UNL     1      -8.350 -13.622 -37.920  1.00  0.00     0.031 A 
HETATM   22  C   UNL     1      -9.590 -13.820 -38.550  1.00  0.00     0.026 A 
HETATM   23  C   UNL     1      -9.904 -13.131 -39.716  1.00  0.00     0.034 A 
HETATM   24  C   UNL     1      -8.988 -12.241 -40.258  1.00  0.00     0.026 A 
HETATM   25 CL   UNL     1     -11.419 -13.385 -40.482  1.00  0.00    -0.084 Cl
HETATM   26  C   UNL     1      -7.754 -12.048 -39.627  1.00  0.00     0.031 A 
ENDBRANCH  17  20
ENDBRANCH  15  16
ENDBRANCH   1  15
TORSDOF 3
ENDMDL
MODEL 6
REMARK VINA RESULT:      -7.4      3.425      5.281
REMARK  3 active torsions:
REMARK  status: ('A' for Active; 'I' for Inactive)
REMARK    1  A    between atoms: C_2  and  N_3 
REMARK       I    between atoms: N_3  and  C_4 
REMARK    2  A    between atoms: C_4  and  C_5 
REMARK    3  A    between atoms: C_5  and  C_6 
ROOT
HETATM    1  C   UNL     1      -8.153   1.509 -31.879  1.00  0.00     0.286 C 
HETATM    2  N   UNL     1      -6.915   0.646 -31.606  1.00  0.00    -0.056 N 
HETATM    3  H   UNL     1      -6.178   1.244 -31.186  1.00  0.00     0.278 HD
HETATM    4  H   UNL     1      -7.150  -0.064 -30.900  1.00  0.00     0.278 HD
HETATM    5  C   UNL     1      -6.317  -0.011 -32.824  1.00  0.00     0.209 C 
HETATM    6  C   UNL     1      -7.425  -0.739 -33.608  1.00  0.00     0.115 C 
HETATM    7  N   UNL     1      -8.501   0.171 -33.960  1.00  0.00    -0.353 N 
HETATM    8  C   UNL     1      -9.010   1.095 -33.087  1.00  0.00     0.249 C 
HETATM    9  O   UNL     1     -10.111   1.595 -33.297  1.00  0.00    -0.271 OA
HETATM   10  C   UNL     1      -5.214  -0.973 -32.397  1.00  0.00     0.035 C 
HETATM   11  C   UNL     1      -4.619  -1.671 -33.620  1.00  0.00     0.002 C 
HETATM   12  C   UNL     1      -5.689  -2.355 -34.472  1.00  0.00     0.002 C 
HETATM   13  C   UNL     1      -6.829  -1.407 -34.848  1.00  0.00     0.027 C 
HETATM   14  H   UNL     1      -9.164  -0.104 -34.683  1.00  0.00     0.163 HD
ENDROOT
BRANCH   1  15
HETATM   15  C   UNL     1      -7.840   3.010 -31.896  1.00  0.00     0.146 C 
BRANCH  15  16
HETATM   16  C   UNL     1      -6.970   3.408 -30.745  1.00  0.00     0.224 C 
HETATM   17  N   UNL     1      -5.737   3.954 -30.822  1.00  0.00    -0.327 N 
HETATM   18  H   UNL     1      -5.388   4.141 -29.884  1.00  0.00     0.169 HD
HETATM   19  O   UNL     1      -7.388   3.105 -29.614  1.00  0.00    -0.273 OA
BRANCH  17  20
HETATM   20  C   UNL     1      -4.839   4.315 -31.844  1.00  0.00     0.034 A 
HETATM   21  C   UNL     1      -5.053   5.257 -32.846  1.00  0.00     0.031 A 
HETATM   22  C   UNL     1      -4.078   5.498 -33.827  1.00  0.00     0.026 A 
HETATM   23  C   UNL     1      -2.875   4.802 -33.809  1.00  0.00     0.034 A 
HETATM   24  C   UNL     1      -2.636   3.865 -32.813  1.00  0.00     0.026 A 
HETATM   25 CL   UNL     1      -1.691   5.099 -35.017  1.00  0.00    -0.084 Cl
HETATM   26  C   UNL     1      -3.611   3.628 -31.839  1.00  0.00     0.031 A 
ENDBRANCH  17  20
ENDBRANCH  15  16
ENDBRANCH   1  15
TORSDOF 3
ENDMDL
MODEL 7
REMARK VINA RESULT:      -7.4     14.622     16.662
REMARK  3 active torsions:
REMARK  status: ('A' for Active; 'I' for Inactive)
REMARK    1  A    between atoms: C_2  and  N_3 
REMARK       I    between atoms: N_3  and  C_4 
REMARK    2  A    between atoms: C_4  and  C_5 
REMARK    3  A    between atoms: C_5  and  C_6 
ROOT
HETATM    1  C   UNL     1      -3.112 -13.762 -39.761  1.00  0.00     0.286 C 
HETATM    2  N   UNL     1      -3.924 -13.553 -41.045  1.00  0.00    -0.056 N 
HETATM    3  H   UNL     1      -4.906 -13.337 -40.786  1.00  0.00     0.278 HD
HETATM    4  H   UNL     1      -3.566 -12.725 -41.538  1.00  0.00     0.278 HD
HETATM    5  C   UNL     1      -3.957 -14.738 -41.976  1.00  0.00     0.209 C 
HETATM    6  C   UNL     1      -2.521 -15.235 -42.222  1.00  0.00     0.115 C 
HETATM    7  N   UNL     1      -1.856 -15.553 -40.970  1.00  0.00    -0.353 N 
HETATM    8  C   UNL     1      -1.943 -14.757 -39.858  1.00  0.00     0.249 C 
HETATM    9  O   UNL     1      -1.118 -14.872 -38.957  1.00  0.00    -0.271 OA
HETATM   10  C   UNL     1      -4.640 -14.343 -43.282  1.00  0.00     0.035 C 
HETATM   11  C   UNL     1      -4.653 -15.527 -44.250  1.00  0.00     0.002 C 
HETATM   12  C   UNL     1      -3.254 -16.103 -44.476  1.00  0.00     0.002 C 
HETATM   13  C   UNL     1      -2.543 -16.440 -43.164  1.00  0.00     0.027 C 
HETATM   14  H   UNL     1      -1.012 -16.123 -40.990  1.00  0.00     0.163 HD
ENDROOT
BRANCH   1  15
HETATM   15  C   UNL     1      -3.992 -14.043 -38.539  1.00  0.00     0.146 C 
BRANCH  15  16
HETATM   16  C   UNL     1      -4.461 -12.777 -37.891  1.00  0.00     0.224 C 
HETATM   17  N   UNL     1      -5.694 -12.236 -37.989  1.00  0.00    -0.327 N 
HETATM   18  H   UNL     1      -5.738 -11.385 -37.431  1.00  0.00     0.169 HD
HETATM   19  O   UNL     1      -3.594 -12.115 -37.295  1.00  0.00    -0.273 OA
BRANCH  17  20
HETATM   20  C   UNL     1      -6.897 -12.540 -38.652  1.00  0.00     0.034 A 
HETATM   21  C   UNL     1      -7.194 -12.300 -39.991  1.00  0.00     0.031 A 
HETATM   22  C   UNL     1      -8.454 -12.628 -40.518  1.00  0.00     0.026 A 
HETATM   23  C   UNL     1      -9.426 -13.206 -39.711  1.00  0.00     0.034 A 
HETATM   24  C   UNL     1      -9.149 -13.464 -38.376  1.00  0.00     0.026 A 
HETATM   25 CL   UNL     1     -10.965 -13.597 -40.364  1.00  0.00    -0.084 Cl
HETATM   26  C   UNL     1      -7.893 -13.134 -37.854  1.00  0.00     0.031 A 
ENDBRANCH  17  20
ENDBRANCH  15  16
ENDBRANCH   1  15
TORSDOF 3
ENDMDL
MODEL 8
REMARK VINA RESULT:      -7.2      4.339      6.144
REMARK  3 active torsions:
REMARK  status: ('A' for Active; 'I' for Inactive)
REMARK    1  A    between atoms: C_2  and  N_3 
REMARK       I    between atoms: N_3  and  C_4 
REMARK    2  A    between atoms: C_4  and  C_5 
REMARK    3  A    between atoms: C_5  and  C_6 
ROOT
HETATM    1  C   UNL     1      -4.153   1.802 -31.978  1.00  0.00     0.286 C 
HETATM    2  N   UNL     1      -5.170   1.891 -33.122  1.00  0.00    -0.056 N 
HETATM    3  H   UNL     1      -5.871   2.621 -32.888  1.00  0.00     0.278 HD
HETATM    4  H   UNL     1      -4.691   2.212 -33.973  1.00  0.00     0.278 HD
HETATM    5  C   UNL     1      -5.926   0.618 -33.400  1.00  0.00     0.209 C 
HETATM    6  C   UNL     1      -4.930  -0.548 -33.542  1.00  0.00     0.115 C 
HETATM    7  N   UNL     1      -4.093  -0.666 -32.361  1.00  0.00    -0.353 N 
HETATM    8  C   UNL     1      -3.534   0.415 -31.733  1.00  0.00     0.249 C 
HETATM    9  O   UNL     1      -2.585   0.259 -30.971  1.00  0.00    -0.271 OA
HETATM   10  C   UNL     1      -6.766   0.787 -34.662  1.00  0.00     0.035 C 
HETATM   11  C   UNL     1      -7.516  -0.509 -34.976  1.00  0.00     0.002 C 
HETATM   12  C   UNL     1      -6.576  -1.712 -35.060  1.00  0.00     0.002 C 
HETATM   13  C   UNL     1      -5.688  -1.847 -33.822  1.00  0.00     0.027 C 
HETATM   14  H   UNL     1      -3.574  -1.530 -32.207  1.00  0.00     0.163 HD
ENDROOT
BRANCH   1  15
HETATM   15  C   UNL     1      -4.663   2.431 -30.677  1.00  0.00     0.146 C 
BRANCH  15  16
HETATM   16  C   UNL     1      -5.299   3.765 -30.918  1.00  0.00     0.224 C 
HETATM   17  N   UNL     1      -4.656   4.925 -31.171  1.00  0.00    -0.327 N 
HETATM   18  H   UNL     1      -5.338   5.668 -31.313  1.00  0.00     0.169 HD
HETATM   19  O   UNL     1      -6.531   3.819 -30.761  1.00  0.00    -0.273 OA
BRANCH  17  20
HETATM   20  C   UNL     1      -3.320   5.353 -31.282  1.00  0.00     0.034 A 
HETATM   21  C   UNL     1      -2.342   4.821 -32.116  1.00  0.00     0.031 A 
HETATM   22  C   UNL     1      -1.031   5.327 -32.102  1.00  0.00     0.026 A 
HETATM   23  C   UNL     1      -0.691   6.377 -31.257  1.00  0.00     0.034 A 
HETATM   24  C   UNL     1      -1.654   6.930 -30.423  1.00  0.00     0.026 A 
HETATM   25 CL   UNL     1       0.914   6.984 -31.243  1.00  0.00    -0.084 Cl
HETATM   26  C   UNL     1      -2.957   6.421 -30.439  1.00  0.00     0.031 A 
ENDBRANCH  17  20
ENDBRANCH  15  16
ENDBRANCH   1  15
TORSDOF 3
ENDMDL
MODEL 9
REMARK VINA RESULT:      -7.2      3.802      5.971
REMARK  3 active torsions:
REMARK  status: ('A' for Active; 'I' for Inactive)
REMARK    1  A    between atoms: C_2  and  N_3 
REMARK       I    between atoms: N_3  and  C_4 
REMARK    2  A    between atoms: C_4  and  C_5 
REMARK    3  A    between atoms: C_5  and  C_6 
ROOT
HETATM    1  C   UNL     1      -4.434   3.437 -31.054  1.00  0.00     0.286 C 
HETATM    2  N   UNL     1      -4.254   4.859 -30.510  1.00  0.00    -0.056 N 
HETATM    3  H   UNL     1      -5.191   5.274 -30.348  1.00  0.00     0.278 HD
HETATM    4  H   UNL     1      -3.795   4.811 -29.592  1.00  0.00     0.278 HD
HETATM    5  C   UNL     1      -3.500   5.796 -31.419  1.00  0.00     0.209 C 
HETATM    6  C   UNL     1      -2.187   5.129 -31.866  1.00  0.00     0.115 C 
HETATM    7  N   UNL     1      -2.441   3.849 -32.505  1.00  0.00    -0.353 N 
HETATM    8  C   UNL     1      -3.341   2.939 -32.016  1.00  0.00     0.249 C 
HETATM    9  O   UNL     1      -3.281   1.767 -32.372  1.00  0.00    -0.271 OA
HETATM   10  C   UNL     1      -3.237   7.111 -30.693  1.00  0.00     0.035 C 
HETATM   11  C   UNL     1      -2.445   8.062 -31.591  1.00  0.00     0.002 C 
HETATM   12  C   UNL     1      -1.161   7.421 -32.119  1.00  0.00     0.002 C 
HETATM   13  C   UNL     1      -1.416   6.071 -32.792  1.00  0.00     0.027 C 
HETATM   14  H   UNL     1      -1.707   3.423 -33.068  1.00  0.00     0.163 HD
ENDROOT
BRANCH   1  15
HETATM   15  C   UNL     1      -5.837   3.189 -31.619  1.00  0.00     0.146 C 
BRANCH  15  16
HETATM   16  C   UNL     1      -6.620   2.241 -30.763  1.00  0.00     0.224 C 
HETATM   17  N   UNL     1      -6.897   0.950 -31.044  1.00  0.00    -0.327 N 
HETATM   18  H   UNL     1      -7.428   0.541 -30.277  1.00  0.00     0.169 HD
HETATM   19  O   UNL     1      -7.150   2.730 -29.751  1.00  0.00    -0.273 OA
BRANCH  17  20
HETATM   20  C   UNL     1      -6.646   0.054 -32.100  1.00  0.00     0.034 A 
HETATM   21  C   UNL     1      -7.495  -0.235 -33.165  1.00  0.00     0.031 A 
HETATM   22  C   UNL     1      -7.130  -1.179 -34.139  1.00  0.00     0.026 A 
HETATM   23  C   UNL     1      -5.909  -1.838 -34.059  1.00  0.00     0.034 A 
HETATM   24  C   UNL     1      -5.043  -1.558 -33.011  1.00  0.00     0.026 A 
HETATM   25 CL   UNL     1      -5.476  -2.995 -35.251  1.00  0.00    -0.084 Cl
HETATM   26  C   UNL     1      -5.411  -0.617 -32.042  1.00  0.00     0.031 A 
ENDBRANCH  17  20
ENDBRANCH  15  16
ENDBRANCH   1  15
TORSDOF 3
ENDMDL
MODEL 10
REMARK VINA RESULT:      -7.0      2.512      3.307
REMARK  3 active torsions:
REMARK  status: ('A' for Active; 'I' for Inactive)
REMARK    1  A    between atoms: C_2  and  N_3 
REMARK       I    between atoms: N_3  and  C_4 
REMARK    2  A    between atoms: C_4  and  C_5 
REMARK    3  A    between atoms: C_5  and  C_6 
ROOT
HETATM    1  C   UNL     1      -7.973   1.172 -33.247  1.00  0.00     0.286 C 
HETATM    2  N   UNL     1      -7.928  -0.069 -34.146  1.00  0.00    -0.056 N 
HETATM    3  H   UNL     1      -8.853  -0.539 -34.111  1.00  0.00     0.278 HD
HETATM    4  H   UNL     1      -7.791   0.228 -35.121  1.00  0.00     0.278 HD
HETATM    5  C   UNL     1      -6.890  -1.093 -33.764  1.00  0.00     0.209 C 
HETATM    6  C   UNL     1      -5.527  -0.399 -33.591  1.00  0.00     0.115 C 
HETATM    7  N   UNL     1      -5.607   0.675 -32.616  1.00  0.00    -0.353 N 
HETATM    8  C   UNL     1      -6.647   1.565 -32.573  1.00  0.00     0.249 C 
HETATM    9  O   UNL     1      -6.517   2.631 -31.980  1.00  0.00    -0.271 OA
HETATM   10  C   UNL     1      -6.828  -2.181 -34.831  1.00  0.00     0.035 C 
HETATM   11  C   UNL     1      -5.757  -3.212 -34.474  1.00  0.00     0.002 C 
HETATM   12  C   UNL     1      -4.394  -2.565 -34.224  1.00  0.00     0.002 C 
HETATM   13  C   UNL     1      -4.466  -1.430 -33.200  1.00  0.00     0.027 C 
HETATM   14  H   UNL     1      -4.745   1.046 -32.218  1.00  0.00     0.163 HD
ENDROOT
BRANCH   1  15
HETATM   15  C   UNL     1      -9.128   1.136 -32.240  1.00  0.00     0.146 C 
BRANCH  15  16
HETATM   16  C   UNL     1     -10.312   0.396 -32.781  1.00  0.00     0.224 C 
HETATM   17  N   UNL     1     -11.379   0.938 -33.405  1.00  0.00    -0.327 N 
HETATM   18  H   UNL     1     -12.023   0.200 -33.683  1.00  0.00     0.169 HD
HETATM   19  O   UNL     1     -10.356  -0.821 -32.531  1.00  0.00    -0.273 OA
BRANCH  17  20
HETATM   20  C   UNL     1     -11.815   2.230 -33.754  1.00  0.00     0.034 A 
HETATM   21  C   UNL     1     -12.862   2.941 -33.175  1.00  0.00     0.031 A 
HETATM   22  C   UNL     1     -13.212   4.217 -33.645  1.00  0.00     0.026 A 
HETATM   23  C   UNL     1     -12.512   4.797 -34.696  1.00  0.00     0.034 A 
HETATM   24  C   UNL     1     -11.458   4.110 -35.283  1.00  0.00     0.026 A 
HETATM   25 CL   UNL     1     -12.952   6.354 -35.268  1.00  0.00    -0.084 Cl
HETATM   26  C   UNL     1     -11.114   2.838 -34.812  1.00  0.00     0.031 A 
ENDBRANCH  17  20
ENDBRANCH  15  16
ENDBRANCH   1  15
TORSDOF 3
ENDMDL
