MODEL 1
REMARK VINA RESULT:     -10.3      0.000      0.000
REMARK  4 active torsions:
REMARK  status: ('A' for Active; 'I' for Inactive)
REMARK    1  A    between atoms: C_4  and  C_5 
REMARK    2  A    between atoms: C_6  and  N_7 
REMARK    3  A    between atoms: C_9  and  C_10 
REMARK       I    between atoms: C_10  and  N_11 
REMARK    4  A    between atoms: N_11  and  C_12 
ROOT
HETATM    1  C   UNL     1      -4.549   3.289 -32.603  1.00  0.00     0.019 A 
HETATM    2  C   UNL     1      -5.773   3.518 -33.149  1.00  0.00     0.111 A 
HETATM    3  C   UNL     1      -6.100   4.915 -33.669  1.00  0.00     0.273 A 
HETATM    4  O   UNL     1      -7.185   5.196 -34.178  1.00  0.00    -0.266 OA
HETATM    5  N   UNL     1      -5.143   5.880 -33.553  1.00  0.00    -0.321 N 
HETATM    6  C   UNL     1      -3.888   5.666 -32.994  1.00  0.00     0.046 A 
HETATM    7  C   UNL     1      -3.553   4.392 -32.523  1.00  0.00     0.006 A 
HETATM    8  C   UNL     1      -2.988   6.731 -32.920  1.00  0.00     0.032 A 
HETATM    9  C   UNL     1      -1.724   6.530 -32.368  1.00  0.00     0.026 A 
HETATM   10  C   UNL     1      -1.372   5.267 -31.901  1.00  0.00     0.035 A 
HETATM   11 CL   UNL     1       0.189   5.017 -31.222  1.00  0.00    -0.084 Cl
HETATM   12  C   UNL     1      -2.273   4.203 -31.978  1.00  0.00     0.038 A 
HETATM   13  H   UNL     1      -5.406   6.793 -33.899  1.00  0.00     0.169 HD
ENDROOT
BRANCH   2  14
HETATM   14  N   UNL     1      -6.802   2.542 -33.224  1.00  0.00    -0.375 N 
HETATM   15  C   UNL     1      -7.144   1.966 -34.538  1.00  0.00     0.137 C 
HETATM   16  C   UNL     1      -7.895   0.636 -34.399  1.00  0.00     0.096 C 
HETATM   17  C   UNL     1      -9.142   0.847 -33.522  1.00  0.00     0.017 C 
HETATM   18  C   UNL     1      -8.787   1.505 -32.189  1.00  0.00     0.021 C 
HETATM   19  C   UNL     1      -8.003   2.795 -32.398  1.00  0.00     0.123 C 
BRANCH  16  20
HETATM   20  C   UNL     1      -7.049  -0.552 -33.903  1.00  0.00     0.229 C 
HETATM   21  N   UNL     1      -6.613  -1.390 -34.915  1.00  0.00    -0.311 N 
HETATM   22  H   UNL     1      -6.765  -1.114 -35.870  1.00  0.00     0.170 HD
HETATM   23  O   UNL     1      -6.904  -0.755 -32.700  1.00  0.00    -0.273 OA
BRANCH  21  24
HETATM   24  C   UNL     1      -5.917  -2.594 -34.728  1.00  0.00     0.129 A 
HETATM   25  N   UNL     1      -4.634  -2.601 -34.328  1.00  0.00    -0.243 NA
HETATM   26  C   UNL     1      -4.022  -3.791 -34.158  1.00  0.00     0.119 A 
HETATM   27  C   UNL     1      -4.638  -5.008 -34.379  1.00  0.00     0.019 A 
HETATM   28  C   UNL     1      -5.963  -4.997 -34.794  1.00  0.00     0.005 A 
HETATM   29  C   UNL     1      -6.613  -3.776 -34.966  1.00  0.00     0.050 A 
ENDBRANCH  21  24
ENDBRANCH  16  20
ENDBRANCH   2  14
BRANCH   1  30
HETATM   30  C   UNL     1      -4.270   1.918 -32.104  1.00  0.00    -0.023 A 
HETATM   31  C   UNL     1      -4.766   1.502 -30.862  1.00  0.00     0.012 A 
HETATM   32  C   UNL     1      -4.500   0.216 -30.394  1.00  0.00     0.001 A 
HETATM   33  C   UNL     1      -3.751  -0.668 -31.169  1.00  0.00     0.000 A 
HETATM   34  C   UNL     1      -3.265  -0.268 -32.412  1.00  0.00     0.001 A 
HETATM   35  C   UNL     1      -3.522   1.022 -32.879  1.00  0.00     0.012 A 
ENDBRANCH   1  30
TORSDOF 4
ENDMDL
MODEL 2
REMARK VINA RESULT:     -10.2      3.093      7.420
REMARK  4 active torsions:
REMARK  status: ('A' for Active; 'I' for Inactive)
REMARK    1  A    between atoms: C_4  and  C_5 
REMARK    2  A    between atoms: C_6  and  N_7 
REMARK    3  A    between atoms: C_9  and  C_10 
REMARK       I    between atoms: C_10  and  N_11 
REMARK    4  A    between atoms: N_11  and  C_12 
ROOT
HETATM    1  C   UNL     1      -5.230  -0.757 -32.924  1.00  0.00     0.019 A 
HETATM    2  C   UNL     1      -4.495   0.051 -32.114  1.00  0.00     0.111 A 
HETATM    3  C   UNL     1      -3.188  -0.479 -31.531  1.00  0.00     0.273 A 
HETATM    4  O   UNL     1      -2.470   0.195 -30.792  1.00  0.00    -0.266 OA
HETATM    5  N   UNL     1      -2.819  -1.753 -31.846  1.00  0.00    -0.321 N 
HETATM    6  C   UNL     1      -3.557  -2.595 -32.670  1.00  0.00     0.046 A 
HETATM    7  C   UNL     1      -4.752  -2.133 -33.232  1.00  0.00     0.006 A 
HETATM    8  C   UNL     1      -3.085  -3.886 -32.919  1.00  0.00     0.032 A 
HETATM    9  C   UNL     1      -3.812  -4.739 -33.747  1.00  0.00     0.026 A 
HETATM   10  C   UNL     1      -5.000  -4.292 -34.321  1.00  0.00     0.035 A 
HETATM   11 CL   UNL     1      -5.897  -5.344 -35.346  1.00  0.00    -0.084 Cl
HETATM   12  C   UNL     1      -5.469  -3.001 -34.072  1.00  0.00     0.038 A 
HETATM   13  H   UNL     1      -1.952  -2.067 -31.430  1.00  0.00     0.169 HD
ENDROOT
BRANCH   2  14
HETATM   14  N   UNL     1      -4.895   1.357 -31.726  1.00  0.00    -0.375 N 
HETATM   15  C   UNL     1      -4.126   2.514 -32.224  1.00  0.00     0.137 C 
HETATM   16  C   UNL     1      -4.931   3.816 -32.127  1.00  0.00     0.096 C 
HETATM   17  C   UNL     1      -5.396   4.018 -30.674  1.00  0.00     0.017 C 
HETATM   18  C   UNL     1      -6.134   2.788 -30.145  1.00  0.00     0.021 C 
HETATM   19  C   UNL     1      -5.300   1.524 -30.313  1.00  0.00     0.123 C 
BRANCH  16  20
HETATM   20  C   UNL     1      -6.102   3.946 -33.119  1.00  0.00     0.229 C 
HETATM   21  N   UNL     1      -7.251   4.480 -32.562  1.00  0.00    -0.311 N 
HETATM   22  H   UNL     1      -7.209   4.844 -31.625  1.00  0.00     0.170 HD
HETATM   23  O   UNL     1      -6.008   3.493 -34.258  1.00  0.00    -0.273 OA
BRANCH  21  24
HETATM   24  C   UNL     1      -8.486   4.610 -33.216  1.00  0.00     0.129 A 
HETATM   25  N   UNL     1      -8.606   5.343 -34.335  1.00  0.00    -0.243 NA
HETATM   26  C   UNL     1      -9.818   5.422 -34.923  1.00  0.00     0.119 A 
HETATM   27  C   UNL     1     -10.949   4.796 -34.434  1.00  0.00     0.019 A 
HETATM   28  C   UNL     1     -10.821   4.041 -33.276  1.00  0.00     0.005 A 
HETATM   29  C   UNL     1      -9.574   3.941 -32.661  1.00  0.00     0.050 A 
ENDBRANCH  21  24
ENDBRANCH  16  20
ENDBRANCH   2  14
BRANCH   1  30
HETATM   30  C   UNL     1      -6.498  -0.208 -33.468  1.00  0.00    -0.023 A 
HETATM   31  C   UNL     1      -6.583   0.178 -34.812  1.00  0.00     0.012 A 
HETATM   32  C   UNL     1      -7.774   0.696 -35.320  1.00  0.00     0.001 A 
HETATM   33  C   UNL     1      -8.891   0.817 -34.495  1.00  0.00     0.000 A 
HETATM   34  C   UNL     1      -8.820   0.422 -33.160  1.00  0.00     0.001 A 
HETATM   35  C   UNL     1      -7.627  -0.089 -32.647  1.00  0.00     0.012 A 
ENDBRANCH   1  30
TORSDOF 4
ENDMDL
MODEL 3
REMARK VINA RESULT:      -9.5      3.493      7.460
REMARK  4 active torsions:
REMARK  status: ('A' for Active; 'I' for Inactive)
REMARK    1  A    between atoms: C_4  and  C_5 
REMARK    2  A    between atoms: C_6  and  N_7 
REMARK    3  A    between atoms: C_9  and  C_10 
REMARK       I    between atoms: C_10  and  N_11 
REMARK    4  A    between atoms: N_11  and  C_12 
ROOT
HETATM    1  C   UNL     1      -6.338   0.031 -33.151  1.00  0.00     0.019 A 
HETATM    2  C   UNL     1      -5.557   0.956 -32.532  1.00  0.00     0.111 A 
HETATM    3  C   UNL     1      -4.068   0.672 -32.363  1.00  0.00     0.273 A 
HETATM    4  O   UNL     1      -3.299   1.462 -31.816  1.00  0.00    -0.266 OA
HETATM    5  N   UNL     1      -3.586  -0.513 -32.837  1.00  0.00    -0.321 N 
HETATM    6  C   UNL     1      -4.369  -1.473 -33.469  1.00  0.00     0.046 A 
HETATM    7  C   UNL     1      -5.735  -1.234 -33.653  1.00  0.00     0.006 A 
HETATM    8  C   UNL     1      -3.770  -2.655 -33.908  1.00  0.00     0.032 A 
HETATM    9  C   UNL     1      -4.541  -3.624 -34.548  1.00  0.00     0.026 A 
HETATM   10  C   UNL     1      -5.900  -3.399 -34.746  1.00  0.00     0.035 A 
HETATM   11 CL   UNL     1      -6.853  -4.593 -35.539  1.00  0.00    -0.084 Cl
HETATM   12  C   UNL     1      -6.497  -2.215 -34.307  1.00  0.00     0.038 A 
HETATM   13  H   UNL     1      -2.597  -0.665 -32.694  1.00  0.00     0.169 HD
ENDROOT
BRANCH   2  14
HETATM   14  N   UNL     1      -6.053   2.167 -31.979  1.00  0.00    -0.375 N 
HETATM   15  C   UNL     1      -5.968   3.403 -32.781  1.00  0.00     0.137 C 
HETATM   16  C   UNL     1      -6.940   4.477 -32.275  1.00  0.00     0.096 C 
HETATM   17  C   UNL     1      -6.672   4.741 -30.783  1.00  0.00     0.017 C 
HETATM   18  C   UNL     1      -6.696   3.446 -29.971  1.00  0.00     0.021 C 
HETATM   19  C   UNL     1      -5.745   2.407 -30.553  1.00  0.00     0.123 C 
BRANCH  16  20
HETATM   20  C   UNL     1      -8.431   4.198 -32.542  1.00  0.00     0.229 C 
HETATM   21  N   UNL     1      -8.951   4.907 -33.610  1.00  0.00    -0.311 N 
HETATM   22  H   UNL     1      -8.323   5.438 -34.189  1.00  0.00     0.170 HD
HETATM   23  O   UNL     1      -9.080   3.491 -31.774  1.00  0.00    -0.273 OA
BRANCH  21  24
HETATM   24  C   UNL     1     -10.299   4.915 -34.000  1.00  0.00     0.129 A 
HETATM   25  N   UNL     1     -11.255   5.397 -33.188  1.00  0.00    -0.243 NA
HETATM   26  C   UNL     1     -12.532   5.386 -33.622  1.00  0.00     0.119 A 
HETATM   27  C   UNL     1     -12.917   4.898 -34.857  1.00  0.00     0.019 A 
HETATM   28  C   UNL     1     -11.927   4.399 -35.693  1.00  0.00     0.005 A 
HETATM   29  C   UNL     1     -10.601   4.412 -35.263  1.00  0.00     0.050 A 
ENDBRANCH  21  24
ENDBRANCH  16  20
ENDBRANCH   2  14
BRANCH   1  30
HETATM   30  C   UNL     1      -7.784   0.342 -33.292  1.00  0.00    -0.023 A 
HETATM   31  C   UNL     1      -8.680   0.028 -32.263  1.00  0.00     0.012 A 
HETATM   32  C   UNL     1     -10.037   0.318 -32.399  1.00  0.00     0.001 A 
HETATM   33  C   UNL     1     -10.506   0.936 -33.557  1.00  0.00     0.000 A 
HETATM   34  C   UNL     1      -9.620   1.266 -34.581  1.00  0.00     0.001 A 
HETATM   35  C   UNL     1      -8.262   0.969 -34.451  1.00  0.00     0.012 A 
ENDBRANCH   1  30
TORSDOF 4
ENDMDL
MODEL 4
REMARK VINA RESULT:      -9.0      3.625      7.355
REMARK  4 active torsions:
REMARK  status: ('A' for Active; 'I' for Inactive)
REMARK    1  A    between atoms: C_4  and  C_5 
REMARK    2  A    between atoms: C_6  and  N_7 
REMARK    3  A    between atoms: C_9  and  C_10 
REMARK       I    between atoms: C_10  and  N_11 
REMARK    4  A    between atoms: N_11  and  C_12 
ROOT
HETATM    1  C   UNL     1      -8.430   3.187 -33.361  1.00  0.00     0.019 A 
HETATM    2  C   UNL     1      -8.112   1.903 -33.046  1.00  0.00     0.111 A 
HETATM    3  C   UNL     1      -9.056   0.783 -33.471  1.00  0.00     0.273 A 
HETATM    4  O   UNL     1      -8.833  -0.402 -33.224  1.00  0.00    -0.266 OA
HETATM    5  N   UNL     1     -10.191   1.125 -34.145  1.00  0.00    -0.321 N 
HETATM    6  C   UNL     1     -10.535   2.432 -34.473  1.00  0.00     0.046 A 
HETATM    7  C   UNL     1      -9.682   3.479 -34.111  1.00  0.00     0.006 A 
HETATM    8  C   UNL     1     -11.728   2.667 -35.160  1.00  0.00     0.032 A 
HETATM    9  C   UNL     1     -12.084   3.971 -35.500  1.00  0.00     0.026 A 
HETATM   10  C   UNL     1     -11.242   5.024 -35.154  1.00  0.00     0.035 A 
HETATM   11 CL   UNL     1     -11.679   6.635 -35.576  1.00  0.00    -0.084 Cl
HETATM   12  C   UNL     1     -10.049   4.787 -34.469  1.00  0.00     0.038 A 
HETATM   13  H   UNL     1     -10.793   0.353 -34.397  1.00  0.00     0.169 HD
ENDROOT
BRANCH   2  14
HETATM   14  N   UNL     1      -6.966   1.535 -32.293  1.00  0.00    -0.375 N 
HETATM   15  C   UNL     1      -5.775   1.033 -33.006  1.00  0.00     0.137 C 
HETATM   16  C   UNL     1      -4.511   1.136 -32.145  1.00  0.00     0.096 C 
HETATM   17  C   UNL     1      -4.740   0.392 -30.816  1.00  0.00     0.017 C 
HETATM   18  C   UNL     1      -6.012   0.872 -30.117  1.00  0.00     0.021 C 
HETATM   19  C   UNL     1      -7.220   0.788 -31.042  1.00  0.00     0.123 C 
BRANCH  16  20
HETATM   20  C   UNL     1      -3.984   2.564 -31.909  1.00  0.00     0.229 C 
HETATM   21  N   UNL     1      -2.970   2.936 -32.774  1.00  0.00    -0.311 N 
HETATM   22  H   UNL     1      -2.739   2.326 -33.539  1.00  0.00     0.170 HD
HETATM   23  O   UNL     1      -4.383   3.226 -30.954  1.00  0.00    -0.273 OA
BRANCH  21  24
HETATM   24  C   UNL     1      -2.249   4.139 -32.710  1.00  0.00     0.129 A 
HETATM   25  N   UNL     1      -1.587   4.494 -31.596  1.00  0.00    -0.243 NA
HETATM   26  C   UNL     1      -0.906   5.658 -31.599  1.00  0.00     0.119 A 
HETATM   27  C   UNL     1      -0.854   6.513 -32.683  1.00  0.00     0.019 A 
HETATM   28  C   UNL     1      -1.540   6.144 -33.832  1.00  0.00     0.005 A 
HETATM   29  C   UNL     1      -2.242   4.939 -33.850  1.00  0.00     0.050 A 
ENDBRANCH  21  24
ENDBRANCH  16  20
ENDBRANCH   2  14
BRANCH   1  30
HETATM   30  C   UNL     1      -7.488   4.251 -32.927  1.00  0.00    -0.023 A 
HETATM   31  C   UNL     1      -6.471   4.689 -33.784  1.00  0.00     0.012 A 
HETATM   32  C   UNL     1      -5.587   5.686 -33.373  1.00  0.00     0.001 A 
HETATM   33  C   UNL     1      -5.722   6.262 -32.111  1.00  0.00     0.000 A 
HETATM   34  C   UNL     1      -6.740   5.843 -31.257  1.00  0.00     0.001 A 
HETATM   35  C   UNL     1      -7.621   4.839 -31.662  1.00  0.00     0.012 A 
ENDBRANCH   1  30
TORSDOF 4
ENDMDL
MODEL 5
REMARK VINA RESULT:      -9.0      1.575      1.906
REMARK  4 active torsions:
REMARK  status: ('A' for Active; 'I' for Inactive)
REMARK    1  A    between atoms: C_4  and  C_5 
REMARK    2  A    between atoms: C_6  and  N_7 
REMARK    3  A    between atoms: C_9  and  C_10 
REMARK       I    between atoms: C_10  and  N_11 
REMARK    4  A    between atoms: N_11  and  C_12 
ROOT
HETATM    1  C   UNL     1      -5.951   3.679 -31.894  1.00  0.00     0.019 A 
HETATM    2  C   UNL     1      -7.207   3.615 -32.409  1.00  0.00     0.111 A 
HETATM    3  C   UNL     1      -7.972   4.912 -32.654  1.00  0.00     0.273 A 
HETATM    4  O   UNL     1      -9.111   4.933 -33.120  1.00  0.00    -0.266 OA
HETATM    5  N   UNL     1      -7.357   6.086 -32.334  1.00  0.00    -0.321 N 
HETATM    6  C   UNL     1      -6.074   6.172 -31.803  1.00  0.00     0.046 A 
HETATM    7  C   UNL     1      -5.342   5.001 -31.582  1.00  0.00     0.006 A 
HETATM    8  C   UNL     1      -5.546   7.430 -31.505  1.00  0.00     0.032 A 
HETATM    9  C   UNL     1      -4.261   7.532 -30.977  1.00  0.00     0.026 A 
HETATM   10  C   UNL     1      -3.515   6.377 -30.758  1.00  0.00     0.035 A 
HETATM   11 CL   UNL     1      -1.926   6.501 -30.109  1.00  0.00    -0.084 Cl
HETATM   12  C   UNL     1      -4.044   5.120 -31.058  1.00  0.00     0.038 A 
HETATM   13  H   UNL     1      -7.904   6.920 -32.501  1.00  0.00     0.169 HD
ENDROOT
BRANCH   2  14
HETATM   14  N   UNL     1      -7.885   2.399 -32.692  1.00  0.00    -0.375 N 
HETATM   15  C   UNL     1      -8.520   2.229 -34.013  1.00  0.00     0.137 C 
HETATM   16  C   UNL     1      -8.777   0.751 -34.335  1.00  0.00     0.096 C 
HETATM   17  C   UNL     1      -9.618   0.125 -33.207  1.00  0.00     0.017 C 
HETATM   18  C   UNL     1      -8.985   0.364 -31.836  1.00  0.00     0.021 C 
HETATM   19  C   UNL     1      -8.715   1.845 -31.600  1.00  0.00     0.123 C 
BRANCH  16  20
HETATM   20  C   UNL     1      -7.521  -0.088 -34.636  1.00  0.00     0.229 C 
HETATM   21  N   UNL     1      -7.612  -1.403 -34.213  1.00  0.00    -0.311 N 
HETATM   22  H   UNL     1      -8.493  -1.739 -33.866  1.00  0.00     0.170 HD
HETATM   23  O   UNL     1      -6.515   0.440 -35.105  1.00  0.00    -0.273 OA
BRANCH  21  24
HETATM   24  C   UNL     1      -6.575  -2.348 -34.273  1.00  0.00     0.129 A 
HETATM   25  N   UNL     1      -5.342  -2.055 -33.829  1.00  0.00    -0.243 NA
HETATM   26  C   UNL     1      -4.390  -3.009 -33.905  1.00  0.00     0.119 A 
HETATM   27  C   UNL     1      -4.610  -4.271 -34.423  1.00  0.00     0.019 A 
HETATM   28  C   UNL     1      -5.885  -4.569 -34.882  1.00  0.00     0.005 A 
HETATM   29  C   UNL     1      -6.883  -3.599 -34.802  1.00  0.00     0.050 A 
ENDBRANCH  21  24
ENDBRANCH  16  20
ENDBRANCH   2  14
BRANCH   1  30
HETATM   30  C   UNL     1      -5.239   2.395 -31.665  1.00  0.00    -0.023 A 
HETATM   31  C   UNL     1      -4.344   1.901 -32.622  1.00  0.00     0.012 A 
HETATM   32  C   UNL     1      -3.680   0.694 -32.406  1.00  0.00     0.001 A 
HETATM   33  C   UNL     1      -3.893  -0.019 -31.228  1.00  0.00     0.000 A 
HETATM   34  C   UNL     1      -4.771   0.471 -30.263  1.00  0.00     0.001 A 
HETATM   35  C   UNL     1      -5.444   1.675 -30.481  1.00  0.00     0.012 A 
ENDBRANCH   1  30
TORSDOF 4
ENDMDL
MODEL 6
REMARK VINA RESULT:      -8.7      3.729      8.081
REMARK  4 active torsions:
REMARK  status: ('A' for Active; 'I' for Inactive)
REMARK    1  A    between atoms: C_4  and  C_5 
REMARK    2  A    between atoms: C_6  and  N_7 
REMARK    3  A    between atoms: C_9  and  C_10 
REMARK       I    between atoms: C_10  and  N_11 
REMARK    4  A    between atoms: N_11  and  C_12 
ROOT
HETATM    1  C   UNL     1      -6.610   0.244 -33.312  1.00  0.00     0.019 A 
HETATM    2  C   UNL     1      -5.883   1.252 -32.759  1.00  0.00     0.111 A 
HETATM    3  C   UNL     1      -4.379   1.065 -32.583  1.00  0.00     0.273 A 
HETATM    4  O   UNL     1      -3.656   1.933 -32.093  1.00  0.00    -0.266 OA
HETATM    5  N   UNL     1      -3.830  -0.117 -32.984  1.00  0.00    -0.321 N 
HETATM    6  C   UNL     1      -4.558  -1.159 -33.548  1.00  0.00     0.046 A 
HETATM    7  C   UNL     1      -5.936  -1.012 -33.737  1.00  0.00     0.006 A 
HETATM    8  C   UNL     1      -3.891  -2.330 -33.916  1.00  0.00     0.032 A 
HETATM    9  C   UNL     1      -4.606  -3.381 -34.487  1.00  0.00     0.026 A 
HETATM   10  C   UNL     1      -5.978  -3.249 -34.688  1.00  0.00     0.035 A 
HETATM   11 CL   UNL     1      -6.861  -4.545 -35.397  1.00  0.00    -0.084 Cl
HETATM   12  C   UNL     1      -6.642  -2.076 -34.322  1.00  0.00     0.038 A 
HETATM   13  H   UNL     1      -2.833  -0.202 -32.839  1.00  0.00     0.169 HD
ENDROOT
BRANCH   2  14
HETATM   14  N   UNL     1      -6.447   2.464 -32.281  1.00  0.00    -0.375 N 
HETATM   15  C   UNL     1      -7.410   2.410 -31.164  1.00  0.00     0.137 C 
HETATM   16  C   UNL     1      -7.550   3.770 -30.468  1.00  0.00     0.096 C 
HETATM   17  C   UNL     1      -7.937   4.836 -31.509  1.00  0.00     0.017 C 
HETATM   18  C   UNL     1      -6.971   4.839 -32.695  1.00  0.00     0.021 C 
HETATM   19  C   UNL     1      -6.842   3.450 -33.310  1.00  0.00     0.123 C 
BRANCH  16  20
HETATM   20  C   UNL     1      -6.336   4.212 -29.630  1.00  0.00     0.229 C 
HETATM   21  N   UNL     1      -6.427   5.509 -29.155  1.00  0.00    -0.311 N 
HETATM   22  H   UNL     1      -7.291   6.010 -29.279  1.00  0.00     0.170 HD
HETATM   23  O   UNL     1      -5.353   3.483 -29.522  1.00  0.00    -0.273 OA
BRANCH  21  24
HETATM   24  C   UNL     1      -5.418   6.190 -28.456  1.00  0.00     0.129 A 
HETATM   25  N   UNL     1      -5.435   6.271 -27.115  1.00  0.00    -0.243 NA
HETATM   26  C   UNL     1      -4.432   6.932 -26.500  1.00  0.00     0.119 A 
HETATM   27  C   UNL     1      -3.389   7.539 -27.172  1.00  0.00     0.019 A 
HETATM   28  C   UNL     1      -3.376   7.455 -28.558  1.00  0.00     0.005 A 
HETATM   29  C   UNL     1      -4.400   6.768 -29.209  1.00  0.00     0.050 A 
ENDBRANCH  21  24
ENDBRANCH  16  20
ENDBRANCH   2  14
BRANCH   1  30
HETATM   30  C   UNL     1      -8.073   0.461 -33.463  1.00  0.00    -0.023 A 
HETATM   31  C   UNL     1      -8.573   1.181 -34.554  1.00  0.00     0.012 A 
HETATM   32  C   UNL     1      -9.945   1.385 -34.693  1.00  0.00     0.001 A 
HETATM   33  C   UNL     1     -10.827   0.859 -33.751  1.00  0.00     0.000 A 
HETATM   34  C   UNL     1     -10.340   0.127 -32.669  1.00  0.00     0.001 A 
HETATM   35  C   UNL     1      -8.966  -0.071 -32.523  1.00  0.00     0.012 A 
ENDBRANCH   1  30
TORSDOF 4
ENDMDL
MODEL 7
REMARK VINA RESULT:      -8.5      3.880      8.515
REMARK  4 active torsions:
REMARK  status: ('A' for Active; 'I' for Inactive)
REMARK    1  A    between atoms: C_4  and  C_5 
REMARK    2  A    between atoms: C_6  and  N_7 
REMARK    3  A    between atoms: C_9  and  C_10 
REMARK       I    between atoms: C_10  and  N_11 
REMARK    4  A    between atoms: N_11  and  C_12 
ROOT
HETATM    1  C   UNL     1      -5.003   3.359 -31.476  1.00  0.00     0.019 A 
HETATM    2  C   UNL     1      -5.827   4.111 -30.699  1.00  0.00     0.111 A 
HETATM    3  C   UNL     1      -7.044   3.450 -30.059  1.00  0.00     0.273 A 
HETATM    4  O   UNL     1      -7.833   4.066 -29.342  1.00  0.00    -0.266 OA
HETATM    5  N   UNL     1      -7.255   2.125 -30.304  1.00  0.00    -0.321 N 
HETATM    6  C   UNL     1      -6.426   1.341 -31.098  1.00  0.00     0.046 A 
HETATM    7  C   UNL     1      -5.294   1.914 -31.686  1.00  0.00     0.006 A 
HETATM    8  C   UNL     1      -6.744  -0.006 -31.287  1.00  0.00     0.032 A 
HETATM    9  C   UNL     1      -5.919  -0.806 -32.076  1.00  0.00     0.026 A 
HETATM   10  C   UNL     1      -4.784  -0.253 -32.663  1.00  0.00     0.035 A 
HETATM   11 CL   UNL     1      -3.763  -1.241 -33.634  1.00  0.00    -0.084 Cl
HETATM   12  C   UNL     1      -4.467   1.093 -32.471  1.00  0.00     0.038 A 
HETATM   13  H   UNL     1      -8.079   1.731 -29.870  1.00  0.00     0.169 HD
ENDROOT
BRANCH   2  14
HETATM   14  N   UNL     1      -5.656   5.504 -30.482  1.00  0.00    -0.375 N 
HETATM   15  C   UNL     1      -5.650   6.013 -29.097  1.00  0.00     0.137 C 
HETATM   16  C   UNL     1      -4.997   7.398 -29.003  1.00  0.00     0.096 C 
HETATM   17  C   UNL     1      -5.711   8.362 -29.967  1.00  0.00     0.017 C 
HETATM   18  C   UNL     1      -5.772   7.796 -31.386  1.00  0.00     0.021 C 
HETATM   19  C   UNL     1      -6.387   6.402 -31.402  1.00  0.00     0.123 C 
BRANCH  16  20
HETATM   20  C   UNL     1      -3.470   7.424 -29.206  1.00  0.00     0.229 C 
HETATM   21  N   UNL     1      -2.749   7.427 -28.024  1.00  0.00    -0.311 N 
HETATM   22  H   UNL     1      -3.241   7.294 -27.157  1.00  0.00     0.170 HD
HETATM   23  O   UNL     1      -2.992   7.548 -30.331  1.00  0.00    -0.273 OA
BRANCH  21  24
HETATM   24  C   UNL     1      -1.354   7.551 -27.925  1.00  0.00     0.129 A 
HETATM   25  N   UNL     1      -0.551   6.480 -28.033  1.00  0.00    -0.243 NA
HETATM   26  C   UNL     1       0.782   6.665 -27.937  1.00  0.00     0.119 A 
HETATM   27  C   UNL     1       1.370   7.897 -27.726  1.00  0.00     0.019 A 
HETATM   28  C   UNL     1       0.537   9.002 -27.613  1.00  0.00     0.005 A 
HETATM   29  C   UNL     1      -0.842   8.830 -27.719  1.00  0.00     0.050 A 
ENDBRANCH  21  24
ENDBRANCH  16  20
ENDBRANCH   2  14
BRANCH   1  30
HETATM   30  C   UNL     1      -3.831   4.038 -32.086  1.00  0.00    -0.023 A 
HETATM   31  C   UNL     1      -2.637   4.173 -31.367  1.00  0.00     0.012 A 
HETATM   32  C   UNL     1      -1.540   4.814 -31.941  1.00  0.00     0.001 A 
HETATM   33  C   UNL     1      -1.622   5.309 -33.241  1.00  0.00     0.000 A 
HETATM   34  C   UNL     1      -2.801   5.166 -33.970  1.00  0.00     0.001 A 
HETATM   35  C   UNL     1      -3.904   4.534 -33.395  1.00  0.00     0.012 A 
ENDBRANCH   1  30
TORSDOF 4
ENDMDL
MODEL 8
REMARK VINA RESULT:      -8.1      2.979      7.607
REMARK  4 active torsions:
REMARK  status: ('A' for Active; 'I' for Inactive)
REMARK    1  A    between atoms: C_4  and  C_5 
REMARK    2  A    between atoms: C_6  and  N_7 
REMARK    3  A    between atoms: C_9  and  C_10 
REMARK       I    between atoms: C_10  and  N_11 
REMARK    4  A    between atoms: N_11  and  C_12 
ROOT
HETATM    1  C   UNL     1      -6.338   0.401 -33.276  1.00  0.00     0.019 A 
HETATM    2  C   UNL     1      -5.557   1.429 -32.850  1.00  0.00     0.111 A 
HETATM    3  C   UNL     1      -4.048   1.222 -32.761  1.00  0.00     0.273 A 
HETATM    4  O   UNL     1      -3.278   2.107 -32.388  1.00  0.00    -0.266 OA
HETATM    5  N   UNL     1      -3.549   0.002 -33.108  1.00  0.00    -0.321 N 
HETATM    6  C   UNL     1      -4.331  -1.062 -33.543  1.00  0.00     0.046 A 
HETATM    7  C   UNL     1      -5.716  -0.899 -33.649  1.00  0.00     0.006 A 
HETATM    8  C   UNL     1      -3.712  -2.272 -33.865  1.00  0.00     0.032 A 
HETATM    9  C   UNL     1      -4.482  -3.346 -34.307  1.00  0.00     0.026 A 
HETATM   10  C   UNL     1      -5.862  -3.198 -34.426  1.00  0.00     0.035 A 
HETATM   11 CL   UNL     1      -6.814  -4.523 -34.974  1.00  0.00    -0.084 Cl
HETATM   12  C   UNL     1      -6.478  -1.987 -34.105  1.00  0.00     0.038 A 
HETATM   13  H   UNL     1      -2.546  -0.094 -33.024  1.00  0.00     0.169 HD
ENDROOT
BRANCH   2  14
HETATM   14  N   UNL     1      -6.065   2.686 -32.428  1.00  0.00    -0.375 N 
HETATM   15  C   UNL     1      -6.052   3.012 -30.989  1.00  0.00     0.137 C 
HETATM   16  C   UNL     1      -6.171   4.522 -30.747  1.00  0.00     0.096 C 
HETATM   17  C   UNL     1      -7.438   5.049 -31.444  1.00  0.00     0.017 C 
HETATM   18  C   UNL     1      -7.475   4.649 -32.919  1.00  0.00     0.021 C 
HETATM   19  C   UNL     1      -7.305   3.145 -33.091  1.00  0.00     0.123 C 
BRANCH  16  20
HETATM   20  C   UNL     1      -4.931   5.352 -31.125  1.00  0.00     0.229 C 
HETATM   21  N   UNL     1      -3.732   4.775 -30.741  1.00  0.00    -0.311 N 
HETATM   22  H   UNL     1      -3.744   3.841 -30.369  1.00  0.00     0.170 HD
HETATM   23  O   UNL     1      -5.055   6.472 -31.616  1.00  0.00    -0.273 OA
BRANCH  21  24
HETATM   24  C   UNL     1      -2.467   5.368 -30.872  1.00  0.00     0.129 A 
HETATM   25  N   UNL     1      -2.076   6.360 -30.055  1.00  0.00    -0.243 NA
HETATM   26  C   UNL     1      -0.845   6.884 -30.226  1.00  0.00     0.119 A 
HETATM   27  C   UNL     1       0.038   6.463 -31.201  1.00  0.00     0.019 A 
HETATM   28  C   UNL     1      -0.369   5.438 -32.045  1.00  0.00     0.005 A 
HETATM   29  C   UNL     1      -1.635   4.879 -31.877  1.00  0.00     0.050 A 
ENDBRANCH  21  24
ENDBRANCH  16  20
ENDBRANCH   2  14
BRANCH   1  30
HETATM   30  C   UNL     1      -7.803   0.638 -33.345  1.00  0.00    -0.023 A 
HETATM   31  C   UNL     1      -8.404   1.007 -34.554  1.00  0.00     0.012 A 
HETATM   32  C   UNL     1      -9.779   1.231 -34.616  1.00  0.00     0.001 A 
HETATM   33  C   UNL     1     -10.564   1.075 -33.475  1.00  0.00     0.000 A 
HETATM   34  C   UNL     1      -9.977   0.694 -32.270  1.00  0.00     0.001 A 
HETATM   35  C   UNL     1      -8.599   0.477 -32.203  1.00  0.00     0.012 A 
ENDBRANCH   1  30
TORSDOF 4
ENDMDL
MODEL 9
REMARK VINA RESULT:      -8.0      3.132      7.765
REMARK  4 active torsions:
REMARK  status: ('A' for Active; 'I' for Inactive)
REMARK    1  A    between atoms: C_4  and  C_5 
REMARK    2  A    between atoms: C_6  and  N_7 
REMARK    3  A    between atoms: C_9  and  C_10 
REMARK       I    between atoms: C_10  and  N_11 
REMARK    4  A    between atoms: N_11  and  C_12 
ROOT
HETATM    1  C   UNL     1      -6.349   2.423 -32.568  1.00  0.00     0.019 A 
HETATM    2  C   UNL     1      -7.410   3.184 -32.187  1.00  0.00     0.111 A 
HETATM    3  C   UNL     1      -8.812   2.585 -32.261  1.00  0.00     0.273 A 
HETATM    4  O   UNL     1      -9.818   3.211 -31.931  1.00  0.00    -0.266 OA
HETATM    5  N   UNL     1      -8.937   1.306 -32.718  1.00  0.00    -0.321 N 
HETATM    6  C   UNL     1      -7.864   0.514 -33.114  1.00  0.00     0.046 A 
HETATM    7  C   UNL     1      -6.566   1.030 -33.043  1.00  0.00     0.006 A 
HETATM    8  C   UNL     1      -8.111  -0.782 -33.572  1.00  0.00     0.032 A 
HETATM    9  C   UNL     1      -7.046  -1.588 -33.968  1.00  0.00     0.026 A 
HETATM   10  C   UNL     1      -5.747  -1.094 -33.897  1.00  0.00     0.035 A 
HETATM   11 CL   UNL     1      -4.430  -2.090 -34.383  1.00  0.00    -0.084 Cl
HETATM   12  C   UNL     1      -5.502   0.201 -33.437  1.00  0.00     0.038 A 
HETATM   13  H   UNL     1      -9.883   0.954 -32.761  1.00  0.00     0.169 HD
ENDROOT
BRANCH   2  14
HETATM   14  N   UNL     1      -7.304   4.536 -31.767  1.00  0.00    -0.375 N 
HETATM   15  C   UNL     1      -7.804   4.907 -30.429  1.00  0.00     0.137 C 
HETATM   16  C   UNL     1      -7.205   6.234 -29.946  1.00  0.00     0.096 C 
HETATM   17  C   UNL     1      -7.489   7.329 -30.990  1.00  0.00     0.017 C 
HETATM   18  C   UNL     1      -7.028   6.908 -32.385  1.00  0.00     0.021 C 
HETATM   19  C   UNL     1      -7.621   5.562 -32.784  1.00  0.00     0.123 C 
BRANCH  16  20
HETATM   20  C   UNL     1      -5.712   6.187 -29.568  1.00  0.00     0.229 C 
HETATM   21  N   UNL     1      -5.027   7.358 -29.845  1.00  0.00    -0.311 N 
HETATM   22  H   UNL     1      -5.549   8.163 -30.146  1.00  0.00     0.170 HD
HETATM   23  O   UNL     1      -5.202   5.143 -29.168  1.00  0.00    -0.273 OA
BRANCH  21  24
HETATM   24  C   UNL     1      -3.645   7.544 -29.694  1.00  0.00     0.129 A 
HETATM   25  N   UNL     1      -3.096   7.725 -28.481  1.00  0.00    -0.243 NA
HETATM   26  C   UNL     1      -1.759   7.891 -28.400  1.00  0.00     0.119 A 
HETATM   27  C   UNL     1      -0.920   7.893 -29.498  1.00  0.00     0.019 A 
HETATM   28  C   UNL     1      -1.490   7.706 -30.750  1.00  0.00     0.005 A 
HETATM   29  C   UNL     1      -2.869   7.525 -30.851  1.00  0.00     0.050 A 
ENDBRANCH  21  24
ENDBRANCH  16  20
ENDBRANCH   2  14
BRANCH   1  30
HETATM   30  C   UNL     1      -5.001   3.042 -32.486  1.00  0.00    -0.023 A 
HETATM   31  C   UNL     1      -4.556   3.904 -33.497  1.00  0.00     0.012 A 
HETATM   32  C   UNL     1      -3.289   4.481 -33.420  1.00  0.00     0.001 A 
HETATM   33  C   UNL     1      -2.465   4.215 -32.327  1.00  0.00     0.000 A 
HETATM   34  C   UNL     1      -2.905   3.370 -31.310  1.00  0.00     0.001 A 
HETATM   35  C   UNL     1      -4.169   2.783 -31.389  1.00  0.00     0.012 A 
ENDBRANCH   1  30
TORSDOF 4
ENDMDL
MODEL 10
REMARK VINA RESULT:      -8.0      2.386      5.135
REMARK  4 active torsions:
REMARK  status: ('A' for Active; 'I' for Inactive)
REMARK    1  A    between atoms: C_4  and  C_5 
REMARK    2  A    between atoms: C_6  and  N_7 
REMARK    3  A    between atoms: C_9  and  C_10 
REMARK       I    between atoms: C_10  and  N_11 
REMARK    4  A    between atoms: N_11  and  C_12 
ROOT
HETATM    1  C   UNL     1      -4.753   3.040 -32.678  1.00  0.00     0.019 A 
HETATM    2  C   UNL     1      -5.982   3.162 -33.247  1.00  0.00     0.111 A 
HETATM    3  C   UNL     1      -6.454   4.541 -33.697  1.00  0.00     0.273 A 
HETATM    4  O   UNL     1      -7.552   4.728 -34.221  1.00  0.00    -0.266 OA
HETATM    5  N   UNL     1      -5.617   5.599 -33.498  1.00  0.00    -0.321 N 
HETATM    6  C   UNL     1      -4.358   5.495 -32.916  1.00  0.00     0.046 A 
HETATM    7  C   UNL     1      -3.891   4.241 -32.507  1.00  0.00     0.006 A 
HETATM    8  C   UNL     1      -3.588   6.649 -32.755  1.00  0.00     0.032 A 
HETATM    9  C   UNL     1      -2.323   6.559 -32.178  1.00  0.00     0.026 A 
HETATM   10  C   UNL     1      -1.839   5.318 -31.772  1.00  0.00     0.035 A 
HETATM   11 CL   UNL     1      -0.276   5.205 -31.062  1.00  0.00    -0.084 Cl
HETATM   12  C   UNL     1      -2.611   4.165 -31.936  1.00  0.00     0.038 A 
HETATM   13  H   UNL     1      -5.974   6.495 -33.801  1.00  0.00     0.169 HD
ENDROOT
BRANCH   2  14
HETATM   14  N   UNL     1      -6.891   2.082 -33.406  1.00  0.00    -0.375 N 
HETATM   15  C   UNL     1      -7.679   1.637 -32.241  1.00  0.00     0.137 C 
HETATM   16  C   UNL     1      -8.912   0.828 -32.664  1.00  0.00     0.096 C 
HETATM   17  C   UNL     1      -8.466  -0.355 -33.542  1.00  0.00     0.017 C 
HETATM   18  C   UNL     1      -7.595   0.109 -34.709  1.00  0.00     0.021 C 
HETATM   19  C   UNL     1      -6.416   0.945 -34.224  1.00  0.00     0.123 C 
BRANCH  16  20
HETATM   20  C   UNL     1     -10.036   1.638 -33.335  1.00  0.00     0.229 C 
HETATM   21  N   UNL     1      -9.959   3.001 -33.103  1.00  0.00    -0.311 N 
HETATM   22  H   UNL     1      -9.147   3.367 -32.637  1.00  0.00     0.170 HD
HETATM   23  O   UNL     1     -10.957   1.067 -33.915  1.00  0.00    -0.273 OA
BRANCH  21  24
HETATM   24  C   UNL     1     -10.911   3.949 -33.512  1.00  0.00     0.129 A 
HETATM   25  N   UNL     1     -10.897   4.456 -34.755  1.00  0.00    -0.243 NA
HETATM   26  C   UNL     1     -11.843   5.358 -35.090  1.00  0.00     0.119 A 
HETATM   27  C   UNL     1     -12.825   5.796 -34.223  1.00  0.00     0.019 A 
HETATM   28  C   UNL     1     -12.836   5.271 -32.938  1.00  0.00     0.005 A 
HETATM   29  C   UNL     1     -11.871   4.331 -32.577  1.00  0.00     0.050 A 
ENDBRANCH  21  24
ENDBRANCH  16  20
ENDBRANCH   2  14
BRANCH   1  30
HETATM   30  C   UNL     1      -4.331   1.682 -32.248  1.00  0.00    -0.023 A 
HETATM   31  C   UNL     1      -3.553   0.881 -33.095  1.00  0.00     0.012 A 
HETATM   32  C   UNL     1      -3.160  -0.394 -32.691  1.00  0.00     0.001 A 
HETATM   33  C   UNL     1      -3.527  -0.872 -31.434  1.00  0.00     0.000 A 
HETATM   34  C   UNL     1      -4.288  -0.077 -30.579  1.00  0.00     0.001 A 
HETATM   35  C   UNL     1      -4.690   1.197 -30.984  1.00  0.00     0.012 A 
ENDBRANCH   1  30
TORSDOF 4
ENDMDL
