MODEL 1
REMARK VINA RESULT:      -8.6      0.000      0.000
REMARK  7 active torsions:
REMARK  status: ('A' for Active; 'I' for Inactive)
REMARK    1  A    between atoms: C_2  and  C_3 
REMARK    2  A    between atoms: C_3  and  C_4 
REMARK    3  A    between atoms: C_8  and  C_9 
REMARK       I    between atoms: C_9  and  N_10 
REMARK    4  A    between atoms: N_10  and  C_11 
REMARK    5  A    between atoms: C_11  and  C_12 
REMARK    6  A    between atoms: C_12  and  N_13 
REMARK    7  A    between atoms: C_16  and  C_17 
ROOT
HETATM    1  C   UNL     1      -7.303   3.327 -31.826  1.00  0.00     0.150 C 
ENDROOT
BRANCH   1   2
HETATM    2  N   UNL     1      -6.129   3.695 -32.604  1.00  0.00    -0.354 N 
HETATM    3  C   UNL     1      -6.154   4.659 -33.597  1.00  0.00     0.272 C 
HETATM    4  O   UNL     1      -7.200   4.993 -34.145  1.00  0.00    -0.266 OA
HETATM    5  H   UNL     1      -5.204   3.615 -32.172  1.00  0.00     0.162 HD
BRANCH   3   6
HETATM    6  C   UNL     1      -4.826   5.148 -33.977  1.00  0.00     0.146 A 
HETATM    7  N   UNL     1      -4.411   5.103 -35.259  1.00  0.00    -0.169 NA
HETATM    8  N   UNL     1      -3.177   5.645 -35.220  1.00  0.00    -0.282 N 
HETATM    9  C   UNL     1      -2.792   6.038 -33.969  1.00  0.00     0.030 A 
HETATM   10  H   UNL     1      -2.651   5.721 -36.086  1.00  0.00     0.189 HD
HETATM   11  C   UNL     1      -3.843   5.722 -33.138  1.00  0.00     0.065 A 
BRANCH   9  12
HETATM   12  C   UNL     1      -1.468   6.667 -33.698  1.00  0.00     0.058 C 
BRANCH  12  13
HETATM   13  C   UNL     1      -0.877   6.176 -32.375  1.00  0.00     0.002 C 
HETATM   14  C   UNL     1      -0.746   7.310 -31.370  1.00  0.00     0.005 C 
ENDBRANCH  12  13
ENDBRANCH   9  12
ENDBRANCH   3   6
ENDBRANCH   1   2
BRANCH   1  15
HETATM   15  C   UNL     1      -7.948   1.978 -32.205  1.00  0.00     0.254 C 
BRANCH  15  16
HETATM   16  N   UNL     1      -7.182   1.313 -33.320  1.00  0.00    -0.069 N 
HETATM   17  H   UNL     1      -6.429   1.983 -33.542  1.00  0.00     0.280 HD
HETATM   18  C   UNL     1      -6.522  -0.002 -32.994  1.00  0.00     0.244 C 
HETATM   19  C   UNL     1      -6.253  -0.582 -34.381  1.00  0.00     0.046 C 
HETATM   20  C   UNL     1      -7.538  -0.241 -35.131  1.00  0.00     0.039 C 
HETATM   21  C   UNL     1      -7.954   1.127 -34.605  1.00  0.00     0.235 C 
BRANCH  19  22
HETATM   22  C   UNL     1      -5.897  -2.053 -34.423  1.00  0.00    -0.046 A 
HETATM   23  C   UNL     1      -4.632  -2.518 -33.996  1.00  0.00    -0.055 A 
HETATM   24  C   UNL     1      -3.562  -1.596 -33.469  1.00  0.00     0.049 C 
HETATM   25  C   UNL     1      -4.345  -3.893 -34.049  1.00  0.00     0.007 A 
HETATM   26  C   UNL     1      -5.279  -4.803 -34.534  1.00  0.00     0.001 A 
HETATM   27  C   UNL     1      -6.515  -4.353 -34.979  1.00  0.00     0.001 A 
HETATM   28  C   UNL     1      -6.819  -2.992 -34.928  1.00  0.00     0.008 A 
ENDBRANCH  19  22
ENDBRANCH  15  16
ENDBRANCH   1  15
TORSDOF 7
ENDMDL
MODEL 2
REMARK VINA RESULT:      -8.4      3.330      4.587
REMARK  7 active torsions:
REMARK  status: ('A' for Active; 'I' for Inactive)
REMARK    1  A    between atoms: C_2  and  C_3 
REMARK    2  A    between atoms: C_3  and  C_4 
REMARK    3  A    between atoms: C_8  and  C_9 
REMARK       I    between atoms: C_9  and  N_10 
REMARK    4  A    between atoms: N_10  and  C_11 
REMARK    5  A    between atoms: C_11  and  C_12 
REMARK    6  A    between atoms: C_12  and  N_13 
REMARK    7  A    between atoms: C_16  and  C_17 
ROOT
HETATM    1  C   UNL     1      -3.563   3.679 -31.961  1.00  0.00     0.150 C 
ENDROOT
BRANCH   1   2
HETATM    2  N   UNL     1      -2.348   3.890 -31.186  1.00  0.00    -0.354 N 
HETATM    3  C   UNL     1      -1.475   4.937 -31.424  1.00  0.00     0.272 C 
HETATM    4  O   UNL     1      -1.447   5.521 -32.503  1.00  0.00    -0.266 OA
HETATM    5  H   UNL     1      -2.327   3.590 -30.208  1.00  0.00     0.162 HD
BRANCH   3   6
HETATM    6  C   UNL     1      -0.550   5.197 -30.317  1.00  0.00     0.146 A 
HETATM    7  N   UNL     1       0.431   4.323 -30.013  1.00  0.00    -0.169 NA
HETATM    8  N   UNL     1       1.069   4.901 -28.976  1.00  0.00    -0.282 N 
HETATM    9  C   UNL     1       0.541   6.107 -28.611  1.00  0.00     0.030 A 
HETATM   10  H   UNL     1       1.864   4.418 -28.564  1.00  0.00     0.189 HD
HETATM   11  C   UNL     1      -0.518   6.323 -29.463  1.00  0.00     0.065 A 
BRANCH   9  12
HETATM   12  C   UNL     1       1.096   6.920 -27.492  1.00  0.00     0.058 C 
BRANCH  12  13
HETATM   13  C   UNL     1       1.298   8.378 -27.908  1.00  0.00     0.002 C 
HETATM   14  C   UNL     1       1.681   9.247 -26.721  1.00  0.00     0.005 C 
ENDBRANCH  12  13
ENDBRANCH   9  12
ENDBRANCH   3   6
ENDBRANCH   1   2
BRANCH   1  15
HETATM   15  C   UNL     1      -4.864   3.597 -31.136  1.00  0.00     0.254 C 
BRANCH  15  16
HETATM   16  N   UNL     1      -5.745   2.482 -31.635  1.00  0.00    -0.069 N 
HETATM   17  H   UNL     1      -6.537   2.968 -32.084  1.00  0.00     0.280 HD
HETATM   18  C   UNL     1      -5.149   1.561 -32.669  1.00  0.00     0.244 C 
HETATM   19  C   UNL     1      -6.081   0.354 -32.606  1.00  0.00     0.046 C 
HETATM   20  C   UNL     1      -6.307   0.195 -31.104  1.00  0.00     0.039 C 
HETATM   21  C   UNL     1      -6.357   1.617 -30.558  1.00  0.00     0.235 C 
BRANCH  19  22
HETATM   22  C   UNL     1      -5.578  -0.905 -33.280  1.00  0.00    -0.046 A 
HETATM   23  C   UNL     1      -6.238  -1.452 -34.405  1.00  0.00    -0.055 A 
HETATM   24  C   UNL     1      -7.470  -0.828 -35.008  1.00  0.00     0.049 C 
HETATM   25  C   UNL     1      -5.735  -2.621 -35.003  1.00  0.00     0.007 A 
HETATM   26  C   UNL     1      -4.608  -3.260 -34.493  1.00  0.00     0.001 A 
HETATM   27  C   UNL     1      -3.969  -2.743 -33.374  1.00  0.00     0.001 A 
HETATM   28  C   UNL     1      -4.451  -1.581 -32.771  1.00  0.00     0.008 A 
ENDBRANCH  19  22
ENDBRANCH  15  16
ENDBRANCH   1  15
TORSDOF 7
ENDMDL
MODEL 3
REMARK VINA RESULT:      -8.3      2.132      2.522
REMARK  7 active torsions:
REMARK  status: ('A' for Active; 'I' for Inactive)
REMARK    1  A    between atoms: C_2  and  C_3 
REMARK    2  A    between atoms: C_3  and  C_4 
REMARK    3  A    between atoms: C_8  and  C_9 
REMARK       I    between atoms: C_9  and  N_10 
REMARK    4  A    between atoms: N_10  and  C_11 
REMARK    5  A    between atoms: C_11  and  C_12 
REMARK    6  A    between atoms: C_12  and  N_13 
REMARK    7  A    between atoms: C_16  and  C_17 
ROOT
HETATM    1  C   UNL     1      -9.388   2.813 -31.792  1.00  0.00     0.150 C 
ENDROOT
BRANCH   1   2
HETATM    2  N   UNL     1      -8.071   3.434 -31.785  1.00  0.00    -0.354 N 
HETATM    3  C   UNL     1      -7.163   3.267 -30.754  1.00  0.00     0.272 C 
HETATM    4  O   UNL     1      -7.518   2.914 -29.634  1.00  0.00    -0.266 OA
HETATM    5  H   UNL     1      -7.605   3.616 -32.679  1.00  0.00     0.162 HD
BRANCH   3   6
HETATM    6  C   UNL     1      -5.791   3.639 -31.110  1.00  0.00     0.146 A 
HETATM    7  N   UNL     1      -5.009   4.314 -30.244  1.00  0.00    -0.169 NA
HETATM    8  N   UNL     1      -3.842   4.456 -30.903  1.00  0.00    -0.282 N 
HETATM    9  C   UNL     1      -3.846   3.893 -32.149  1.00  0.00     0.030 A 
HETATM   10  H   UNL     1      -3.078   4.944 -30.443  1.00  0.00     0.189 HD
HETATM   11  C   UNL     1      -5.104   3.359 -32.313  1.00  0.00     0.065 A 
BRANCH   9  12
HETATM   12  C   UNL     1      -2.658   3.928 -33.048  1.00  0.00     0.058 C 
BRANCH  12  13
HETATM   13  C   UNL     1      -2.633   5.203 -33.892  1.00  0.00     0.002 C 
HETATM   14  C   UNL     1      -1.444   5.222 -34.838  1.00  0.00     0.005 C 
ENDBRANCH  12  13
ENDBRANCH   9  12
ENDBRANCH   3   6
ENDBRANCH   1   2
BRANCH   1  15
HETATM   15  C   UNL     1      -9.416   1.336 -32.238  1.00  0.00     0.254 C 
BRANCH  15  16
HETATM   16  N   UNL     1      -8.223   1.014 -33.100  1.00  0.00    -0.069 N 
HETATM   17  H   UNL     1      -7.567   1.789 -32.921  1.00  0.00     0.280 HD
HETATM   18  C   UNL     1      -7.492  -0.266 -32.789  1.00  0.00     0.244 C 
HETATM   19  C   UNL     1      -6.685  -0.497 -34.065  1.00  0.00     0.046 C 
HETATM   20  C   UNL     1      -7.689  -0.132 -35.156  1.00  0.00     0.039 C 
HETATM   21  C   UNL     1      -8.483   1.038 -34.588  1.00  0.00     0.235 C 
BRANCH  19  22
HETATM   22  C   UNL     1      -6.088  -1.879 -34.228  1.00  0.00    -0.046 A 
HETATM   23  C   UNL     1      -4.730  -2.135 -33.925  1.00  0.00    -0.055 A 
HETATM   24  C   UNL     1      -3.793  -1.067 -33.422  1.00  0.00     0.049 C 
HETATM   25  C   UNL     1      -4.218  -3.434 -34.087  1.00  0.00     0.007 A 
HETATM   26  C   UNL     1      -5.020  -4.469 -34.560  1.00  0.00     0.001 A 
HETATM   27  C   UNL     1      -6.347  -4.220 -34.882  1.00  0.00     0.001 A 
HETATM   28  C   UNL     1      -6.875  -2.939 -34.722  1.00  0.00     0.008 A 
ENDBRANCH  19  22
ENDBRANCH  15  16
ENDBRANCH   1  15
TORSDOF 7
ENDMDL
MODEL 4
REMARK VINA RESULT:      -7.9      1.528      2.245
REMARK  7 active torsions:
REMARK  status: ('A' for Active; 'I' for Inactive)
REMARK    1  A    between atoms: C_2  and  C_3 
REMARK    2  A    between atoms: C_3  and  C_4 
REMARK    3  A    between atoms: C_8  and  C_9 
REMARK       I    between atoms: C_9  and  N_10 
REMARK    4  A    between atoms: N_10  and  C_11 
REMARK    5  A    between atoms: C_11  and  C_12 
REMARK    6  A    between atoms: C_12  and  N_13 
REMARK    7  A    between atoms: C_16  and  C_17 
ROOT
HETATM    1  C   UNL     1      -5.922   3.752 -34.127  1.00  0.00     0.150 C 
ENDROOT
BRANCH   1   2
HETATM    2  N   UNL     1      -4.669   4.356 -33.695  1.00  0.00    -0.354 N 
HETATM    3  C   UNL     1      -3.945   5.235 -34.483  1.00  0.00     0.272 C 
HETATM    4  O   UNL     1      -4.087   5.276 -35.700  1.00  0.00    -0.266 OA
HETATM    5  H   UNL     1      -4.520   4.526 -32.697  1.00  0.00     0.162 HD
BRANCH   3   6
HETATM    6  C   UNL     1      -2.952   6.013 -33.737  1.00  0.00     0.146 A 
HETATM    7  N   UNL     1      -2.276   7.021 -34.325  1.00  0.00    -0.169 NA
HETATM    8  N   UNL     1      -1.487   7.499 -33.343  1.00  0.00    -0.282 N 
HETATM    9  C   UNL     1      -1.636   6.843 -32.153  1.00  0.00     0.030 A 
HETATM   10  H   UNL     1      -0.871   8.281 -33.551  1.00  0.00     0.189 HD
HETATM   11  C   UNL     1      -2.579   5.867 -32.381  1.00  0.00     0.065 A 
BRANCH   9  12
HETATM   12  C   UNL     1      -0.864   7.212 -30.932  1.00  0.00     0.058 C 
BRANCH  12  13
HETATM   13  C   UNL     1       0.590   6.749 -31.030  1.00  0.00     0.002 C 
HETATM   14  C   UNL     1       0.710   5.245 -30.845  1.00  0.00     0.005 C 
ENDBRANCH  12  13
ENDBRANCH   9  12
ENDBRANCH   3   6
ENDBRANCH   1   2
BRANCH   1  15
HETATM   15  C   UNL     1      -7.024   3.683 -33.050  1.00  0.00     0.254 C 
BRANCH  15  16
HETATM   16  N   UNL     1      -7.392   2.252 -32.752  1.00  0.00    -0.069 N 
HETATM   17  H   UNL     1      -8.423   2.258 -32.723  1.00  0.00     0.280 HD
HETATM   18  C   UNL     1      -6.984   1.224 -33.775  1.00  0.00     0.244 C 
HETATM   19  C   UNL     1      -7.087  -0.079 -32.985  1.00  0.00     0.046 C 
HETATM   20  C   UNL     1      -6.493   0.312 -31.633  1.00  0.00     0.039 C 
HETATM   21  C   UNL     1      -6.950   1.746 -31.399  1.00  0.00     0.235 C 
BRANCH  19  22
HETATM   22  C   UNL     1      -6.426  -1.287 -33.613  1.00  0.00    -0.046 A 
HETATM   23  C   UNL     1      -5.018  -1.413 -33.664  1.00  0.00    -0.055 A 
HETATM   24  C   UNL     1      -4.087  -0.369 -33.100  1.00  0.00     0.049 C 
HETATM   25  C   UNL     1      -4.445  -2.553 -34.253  1.00  0.00     0.007 A 
HETATM   26  C   UNL     1      -5.241  -3.552 -34.805  1.00  0.00     0.001 A 
HETATM   27  C   UNL     1      -6.623  -3.425 -34.781  1.00  0.00     0.001 A 
HETATM   28  C   UNL     1      -7.209  -2.303 -34.195  1.00  0.00     0.008 A 
ENDBRANCH  19  22
ENDBRANCH  15  16
ENDBRANCH   1  15
TORSDOF 7
ENDMDL
MODEL 5
REMARK VINA RESULT:      -7.7      3.378      6.590
REMARK  7 active torsions:
REMARK  status: ('A' for Active; 'I' for Inactive)
REMARK    1  A    between atoms: C_2  and  C_3 
REMARK    2  A    between atoms: C_3  and  C_4 
REMARK    3  A    between atoms: C_8  and  C_9 
REMARK       I    between atoms: C_9  and  N_10 
REMARK    4  A    between atoms: N_10  and  C_11 
REMARK    5  A    between atoms: C_11  and  C_12 
REMARK    6  A    between atoms: C_12  and  N_13 
REMARK    7  A    between atoms: C_16  and  C_17 
ROOT
HETATM    1  C   UNL     1      -7.198   3.076 -29.852  1.00  0.00     0.150 C 
ENDROOT
BRANCH   1   2
HETATM    2  N   UNL     1      -8.342   2.469 -30.518  1.00  0.00    -0.354 N 
HETATM    3  C   UNL     1      -9.096   3.128 -31.473  1.00  0.00     0.272 C 
HETATM    4  O   UNL     1      -9.104   4.352 -31.556  1.00  0.00    -0.266 OA
HETATM    5  H   UNL     1      -8.353   1.454 -30.655  1.00  0.00     0.162 HD
BRANCH   3   6
HETATM    6  C   UNL     1      -9.931   2.236 -32.284  1.00  0.00     0.146 A 
HETATM    7  N   UNL     1      -9.726   0.903 -32.283  1.00  0.00    -0.169 NA
HETATM    8  N   UNL     1     -10.677   0.429 -33.113  1.00  0.00    -0.282 N 
HETATM    9  C   UNL     1     -11.482   1.402 -33.636  1.00  0.00     0.030 A 
HETATM   10  H   UNL     1     -10.724  -0.573 -33.275  1.00  0.00     0.189 HD
HETATM   11  C   UNL     1     -11.016   2.589 -33.118  1.00  0.00     0.065 A 
BRANCH   9  12
HETATM   12  C   UNL     1     -12.601   1.099 -34.572  1.00  0.00     0.058 C 
BRANCH  12  13
HETATM   13  C   UNL     1     -13.710   0.307 -33.878  1.00  0.00     0.002 C 
HETATM   14  C   UNL     1     -14.826   1.218 -33.395  1.00  0.00     0.005 C 
ENDBRANCH  12  13
ENDBRANCH   9  12
ENDBRANCH   3   6
ENDBRANCH   1   2
BRANCH   1  15
HETATM   15  C   UNL     1      -5.941   3.248 -30.729  1.00  0.00     0.254 C 
BRANCH  15  16
HETATM   16  N   UNL     1      -5.177   1.953 -30.830  1.00  0.00    -0.069 N 
HETATM   17  H   UNL     1      -5.098   1.631 -29.854  1.00  0.00     0.280 HD
HETATM   18  C   UNL     1      -5.833   0.843 -31.610  1.00  0.00     0.244 C 
HETATM   19  C   UNL     1      -4.660  -0.094 -31.890  1.00  0.00     0.046 C 
HETATM   20  C   UNL     1      -3.541   0.883 -32.245  1.00  0.00     0.039 C 
HETATM   21  C   UNL     1      -3.759   2.084 -31.333  1.00  0.00     0.235 C 
BRANCH  19  22
HETATM   22  C   UNL     1      -4.898  -1.153 -32.945  1.00  0.00    -0.046 A 
HETATM   23  C   UNL     1      -4.135  -2.344 -32.979  1.00  0.00    -0.055 A 
HETATM   24  C   UNL     1      -3.048  -2.642 -31.978  1.00  0.00     0.049 C 
HETATM   25  C   UNL     1      -4.392  -3.303 -33.974  1.00  0.00     0.007 A 
HETATM   26  C   UNL     1      -5.372  -3.091 -34.939  1.00  0.00     0.001 A 
HETATM   27  C   UNL     1      -6.108  -1.914 -34.928  1.00  0.00     0.001 A 
HETATM   28  C   UNL     1      -5.871  -0.954 -33.945  1.00  0.00     0.008 A 
ENDBRANCH  19  22
ENDBRANCH  15  16
ENDBRANCH   1  15
TORSDOF 7
ENDMDL
MODEL 6
REMARK VINA RESULT:      -7.6      3.096      6.241
REMARK  7 active torsions:
REMARK  status: ('A' for Active; 'I' for Inactive)
REMARK    1  A    between atoms: C_2  and  C_3 
REMARK    2  A    between atoms: C_3  and  C_4 
REMARK    3  A    between atoms: C_8  and  C_9 
REMARK       I    between atoms: C_9  and  N_10 
REMARK    4  A    between atoms: N_10  and  C_11 
REMARK    5  A    between atoms: C_11  and  C_12 
REMARK    6  A    between atoms: C_12  and  N_13 
REMARK    7  A    between atoms: C_16  and  C_17 
ROOT
HETATM    1  C   UNL     1      -6.719   4.781 -31.891  1.00  0.00     0.150 C 
ENDROOT
BRANCH   1   2
HETATM    2  N   UNL     1      -8.015   4.287 -32.334  1.00  0.00    -0.354 N 
HETATM    3  C   UNL     1      -8.467   4.415 -33.636  1.00  0.00     0.272 C 
HETATM    4  O   UNL     1      -8.004   5.257 -34.399  1.00  0.00    -0.266 OA
HETATM    5  H   UNL     1      -8.418   3.469 -31.868  1.00  0.00     0.162 HD
BRANCH   3   6
HETATM    6  C   UNL     1      -9.589   3.530 -33.960  1.00  0.00     0.146 A 
HETATM    7  N   UNL     1     -10.344   3.741 -35.057  1.00  0.00    -0.169 NA
HETATM    8  N   UNL     1     -11.243   2.737 -35.030  1.00  0.00    -0.282 N 
HETATM    9  C   UNL     1     -11.088   1.892 -33.966  1.00  0.00     0.030 A 
HETATM   10  H   UNL     1     -11.935   2.683 -35.772  1.00  0.00     0.189 HD
HETATM   11  C   UNL     1     -10.023   2.387 -33.249  1.00  0.00     0.065 A 
BRANCH   9  12
HETATM   12  C   UNL     1     -11.970   0.712 -33.745  1.00  0.00     0.058 C 
BRANCH  12  13
HETATM   13  C   UNL     1     -13.307   0.869 -34.472  1.00  0.00     0.002 C 
HETATM   14  C   UNL     1     -14.408   1.311 -33.522  1.00  0.00     0.005 C 
ENDBRANCH  12  13
ENDBRANCH   9  12
ENDBRANCH   3   6
ENDBRANCH   1   2
BRANCH   1  15
HETATM   15  C   UNL     1      -5.836   3.750 -31.160  1.00  0.00     0.254 C 
BRANCH  15  16
HETATM   16  N   UNL     1      -6.398   2.360 -31.312  1.00  0.00    -0.069 N 
HETATM   17  H   UNL     1      -7.413   2.510 -31.418  1.00  0.00     0.280 HD
HETATM   18  C   UNL     1      -5.940   1.574 -32.513  1.00  0.00     0.244 C 
HETATM   19  C   UNL     1      -6.311   0.144 -32.127  1.00  0.00     0.046 C 
HETATM   20  C   UNL     1      -5.909   0.090 -30.654  1.00  0.00     0.039 C 
HETATM   21  C   UNL     1      -6.242   1.470 -30.101  1.00  0.00     0.235 C 
BRANCH  19  22
HETATM   22  C   UNL     1      -5.688  -0.950 -32.967  1.00  0.00    -0.046 A 
HETATM   23  C   UNL     1      -6.311  -1.418 -34.147  1.00  0.00    -0.055 A 
HETATM   24  C   UNL     1      -7.621  -0.866 -34.649  1.00  0.00     0.049 C 
HETATM   25  C   UNL     1      -5.695  -2.433 -34.900  1.00  0.00     0.007 A 
HETATM   26  C   UNL     1      -4.491  -3.000 -34.491  1.00  0.00     0.001 A 
HETATM   27  C   UNL     1      -3.885  -2.563 -33.321  1.00  0.00     0.001 A 
HETATM   28  C   UNL     1      -4.479  -1.552 -32.565  1.00  0.00     0.008 A 
ENDBRANCH  19  22
ENDBRANCH  15  16
ENDBRANCH   1  15
TORSDOF 7
ENDMDL
MODEL 7
REMARK VINA RESULT:      -7.6      3.117      4.497
REMARK  7 active torsions:
REMARK  status: ('A' for Active; 'I' for Inactive)
REMARK    1  A    between atoms: C_2  and  C_3 
REMARK    2  A    between atoms: C_3  and  C_4 
REMARK    3  A    between atoms: C_8  and  C_9 
REMARK       I    between atoms: C_9  and  N_10 
REMARK    4  A    between atoms: N_10  and  C_11 
REMARK    5  A    between atoms: C_11  and  C_12 
REMARK    6  A    between atoms: C_12  and  N_13 
REMARK    7  A    between atoms: C_16  and  C_17 
ROOT
HETATM    1  C   UNL     1      -4.228   4.214 -31.749  1.00  0.00     0.150 C 
ENDROOT
BRANCH   1   2
HETATM    2  N   UNL     1      -3.317   4.957 -30.889  1.00  0.00    -0.354 N 
HETATM    3  C   UNL     1      -1.976   5.129 -31.182  1.00  0.00     0.272 C 
HETATM    4  O   UNL     1      -1.383   4.382 -31.953  1.00  0.00    -0.266 OA
HETATM    5  H   UNL     1      -3.688   5.726 -30.324  1.00  0.00     0.162 HD
BRANCH   3   6
HETATM    6  C   UNL     1      -1.340   6.206 -30.418  1.00  0.00     0.146 A 
HETATM    7  N   UNL     1      -2.025   7.320 -30.087  1.00  0.00    -0.169 NA
HETATM    8  N   UNL     1      -1.134   8.053 -29.390  1.00  0.00    -0.282 N 
HETATM    9  C   UNL     1       0.086   7.451 -29.257  1.00  0.00     0.030 A 
HETATM   10  H   UNL     1      -1.426   8.956 -29.026  1.00  0.00     0.189 HD
HETATM   11  C   UNL     1      -0.017   6.250 -29.922  1.00  0.00     0.065 A 
BRANCH   9  12
HETATM   12  C   UNL     1       1.216   8.083 -28.519  1.00  0.00     0.058 C 
BRANCH  12  13
HETATM   13  C   UNL     1       0.822   8.425 -27.081  1.00  0.00     0.002 C 
HETATM   14  C   UNL     1       0.559   7.171 -26.264  1.00  0.00     0.005 C 
ENDBRANCH  12  13
ENDBRANCH   9  12
ENDBRANCH   3   6
ENDBRANCH   1   2
BRANCH   1  15
HETATM   15  C   UNL     1      -5.693   4.161 -31.267  1.00  0.00     0.254 C 
BRANCH  15  16
HETATM   16  N   UNL     1      -6.157   2.735 -31.122  1.00  0.00    -0.069 N 
HETATM   17  H   UNL     1      -7.126   2.819 -30.778  1.00  0.00     0.280 HD
HETATM   18  C   UNL     1      -6.205   1.909 -32.381  1.00  0.00     0.244 C 
HETATM   19  C   UNL     1      -6.261   0.484 -31.834  1.00  0.00     0.046 C 
HETATM   20  C   UNL     1      -5.258   0.538 -30.683  1.00  0.00     0.039 C 
HETATM   21  C   UNL     1      -5.424   1.926 -30.077  1.00  0.00     0.235 C 
BRANCH  19  22
HETATM   22  C   UNL     1      -5.981  -0.618 -32.832  1.00  0.00    -0.046 A 
HETATM   23  C   UNL     1      -6.974  -1.065 -33.735  1.00  0.00    -0.055 A 
HETATM   24  C   UNL     1      -8.362  -0.480 -33.771  1.00  0.00     0.049 C 
HETATM   25  C   UNL     1      -6.669  -2.089 -34.649  1.00  0.00     0.007 A 
HETATM   26  C   UNL     1      -5.412  -2.685 -34.665  1.00  0.00     0.001 A 
HETATM   27  C   UNL     1      -4.439  -2.270 -33.767  1.00  0.00     0.001 A 
HETATM   28  C   UNL     1      -4.721  -1.251 -32.857  1.00  0.00     0.008 A 
ENDBRANCH  19  22
ENDBRANCH  15  16
ENDBRANCH   1  15
TORSDOF 7
ENDMDL
MODEL 8
REMARK VINA RESULT:      -7.4      2.830      9.081
REMARK  7 active torsions:
REMARK  status: ('A' for Active; 'I' for Inactive)
REMARK    1  A    between atoms: C_2  and  C_3 
REMARK    2  A    between atoms: C_3  and  C_4 
REMARK    3  A    between atoms: C_8  and  C_9 
REMARK       I    between atoms: C_9  and  N_10 
REMARK    4  A    between atoms: N_10  and  C_11 
REMARK    5  A    between atoms: C_11  and  C_12 
REMARK    6  A    between atoms: C_12  and  N_13 
REMARK    7  A    between atoms: C_16  and  C_17 
ROOT
HETATM    1  C   UNL     1      -5.263   3.926 -31.384  1.00  0.00     0.150 C 
ENDROOT
BRANCH   1   2
HETATM    2  N   UNL     1      -4.786   2.629 -31.845  1.00  0.00    -0.354 N 
HETATM    3  C   UNL     1      -3.515   2.154 -31.574  1.00  0.00     0.272 C 
HETATM    4  O   UNL     1      -2.596   2.907 -31.270  1.00  0.00    -0.266 OA
HETATM    5  H   UNL     1      -5.461   1.870 -31.967  1.00  0.00     0.162 HD
BRANCH   3   6
HETATM    6  C   UNL     1      -3.371   0.709 -31.779  1.00  0.00     0.146 A 
HETATM    7  N   UNL     1      -2.453  -0.000 -31.092  1.00  0.00    -0.169 NA
HETATM    8  N   UNL     1      -2.628  -1.264 -31.528  1.00  0.00    -0.282 N 
HETATM    9  C   UNL     1      -3.622  -1.390 -32.457  1.00  0.00     0.030 A 
HETATM   10  H   UNL     1      -2.036  -1.997 -31.145  1.00  0.00     0.189 HD
HETATM   11  C   UNL     1      -4.120  -0.120 -32.645  1.00  0.00     0.065 A 
BRANCH   9  12
HETATM   12  C   UNL     1      -3.988  -2.699 -33.068  1.00  0.00     0.058 C 
BRANCH  12  13
HETATM   13  C   UNL     1      -4.524  -2.522 -34.489  1.00  0.00     0.002 C 
HETATM   14  C   UNL     1      -5.584  -3.561 -34.817  1.00  0.00     0.005 C 
ENDBRANCH  12  13
ENDBRANCH   9  12
ENDBRANCH   3   6
ENDBRANCH   1   2
BRANCH   1  15
HETATM   15  C   UNL     1      -5.404   5.003 -32.480  1.00  0.00     0.254 C 
BRANCH  15  16
HETATM   16  N   UNL     1      -4.270   5.993 -32.406  1.00  0.00    -0.069 N 
HETATM   17  H   UNL     1      -4.701   6.890 -32.675  1.00  0.00     0.280 HD
HETATM   18  C   UNL     1      -3.637   6.194 -31.053  1.00  0.00     0.244 C 
HETATM   19  C   UNL     1      -2.310   6.861 -31.411  1.00  0.00     0.046 C 
HETATM   20  C   UNL     1      -1.869   6.068 -32.639  1.00  0.00     0.039 C 
HETATM   21  C   UNL     1      -3.154   5.764 -33.399  1.00  0.00     0.235 C 
BRANCH  19  22
HETATM   22  C   UNL     1      -1.273   6.901 -30.309  1.00  0.00    -0.046 A 
HETATM   23  C   UNL     1      -1.101   8.049 -29.501  1.00  0.00    -0.055 A 
HETATM   24  C   UNL     1      -1.930   9.297 -29.673  1.00  0.00     0.049 C 
HETATM   25  C   UNL     1      -0.129   8.042 -28.486  1.00  0.00     0.007 A 
HETATM   26  C   UNL     1       0.682   6.931 -28.277  1.00  0.00     0.001 A 
HETATM   27  C   UNL     1       0.537   5.809 -29.081  1.00  0.00     0.001 A 
HETATM   28  C   UNL     1      -0.427   5.796 -30.089  1.00  0.00     0.008 A 
ENDBRANCH  19  22
ENDBRANCH  15  16
ENDBRANCH   1  15
TORSDOF 7
ENDMDL
MODEL 9
REMARK VINA RESULT:      -7.3      2.066      2.504
REMARK  7 active torsions:
REMARK  status: ('A' for Active; 'I' for Inactive)
REMARK    1  A    between atoms: C_2  and  C_3 
REMARK    2  A    between atoms: C_3  and  C_4 
REMARK    3  A    between atoms: C_8  and  C_9 
REMARK       I    between atoms: C_9  and  N_10 
REMARK    4  A    between atoms: N_10  and  C_11 
REMARK    5  A    between atoms: C_11  and  C_12 
REMARK    6  A    between atoms: C_12  and  N_13 
REMARK    7  A    between atoms: C_16  and  C_17 
ROOT
HETATM    1  C   UNL     1      -6.196   3.337 -31.750  1.00  0.00     0.150 C 
ENDROOT
BRANCH   1   2
HETATM    2  N   UNL     1      -4.912   3.997 -31.940  1.00  0.00    -0.354 N 
HETATM    3  C   UNL     1      -4.425   4.962 -31.076  1.00  0.00     0.272 C 
HETATM    4  O   UNL     1      -5.167   5.592 -30.329  1.00  0.00    -0.266 OA
HETATM    5  H   UNL     1      -4.158   3.486 -32.406  1.00  0.00     0.162 HD
BRANCH   3   6
HETATM    6  C   UNL     1      -2.987   5.208 -31.217  1.00  0.00     0.146 A 
HETATM    7  N   UNL     1      -2.239   4.477 -32.067  1.00  0.00    -0.169 NA
HETATM    8  N   UNL     1      -1.001   4.995 -31.937  1.00  0.00    -0.282 N 
HETATM    9  C   UNL     1      -0.931   6.029 -31.045  1.00  0.00     0.030 A 
HETATM   10  H   UNL     1      -0.247   4.599 -32.491  1.00  0.00     0.189 HD
HETATM   11  C   UNL     1      -2.208   6.186 -30.557  1.00  0.00     0.065 A 
BRANCH   9  12
HETATM   12  C   UNL     1       0.339   6.751 -30.753  1.00  0.00     0.058 C 
BRANCH  12  13
HETATM   13  C   UNL     1       0.281   7.455 -29.396  1.00  0.00     0.002 C 
HETATM   14  C   UNL     1       0.692   6.523 -28.267  1.00  0.00     0.005 C 
ENDBRANCH  12  13
ENDBRANCH   9  12
ENDBRANCH   3   6
ENDBRANCH   1   2
BRANCH   1  15
HETATM   15  C   UNL     1      -6.123   1.821 -31.477  1.00  0.00     0.254 C 
BRANCH  15  16
HETATM   16  N   UNL     1      -5.533   1.092 -32.657  1.00  0.00    -0.069 N 
HETATM   17  H   UNL     1      -4.680   1.628 -32.882  1.00  0.00     0.280 HD
HETATM   18  C   UNL     1      -5.110  -0.335 -32.425  1.00  0.00     0.244 C 
HETATM   19  C   UNL     1      -5.003  -0.878 -33.849  1.00  0.00     0.046 C 
HETATM   20  C   UNL     1      -6.232  -0.271 -34.521  1.00  0.00     0.039 C 
HETATM   21  C   UNL     1      -6.373   1.118 -33.912  1.00  0.00     0.235 C 
BRANCH  19  22
HETATM   22  C   UNL     1      -4.921  -2.384 -33.978  1.00  0.00    -0.046 A 
HETATM   23  C   UNL     1      -3.997  -3.139 -33.218  1.00  0.00    -0.055 A 
HETATM   24  C   UNL     1      -3.044  -2.508 -32.236  1.00  0.00     0.049 C 
HETATM   25  C   UNL     1      -3.958  -4.536 -33.367  1.00  0.00     0.007 A 
HETATM   26  C   UNL     1      -4.800  -5.187 -34.264  1.00  0.00     0.001 A 
HETATM   27  C   UNL     1      -5.692  -4.451 -35.031  1.00  0.00     0.001 A 
HETATM   28  C   UNL     1      -5.749  -3.064 -34.893  1.00  0.00     0.008 A 
ENDBRANCH  19  22
ENDBRANCH  15  16
ENDBRANCH   1  15
TORSDOF 7
ENDMDL
MODEL 10
REMARK VINA RESULT:      -7.3      2.119      9.369
REMARK  7 active torsions:
REMARK  status: ('A' for Active; 'I' for Inactive)
REMARK    1  A    between atoms: C_2  and  C_3 
REMARK    2  A    between atoms: C_3  and  C_4 
REMARK    3  A    between atoms: C_8  and  C_9 
REMARK       I    between atoms: C_9  and  N_10 
REMARK    4  A    between atoms: N_10  and  C_11 
REMARK    5  A    between atoms: C_11  and  C_12 
REMARK    6  A    between atoms: C_12  and  N_13 
REMARK    7  A    between atoms: C_16  and  C_17 
ROOT
HETATM    1  C   UNL     1      -4.851   4.751 -32.727  1.00  0.00     0.150 C 
ENDROOT
BRANCH   1   2
HETATM    2  N   UNL     1      -5.388   3.458 -33.128  1.00  0.00    -0.354 N 
HETATM    3  C   UNL     1      -4.855   2.255 -32.701  1.00  0.00     0.272 C 
HETATM    4  O   UNL     1      -3.705   2.172 -32.282  1.00  0.00    -0.266 OA
HETATM    5  H   UNL     1      -6.388   3.382 -33.336  1.00  0.00     0.162 HD
BRANCH   3   6
HETATM    6  C   UNL     1      -5.753   1.112 -32.890  1.00  0.00     0.146 A 
HETATM    7  N   UNL     1      -6.938   1.047 -32.250  1.00  0.00    -0.169 NA
HETATM    8  N   UNL     1      -7.476  -0.112 -32.680  1.00  0.00    -0.282 N 
HETATM    9  C   UNL     1      -6.687  -0.784 -33.571  1.00  0.00     0.030 A 
HETATM   10  H   UNL     1      -8.390  -0.384 -32.327  1.00  0.00     0.189 HD
HETATM   11  C   UNL     1      -5.557  -0.014 -33.723  1.00  0.00     0.065 A 
BRANCH   9  12
HETATM   12  C   UNL     1      -7.091  -2.084 -34.178  1.00  0.00     0.058 C 
BRANCH  12  13
HETATM   13  C   UNL     1      -5.904  -2.782 -34.843  1.00  0.00     0.002 C 
HETATM   14  C   UNL     1      -6.128  -4.282 -34.945  1.00  0.00     0.005 C 
ENDBRANCH  12  13
ENDBRANCH   9  12
ENDBRANCH   3   6
ENDBRANCH   1   2
BRANCH   1  15
HETATM   15  C   UNL     1      -4.012   5.476 -33.800  1.00  0.00     0.254 C 
BRANCH  15  16
HETATM   16  N   UNL     1      -3.125   6.519 -33.171  1.00  0.00    -0.069 N 
HETATM   17  H   UNL     1      -3.658   7.396 -33.271  1.00  0.00     0.280 HD
HETATM   18  C   UNL     1      -2.822   6.352 -31.704  1.00  0.00     0.244 C 
HETATM   19  C   UNL     1      -1.603   7.253 -31.519  1.00  0.00     0.046 C 
HETATM   20  C   UNL     1      -0.784   6.955 -32.774  1.00  0.00     0.039 C 
HETATM   21  C   UNL     1      -1.813   6.757 -33.880  1.00  0.00     0.235 C 
BRANCH  19  22
HETATM   22  C   UNL     1      -0.831   7.064 -30.231  1.00  0.00    -0.046 A 
HETATM   23  C   UNL     1      -0.893   8.017 -29.188  1.00  0.00    -0.055 A 
HETATM   24  C   UNL     1      -1.724   9.271 -29.280  1.00  0.00     0.049 C 
HETATM   25  C   UNL     1      -0.163   7.800 -28.007  1.00  0.00     0.007 A 
HETATM   26  C   UNL     1       0.637   6.670 -27.855  1.00  0.00     0.001 A 
HETATM   27  C   UNL     1       0.723   5.742 -28.883  1.00  0.00     0.001 A 
HETATM   28  C   UNL     1       0.000   5.939 -30.060  1.00  0.00     0.008 A 
ENDBRANCH  19  22
ENDBRANCH  15  16
ENDBRANCH   1  15
TORSDOF 7
ENDMDL
