MODEL 1
REMARK VINA RESULT:      -8.0      0.000      0.000
REMARK  3 active torsions:
REMARK  status: ('A' for Active; 'I' for Inactive)
REMARK    1  A    between atoms: C_4  and  N_5 
REMARK       I    between atoms: N_5  and  C_6 
REMARK    2  A    between atoms: C_6  and  C_7 
REMARK    3  A    between atoms: C_7  and  C_8 
ROOT
HETATM    1  C   UNL     1      -9.080   1.252 -33.435  1.00  0.00     0.286 C 
HETATM    2  N   UNL     1     -10.266   0.304 -33.213  1.00  0.00    -0.056 N 
HETATM    3  H   UNL     1     -10.022  -0.631 -33.577  1.00  0.00     0.278 HD
HETATM    4  H   UNL     1     -10.417   0.195 -32.202  1.00  0.00     0.278 HD
HETATM    5  C   UNL     1     -11.557   0.721 -33.874  1.00  0.00     0.209 C 
HETATM    6  C   UNL     1     -11.862   2.195 -33.550  1.00  0.00     0.115 C 
HETATM    7  N   UNL     1     -10.747   3.063 -33.881  1.00  0.00    -0.353 N 
HETATM    8  C   UNL     1      -9.435   2.729 -33.694  1.00  0.00     0.249 C 
HETATM    9  O   UNL     1      -8.562   3.584 -33.815  1.00  0.00    -0.271 OA
HETATM   10  C   UNL     1     -12.694  -0.182 -33.404  1.00  0.00     0.035 C 
HETATM   11  C   UNL     1     -14.001   0.224 -34.087  1.00  0.00     0.002 C 
HETATM   12  C   UNL     1     -14.312   1.713 -33.916  1.00  0.00     0.002 C 
HETATM   13  C   UNL     1     -13.135   2.613 -34.293  1.00  0.00     0.027 C 
HETATM   14  H   UNL     1     -10.911   4.062 -33.993  1.00  0.00     0.163 HD
ENDROOT
BRANCH   1  15
HETATM   15  C   UNL     1      -8.129   0.747 -34.525  1.00  0.00     0.146 C 
BRANCH  15  16
HETATM   16  C   UNL     1      -7.250  -0.333 -33.952  1.00  0.00     0.224 C 
HETATM   17  N   UNL     1      -6.669  -1.141 -34.905  1.00  0.00    -0.327 N 
HETATM   18  H   UNL     1      -6.662  -0.817 -35.871  1.00  0.00     0.169 HD
HETATM   19  O   UNL     1      -7.263  -0.495 -32.734  1.00  0.00    -0.273 OA
BRANCH  17  20
HETATM   20  C   UNL     1      -6.089  -2.413 -34.706  1.00  0.00     0.034 A 
HETATM   21  C   UNL     1      -6.724  -3.618 -35.012  1.00  0.00     0.029 A 
HETATM   22  C   UNL     1      -6.055  -4.835 -34.837  1.00  0.00     0.002 A 
HETATM   23  C   UNL     1      -4.750  -4.856 -34.352  1.00  0.00     0.000 A 
HETATM   24  C   UNL     1      -4.111  -3.661 -34.037  1.00  0.00     0.002 A 
HETATM   25  C   UNL     1      -4.778  -2.445 -34.214  1.00  0.00     0.029 A 
ENDBRANCH  17  20
ENDBRANCH  15  16
ENDBRANCH   1  15
TORSDOF 3
ENDMDL
MODEL 2
REMARK VINA RESULT:      -7.9      1.329      7.556
REMARK  3 active torsions:
REMARK  status: ('A' for Active; 'I' for Inactive)
REMARK    1  A    between atoms: C_4  and  N_5 
REMARK       I    between atoms: N_5  and  C_6 
REMARK    2  A    between atoms: C_6  and  C_7 
REMARK    3  A    between atoms: C_7  and  C_8 
ROOT
HETATM    1  C   UNL     1      -6.658  -0.119 -33.814  1.00  0.00     0.286 C 
HETATM    2  N   UNL     1      -6.770  -1.419 -34.620  1.00  0.00    -0.056 N 
HETATM    3  H   UNL     1      -7.759  -1.715 -34.646  1.00  0.00     0.278 HD
HETATM    4  H   UNL     1      -6.495  -1.229 -35.593  1.00  0.00     0.278 HD
HETATM    5  C   UNL     1      -5.968  -2.580 -34.086  1.00  0.00     0.209 C 
HETATM    6  C   UNL     1      -4.520  -2.136 -33.809  1.00  0.00     0.115 C 
HETATM    7  N   UNL     1      -4.468  -0.966 -32.952  1.00  0.00    -0.353 N 
HETATM    8  C   UNL     1      -5.348   0.076 -33.025  1.00  0.00     0.249 C 
HETATM    9  O   UNL     1      -5.126   1.112 -32.404  1.00  0.00    -0.271 OA
HETATM   10  C   UNL     1      -5.997  -3.732 -35.086  1.00  0.00     0.035 C 
HETATM   11  C   UNL     1      -5.202  -4.919 -34.539  1.00  0.00     0.002 C 
HETATM   12  C   UNL     1      -3.782  -4.529 -34.122  1.00  0.00     0.002 C 
HETATM   13  C   UNL     1      -3.749  -3.310 -33.198  1.00  0.00     0.027 C 
HETATM   14  H   UNL     1      -3.602  -0.747 -32.462  1.00  0.00     0.163 HD
ENDROOT
BRANCH   1  15
HETATM   15  C   UNL     1      -7.860   0.096 -32.887  1.00  0.00     0.146 C 
BRANCH  15  16
HETATM   16  C   UNL     1      -9.031   0.580 -33.701  1.00  0.00     0.224 C 
HETATM   17  N   UNL     1     -10.193   0.717 -32.974  1.00  0.00    -0.327 N 
HETATM   18  H   UNL     1     -10.126   0.733 -31.958  1.00  0.00     0.169 HD
HETATM   19  O   UNL     1      -8.892   0.646 -34.920  1.00  0.00    -0.273 OA
BRANCH  17  20
HETATM   20  C   UNL     1     -11.508   0.813 -33.479  1.00  0.00     0.034 A 
HETATM   21  C   UNL     1     -12.444  -0.222 -33.427  1.00  0.00     0.029 A 
HETATM   22  C   UNL     1     -13.745  -0.024 -33.900  1.00  0.00     0.002 A 
HETATM   23  C   UNL     1     -14.121   1.207 -34.433  1.00  0.00     0.000 A 
HETATM   24  C   UNL     1     -13.193   2.242 -34.496  1.00  0.00     0.002 A 
HETATM   25  C   UNL     1     -11.893   2.046 -34.021  1.00  0.00     0.029 A 
ENDBRANCH  17  20
ENDBRANCH  15  16
ENDBRANCH   1  15
TORSDOF 3
ENDMDL
MODEL 3
REMARK VINA RESULT:      -7.8      1.732      2.668
REMARK  3 active torsions:
REMARK  status: ('A' for Active; 'I' for Inactive)
REMARK    1  A    between atoms: C_4  and  N_5 
REMARK       I    between atoms: N_5  and  C_6 
REMARK    2  A    between atoms: C_6  and  C_7 
REMARK    3  A    between atoms: C_7  and  C_8 
ROOT
HETATM    1  C   UNL     1      -8.915   0.915 -33.717  1.00  0.00     0.286 C 
HETATM    2  N   UNL     1      -9.078   2.170 -34.583  1.00  0.00    -0.056 N 
HETATM    3  H   UNL     1      -8.235   2.759 -34.483  1.00  0.00     0.278 HD
HETATM    4  H   UNL     1      -9.122   1.886 -35.571  1.00  0.00     0.278 HD
HETATM    5  C   UNL     1     -10.271   3.032 -34.252  1.00  0.00     0.209 C 
HETATM    6  C   UNL     1     -11.539   2.164 -34.162  1.00  0.00     0.115 C 
HETATM    7  N   UNL     1     -11.368   1.052 -33.245  1.00  0.00    -0.353 N 
HETATM    8  C   UNL     1     -10.212   0.335 -33.118  1.00  0.00     0.249 C 
HETATM    9  O   UNL     1     -10.205  -0.706 -32.468  1.00  0.00    -0.271 OA
HETATM   10  C   UNL     1     -10.434   4.118 -35.312  1.00  0.00     0.035 C 
HETATM   11  C   UNL     1     -11.630   5.007 -34.969  1.00  0.00     0.002 C 
HETATM   12  C   UNL     1     -12.911   4.202 -34.739  1.00  0.00     0.002 C 
HETATM   13  C   UNL     1     -12.718   3.051 -33.751  1.00  0.00     0.027 C 
HETATM   14  H   UNL     1     -12.192   0.583 -32.874  1.00  0.00     0.163 HD
ENDROOT
BRANCH   1  15
HETATM   15  C   UNL     1      -7.871   1.102 -32.611  1.00  0.00     0.146 C 
BRANCH  15  16
HETATM   16  C   UNL     1      -6.910  -0.058 -32.637  1.00  0.00     0.224 C 
HETATM   17  N   UNL     1      -6.751  -0.618 -33.885  1.00  0.00    -0.327 N 
HETATM   18  H   UNL     1      -7.066  -0.087 -34.695  1.00  0.00     0.169 HD
HETATM   19  O   UNL     1      -6.503  -0.488 -31.561  1.00  0.00    -0.273 OA
BRANCH  17  20
HETATM   20  C   UNL     1      -6.213  -1.888 -34.188  1.00  0.00     0.034 A 
HETATM   21  C   UNL     1      -4.856  -2.205 -34.096  1.00  0.00     0.029 A 
HETATM   22  C   UNL     1      -4.413  -3.506 -34.360  1.00  0.00     0.002 A 
HETATM   23  C   UNL     1      -5.322  -4.498 -34.721  1.00  0.00     0.000 A 
HETATM   24  C   UNL     1      -6.675  -4.190 -34.822  1.00  0.00     0.002 A 
HETATM   25  C   UNL     1      -7.118  -2.891 -34.556  1.00  0.00     0.029 A 
ENDBRANCH  17  20
ENDBRANCH  15  16
ENDBRANCH   1  15
TORSDOF 3
ENDMDL
MODEL 4
REMARK VINA RESULT:      -7.8      3.000      4.084
REMARK  3 active torsions:
REMARK  status: ('A' for Active; 'I' for Inactive)
REMARK    1  A    between atoms: C_4  and  N_5 
REMARK       I    between atoms: N_5  and  C_6 
REMARK    2  A    between atoms: C_6  and  C_7 
REMARK    3  A    between atoms: C_7  and  C_8 
ROOT
HETATM    1  C   UNL     1      -4.523   1.402 -31.753  1.00  0.00     0.286 C 
HETATM    2  N   UNL     1      -5.799   0.554 -31.683  1.00  0.00    -0.056 N 
HETATM    3  H   UNL     1      -5.547  -0.442 -31.789  1.00  0.00     0.278 HD
HETATM    4  H   UNL     1      -6.211   0.654 -30.746  1.00  0.00     0.278 HD
HETATM    5  C   UNL     1      -6.840   0.868 -32.728  1.00  0.00     0.209 C 
HETATM    6  C   UNL     1      -7.097   2.385 -32.776  1.00  0.00     0.115 C 
HETATM    7  N   UNL     1      -5.868   3.136 -32.953  1.00  0.00    -0.353 N 
HETATM    8  C   UNL     1      -4.679   2.807 -32.366  1.00  0.00     0.249 C 
HETATM    9  O   UNL     1      -3.737   3.594 -32.407  1.00  0.00    -0.271 OA
HETATM   10  C   UNL     1      -8.129   0.112 -32.419  1.00  0.00     0.035 C 
HETATM   11  C   UNL     1      -9.181   0.412 -33.488  1.00  0.00     0.002 C 
HETATM   12  C   UNL     1      -9.404   1.913 -33.684  1.00  0.00     0.002 C 
HETATM   13  C   UNL     1      -8.100   2.684 -33.895  1.00  0.00     0.027 C 
HETATM   14  H   UNL     1      -5.916   4.097 -33.288  1.00  0.00     0.163 HD
ENDROOT
BRANCH   1  15
HETATM   15  C   UNL     1      -3.369   0.661 -32.437  1.00  0.00     0.146 C 
BRANCH  15  16
HETATM   16  C   UNL     1      -3.707  -0.804 -32.528  1.00  0.00     0.224 C 
HETATM   17  N   UNL     1      -4.043  -1.219 -33.797  1.00  0.00    -0.327 N 
HETATM   18  H   UNL     1      -3.806  -0.612 -34.581  1.00  0.00     0.169 HD
HETATM   19  O   UNL     1      -3.811  -1.432 -31.477  1.00  0.00    -0.273 OA
BRANCH  17  20
HETATM   20  C   UNL     1      -4.723  -2.404 -34.155  1.00  0.00     0.034 A 
HETATM   21  C   UNL     1      -4.149  -3.676 -34.119  1.00  0.00     0.029 A 
HETATM   22  C   UNL     1      -4.911  -4.806 -34.436  1.00  0.00     0.002 A 
HETATM   23  C   UNL     1      -6.251  -4.672 -34.795  1.00  0.00     0.000 A 
HETATM   24  C   UNL     1      -6.829  -3.408 -34.841  1.00  0.00     0.002 A 
HETATM   25  C   UNL     1      -6.069  -2.279 -34.522  1.00  0.00     0.029 A 
ENDBRANCH  17  20
ENDBRANCH  15  16
ENDBRANCH   1  15
TORSDOF 3
ENDMDL
MODEL 5
REMARK VINA RESULT:      -7.8      1.748      2.375
REMARK  3 active torsions:
REMARK  status: ('A' for Active; 'I' for Inactive)
REMARK    1  A    between atoms: C_4  and  N_5 
REMARK       I    between atoms: N_5  and  C_6 
REMARK    2  A    between atoms: C_6  and  C_7 
REMARK    3  A    between atoms: C_7  and  C_8 
ROOT
HETATM    1  C   UNL     1      -7.027   1.506 -31.826  1.00  0.00     0.286 C 
HETATM    2  N   UNL     1      -8.224   0.592 -32.123  1.00  0.00    -0.056 N 
HETATM    3  H   UNL     1      -7.892  -0.242 -32.633  1.00  0.00     0.278 HD
HETATM    4  H   UNL     1      -8.611   0.256 -31.231  1.00  0.00     0.278 HD
HETATM    5  C   UNL     1      -9.323   1.216 -32.947  1.00  0.00     0.209 C 
HETATM    6  C   UNL     1      -9.709   2.585 -32.359  1.00  0.00     0.115 C 
HETATM    7  N   UNL     1      -8.555   3.451 -32.201  1.00  0.00    -0.353 N 
HETATM    8  C   UNL     1      -7.323   3.018 -31.798  1.00  0.00     0.249 C 
HETATM    9  O   UNL     1      -6.454   3.833 -31.502  1.00  0.00    -0.271 OA
HETATM   10  C   UNL     1     -10.531   0.285 -32.987  1.00  0.00     0.035 C 
HETATM   11  C   UNL     1     -11.640   0.905 -33.839  1.00  0.00     0.002 C 
HETATM   12  C   UNL     1     -11.996   2.325 -33.393  1.00  0.00     0.002 C 
HETATM   13  C   UNL     1     -10.770   3.229 -33.256  1.00  0.00     0.027 C 
HETATM   14  H   UNL     1      -8.696   4.455 -32.104  1.00  0.00     0.163 HD
ENDROOT
BRANCH   1  15
HETATM   15  C   UNL     1      -5.838   1.225 -32.751  1.00  0.00     0.146 C 
BRANCH  15  16
HETATM   16  C   UNL     1      -5.497  -0.240 -32.687  1.00  0.00     0.224 C 
HETATM   17  N   UNL     1      -5.340  -0.828 -33.923  1.00  0.00    -0.327 N 
HETATM   18  H   UNL     1      -5.215  -0.222 -34.732  1.00  0.00     0.169 HD
HETATM   19  O   UNL     1      -5.554  -0.793 -31.592  1.00  0.00    -0.273 OA
BRANCH  17  20
HETATM   20  C   UNL     1      -5.360  -2.209 -34.219  1.00  0.00     0.034 A 
HETATM   21  C   UNL     1      -4.275  -3.067 -34.022  1.00  0.00     0.029 A 
HETATM   22  C   UNL     1      -4.397  -4.435 -34.288  1.00  0.00     0.002 A 
HETATM   23  C   UNL     1      -5.601  -4.955 -34.758  1.00  0.00     0.000 A 
HETATM   24  C   UNL     1      -6.684  -4.108 -34.965  1.00  0.00     0.002 A 
HETATM   25  C   UNL     1      -6.564  -2.741 -34.696  1.00  0.00     0.029 A 
ENDBRANCH  17  20
ENDBRANCH  15  16
ENDBRANCH   1  15
TORSDOF 3
ENDMDL
MODEL 6
REMARK VINA RESULT:      -7.7      2.161      7.544
REMARK  3 active torsions:
REMARK  status: ('A' for Active; 'I' for Inactive)
REMARK    1  A    between atoms: C_4  and  N_5 
REMARK       I    between atoms: N_5  and  C_6 
REMARK    2  A    between atoms: C_6  and  C_7 
REMARK    3  A    between atoms: C_7  and  C_8 
ROOT
HETATM    1  C   UNL     1      -4.755  -0.145 -32.727  1.00  0.00     0.286 C 
HETATM    2  N   UNL     1      -5.546  -0.885 -33.814  1.00  0.00    -0.056 N 
HETATM    3  H   UNL     1      -6.536  -0.594 -33.767  1.00  0.00     0.278 HD
HETATM    4  H   UNL     1      -5.197  -0.590 -34.735  1.00  0.00     0.278 HD
HETATM    5  C   UNL     1      -5.515  -2.390 -33.722  1.00  0.00     0.209 C 
HETATM    6  C   UNL     1      -4.064  -2.879 -33.560  1.00  0.00     0.115 C 
HETATM    7  N   UNL     1      -3.396  -2.226 -32.449  1.00  0.00    -0.353 N 
HETATM    8  C   UNL     1      -3.563  -0.911 -32.120  1.00  0.00     0.249 C 
HETATM    9  O   UNL     1      -2.821  -0.386 -31.294  1.00  0.00    -0.271 OA
HETATM   10  C   UNL     1      -6.153  -2.998 -34.967  1.00  0.00     0.035 C 
HETATM   11  C   UNL     1      -6.143  -4.524 -34.868  1.00  0.00     0.002 C 
HETATM   12  C   UNL     1      -4.747  -5.083 -34.582  1.00  0.00     0.002 C 
HETATM   13  C   UNL     1      -4.069  -4.401 -33.393  1.00  0.00     0.027 C 
HETATM   14  H   UNL     1      -2.558  -2.651 -32.054  1.00  0.00     0.163 HD
ENDROOT
BRANCH   1  15
HETATM   15  C   UNL     1      -5.659   0.383 -31.608  1.00  0.00     0.146 C 
BRANCH  15  16
HETATM   16  C   UNL     1      -6.751   1.227 -32.211  1.00  0.00     0.224 C 
HETATM   17  N   UNL     1      -7.995   0.996 -31.667  1.00  0.00    -0.327 N 
HETATM   18  H   UNL     1      -8.048   0.498 -30.780  1.00  0.00     0.169 HD
HETATM   19  O   UNL     1      -6.475   1.893 -33.205  1.00  0.00    -0.273 OA
BRANCH  17  20
HETATM   20  C   UNL     1      -9.246   1.352 -32.218  1.00  0.00     0.034 A 
HETATM   21  C   UNL     1      -9.786   2.639 -32.167  1.00  0.00     0.029 A 
HETATM   22  C   UNL     1     -11.007   2.919 -32.788  1.00  0.00     0.002 A 
HETATM   23  C   UNL     1     -11.700   1.915 -33.461  1.00  0.00     0.000 A 
HETATM   24  C   UNL     1     -11.174   0.628 -33.511  1.00  0.00     0.002 A 
HETATM   25  C   UNL     1      -9.952   0.348 -32.893  1.00  0.00     0.029 A 
ENDBRANCH  17  20
ENDBRANCH  15  16
ENDBRANCH   1  15
TORSDOF 3
ENDMDL
MODEL 7
REMARK VINA RESULT:      -7.6      6.152      8.146
REMARK  3 active torsions:
REMARK  status: ('A' for Active; 'I' for Inactive)
REMARK    1  A    between atoms: C_4  and  N_5 
REMARK       I    between atoms: N_5  and  C_6 
REMARK    2  A    between atoms: C_6  and  C_7 
REMARK    3  A    between atoms: C_7  and  C_8 
ROOT
HETATM    1  C   UNL     1      -3.807   3.555 -31.972  1.00  0.00     0.286 C 
HETATM    2  N   UNL     1      -2.418   4.022 -32.426  1.00  0.00    -0.056 N 
HETATM    3  H   UNL     1      -1.844   3.195 -32.657  1.00  0.00     0.278 HD
HETATM    4  H   UNL     1      -2.520   4.561 -33.297  1.00  0.00     0.278 HD
HETATM    5  C   UNL     1      -1.649   4.836 -31.416  1.00  0.00     0.209 C 
HETATM    6  C   UNL     1      -2.538   5.963 -30.860  1.00  0.00     0.115 C 
HETATM    7  N   UNL     1      -3.795   5.454 -30.343  1.00  0.00    -0.353 N 
HETATM    8  C   UNL     1      -4.505   4.439 -30.920  1.00  0.00     0.249 C 
HETATM    9  O   UNL     1      -5.647   4.196 -30.538  1.00  0.00    -0.271 OA
HETATM   10  C   UNL     1      -0.392   5.410 -32.063  1.00  0.00     0.035 C 
HETATM   11  C   UNL     1       0.402   6.219 -31.036  1.00  0.00     0.002 C 
HETATM   12  C   UNL     1      -0.451   7.284 -30.345  1.00  0.00     0.002 C 
HETATM   13  C   UNL     1      -1.759   6.725 -29.784  1.00  0.00     0.027 C 
HETATM   14  H   UNL     1      -4.336   6.027 -29.699  1.00  0.00     0.163 HD
ENDROOT
BRANCH   1  15
HETATM   15  C   UNL     1      -3.807   2.095 -31.507  1.00  0.00     0.146 C 
BRANCH  15  16
HETATM   16  C   UNL     1      -4.764   1.305 -32.360  1.00  0.00     0.224 C 
HETATM   17  N   UNL     1      -4.667  -0.058 -32.188  1.00  0.00    -0.327 N 
HETATM   18  H   UNL     1      -4.175  -0.405 -31.366  1.00  0.00     0.169 HD
HETATM   19  O   UNL     1      -5.401   1.912 -33.218  1.00  0.00    -0.273 OA
BRANCH  17  20
HETATM   20  C   UNL     1      -5.155  -1.064 -33.050  1.00  0.00     0.034 A 
HETATM   21  C   UNL     1      -6.502  -1.222 -33.384  1.00  0.00     0.029 A 
HETATM   22  C   UNL     1      -6.894  -2.211 -34.292  1.00  0.00     0.002 A 
HETATM   23  C   UNL     1      -5.946  -3.052 -34.870  1.00  0.00     0.000 A 
HETATM   24  C   UNL     1      -4.602  -2.907 -34.538  1.00  0.00     0.002 A 
HETATM   25  C   UNL     1      -4.209  -1.916 -33.633  1.00  0.00     0.029 A 
ENDBRANCH  17  20
ENDBRANCH  15  16
ENDBRANCH   1  15
TORSDOF 3
ENDMDL
MODEL 8
REMARK VINA RESULT:      -7.6      2.752      5.216
REMARK  3 active torsions:
REMARK  status: ('A' for Active; 'I' for Inactive)
REMARK    1  A    between atoms: C_4  and  N_5 
REMARK       I    between atoms: N_5  and  C_6 
REMARK    2  A    between atoms: C_6  and  C_7 
REMARK    3  A    between atoms: C_7  and  C_8 
ROOT
HETATM    1  C   UNL     1      -8.562   1.781 -33.102  1.00  0.00     0.286 C 
HETATM    2  N   UNL     1      -7.342   2.681 -33.337  1.00  0.00    -0.056 N 
HETATM    3  H   UNL     1      -7.265   2.885 -34.347  1.00  0.00     0.278 HD
HETATM    4  H   UNL     1      -7.501   3.582 -32.868  1.00  0.00     0.278 HD
HETATM    5  C   UNL     1      -6.021   2.106 -32.892  1.00  0.00     0.209 C 
HETATM    6  C   UNL     1      -6.137   1.571 -31.453  1.00  0.00     0.115 C 
HETATM    7  N   UNL     1      -7.242   0.640 -31.310  1.00  0.00    -0.353 N 
HETATM    8  C   UNL     1      -8.449   0.782 -31.933  1.00  0.00     0.249 C 
HETATM    9  O   UNL     1      -9.392   0.065 -31.613  1.00  0.00    -0.271 OA
HETATM   10  C   UNL     1      -4.934   3.172 -32.985  1.00  0.00     0.035 C 
HETATM   11  C   UNL     1      -3.588   2.587 -32.554  1.00  0.00     0.002 C 
HETATM   12  C   UNL     1      -3.654   1.923 -31.177  1.00  0.00     0.002 C 
HETATM   13  C   UNL     1      -4.807   0.926 -31.054  1.00  0.00     0.027 C 
HETATM   14  H   UNL     1      -7.256   0.004 -30.515  1.00  0.00     0.163 HD
ENDROOT
BRANCH   1  15
HETATM   15  C   UNL     1      -8.997   1.046 -34.374  1.00  0.00     0.146 C 
BRANCH  15  16
HETATM   16  C   UNL     1      -7.844   0.228 -34.891  1.00  0.00     0.224 C 
HETATM   17  N   UNL     1      -7.701  -0.990 -34.262  1.00  0.00    -0.327 N 
HETATM   18  H   UNL     1      -8.483  -1.342 -33.713  1.00  0.00     0.169 HD
HETATM   19  O   UNL     1      -7.066   0.766 -35.675  1.00  0.00    -0.273 OA
BRANCH  17  20
HETATM   20  C   UNL     1      -6.560  -1.821 -34.263  1.00  0.00     0.034 A 
HETATM   21  C   UNL     1      -5.319  -1.447 -33.742  1.00  0.00     0.029 A 
HETATM   22  C   UNL     1      -4.254  -2.354 -33.731  1.00  0.00     0.002 A 
HETATM   23  C   UNL     1      -4.418  -3.638 -34.244  1.00  0.00     0.000 A 
HETATM   24  C   UNL     1      -5.648  -4.018 -34.773  1.00  0.00     0.002 A 
HETATM   25  C   UNL     1      -6.714  -3.113 -34.781  1.00  0.00     0.029 A 
ENDBRANCH  17  20
ENDBRANCH  15  16
ENDBRANCH   1  15
TORSDOF 3
ENDMDL
MODEL 9
REMARK VINA RESULT:      -7.6      1.615      2.168
REMARK  3 active torsions:
REMARK  status: ('A' for Active; 'I' for Inactive)
REMARK    1  A    between atoms: C_4  and  N_5 
REMARK       I    between atoms: N_5  and  C_6 
REMARK    2  A    between atoms: C_6  and  C_7 
REMARK    3  A    between atoms: C_7  and  C_8 
ROOT
HETATM    1  C   UNL     1      -7.574   2.687 -33.478  1.00  0.00     0.286 C 
HETATM    2  N   UNL     1      -8.781   1.742 -33.425  1.00  0.00    -0.056 N 
HETATM    3  H   UNL     1      -8.469   0.785 -33.655  1.00  0.00     0.278 HD
HETATM    4  H   UNL     1      -9.134   1.712 -32.459  1.00  0.00     0.278 HD
HETATM    5  C   UNL     1      -9.910   2.086 -34.364  1.00  0.00     0.209 C 
HETATM    6  C   UNL     1     -10.273   3.575 -34.229  1.00  0.00     0.115 C 
HETATM    7  N   UNL     1      -9.113   4.432 -34.396  1.00  0.00    -0.353 N 
HETATM    8  C   UNL     1      -7.867   4.134 -33.922  1.00  0.00     0.249 C 
HETATM    9  O   UNL     1      -6.987   4.989 -33.932  1.00  0.00    -0.271 OA
HETATM   10  C   UNL     1     -11.120   1.206 -34.063  1.00  0.00     0.035 C 
HETATM   11  C   UNL     1     -12.260   1.536 -35.027  1.00  0.00     0.002 C 
HETATM   12  C   UNL     1     -12.599   3.029 -35.043  1.00  0.00     0.002 C 
HETATM   13  C   UNL     1     -11.368   3.914 -35.245  1.00  0.00     0.027 C 
HETATM   14  H   UNL     1      -9.250   5.416 -34.619  1.00  0.00     0.163 HD
ENDROOT
BRANCH   1  15
HETATM   15  C   UNL     1      -6.421   2.112 -34.308  1.00  0.00     0.146 C 
BRANCH  15  16
HETATM   16  C   UNL     1      -6.719   0.673 -34.637  1.00  0.00     0.224 C 
HETATM   17  N   UNL     1      -5.988  -0.228 -33.895  1.00  0.00    -0.327 N 
HETATM   18  H   UNL     1      -5.521   0.107 -33.053  1.00  0.00     0.169 HD
HETATM   19  O   UNL     1      -7.431   0.444 -35.611  1.00  0.00    -0.273 OA
BRANCH  17  20
HETATM   20  C   UNL     1      -5.775  -1.595 -34.180  1.00  0.00     0.034 A 
HETATM   21  C   UNL     1      -4.533  -2.227 -34.099  1.00  0.00     0.029 A 
HETATM   22  C   UNL     1      -4.420  -3.600 -34.344  1.00  0.00     0.002 A 
HETATM   23  C   UNL     1      -5.546  -4.350 -34.677  1.00  0.00     0.000 A 
HETATM   24  C   UNL     1      -6.787  -3.727 -34.769  1.00  0.00     0.002 A 
HETATM   25  C   UNL     1      -6.901  -2.356 -34.520  1.00  0.00     0.029 A 
ENDBRANCH  17  20
ENDBRANCH  15  16
ENDBRANCH   1  15
TORSDOF 3
ENDMDL
MODEL 10
REMARK VINA RESULT:      -7.6      5.941      8.219
REMARK  3 active torsions:
REMARK  status: ('A' for Active; 'I' for Inactive)
REMARK    1  A    between atoms: C_4  and  N_5 
REMARK       I    between atoms: N_5  and  C_6 
REMARK    2  A    between atoms: C_6  and  C_7 
REMARK    3  A    between atoms: C_7  and  C_8 
ROOT
HETATM    1  C   UNL     1      -5.076   1.560 -32.045  1.00  0.00     0.286 C 
HETATM    2  N   UNL     1      -4.361   0.247 -32.388  1.00  0.00    -0.056 N 
HETATM    3  H   UNL     1      -3.390   0.456 -32.671  1.00  0.00     0.278 HD
HETATM    4  H   UNL     1      -4.300  -0.328 -31.537  1.00  0.00     0.278 HD
HETATM    5  C   UNL     1      -4.989  -0.559 -33.497  1.00  0.00     0.209 C 
HETATM    6  C   UNL     1      -6.500  -0.715 -33.244  1.00  0.00     0.115 C 
HETATM    7  N   UNL     1      -7.147   0.567 -33.034  1.00  0.00    -0.353 N 
HETATM    8  C   UNL     1      -6.587   1.603 -32.342  1.00  0.00     0.249 C 
HETATM    9  O   UNL     1      -7.269   2.579 -32.042  1.00  0.00    -0.271 OA
HETATM   10  C   UNL     1      -4.314  -1.925 -33.591  1.00  0.00     0.035 C 
HETATM   11  C   UNL     1      -4.934  -2.737 -34.729  1.00  0.00     0.002 C 
HETATM   12  C   UNL     1      -6.458  -2.833 -34.616  1.00  0.00     0.002 C 
HETATM   13  C   UNL     1      -7.124  -1.470 -34.421  1.00  0.00     0.027 C 
HETATM   14  H   UNL     1      -8.157   0.638 -33.147  1.00  0.00     0.163 HD
ENDROOT
BRANCH   1  15
HETATM   15  C   UNL     1      -4.388   2.777 -32.671  1.00  0.00     0.146 C 
BRANCH  15  16
HETATM   16  C   UNL     1      -3.330   3.287 -31.728  1.00  0.00     0.224 C 
HETATM   17  N   UNL     1      -3.112   4.643 -31.819  1.00  0.00    -0.327 N 
HETATM   18  H   UNL     1      -3.810   5.213 -32.294  1.00  0.00     0.169 HD
HETATM   19  O   UNL     1      -2.668   2.457 -31.110  1.00  0.00    -0.273 OA
BRANCH  17  20
HETATM   20  C   UNL     1      -1.992   5.361 -31.344  1.00  0.00     0.034 A 
HETATM   21  C   UNL     1      -0.682   5.144 -31.779  1.00  0.00     0.029 A 
HETATM   22  C   UNL     1       0.364   5.939 -31.298  1.00  0.00     0.002 A 
HETATM   23  C   UNL     1       0.111   6.953 -30.377  1.00  0.00     0.000 A 
HETATM   24  C   UNL     1      -1.189   7.171 -29.931  1.00  0.00     0.002 A 
HETATM   25  C   UNL     1      -2.235   6.379 -30.414  1.00  0.00     0.029 A 
ENDBRANCH  17  20
ENDBRANCH  15  16
ENDBRANCH   1  15
TORSDOF 3
ENDMDL
