MODEL 1
REMARK VINA RESULT:      -8.9      0.000      0.000
REMARK  11 active torsions:
REMARK  status: ('A' for Active; 'I' for Inactive)
REMARK    1  A    between atoms: C_6  and  C_7 
REMARK    2  A    between atoms: C_7  and  C_8 
REMARK       I    between atoms: C_8  and  N_9 
REMARK    3  A    between atoms: N_9  and  C_10 
REMARK    4  A    between atoms: C_10  and  C_11 
REMARK    5  A    between atoms: C_11  and  N_12 
REMARK    6  A    between atoms: C_17  and  C_18 
REMARK    7  A    between atoms: C_21  and  C_22 
REMARK    8  A    between atoms: C_29  and  C_30 
REMARK    9  A    between atoms: C_30  and  O_31 
REMARK   10  A    between atoms: O_31  and  C_32 
REMARK   11  A    between atoms: C_32  and  C_33 
ROOT
HETATM    1  C   UNL     1      -5.020   6.178 -31.350  1.00  0.00     0.071 C 
HETATM    2  C   UNL     1      -5.935   4.971 -31.357  1.00  0.00     0.048 C 
HETATM    3  N   UNL     1      -7.116   5.175 -30.676  1.00  0.00    -0.229 NA
HETATM    4  C   UNL     1      -8.100   4.388 -30.941  1.00  0.00     0.170 C 
HETATM    5  N   UNL     1      -7.993   3.036 -31.745  1.00  0.00    -0.319 N 
HETATM    6  C   UNL     1      -9.176   2.531 -31.921  1.00  0.00     0.011 C 
HETATM    7  C   UNL     1      -6.567   2.628 -31.855  1.00  0.00     0.166 C 
HETATM    8  S   UNL     1      -9.724   4.711 -30.437  1.00  0.00    -0.086 SA
HETATM    9  C   UNL     1     -10.332   3.457 -31.591  1.00  0.00     0.135 C 
HETATM   10  C   UNL     1      -5.709   3.836 -32.056  1.00  0.00     0.069 C 
ENDROOT
BRANCH   6  11
HETATM   11  C   UNL     1      -9.445   1.132 -32.392  1.00  0.00     0.156 C 
BRANCH  11  12
HETATM   12  C   UNL     1     -10.518   0.991 -33.454  1.00  0.00     0.223 C 
HETATM   13  N   UNL     1     -11.718   0.531 -32.965  1.00  0.00    -0.359 N 
HETATM   14  H   UNL     1     -11.728   0.201 -32.002  1.00  0.00     0.162 HD
HETATM   15  O   UNL     1     -10.332   1.269 -34.634  1.00  0.00    -0.273 OA
BRANCH  13  16
HETATM   16  C   UNL     1     -12.854   0.078 -33.769  1.00  0.00     0.150 C 
BRANCH  16  17
HETATM   17  C   UNL     1     -14.072   1.021 -33.858  1.00  0.00     0.253 C 
BRANCH  17  18
HETATM   18  N   UNL     1     -14.134   2.018 -32.716  1.00  0.00    -0.077 N 
HETATM   19  H   UNL     1     -13.483   1.666 -31.986  1.00  0.00     0.279 HD
HETATM   20  C   UNL     1     -13.693   3.405 -33.093  1.00  0.00     0.269 C 
HETATM   21  C   UNL     1     -15.503   2.053 -32.090  1.00  0.00     0.269 C 
ENDBRANCH  17  18
ENDBRANCH  16  17
ENDBRANCH  13  16
ENDBRANCH  11  12
ENDBRANCH   6  11
BRANCH   7  22
HETATM   22  C   UNL     1      -6.300   1.400 -32.702  1.00  0.00    -0.030 A 
HETATM   23  C   UNL     1      -6.640   1.300 -34.058  1.00  0.00     0.010 A 
HETATM   24  C   UNL     1      -6.457   0.094 -34.750  1.00  0.00     0.008 A 
HETATM   25  C   UNL     1      -5.933  -1.039 -34.112  1.00  0.00    -0.055 A 
HETATM   26  C   UNL     1      -5.526  -0.917 -32.780  1.00  0.00     0.008 A 
HETATM   27  C   UNL     1      -5.703   0.281 -32.089  1.00  0.00     0.010 A 
BRANCH  25  28
HETATM   28  C   UNL     1      -5.775  -2.348 -34.870  1.00  0.00     0.010 C 
HETATM   29  C   UNL     1      -4.428  -3.003 -34.566  1.00  0.00     0.015 C 
HETATM   30  C   UNL     1      -6.925  -3.327 -34.596  1.00  0.00     0.015 C 
ENDBRANCH  25  28
ENDBRANCH   7  22
BRANCH  10  31
HETATM   31  C   UNL     1      -4.816   3.958 -33.220  1.00  0.00     0.294 C 
HETATM   32  O   UNL     1      -5.129   4.314 -34.332  1.00  0.00    -0.259 OA
BRANCH  31  33
HETATM   33  O   UNL     1      -3.629   3.480 -32.778  1.00  0.00    -0.313 OA
BRANCH  33  34
HETATM   34  C   UNL     1      -2.466   3.853 -33.536  1.00  0.00     0.217 C 
BRANCH  34  35
HETATM   35  C   UNL     1      -1.836   5.027 -32.817  1.00  0.00    -0.034 A 
HETATM   36  C   UNL     1      -1.700   6.273 -33.454  1.00  0.00     0.009 A 
HETATM   37  C   UNL     1      -1.146   7.369 -32.790  1.00  0.00     0.001 A 
HETATM   38  C   UNL     1      -0.726   7.237 -31.470  1.00  0.00     0.000 A 
HETATM   39  C   UNL     1      -0.868   6.014 -30.818  1.00  0.00     0.001 A 
HETATM   40  C   UNL     1      -1.422   4.916 -31.484  1.00  0.00     0.009 A 
ENDBRANCH  34  35
ENDBRANCH  33  34
ENDBRANCH  31  33
ENDBRANCH  10  31
TORSDOF 11
ENDMDL
MODEL 2
REMARK VINA RESULT:      -8.5      3.177      7.534
REMARK  11 active torsions:
REMARK  status: ('A' for Active; 'I' for Inactive)
REMARK    1  A    between atoms: C_6  and  C_7 
REMARK    2  A    between atoms: C_7  and  C_8 
REMARK       I    between atoms: C_8  and  N_9 
REMARK    3  A    between atoms: N_9  and  C_10 
REMARK    4  A    between atoms: C_10  and  C_11 
REMARK    5  A    between atoms: C_11  and  N_12 
REMARK    6  A    between atoms: C_17  and  C_18 
REMARK    7  A    between atoms: C_21  and  C_22 
REMARK    8  A    between atoms: C_29  and  C_30 
REMARK    9  A    between atoms: C_30  and  O_31 
REMARK   10  A    between atoms: O_31  and  C_32 
REMARK   11  A    between atoms: C_32  and  C_33 
ROOT
HETATM    1  C   UNL     1      -2.917   0.093 -31.111  1.00  0.00     0.071 C 
HETATM    2  C   UNL     1      -3.757   1.294 -31.493  1.00  0.00     0.048 C 
HETATM    3  N   UNL     1      -3.019   2.444 -31.673  1.00  0.00    -0.229 NA
HETATM    4  C   UNL     1      -3.554   3.393 -32.359  1.00  0.00     0.170 C 
HETATM    5  N   UNL     1      -5.078   3.483 -32.755  1.00  0.00    -0.319 N 
HETATM    6  C   UNL     1      -5.276   4.510 -33.525  1.00  0.00     0.011 C 
HETATM    7  C   UNL     1      -5.865   2.513 -31.947  1.00  0.00     0.166 C 
HETATM    8  S   UNL     1      -2.653   4.744 -32.957  1.00  0.00    -0.086 SA
HETATM    9  C   UNL     1      -4.019   5.165 -34.066  1.00  0.00     0.135 C 
HETATM   10  C   UNL     1      -5.081   1.252 -31.765  1.00  0.00     0.069 C 
ENDROOT
BRANCH   6  11
HETATM   11  C   UNL     1      -6.624   5.070 -33.871  1.00  0.00     0.156 C 
BRANCH  11  12
HETATM   12  C   UNL     1      -7.214   6.034 -32.860  1.00  0.00     0.223 C 
HETATM   13  N   UNL     1      -6.384   7.087 -32.557  1.00  0.00    -0.359 N 
HETATM   14  H   UNL     1      -5.431   7.042 -32.913  1.00  0.00     0.162 HD
HETATM   15  O   UNL     1      -8.328   5.889 -32.368  1.00  0.00    -0.273 OA
BRANCH  13  16
HETATM   16  C   UNL     1      -6.573   8.040 -31.461  1.00  0.00     0.150 C 
BRANCH  16  17
HETATM   17  C   UNL     1      -5.831   7.746 -30.140  1.00  0.00     0.253 C 
BRANCH  17  18
HETATM   18  N   UNL     1      -4.910   6.545 -30.233  1.00  0.00    -0.077 N 
HETATM   19  H   UNL     1      -4.853   6.297 -31.241  1.00  0.00     0.279 HD
HETATM   20  C   UNL     1      -3.512   6.810 -29.747  1.00  0.00     0.269 C 
HETATM   21  C   UNL     1      -5.493   5.348 -29.530  1.00  0.00     0.269 C 
ENDBRANCH  17  18
ENDBRANCH  16  17
ENDBRANCH  13  16
ENDBRANCH  11  12
ENDBRANCH   6  11
BRANCH   7  22
HETATM   22  C   UNL     1      -7.335   2.407 -32.301  1.00  0.00    -0.030 A 
HETATM   23  C   UNL     1      -7.808   2.101 -33.584  1.00  0.00     0.010 A 
HETATM   24  C   UNL     1      -9.183   2.124 -33.860  1.00  0.00     0.008 A 
HETATM   25  C   UNL     1     -10.118   2.451 -32.868  1.00  0.00    -0.055 A 
HETATM   26  C   UNL     1      -9.652   2.684 -31.571  1.00  0.00     0.008 A 
HETATM   27  C   UNL     1      -8.285   2.659 -31.291  1.00  0.00     0.010 A 
BRANCH  25  28
HETATM   28  C   UNL     1     -11.603   2.505 -33.195  1.00  0.00     0.010 C 
HETATM   29  C   UNL     1     -11.918   3.662 -34.142  1.00  0.00     0.015 C 
HETATM   30  C   UNL     1     -12.126   1.181 -33.769  1.00  0.00     0.015 C 
ENDBRANCH  25  28
ENDBRANCH   7  22
BRANCH  10  31
HETATM   31  C   UNL     1      -5.617  -0.053 -32.183  1.00  0.00     0.294 C 
HETATM   32  O   UNL     1      -6.238  -0.828 -31.495  1.00  0.00    -0.259 OA
BRANCH  31  33
HETATM   33  O   UNL     1      -5.158  -0.210 -33.447  1.00  0.00    -0.313 OA
BRANCH  33  34
HETATM   34  C   UNL     1      -6.059  -0.822 -34.384  1.00  0.00     0.217 C 
BRANCH  34  35
HETATM   35  C   UNL     1      -5.718  -2.297 -34.417  1.00  0.00    -0.034 A 
HETATM   36  C   UNL     1      -6.676  -3.250 -34.806  1.00  0.00     0.009 A 
HETATM   37  C   UNL     1      -6.362  -4.609 -34.865  1.00  0.00     0.001 A 
HETATM   38  C   UNL     1      -5.078  -5.037 -34.545  1.00  0.00     0.000 A 
HETATM   39  C   UNL     1      -4.111  -4.105 -34.174  1.00  0.00     0.001 A 
HETATM   40  C   UNL     1      -4.426  -2.744 -34.112  1.00  0.00     0.009 A 
ENDBRANCH  34  35
ENDBRANCH  33  34
ENDBRANCH  31  33
ENDBRANCH  10  31
TORSDOF 11
ENDMDL
MODEL 3
REMARK VINA RESULT:      -8.4      3.221      7.356
REMARK  11 active torsions:
REMARK  status: ('A' for Active; 'I' for Inactive)
REMARK    1  A    between atoms: C_6  and  C_7 
REMARK    2  A    between atoms: C_7  and  C_8 
REMARK       I    between atoms: C_8  and  N_9 
REMARK    3  A    between atoms: N_9  and  C_10 
REMARK    4  A    between atoms: C_10  and  C_11 
REMARK    5  A    between atoms: C_11  and  N_12 
REMARK    6  A    between atoms: C_17  and  C_18 
REMARK    7  A    between atoms: C_21  and  C_22 
REMARK    8  A    between atoms: C_29  and  C_30 
REMARK    9  A    between atoms: C_30  and  O_31 
REMARK   10  A    between atoms: O_31  and  C_32 
REMARK   11  A    between atoms: C_32  and  C_33 
ROOT
HETATM    1  C   UNL     1      -3.024  -0.081 -31.164  1.00  0.00     0.071 C 
HETATM    2  C   UNL     1      -3.768   1.195 -31.500  1.00  0.00     0.048 C 
HETATM    3  N   UNL     1      -2.943   2.293 -31.625  1.00  0.00    -0.229 NA
HETATM    4  C   UNL     1      -3.398   3.308 -32.274  1.00  0.00     0.170 C 
HETATM    5  N   UNL     1      -4.907   3.529 -32.676  1.00  0.00    -0.319 N 
HETATM    6  C   UNL     1      -5.019   4.600 -33.403  1.00  0.00     0.011 C 
HETATM    7  C   UNL     1      -5.773   2.588 -31.917  1.00  0.00     0.166 C 
HETATM    8  S   UNL     1      -2.392   4.611 -32.806  1.00  0.00    -0.086 SA
HETATM    9  C   UNL     1      -3.711   5.181 -33.907  1.00  0.00     0.135 C 
HETATM   10  C   UNL     1      -5.088   1.265 -31.783  1.00  0.00     0.069 C 
ENDROOT
BRANCH   6  11
HETATM   11  C   UNL     1      -6.318   5.274 -33.734  1.00  0.00     0.156 C 
BRANCH  11  12
HETATM   12  C   UNL     1      -6.882   6.179 -32.656  1.00  0.00     0.223 C 
HETATM   13  N   UNL     1      -5.969   7.083 -32.166  1.00  0.00    -0.359 N 
HETATM   14  H   UNL     1      -5.000   6.965 -32.455  1.00  0.00     0.162 HD
HETATM   15  O   UNL     1      -8.043   6.114 -32.267  1.00  0.00    -0.273 OA
BRANCH  13  16
HETATM   16  C   UNL     1      -6.144   7.919 -30.976  1.00  0.00     0.150 C 
BRANCH  16  17
HETATM   17  C   UNL     1      -6.035   7.220 -29.605  1.00  0.00     0.253 C 
BRANCH  17  18
HETATM   18  N   UNL     1      -7.313   6.510 -29.200  1.00  0.00    -0.077 N 
HETATM   19  H   UNL     1      -7.910   6.475 -30.050  1.00  0.00     0.279 HD
HETATM   20  C   UNL     1      -7.103   5.098 -28.729  1.00  0.00     0.269 C 
HETATM   21  C   UNL     1      -8.078   7.299 -28.170  1.00  0.00     0.269 C 
ENDBRANCH  17  18
ENDBRANCH  16  17
ENDBRANCH  13  16
ENDBRANCH  11  12
ENDBRANCH   6  11
BRANCH   7  22
HETATM   22  C   UNL     1      -7.243   2.608 -32.285  1.00  0.00    -0.030 A 
HETATM   23  C   UNL     1      -8.277   2.780 -31.355  1.00  0.00     0.010 A 
HETATM   24  C   UNL     1      -9.618   2.682 -31.755  1.00  0.00     0.008 A 
HETATM   25  C   UNL     1      -9.961   2.412 -33.087  1.00  0.00    -0.055 A 
HETATM   26  C   UNL     1      -8.932   2.313 -34.028  1.00  0.00     0.008 A 
HETATM   27  C   UNL     1      -7.597   2.413 -33.635  1.00  0.00     0.010 A 
BRANCH  25  28
HETATM   28  C   UNL     1     -11.420   2.274 -33.495  1.00  0.00     0.010 C 
HETATM   29  C   UNL     1     -11.702   3.024 -34.797  1.00  0.00     0.015 C 
HETATM   30  C   UNL     1     -11.862   0.809 -33.610  1.00  0.00     0.015 C 
ENDBRANCH  25  28
ENDBRANCH   7  22
BRANCH  10  31
HETATM   31  C   UNL     1      -5.716   0.024 -32.260  1.00  0.00     0.294 C 
HETATM   32  O   UNL     1      -6.414  -0.723 -31.615  1.00  0.00    -0.259 OA
BRANCH  31  33
HETATM   33  O   UNL     1      -5.240  -0.126 -33.519  1.00  0.00    -0.313 OA
BRANCH  33  34
HETATM   34  C   UNL     1      -6.118  -0.757 -34.466  1.00  0.00     0.217 C 
BRANCH  34  35
HETATM   35  C   UNL     1      -5.742  -2.223 -34.499  1.00  0.00    -0.034 A 
HETATM   36  C   UNL     1      -4.443  -2.642 -34.164  1.00  0.00     0.009 A 
HETATM   37  C   UNL     1      -4.095  -3.994 -34.165  1.00  0.00     0.001 A 
HETATM   38  C   UNL     1      -5.049  -4.953 -34.492  1.00  0.00     0.000 A 
HETATM   39  C   UNL     1      -6.347  -4.557 -34.810  1.00  0.00     0.001 A 
HETATM   40  C   UNL     1      -6.694  -3.202 -34.811  1.00  0.00     0.009 A 
ENDBRANCH  34  35
ENDBRANCH  33  34
ENDBRANCH  31  33
ENDBRANCH  10  31
TORSDOF 11
ENDMDL
MODEL 4
REMARK VINA RESULT:      -8.3      2.344      8.032
REMARK  11 active torsions:
REMARK  status: ('A' for Active; 'I' for Inactive)
REMARK    1  A    between atoms: C_6  and  C_7 
REMARK    2  A    between atoms: C_7  and  C_8 
REMARK       I    between atoms: C_8  and  N_9 
REMARK    3  A    between atoms: N_9  and  C_10 
REMARK    4  A    between atoms: C_10  and  C_11 
REMARK    5  A    between atoms: C_11  and  N_12 
REMARK    6  A    between atoms: C_17  and  C_18 
REMARK    7  A    between atoms: C_21  and  C_22 
REMARK    8  A    between atoms: C_29  and  C_30 
REMARK    9  A    between atoms: C_30  and  O_31 
REMARK   10  A    between atoms: O_31  and  C_32 
REMARK   11  A    between atoms: C_32  and  C_33 
ROOT
HETATM    1  C   UNL     1      -9.765  -0.073 -32.687  1.00  0.00     0.071 C 
HETATM    2  C   UNL     1      -9.195   1.325 -32.563  1.00  0.00     0.048 C 
HETATM    3  N   UNL     1     -10.120   2.258 -32.144  1.00  0.00    -0.229 NA
HETATM    4  C   UNL     1      -9.672   3.356 -31.641  1.00  0.00     0.170 C 
HETATM    5  N   UNL     1      -8.180   3.856 -31.733  1.00  0.00    -0.319 N 
HETATM    6  C   UNL     1      -8.036   4.949 -31.044  1.00  0.00     0.011 C 
HETATM    7  C   UNL     1      -7.447   3.068 -32.759  1.00  0.00     0.166 C 
HETATM    8  S   UNL     1     -10.673   4.468 -30.772  1.00  0.00    -0.086 SA
HETATM    9  C   UNL     1      -9.197   5.296 -30.131  1.00  0.00     0.135 C 
HETATM   10  C   UNL     1      -7.889   1.640 -32.712  1.00  0.00     0.069 C 
ENDROOT
BRANCH   6  11
HETATM   11  C   UNL     1      -6.844   5.856 -31.122  1.00  0.00     0.156 C 
BRANCH  11  12
HETATM   12  C   UNL     1      -6.110   6.088 -29.816  1.00  0.00     0.223 C 
HETATM   13  N   UNL     1      -6.207   7.379 -29.354  1.00  0.00    -0.359 N 
HETATM   14  H   UNL     1      -6.620   8.065 -29.983  1.00  0.00     0.162 HD
HETATM   15  O   UNL     1      -5.496   5.204 -29.226  1.00  0.00    -0.273 OA
BRANCH  13  16
HETATM   16  C   UNL     1      -5.425   7.960 -28.260  1.00  0.00     0.150 C 
BRANCH  16  17
HETATM   17  C   UNL     1      -3.917   8.170 -28.509  1.00  0.00     0.253 C 
BRANCH  17  18
HETATM   18  N   UNL     1      -3.069   7.016 -28.009  1.00  0.00    -0.077 N 
HETATM   19  H   UNL     1      -3.445   6.159 -28.462  1.00  0.00     0.279 HD
HETATM   20  C   UNL     1      -1.614   7.126 -28.375  1.00  0.00     0.269 C 
HETATM   21  C   UNL     1      -3.224   6.822 -26.524  1.00  0.00     0.269 C 
ENDBRANCH  17  18
ENDBRANCH  16  17
ENDBRANCH  13  16
ENDBRANCH  11  12
ENDBRANCH   6  11
BRANCH   7  22
HETATM   22  C   UNL     1      -5.965   3.364 -32.878  1.00  0.00    -0.030 A 
HETATM   23  C   UNL     1      -5.014   2.977 -31.924  1.00  0.00     0.010 A 
HETATM   24  C   UNL     1      -3.676   3.378 -32.050  1.00  0.00     0.008 A 
HETATM   25  C   UNL     1      -3.253   4.172 -33.125  1.00  0.00    -0.055 A 
HETATM   26  C   UNL     1      -4.186   4.497 -34.114  1.00  0.00     0.008 A 
HETATM   27  C   UNL     1      -5.517   4.098 -33.995  1.00  0.00     0.010 A 
BRANCH  25  28
HETATM   28  C   UNL     1      -1.805   4.627 -33.226  1.00  0.00     0.010 C 
HETATM   29  C   UNL     1      -1.571   5.447 -34.494  1.00  0.00     0.015 C 
HETATM   30  C   UNL     1      -1.348   5.407 -31.986  1.00  0.00     0.015 C 
ENDBRANCH  25  28
ENDBRANCH   7  22
BRANCH  10  31
HETATM   31  C   UNL     1      -6.929   0.546 -32.502  1.00  0.00     0.294 C 
HETATM   32  O   UNL     1      -6.520   0.143 -31.439  1.00  0.00    -0.259 OA
BRANCH  31  33
HETATM   33  O   UNL     1      -6.546   0.196 -33.753  1.00  0.00    -0.313 OA
BRANCH  33  34
HETATM   34  C   UNL     1      -5.232  -0.369 -33.887  1.00  0.00     0.217 C 
BRANCH  34  35
HETATM   35  C   UNL     1      -5.418  -1.844 -34.173  1.00  0.00    -0.034 A 
HETATM   36  C   UNL     1      -6.662  -2.344 -34.595  1.00  0.00     0.009 A 
HETATM   37  C   UNL     1      -6.836  -3.699 -34.889  1.00  0.00     0.001 A 
HETATM   38  C   UNL     1      -5.761  -4.574 -34.774  1.00  0.00     0.000 A 
HETATM   39  C   UNL     1      -4.517  -4.093 -34.373  1.00  0.00     0.001 A 
HETATM   40  C   UNL     1      -4.344  -2.737 -34.077  1.00  0.00     0.009 A 
ENDBRANCH  34  35
ENDBRANCH  33  34
ENDBRANCH  31  33
ENDBRANCH  10  31
TORSDOF 11
ENDMDL
MODEL 5
REMARK VINA RESULT:      -7.8      1.985      8.468
REMARK  11 active torsions:
REMARK  status: ('A' for Active; 'I' for Inactive)
REMARK    1  A    between atoms: C_6  and  C_7 
REMARK    2  A    between atoms: C_7  and  C_8 
REMARK       I    between atoms: C_8  and  N_9 
REMARK    3  A    between atoms: N_9  and  C_10 
REMARK    4  A    between atoms: C_10  and  C_11 
REMARK    5  A    between atoms: C_11  and  N_12 
REMARK    6  A    between atoms: C_17  and  C_18 
REMARK    7  A    between atoms: C_21  and  C_22 
REMARK    8  A    between atoms: C_29  and  C_30 
REMARK    9  A    between atoms: C_30  and  O_31 
REMARK   10  A    between atoms: O_31  and  C_32 
REMARK   11  A    between atoms: C_32  and  C_33 
ROOT
HETATM    1  C   UNL     1     -12.629   4.497 -35.157  1.00  0.00     0.071 C 
HETATM    2  C   UNL     1     -11.267   4.222 -34.555  1.00  0.00     0.048 C 
HETATM    3  N   UNL     1     -10.745   5.298 -33.869  1.00  0.00    -0.229 NA
HETATM    4  C   UNL     1      -9.811   5.062 -33.014  1.00  0.00     0.170 C 
HETATM    5  N   UNL     1      -9.006   3.712 -32.896  1.00  0.00    -0.319 N 
HETATM    6  C   UNL     1      -8.203   3.763 -31.876  1.00  0.00     0.011 C 
HETATM    7  C   UNL     1      -9.232   2.883 -34.110  1.00  0.00     0.166 C 
HETATM    8  S   UNL     1      -9.291   6.227 -31.845  1.00  0.00    -0.086 SA
HETATM    9  C   UNL     1      -8.434   4.923 -30.927  1.00  0.00     0.135 C 
HETATM   10  C   UNL     1     -10.652   3.018 -34.558  1.00  0.00     0.069 C 
ENDROOT
BRANCH   6  11
HETATM   11  C   UNL     1      -7.093   2.788 -31.614  1.00  0.00     0.156 C 
BRANCH  11  12
HETATM   12  C   UNL     1      -5.749   3.144 -32.220  1.00  0.00     0.223 C 
HETATM   13  N   UNL     1      -4.686   2.883 -31.388  1.00  0.00    -0.359 N 
HETATM   14  H   UNL     1      -4.903   2.625 -30.428  1.00  0.00     0.162 HD
HETATM   15  O   UNL     1      -5.625   3.613 -33.347  1.00  0.00    -0.273 OA
BRANCH  13  16
HETATM   16  C   UNL     1      -3.307   3.328 -31.595  1.00  0.00     0.150 C 
BRANCH  16  17
HETATM   17  C   UNL     1      -3.015   4.830 -31.393  1.00  0.00     0.253 C 
BRANCH  17  18
HETATM   18  N   UNL     1      -2.000   5.373 -32.381  1.00  0.00    -0.077 N 
HETATM   19  H   UNL     1      -2.250   6.370 -32.540  1.00  0.00     0.279 HD
HETATM   20  C   UNL     1      -0.582   5.331 -31.882  1.00  0.00     0.269 C 
HETATM   21  C   UNL     1      -2.108   4.685 -33.716  1.00  0.00     0.269 C 
ENDBRANCH  17  18
ENDBRANCH  16  17
ENDBRANCH  13  16
ENDBRANCH  11  12
ENDBRANCH   6  11
BRANCH   7  22
HETATM   22  C   UNL     1      -8.608   1.502 -34.087  1.00  0.00    -0.030 A 
HETATM   23  C   UNL     1      -8.957   0.505 -33.166  1.00  0.00     0.010 A 
HETATM   24  C   UNL     1      -8.262  -0.713 -33.139  1.00  0.00     0.008 A 
HETATM   25  C   UNL     1      -7.206  -0.968 -34.025  1.00  0.00    -0.055 A 
HETATM   26  C   UNL     1      -6.906  -0.002 -34.990  1.00  0.00     0.008 A 
HETATM   27  C   UNL     1      -7.596   1.209 -35.023  1.00  0.00     0.010 A 
BRANCH  25  28
HETATM   28  C   UNL     1      -6.441  -2.281 -33.957  1.00  0.00     0.010 C 
HETATM   29  C   UNL     1      -6.927  -3.259 -35.026  1.00  0.00     0.015 C 
HETATM   30  C   UNL     1      -4.923  -2.081 -34.058  1.00  0.00     0.015 C 
ENDBRANCH  25  28
ENDBRANCH   7  22
BRANCH  10  31
HETATM   31  C   UNL     1     -11.525   1.844 -34.707  1.00  0.00     0.294 C 
HETATM   32  O   UNL     1     -11.783   1.265 -35.736  1.00  0.00    -0.259 OA
BRANCH  31  33
HETATM   33  O   UNL     1     -12.039   1.654 -33.468  1.00  0.00    -0.313 OA
BRANCH  33  34
HETATM   34  C   UNL     1     -13.291   0.954 -33.394  1.00  0.00     0.217 C 
BRANCH  34  35
HETATM   35  C   UNL     1     -14.309   1.938 -32.857  1.00  0.00    -0.034 A 
HETATM   36  C   UNL     1     -15.686   1.668 -32.941  1.00  0.00     0.009 A 
HETATM   37  C   UNL     1     -16.631   2.557 -32.424  1.00  0.00     0.001 A 
HETATM   38  C   UNL     1     -16.210   3.728 -31.802  1.00  0.00     0.000 A 
HETATM   39  C   UNL     1     -14.849   4.004 -31.695  1.00  0.00     0.001 A 
HETATM   40  C   UNL     1     -13.903   3.114 -32.215  1.00  0.00     0.009 A 
ENDBRANCH  34  35
ENDBRANCH  33  34
ENDBRANCH  31  33
ENDBRANCH  10  31
TORSDOF 11
ENDMDL
MODEL 6
REMARK VINA RESULT:      -7.8      2.568      7.825
REMARK  11 active torsions:
REMARK  status: ('A' for Active; 'I' for Inactive)
REMARK    1  A    between atoms: C_6  and  C_7 
REMARK    2  A    between atoms: C_7  and  C_8 
REMARK       I    between atoms: C_8  and  N_9 
REMARK    3  A    between atoms: N_9  and  C_10 
REMARK    4  A    between atoms: C_10  and  C_11 
REMARK    5  A    between atoms: C_11  and  N_12 
REMARK    6  A    between atoms: C_17  and  C_18 
REMARK    7  A    between atoms: C_21  and  C_22 
REMARK    8  A    between atoms: C_29  and  C_30 
REMARK    9  A    between atoms: C_30  and  O_31 
REMARK   10  A    between atoms: O_31  and  C_32 
REMARK   11  A    between atoms: C_32  and  C_33 
ROOT
HETATM    1  C   UNL     1      -9.665  -0.089 -32.654  1.00  0.00     0.071 C 
HETATM    2  C   UNL     1      -9.129   1.325 -32.562  1.00  0.00     0.048 C 
HETATM    3  N   UNL     1     -10.079   2.246 -32.174  1.00  0.00    -0.229 NA
HETATM    4  C   UNL     1      -9.661   3.367 -31.696  1.00  0.00     0.170 C 
HETATM    5  N   UNL     1      -8.180   3.900 -31.791  1.00  0.00    -0.319 N 
HETATM    6  C   UNL     1      -8.067   5.013 -31.130  1.00  0.00     0.011 C 
HETATM    7  C   UNL     1      -7.421   3.104 -32.792  1.00  0.00     0.166 C 
HETATM    8  S   UNL     1     -10.694   4.477 -30.863  1.00  0.00    -0.086 SA
HETATM    9  C   UNL     1      -9.242   5.356 -30.233  1.00  0.00     0.135 C 
HETATM   10  C   UNL     1      -7.830   1.668 -32.711  1.00  0.00     0.069 C 
ENDROOT
BRANCH   6  11
HETATM   11  C   UNL     1      -6.896   5.946 -31.222  1.00  0.00     0.156 C 
BRANCH  11  12
HETATM   12  C   UNL     1      -6.119   6.154 -29.937  1.00  0.00     0.223 C 
HETATM   13  N   UNL     1      -6.008   7.475 -29.571  1.00  0.00    -0.359 N 
HETATM   14  H   UNL     1      -6.317   8.169 -30.248  1.00  0.00     0.162 HD
HETATM   15  O   UNL     1      -5.643   5.231 -29.285  1.00  0.00    -0.273 OA
BRANCH  13  16
HETATM   16  C   UNL     1      -5.133   8.003 -28.523  1.00  0.00     0.150 C 
BRANCH  16  17
HETATM   17  C   UNL     1      -5.814   8.654 -27.301  1.00  0.00     0.253 C 
BRANCH  17  18
HETATM   18  N   UNL     1      -6.904   9.637 -27.685  1.00  0.00    -0.077 N 
HETATM   19  H   UNL     1      -7.411   9.213 -28.487  1.00  0.00     0.279 HD
HETATM   20  C   UNL     1      -7.906   9.893 -26.593  1.00  0.00     0.269 C 
HETATM   21  C   UNL     1      -6.324  10.935 -28.181  1.00  0.00     0.269 C 
ENDBRANCH  17  18
ENDBRANCH  16  17
ENDBRANCH  13  16
ENDBRANCH  11  12
ENDBRANCH   6  11
BRANCH   7  22
HETATM   22  C   UNL     1      -5.946   3.432 -32.908  1.00  0.00    -0.030 A 
HETATM   23  C   UNL     1      -4.992   3.088 -31.941  1.00  0.00     0.010 A 
HETATM   24  C   UNL     1      -3.663   3.516 -32.068  1.00  0.00     0.008 A 
HETATM   25  C   UNL     1      -3.252   4.298 -33.157  1.00  0.00    -0.055 A 
HETATM   26  C   UNL     1      -4.186   4.579 -34.158  1.00  0.00     0.008 A 
HETATM   27  C   UNL     1      -5.508   4.151 -34.038  1.00  0.00     0.010 A 
BRANCH  25  28
HETATM   28  C   UNL     1      -1.814   4.783 -33.259  1.00  0.00     0.010 C 
HETATM   29  C   UNL     1      -1.497   5.277 -34.670  1.00  0.00     0.015 C 
HETATM   30  C   UNL     1      -1.486   5.866 -32.222  1.00  0.00     0.015 C 
ENDBRANCH  25  28
ENDBRANCH   7  22
BRANCH  10  31
HETATM   31  C   UNL     1      -6.845   0.602 -32.466  1.00  0.00     0.294 C 
HETATM   32  O   UNL     1      -6.464   0.209 -31.388  1.00  0.00    -0.259 OA
BRANCH  31  33
HETATM   33  O   UNL     1      -6.406   0.266 -33.702  1.00  0.00    -0.313 OA
BRANCH  33  34
HETATM   34  C   UNL     1      -5.120  -0.370 -33.774  1.00  0.00     0.217 C 
BRANCH  34  35
HETATM   35  C   UNL     1      -5.369  -1.817 -34.144  1.00  0.00    -0.034 A 
HETATM   36  C   UNL     1      -4.348  -2.777 -34.029  1.00  0.00     0.009 A 
HETATM   37  C   UNL     1      -4.578  -4.118 -34.342  1.00  0.00     0.001 A 
HETATM   38  C   UNL     1      -5.839  -4.523 -34.766  1.00  0.00     0.000 A 
HETATM   39  C   UNL     1      -6.867  -3.589 -34.870  1.00  0.00     0.001 A 
HETATM   40  C   UNL     1      -6.637  -2.245 -34.559  1.00  0.00     0.009 A 
ENDBRANCH  34  35
ENDBRANCH  33  34
ENDBRANCH  31  33
ENDBRANCH  10  31
TORSDOF 11
ENDMDL
MODEL 7
REMARK VINA RESULT:      -7.8      2.695      7.915
REMARK  11 active torsions:
REMARK  status: ('A' for Active; 'I' for Inactive)
REMARK    1  A    between atoms: C_6  and  C_7 
REMARK    2  A    between atoms: C_7  and  C_8 
REMARK       I    between atoms: C_8  and  N_9 
REMARK    3  A    between atoms: N_9  and  C_10 
REMARK    4  A    between atoms: C_10  and  C_11 
REMARK    5  A    between atoms: C_11  and  N_12 
REMARK    6  A    between atoms: C_17  and  C_18 
REMARK    7  A    between atoms: C_21  and  C_22 
REMARK    8  A    between atoms: C_29  and  C_30 
REMARK    9  A    between atoms: C_30  and  O_31 
REMARK   10  A    between atoms: O_31  and  C_32 
REMARK   11  A    between atoms: C_32  and  C_33 
ROOT
HETATM    1  C   UNL     1     -12.155   5.286 -34.505  1.00  0.00     0.071 C 
HETATM    2  C   UNL     1     -10.769   5.566 -33.963  1.00  0.00     0.048 C 
HETATM    3  N   UNL     1     -10.482   6.910 -33.860  1.00  0.00    -0.229 NA
HETATM    4  C   UNL     1      -9.524   7.256 -33.072  1.00  0.00     0.170 C 
HETATM    5  N   UNL     1      -8.460   6.275 -32.448  1.00  0.00    -0.319 N 
HETATM    6  C   UNL     1      -7.691   6.921 -31.625  1.00  0.00     0.011 C 
HETATM    7  C   UNL     1      -8.505   4.968 -33.157  1.00  0.00     0.166 C 
HETATM    8  S   UNL     1      -9.261   8.893 -32.575  1.00  0.00    -0.086 SA
HETATM    9  C   UNL     1      -8.161   8.316 -31.259  1.00  0.00     0.135 C 
HETATM   10  C   UNL     1      -9.920   4.623 -33.495  1.00  0.00     0.069 C 
ENDROOT
BRANCH   6  11
HETATM   11  C   UNL     1      -6.406   6.389 -31.061  1.00  0.00     0.156 C 
BRANCH  11  12
HETATM   12  C   UNL     1      -5.159   6.692 -31.869  1.00  0.00     0.223 C 
HETATM   13  N   UNL     1      -4.087   7.077 -31.099  1.00  0.00    -0.359 N 
HETATM   14  H   UNL     1      -4.268   7.259 -30.114  1.00  0.00     0.162 HD
HETATM   15  O   UNL     1      -5.112   6.594 -33.090  1.00  0.00    -0.273 OA
BRANCH  13  16
HETATM   16  C   UNL     1      -2.836   7.651 -31.598  1.00  0.00     0.150 C 
BRANCH  16  17
HETATM   17  C   UNL     1      -1.591   6.739 -31.586  1.00  0.00     0.253 C 
BRANCH  17  18
HETATM   18  N   UNL     1      -1.348   6.088 -30.238  1.00  0.00    -0.077 N 
HETATM   19  H   UNL     1      -2.220   5.575 -30.000  1.00  0.00     0.279 HD
HETATM   20  C   UNL     1      -0.217   5.096 -30.236  1.00  0.00     0.269 C 
HETATM   21  C   UNL     1      -1.146   7.117 -29.158  1.00  0.00     0.269 C 
ENDBRANCH  17  18
ENDBRANCH  16  17
ENDBRANCH  13  16
ENDBRANCH  11  12
ENDBRANCH   6  11
BRANCH   7  22
HETATM   22  C   UNL     1      -7.611   3.883 -32.589  1.00  0.00    -0.030 A 
HETATM   23  C   UNL     1      -7.812   3.284 -31.337  1.00  0.00     0.010 A 
HETATM   24  C   UNL     1      -6.884   2.362 -30.833  1.00  0.00     0.008 A 
HETATM   25  C   UNL     1      -5.736   2.015 -31.559  1.00  0.00    -0.055 A 
HETATM   26  C   UNL     1      -5.573   2.556 -32.837  1.00  0.00     0.008 A 
HETATM   27  C   UNL     1      -6.496   3.471 -33.345  1.00  0.00     0.010 A 
BRANCH  25  28
HETATM   28  C   UNL     1      -4.722   1.039 -30.980  1.00  0.00     0.010 C 
HETATM   29  C   UNL     1      -5.411  -0.047 -30.155  1.00  0.00     0.015 C 
HETATM   30  C   UNL     1      -3.829   0.412 -32.058  1.00  0.00     0.015 C 
ENDBRANCH  25  28
ENDBRANCH   7  22
BRANCH  10  31
HETATM   31  C   UNL     1     -10.533   3.365 -33.043  1.00  0.00     0.294 C 
HETATM   32  O   UNL     1     -11.142   3.192 -32.013  1.00  0.00    -0.259 OA
BRANCH  31  33
HETATM   33  O   UNL     1     -10.160   2.459 -33.977  1.00  0.00    -0.313 OA
BRANCH  33  34
HETATM   34  C   UNL     1     -10.225   1.076 -33.591  1.00  0.00     0.217 C 
BRANCH  34  35
HETATM   35  C   UNL     1      -8.867   0.476 -33.892  1.00  0.00    -0.034 A 
HETATM   36  C   UNL     1      -8.265  -0.427 -32.998  1.00  0.00     0.009 A 
HETATM   37  C   UNL     1      -7.026  -1.006 -33.280  1.00  0.00     0.001 A 
HETATM   38  C   UNL     1      -6.374  -0.699 -34.469  1.00  0.00     0.000 A 
HETATM   39  C   UNL     1      -6.964   0.181 -35.375  1.00  0.00     0.001 A 
HETATM   40  C   UNL     1      -8.203   0.763 -35.091  1.00  0.00     0.009 A 
ENDBRANCH  34  35
ENDBRANCH  33  34
ENDBRANCH  31  33
ENDBRANCH  10  31
TORSDOF 11
ENDMDL
MODEL 8
REMARK VINA RESULT:      -7.7     17.567     19.317
REMARK  11 active torsions:
REMARK  status: ('A' for Active; 'I' for Inactive)
REMARK    1  A    between atoms: C_6  and  C_7 
REMARK    2  A    between atoms: C_7  and  C_8 
REMARK       I    between atoms: C_8  and  N_9 
REMARK    3  A    between atoms: N_9  and  C_10 
REMARK    4  A    between atoms: C_10  and  C_11 
REMARK    5  A    between atoms: C_11  and  N_12 
REMARK    6  A    between atoms: C_17  and  C_18 
REMARK    7  A    between atoms: C_21  and  C_22 
REMARK    8  A    between atoms: C_29  and  C_30 
REMARK    9  A    between atoms: C_30  and  O_31 
REMARK   10  A    between atoms: O_31  and  C_32 
REMARK   11  A    between atoms: C_32  and  C_33 
ROOT
HETATM    1  C   UNL     1      -4.942 -13.921 -42.517  1.00  0.00     0.071 C 
HETATM    2  C   UNL     1      -4.974 -13.735 -41.014  1.00  0.00     0.048 C 
HETATM    3  N   UNL     1      -6.044 -12.984 -40.578  1.00  0.00    -0.229 NA
HETATM    4  C   UNL     1      -6.381 -13.091 -39.340  1.00  0.00     0.170 C 
HETATM    5  N   UNL     1      -5.507 -13.764 -38.214  1.00  0.00    -0.319 N 
HETATM    6  C   UNL     1      -6.169 -13.794 -37.097  1.00  0.00     0.011 C 
HETATM    7  C   UNL     1      -4.114 -13.949 -38.702  1.00  0.00     0.166 C 
HETATM    8  S   UNL     1      -7.881 -12.491 -38.719  1.00  0.00    -0.086 SA
HETATM    9  C   UNL     1      -7.646 -13.463 -37.211  1.00  0.00     0.135 C 
HETATM   10  C   UNL     1      -4.130 -14.337 -40.146  1.00  0.00     0.069 C 
ENDROOT
BRANCH   6  11
HETATM   11  C   UNL     1      -5.570 -14.103 -35.757  1.00  0.00     0.156 C 
BRANCH  11  12
HETATM   12  C   UNL     1      -6.223 -15.236 -34.990  1.00  0.00     0.223 C 
HETATM   13  N   UNL     1      -6.850 -14.827 -33.836  1.00  0.00    -0.359 N 
HETATM   14  H   UNL     1      -6.695 -13.866 -33.542  1.00  0.00     0.162 HD
HETATM   15  O   UNL     1      -6.200 -16.402 -35.369  1.00  0.00    -0.273 OA
BRANCH  13  16
HETATM   16  C   UNL     1      -7.361 -15.705 -32.782  1.00  0.00     0.150 C 
BRANCH  16  17
HETATM   17  C   UNL     1      -6.326 -16.552 -32.011  1.00  0.00     0.253 C 
BRANCH  17  18
HETATM   18  N   UNL     1      -5.711 -15.811 -30.839  1.00  0.00    -0.077 N 
HETATM   19  H   UNL     1      -6.260 -14.936 -30.725  1.00  0.00     0.279 HD
HETATM   20  C   UNL     1      -5.775 -16.565 -29.539  1.00  0.00     0.269 C 
HETATM   21  C   UNL     1      -4.294 -15.393 -31.135  1.00  0.00     0.269 C 
ENDBRANCH  17  18
ENDBRANCH  16  17
ENDBRANCH  13  16
ENDBRANCH  11  12
ENDBRANCH   6  11
BRANCH   7  22
HETATM   22  C   UNL     1      -3.184 -14.691 -37.763  1.00  0.00    -0.030 A 
HETATM   23  C   UNL     1      -3.262 -16.069 -37.516  1.00  0.00     0.010 A 
HETATM   24  C   UNL     1      -2.435 -16.668 -36.554  1.00  0.00     0.008 A 
HETATM   25  C   UNL     1      -1.512 -15.912 -35.817  1.00  0.00    -0.055 A 
HETATM   26  C   UNL     1      -1.383 -14.553 -36.115  1.00  0.00     0.008 A 
HETATM   27  C   UNL     1      -2.201 -13.953 -37.073  1.00  0.00     0.010 A 
BRANCH  25  28
HETATM   28  C   UNL     1      -0.648 -16.573 -34.753  1.00  0.00     0.010 C 
HETATM   29  C   UNL     1      -0.407 -18.047 -35.076  1.00  0.00     0.015 C 
HETATM   30  C   UNL     1       0.684 -15.842 -34.543  1.00  0.00     0.015 C 
ENDBRANCH  25  28
ENDBRANCH   7  22
BRANCH  10  31
HETATM   31  C   UNL     1      -3.489 -15.575 -40.616  1.00  0.00     0.294 C 
HETATM   32  O   UNL     1      -3.991 -16.674 -40.654  1.00  0.00    -0.259 OA
BRANCH  31  33
HETATM   33  O   UNL     1      -2.211 -15.209 -40.874  1.00  0.00    -0.313 OA
BRANCH  33  34
HETATM   34  C   UNL     1      -1.245 -16.270 -40.953  1.00  0.00     0.217 C 
BRANCH  34  35
HETATM   35  C   UNL     1      -0.185 -15.972 -39.913  1.00  0.00    -0.034 A 
HETATM   36  C   UNL     1       0.271 -14.659 -39.705  1.00  0.00     0.009 A 
HETATM   37  C   UNL     1       1.228 -14.372 -38.728  1.00  0.00     0.001 A 
HETATM   38  C   UNL     1       1.736 -15.396 -37.936  1.00  0.00     0.000 A 
HETATM   39  C   UNL     1       1.282 -16.701 -38.117  1.00  0.00     0.001 A 
HETATM   40  C   UNL     1       0.326 -16.989 -39.096  1.00  0.00     0.009 A 
ENDBRANCH  34  35
ENDBRANCH  33  34
ENDBRANCH  31  33
ENDBRANCH  10  31
TORSDOF 11
ENDMDL
MODEL 9
REMARK VINA RESULT:      -7.4      3.995      9.496
REMARK  11 active torsions:
REMARK  status: ('A' for Active; 'I' for Inactive)
REMARK    1  A    between atoms: C_6  and  C_7 
REMARK    2  A    between atoms: C_7  and  C_8 
REMARK       I    between atoms: C_8  and  N_9 
REMARK    3  A    between atoms: N_9  and  C_10 
REMARK    4  A    between atoms: C_10  and  C_11 
REMARK    5  A    between atoms: C_11  and  N_12 
REMARK    6  A    between atoms: C_17  and  C_18 
REMARK    7  A    between atoms: C_21  and  C_22 
REMARK    8  A    between atoms: C_29  and  C_30 
REMARK    9  A    between atoms: C_30  and  O_31 
REMARK   10  A    between atoms: O_31  and  C_32 
REMARK   11  A    between atoms: C_32  and  C_33 
ROOT
HETATM    1  C   UNL     1      -3.942   0.813 -31.637  1.00  0.00     0.071 C 
HETATM    2  C   UNL     1      -3.868   2.313 -31.447  1.00  0.00     0.048 C 
HETATM    3  N   UNL     1      -2.813   2.898 -32.115  1.00  0.00    -0.229 NA
HETATM    4  C   UNL     1      -2.881   4.165 -32.342  1.00  0.00     0.170 C 
HETATM    5  N   UNL     1      -3.907   5.155 -31.670  1.00  0.00    -0.319 N 
HETATM    6  C   UNL     1      -3.776   6.342 -32.181  1.00  0.00     0.011 C 
HETATM    7  C   UNL     1      -4.548   4.498 -30.500  1.00  0.00     0.166 C 
HETATM    8  S   UNL     1      -1.824   4.979 -33.443  1.00  0.00    -0.086 SA
HETATM    9  C   UNL     1      -2.924   6.417 -33.435  1.00  0.00     0.135 C 
HETATM   10  C   UNL     1      -4.797   3.055 -30.803  1.00  0.00     0.069 C 
ENDROOT
BRANCH   6  11
HETATM   11  C   UNL     1      -4.378   7.590 -31.607  1.00  0.00     0.156 C 
BRANCH  11  12
HETATM   12  C   UNL     1      -3.410   8.528 -30.913  1.00  0.00     0.223 C 
HETATM   13  N   UNL     1      -2.679   7.924 -29.917  1.00  0.00    -0.359 N 
HETATM   14  H   UNL     1      -2.953   6.981 -29.651  1.00  0.00     0.162 HD
HETATM   15  O   UNL     1      -3.286   9.710 -31.219  1.00  0.00    -0.273 OA
BRANCH  13  16
HETATM   16  C   UNL     1      -1.846   8.611 -28.929  1.00  0.00     0.150 C 
BRANCH  16  17
HETATM   17  C   UNL     1      -0.487   7.965 -28.585  1.00  0.00     0.253 C 
BRANCH  17  18
HETATM   18  N   UNL     1      -0.597   6.485 -28.275  1.00  0.00    -0.077 N 
HETATM   19  H   UNL     1      -1.564   6.202 -28.535  1.00  0.00     0.279 HD
HETATM   20  C   UNL     1       0.357   5.625 -29.058  1.00  0.00     0.269 C 
HETATM   21  C   UNL     1      -0.455   6.219 -26.800  1.00  0.00     0.269 C 
ENDBRANCH  17  18
ENDBRANCH  16  17
ENDBRANCH  13  16
ENDBRANCH  11  12
ENDBRANCH   6  11
BRANCH   7  22
HETATM   22  C   UNL     1      -5.645   5.295 -29.821  1.00  0.00    -0.030 A 
HETATM   23  C   UNL     1      -6.875   5.597 -30.421  1.00  0.00     0.010 A 
HETATM   24  C   UNL     1      -7.799   6.427 -29.771  1.00  0.00     0.008 A 
HETATM   25  C   UNL     1      -7.522   6.978 -28.511  1.00  0.00    -0.055 A 
HETATM   26  C   UNL     1      -6.327   6.618 -27.882  1.00  0.00     0.008 A 
HETATM   27  C   UNL     1      -5.406   5.789 -28.523  1.00  0.00     0.010 A 
BRANCH  25  28
HETATM   28  C   UNL     1      -8.522   7.905 -27.837  1.00  0.00     0.010 C 
HETATM   29  C   UNL     1      -7.969   9.326 -27.727  1.00  0.00     0.015 C 
HETATM   30  C   UNL     1      -9.884   7.910 -28.543  1.00  0.00     0.015 C 
ENDBRANCH  25  28
ENDBRANCH   7  22
BRANCH  10  31
HETATM   31  C   UNL     1      -6.145   2.473 -30.715  1.00  0.00     0.294 C 
HETATM   32  O   UNL     1      -6.607   1.868 -29.776  1.00  0.00    -0.259 OA
BRANCH  31  33
HETATM   33  O   UNL     1      -6.675   2.677 -31.945  1.00  0.00    -0.313 OA
BRANCH  33  34
HETATM   34  C   UNL     1      -7.889   1.969 -32.244  1.00  0.00     0.217 C 
BRANCH  34  35
HETATM   35  C   UNL     1      -7.522   0.864 -33.213  1.00  0.00    -0.034 A 
HETATM   36  C   UNL     1      -7.468   1.107 -34.596  1.00  0.00     0.009 A 
HETATM   37  C   UNL     1      -7.103   0.101 -35.494  1.00  0.00     0.001 A 
HETATM   38  C   UNL     1      -6.776  -1.164 -35.018  1.00  0.00     0.000 A 
HETATM   39  C   UNL     1      -6.808  -1.418 -33.648  1.00  0.00     0.001 A 
HETATM   40  C   UNL     1      -7.175  -0.411 -32.750  1.00  0.00     0.009 A 
ENDBRANCH  34  35
ENDBRANCH  33  34
ENDBRANCH  31  33
ENDBRANCH  10  31
TORSDOF 11
ENDMDL
MODEL 10
REMARK VINA RESULT:      -7.4      2.785      6.035
REMARK  11 active torsions:
REMARK  status: ('A' for Active; 'I' for Inactive)
REMARK    1  A    between atoms: C_6  and  C_7 
REMARK    2  A    between atoms: C_7  and  C_8 
REMARK       I    between atoms: C_8  and  N_9 
REMARK    3  A    between atoms: N_9  and  C_10 
REMARK    4  A    between atoms: C_10  and  C_11 
REMARK    5  A    between atoms: C_11  and  N_12 
REMARK    6  A    between atoms: C_17  and  C_18 
REMARK    7  A    between atoms: C_21  and  C_22 
REMARK    8  A    between atoms: C_29  and  C_30 
REMARK    9  A    between atoms: C_30  and  O_31 
REMARK   10  A    between atoms: O_31  and  C_32 
REMARK   11  A    between atoms: C_32  and  C_33 
ROOT
HETATM    1  C   UNL     1      -5.114  -0.500 -33.690  1.00  0.00     0.071 C 
HETATM    2  C   UNL     1      -5.989   0.734 -33.634  1.00  0.00     0.048 C 
HETATM    3  N   UNL     1      -7.253   0.533 -34.146  1.00  0.00    -0.229 NA
HETATM    4  C   UNL     1      -8.175   1.364 -33.801  1.00  0.00     0.170 C 
HETATM    5  N   UNL     1      -7.930   2.751 -33.094  1.00  0.00    -0.319 N 
HETATM    6  C   UNL     1      -9.068   3.303 -32.796  1.00  0.00     0.011 C 
HETATM    7  C   UNL     1      -6.492   3.119 -33.190  1.00  0.00     0.166 C 
HETATM    8  S   UNL     1      -9.857   1.068 -34.075  1.00  0.00    -0.086 SA
HETATM    9  C   UNL     1     -10.279   2.399 -32.924  1.00  0.00     0.135 C 
HETATM   10  C   UNL     1      -5.646   1.896 -33.033  1.00  0.00     0.069 C 
ENDROOT
BRANCH   6  11
HETATM   11  C   UNL     1      -9.238   4.733 -32.373  1.00  0.00     0.156 C 
BRANCH  11  12
HETATM   12  C   UNL     1      -9.426   4.960 -30.886  1.00  0.00     0.223 C 
HETATM   13  N   UNL     1      -9.330   6.280 -30.516  1.00  0.00    -0.359 N 
HETATM   14  H   UNL     1      -9.006   6.936 -31.224  1.00  0.00     0.162 HD
HETATM   15  O   UNL     1      -9.651   4.051 -30.093  1.00  0.00    -0.273 OA
BRANCH  13  16
HETATM   16  C   UNL     1      -9.235   6.781 -29.144  1.00  0.00     0.150 C 
BRANCH  16  17
HETATM   17  C   UNL     1     -10.088   8.017 -28.786  1.00  0.00     0.253 C 
BRANCH  17  18
HETATM   18  N   UNL     1     -10.555   8.015 -27.343  1.00  0.00    -0.077 N 
HETATM   19  H   UNL     1     -10.391   7.053 -26.984  1.00  0.00     0.279 HD
HETATM   20  C   UNL     1      -9.803   8.969 -26.457  1.00  0.00     0.269 C 
HETATM   21  C   UNL     1     -12.037   8.263 -27.245  1.00  0.00     0.269 C 
ENDBRANCH  17  18
ENDBRANCH  16  17
ENDBRANCH  13  16
ENDBRANCH  11  12
ENDBRANCH   6  11
BRANCH   7  22
HETATM   22  C   UNL     1      -6.087   4.379 -32.453  1.00  0.00    -0.030 A 
HETATM   23  C   UNL     1      -5.703   5.566 -33.092  1.00  0.00     0.010 A 
HETATM   24  C   UNL     1      -5.240   6.659 -32.345  1.00  0.00     0.008 A 
HETATM   25  C   UNL     1      -5.147   6.598 -30.947  1.00  0.00    -0.055 A 
HETATM   26  C   UNL     1      -5.598   5.441 -30.306  1.00  0.00     0.008 A 
HETATM   27  C   UNL     1      -6.063   4.353 -31.045  1.00  0.00     0.010 A 
BRANCH  25  28
HETATM   28  C   UNL     1      -4.609   7.781 -30.157  1.00  0.00     0.010 C 
HETATM   29  C   UNL     1      -3.665   7.319 -29.047  1.00  0.00     0.015 C 
HETATM   30  C   UNL     1      -3.921   8.820 -31.052  1.00  0.00     0.015 C 
ENDBRANCH  25  28
ENDBRANCH   7  22
BRANCH  10  31
HETATM   31  C   UNL     1      -4.614   1.805 -31.988  1.00  0.00     0.294 C 
HETATM   32  O   UNL     1      -4.750   1.338 -30.882  1.00  0.00    -0.259 OA
BRANCH  31  33
HETATM   33  O   UNL     1      -3.550   2.455 -32.516  1.00  0.00    -0.313 OA
BRANCH  33  34
HETATM   34  C   UNL     1      -2.741   3.210 -31.600  1.00  0.00     0.217 C 
BRANCH  34  35
HETATM   35  C   UNL     1      -2.222   4.410 -32.364  1.00  0.00    -0.034 A 
HETATM   36  C   UNL     1      -2.323   4.471 -33.765  1.00  0.00     0.009 A 
HETATM   37  C   UNL     1      -1.873   5.586 -34.475  1.00  0.00     0.001 A 
HETATM   38  C   UNL     1      -1.321   6.665 -33.792  1.00  0.00     0.000 A 
HETATM   39  C   UNL     1      -1.228   6.629 -32.402  1.00  0.00     0.001 A 
HETATM   40  C   UNL     1      -1.678   5.511 -31.691  1.00  0.00     0.009 A 
ENDBRANCH  34  35
ENDBRANCH  33  34
ENDBRANCH  31  33
ENDBRANCH  10  31
TORSDOF 11
ENDMDL
