MODEL 1
REMARK VINA RESULT:     -10.2      0.000      0.000
REMARK  7 active torsions:
REMARK  status: ('A' for Active; 'I' for Inactive)
REMARK    1  A    between atoms: C_4  and  N_5 
REMARK    2  A    between atoms: C_6  and  S_7 
REMARK    3  A    between atoms: S_7  and  C_8 
REMARK    4  A    between atoms: C_8  and  C_9 
REMARK       I    between atoms: C_9  and  N_10 
REMARK    5  A    between atoms: C_12  and  C_13 
REMARK    6  A    between atoms: C_13  and  N_14 
REMARK       I    between atoms: N_14  and  C_15 
REMARK       I    between atoms: C_15  and  N_16 
REMARK    7  A    between atoms: N_16  and  C_17 
ROOT
HETATM    1  C   UNL     1      -5.285   5.897 -33.159  1.00  0.00     0.229 C 
HETATM    2  N   UNL     1      -3.937   5.715 -33.518  1.00  0.00    -0.351 N 
HETATM    3  C   UNL     1      -2.974   6.498 -32.737  1.00  0.00     0.132 C 
HETATM    4  C   UNL     1      -1.553   5.940 -32.839  1.00  0.00     0.021 C 
HETATM    5  C   UNL     1      -1.138   5.917 -34.314  1.00  0.00     0.009 C 
HETATM    6  C   UNL     1      -2.092   5.016 -35.084  1.00  0.00     0.020 C 
HETATM    7  C   UNL     1      -3.554   5.413 -34.898  1.00  0.00     0.126 C 
HETATM    8  O   UNL     1      -5.591   6.693 -32.263  1.00  0.00    -0.273 OA
ENDROOT
BRANCH   1   9
HETATM    9  C   UNL     1      -6.345   4.951 -33.713  1.00  0.00     0.185 C 
BRANCH   9  10
HETATM   10  S   UNL     1      -5.940   3.199 -33.779  1.00  0.00    -0.082 SA
BRANCH  10  11
HETATM   11  C   UNL     1      -7.057   2.482 -32.669  1.00  0.00     0.173 A 
HETATM   12  N   UNL     1      -7.212   1.110 -32.484  1.00  0.00    -0.299 N 
HETATM   13  C   UNL     1      -8.258   0.990 -31.589  1.00  0.00     0.118 A 
HETATM   14  C   UNL     1      -8.671   2.266 -31.296  1.00  0.00     0.137 A 
HETATM   15  N   UNL     1      -7.920   3.183 -31.970  1.00  0.00    -0.235 NA
BRANCH  12  16
HETATM   16  C   UNL     1      -6.470   0.025 -33.048  1.00  0.00     0.047 A 
HETATM   17  C   UNL     1      -5.369  -0.480 -32.329  1.00  0.00     0.037 A 
HETATM   18  C   UNL     1      -4.586  -1.528 -32.830  1.00  0.00    -0.060 A 
HETATM   19  C   UNL     1      -3.390  -2.029 -32.075  1.00  0.00     0.048 C 
HETATM   20  C   UNL     1      -4.934  -2.105 -34.049  1.00  0.00     0.007 A 
HETATM   21  C   UNL     1      -6.037  -1.634 -34.762  1.00  0.00     0.009 A 
HETATM   22  C   UNL     1      -6.809  -0.555 -34.291  1.00  0.00    -0.035 A 
HETATM   23  C   UNL     1      -7.925  -0.079 -35.182  1.00  0.00     0.050 C 
ENDBRANCH  12  16
ENDBRANCH  10  11
ENDBRANCH   9  10
ENDBRANCH   1   9
BRANCH   4  24
HETATM   24  C   UNL     1      -0.579   6.750 -31.980  1.00  0.00     0.130 C 
BRANCH  24  25
HETATM   25  N   UNL     1       0.048   5.923 -30.962  1.00  0.00    -0.342 N 
HETATM   26  C   UNL     1       0.336   6.199 -29.659  1.00  0.00     0.320 C 
HETATM   27  N   UNL     1       0.076   7.476 -29.250  1.00  0.00    -0.309 N 
HETATM   28  O   UNL     1       0.796   5.289 -28.978  1.00  0.00    -0.247 OA
HETATM   29  H   UNL     1      -0.334   8.087 -29.935  1.00  0.00     0.170 HD
HETATM   30  H   UNL     1       0.188   4.939 -31.160  1.00  0.00     0.164 HD
BRANCH  27  31
HETATM   31  C   UNL     1       0.292   8.032 -27.971  1.00  0.00     0.039 A 
HETATM   32  C   UNL     1      -0.690   8.127 -26.984  1.00  0.00     0.071 A 
HETATM   33  C   UNL     1      -0.379   8.692 -25.750  1.00  0.00     0.118 A 
HETATM   34  F   UNL     1      -1.327   8.781 -24.807  1.00  0.00    -0.206 F 
HETATM   35  C   UNL     1       0.898   9.166 -25.473  1.00  0.00     0.042 A 
HETATM   36  C   UNL     1       1.885   9.077 -26.449  1.00  0.00     0.005 A 
HETATM   37  C   UNL     1       1.581   8.512 -27.692  1.00  0.00     0.030 A 
ENDBRANCH  27  31
ENDBRANCH  24  25
ENDBRANCH   4  24
TORSDOF 7
ENDMDL
MODEL 2
REMARK VINA RESULT:     -10.0      2.154      3.331
REMARK  7 active torsions:
REMARK  status: ('A' for Active; 'I' for Inactive)
REMARK    1  A    between atoms: C_4  and  N_5 
REMARK    2  A    between atoms: C_6  and  S_7 
REMARK    3  A    between atoms: S_7  and  C_8 
REMARK    4  A    between atoms: C_8  and  C_9 
REMARK       I    between atoms: C_9  and  N_10 
REMARK    5  A    between atoms: C_12  and  C_13 
REMARK    6  A    between atoms: C_13  and  N_14 
REMARK       I    between atoms: N_14  and  C_15 
REMARK       I    between atoms: C_15  and  N_16 
REMARK    7  A    between atoms: N_16  and  C_17 
ROOT
HETATM    1  C   UNL     1      -5.929   3.024 -30.575  1.00  0.00     0.229 C 
HETATM    2  N   UNL     1      -5.497   3.550 -31.807  1.00  0.00    -0.351 N 
HETATM    3  C   UNL     1      -4.130   4.077 -31.813  1.00  0.00     0.132 C 
HETATM    4  C   UNL     1      -3.563   4.202 -33.229  1.00  0.00     0.021 C 
HETATM    5  C   UNL     1      -4.481   5.114 -34.049  1.00  0.00     0.009 C 
HETATM    6  C   UNL     1      -5.869   4.493 -34.113  1.00  0.00     0.020 C 
HETATM    7  C   UNL     1      -6.439   4.185 -32.731  1.00  0.00     0.126 C 
HETATM    8  O   UNL     1      -5.184   3.054 -29.588  1.00  0.00    -0.273 OA
ENDROOT
BRANCH   1   9
HETATM    9  C   UNL     1      -7.220   2.217 -30.513  1.00  0.00     0.185 C 
BRANCH   9  10
HETATM   10  S   UNL     1      -7.195   0.556 -31.205  1.00  0.00    -0.082 SA
BRANCH  10  11
HETATM   11  C   UNL     1      -7.860   0.767 -32.789  1.00  0.00     0.173 A 
HETATM   12  N   UNL     1      -7.422   0.086 -33.923  1.00  0.00    -0.299 N 
HETATM   13  C   UNL     1      -8.157   0.624 -34.963  1.00  0.00     0.118 A 
HETATM   14  C   UNL     1      -8.972   1.581 -34.412  1.00  0.00     0.137 A 
HETATM   15  N   UNL     1      -8.781   1.661 -33.064  1.00  0.00    -0.235 NA
BRANCH  12  16
HETATM   16  C   UNL     1      -6.452  -0.958 -34.042  1.00  0.00     0.047 A 
HETATM   17  C   UNL     1      -6.874  -2.214 -34.521  1.00  0.00     0.037 A 
HETATM   18  C   UNL     1      -5.983  -3.287 -34.644  1.00  0.00    -0.060 A 
HETATM   19  C   UNL     1      -6.453  -4.632 -35.115  1.00  0.00     0.048 C 
HETATM   20  C   UNL     1      -4.642  -3.089 -34.322  1.00  0.00     0.007 A 
HETATM   21  C   UNL     1      -4.203  -1.844 -33.870  1.00  0.00     0.009 A 
HETATM   22  C   UNL     1      -5.094  -0.768 -33.703  1.00  0.00    -0.035 A 
HETATM   23  C   UNL     1      -4.524   0.503 -33.132  1.00  0.00     0.050 C 
ENDBRANCH  12  16
ENDBRANCH  10  11
ENDBRANCH   9  10
ENDBRANCH   1   9
BRANCH   4  24
HETATM   24  C   UNL     1      -2.119   4.713 -33.203  1.00  0.00     0.130 C 
BRANCH  24  25
HETATM   25  N   UNL     1      -2.065   6.161 -33.308  1.00  0.00    -0.342 N 
HETATM   26  C   UNL     1      -1.690   7.096 -32.391  1.00  0.00     0.320 C 
HETATM   27  N   UNL     1      -1.393   6.622 -31.145  1.00  0.00    -0.309 N 
HETATM   28  O   UNL     1      -1.652   8.266 -32.760  1.00  0.00    -0.247 OA
HETATM   29  H   UNL     1      -1.445   5.625 -31.025  1.00  0.00     0.170 HD
HETATM   30  H   UNL     1      -2.183   6.582 -34.223  1.00  0.00     0.164 HD
BRANCH  27  31
HETATM   31  C   UNL     1      -0.996   7.363 -30.012  1.00  0.00     0.039 A 
HETATM   32  C   UNL     1       0.324   7.478 -29.575  1.00  0.00     0.071 A 
HETATM   33  C   UNL     1       0.616   8.236 -28.444  1.00  0.00     0.118 A 
HETATM   34  F   UNL     1       1.885   8.341 -28.030  1.00  0.00    -0.206 F 
HETATM   35  C   UNL     1      -0.385   8.889 -27.734  1.00  0.00     0.042 A 
HETATM   36  C   UNL     1      -1.704   8.783 -28.159  1.00  0.00     0.005 A 
HETATM   37  C   UNL     1      -2.007   8.022 -29.294  1.00  0.00     0.030 A 
ENDBRANCH  27  31
ENDBRANCH  24  25
ENDBRANCH   4  24
TORSDOF 7
ENDMDL
MODEL 3
REMARK VINA RESULT:     -10.0      4.198      9.796
REMARK  7 active torsions:
REMARK  status: ('A' for Active; 'I' for Inactive)
REMARK    1  A    between atoms: C_4  and  N_5 
REMARK    2  A    between atoms: C_6  and  S_7 
REMARK    3  A    between atoms: S_7  and  C_8 
REMARK    4  A    between atoms: C_8  and  C_9 
REMARK       I    between atoms: C_9  and  N_10 
REMARK    5  A    between atoms: C_12  and  C_13 
REMARK    6  A    between atoms: C_13  and  N_14 
REMARK       I    between atoms: N_14  and  C_15 
REMARK       I    between atoms: C_15  and  N_16 
REMARK    7  A    between atoms: N_16  and  C_17 
ROOT
HETATM    1  C   UNL     1      -6.807   5.312 -33.037  1.00  0.00     0.229 C 
HETATM    2  N   UNL     1      -7.837   4.517 -32.500  1.00  0.00    -0.351 N 
HETATM    3  C   UNL     1      -8.321   3.448 -33.379  1.00  0.00     0.132 C 
HETATM    4  C   UNL     1      -9.077   2.363 -32.611  1.00  0.00     0.021 C 
HETATM    5  C   UNL     1     -10.255   3.010 -31.875  1.00  0.00     0.009 C 
HETATM    6  C   UNL     1      -9.720   4.044 -30.895  1.00  0.00     0.020 C 
HETATM    7  C   UNL     1      -8.815   5.075 -31.564  1.00  0.00     0.126 C 
HETATM    8  O   UNL     1      -6.392   5.105 -34.184  1.00  0.00    -0.273 OA
ENDROOT
BRANCH   1   9
HETATM    9  C   UNL     1      -6.050   6.274 -32.129  1.00  0.00     0.185 C 
BRANCH   9  10
HETATM   10  S   UNL     1      -5.250   5.585 -30.672  1.00  0.00    -0.082 SA
BRANCH  10  11
HETATM   11  C   UNL     1      -4.523   4.128 -31.258  1.00  0.00     0.173 A 
HETATM   12  N   UNL     1      -3.300   4.071 -31.922  1.00  0.00    -0.299 N 
HETATM   13  C   UNL     1      -3.157   2.745 -32.285  1.00  0.00     0.118 A 
HETATM   14  C   UNL     1      -4.279   2.093 -31.835  1.00  0.00     0.137 A 
HETATM   15  N   UNL     1      -5.119   2.959 -31.200  1.00  0.00    -0.235 NA
BRANCH  12  16
HETATM   16  C   UNL     1      -2.353   5.111 -32.181  1.00  0.00     0.047 A 
HETATM   17  C   UNL     1      -1.492   5.507 -31.139  1.00  0.00     0.037 A 
HETATM   18  C   UNL     1      -0.554   6.533 -31.315  1.00  0.00    -0.060 A 
HETATM   19  C   UNL     1       0.329   6.976 -30.185  1.00  0.00     0.048 C 
HETATM   20  C   UNL     1      -0.450   7.143 -32.563  1.00  0.00     0.007 A 
HETATM   21  C   UNL     1      -1.279   6.745 -33.613  1.00  0.00     0.009 A 
HETATM   22  C   UNL     1      -2.253   5.744 -33.440  1.00  0.00    -0.035 A 
HETATM   23  C   UNL     1      -3.145   5.454 -34.618  1.00  0.00     0.050 C 
ENDBRANCH  12  16
ENDBRANCH  10  11
ENDBRANCH   9  10
ENDBRANCH   1   9
BRANCH   4  24
HETATM   24  C   UNL     1      -9.532   1.239 -33.546  1.00  0.00     0.130 C 
BRANCH  24  25
HETATM   25  N   UNL     1      -8.684   1.149 -34.723  1.00  0.00    -0.342 N 
HETATM   26  C   UNL     1      -7.717   0.244 -35.044  1.00  0.00     0.320 C 
HETATM   27  N   UNL     1      -7.430  -0.685 -34.084  1.00  0.00    -0.309 N 
HETATM   28  O   UNL     1      -7.198   0.341 -36.151  1.00  0.00    -0.247 OA
HETATM   29  H   UNL     1      -7.978  -0.638 -33.243  1.00  0.00     0.170 HD
HETATM   30  H   UNL     1      -8.896   1.745 -35.516  1.00  0.00     0.164 HD
BRANCH  27  31
HETATM   31  C   UNL     1      -6.471  -1.718 -34.144  1.00  0.00     0.039 A 
HETATM   32  C   UNL     1      -6.681  -2.943 -34.778  1.00  0.00     0.071 A 
HETATM   33  C   UNL     1      -5.670  -3.901 -34.785  1.00  0.00     0.118 A 
HETATM   34  F   UNL     1      -5.879  -5.076 -35.394  1.00  0.00    -0.206 F 
HETATM   35  C   UNL     1      -4.445  -3.664 -34.173  1.00  0.00     0.042 A 
HETATM   36  C   UNL     1      -4.224  -2.446 -33.538  1.00  0.00     0.005 A 
HETATM   37  C   UNL     1      -5.234  -1.479 -33.525  1.00  0.00     0.030 A 
ENDBRANCH  27  31
ENDBRANCH  24  25
ENDBRANCH   4  24
TORSDOF 7
ENDMDL
MODEL 4
REMARK VINA RESULT:     -10.0      3.997     10.400
REMARK  7 active torsions:
REMARK  status: ('A' for Active; 'I' for Inactive)
REMARK    1  A    between atoms: C_4  and  N_5 
REMARK    2  A    between atoms: C_6  and  S_7 
REMARK    3  A    between atoms: S_7  and  C_8 
REMARK    4  A    between atoms: C_8  and  C_9 
REMARK       I    between atoms: C_9  and  N_10 
REMARK    5  A    between atoms: C_12  and  C_13 
REMARK    6  A    between atoms: C_13  and  N_14 
REMARK       I    between atoms: N_14  and  C_15 
REMARK       I    between atoms: C_15  and  N_16 
REMARK    7  A    between atoms: N_16  and  C_17 
ROOT
HETATM    1  C   UNL     1      -5.582   5.844 -30.160  1.00  0.00     0.229 C 
HETATM    2  N   UNL     1      -4.895   5.044 -31.092  1.00  0.00    -0.351 N 
HETATM    3  C   UNL     1      -5.667   3.925 -31.639  1.00  0.00     0.132 C 
HETATM    4  C   UNL     1      -5.067   3.387 -32.940  1.00  0.00     0.021 C 
HETATM    5  C   UNL     1      -3.623   2.949 -32.673  1.00  0.00     0.009 C 
HETATM    6  C   UNL     1      -2.818   4.151 -32.202  1.00  0.00     0.020 C 
HETATM    7  C   UNL     1      -3.448   4.845 -30.998  1.00  0.00     0.126 C 
HETATM    8  O   UNL     1      -6.743   5.566 -29.834  1.00  0.00    -0.273 OA
ENDROOT
BRANCH   1   9
HETATM    9  C   UNL     1      -4.982   7.176 -29.725  1.00  0.00     0.185 C 
BRANCH   9  10
HETATM   10  S   UNL     1      -4.039   7.201 -28.192  1.00  0.00    -0.082 SA
BRANCH  10  11
HETATM   11  C   UNL     1      -3.291   8.761 -28.200  1.00  0.00     0.173 A 
HETATM   12  N   UNL     1      -2.153   9.084 -28.936  1.00  0.00    -0.299 N 
HETATM   13  C   UNL     1      -1.858  10.385 -28.576  1.00  0.00     0.118 A 
HETATM   14  C   UNL     1      -2.807  10.763 -27.659  1.00  0.00     0.137 A 
HETATM   15  N   UNL     1      -3.691   9.749 -27.434  1.00  0.00    -0.235 NA
BRANCH  12  16
HETATM   16  C   UNL     1      -1.425   8.297 -29.882  1.00  0.00     0.047 A 
HETATM   17  C   UNL     1      -1.879   8.262 -31.216  1.00  0.00     0.037 A 
HETATM   18  C   UNL     1      -1.227   7.496 -32.190  1.00  0.00    -0.060 A 
HETATM   19  C   UNL     1      -1.745   7.433 -33.598  1.00  0.00     0.048 C 
HETATM   20  C   UNL     1      -0.082   6.787 -31.836  1.00  0.00     0.007 A 
HETATM   21  C   UNL     1       0.396   6.832 -30.525  1.00  0.00     0.009 A 
HETATM   22  C   UNL     1      -0.272   7.564 -29.525  1.00  0.00    -0.035 A 
HETATM   23  C   UNL     1       0.287   7.473 -28.130  1.00  0.00     0.050 C 
ENDBRANCH  12  16
ENDBRANCH  10  11
ENDBRANCH   9  10
ENDBRANCH   1   9
BRANCH   4  24
HETATM   24  C   UNL     1      -5.917   2.249 -33.512  1.00  0.00     0.130 C 
BRANCH  24  25
HETATM   25  N   UNL     1      -6.226   1.255 -32.499  1.00  0.00    -0.342 N 
HETATM   26  C   UNL     1      -6.128  -0.104 -32.540  1.00  0.00     0.320 C 
HETATM   27  N   UNL     1      -5.759  -0.637 -33.743  1.00  0.00    -0.309 N 
HETATM   28  O   UNL     1      -6.374  -0.720 -31.508  1.00  0.00    -0.247 OA
HETATM   29  H   UNL     1      -5.563   0.020 -34.479  1.00  0.00     0.170 HD
HETATM   30  H   UNL     1      -6.418   1.572 -31.555  1.00  0.00     0.164 HD
BRANCH  27  31
HETATM   31  C   UNL     1      -5.598  -2.000 -34.069  1.00  0.00     0.039 A 
HETATM   32  C   UNL     1      -4.406  -2.707 -33.906  1.00  0.00     0.071 A 
HETATM   33  C   UNL     1      -4.347  -4.053 -34.255  1.00  0.00     0.118 A 
HETATM   34  F   UNL     1      -3.198  -4.725 -34.098  1.00  0.00    -0.206 F 
HETATM   35  C   UNL     1      -5.456  -4.718 -34.764  1.00  0.00     0.042 A 
HETATM   36  C   UNL     1      -6.650  -4.024 -34.931  1.00  0.00     0.005 A 
HETATM   37  C   UNL     1      -6.719  -2.671 -34.583  1.00  0.00     0.030 A 
ENDBRANCH  27  31
ENDBRANCH  24  25
ENDBRANCH   4  24
TORSDOF 7
ENDMDL
MODEL 5
REMARK VINA RESULT:      -9.3      3.870     10.566
REMARK  7 active torsions:
REMARK  status: ('A' for Active; 'I' for Inactive)
REMARK    1  A    between atoms: C_4  and  N_5 
REMARK    2  A    between atoms: C_6  and  S_7 
REMARK    3  A    between atoms: S_7  and  C_8 
REMARK    4  A    between atoms: C_8  and  C_9 
REMARK       I    between atoms: C_9  and  N_10 
REMARK    5  A    between atoms: C_12  and  C_13 
REMARK    6  A    between atoms: C_13  and  N_14 
REMARK       I    between atoms: N_14  and  C_15 
REMARK       I    between atoms: C_15  and  N_16 
REMARK    7  A    between atoms: N_16  and  C_17 
ROOT
HETATM    1  C   UNL     1      -2.930   6.257 -33.732  1.00  0.00     0.229 C 
HETATM    2  N   UNL     1      -4.072   5.705 -33.124  1.00  0.00    -0.351 N 
HETATM    3  C   UNL     1      -4.533   4.438 -33.700  1.00  0.00     0.132 C 
HETATM    4  C   UNL     1      -5.453   3.669 -32.750  1.00  0.00     0.021 C 
HETATM    5  C   UNL     1      -6.654   4.555 -32.403  1.00  0.00     0.009 C 
HETATM    6  C   UNL     1      -6.157   5.818 -31.715  1.00  0.00     0.020 C 
HETATM    7  C   UNL     1      -5.105   6.559 -32.535  1.00  0.00     0.126 C 
HETATM    8  O   UNL     1      -2.404   5.694 -34.700  1.00  0.00    -0.273 OA
ENDROOT
BRANCH   1   9
HETATM    9  C   UNL     1      -2.209   7.421 -33.061  1.00  0.00     0.185 C 
BRANCH   9  10
HETATM   10  S   UNL     1      -1.744   7.224 -31.334  1.00  0.00    -0.082 SA
BRANCH  10  11
HETATM   11  C   UNL     1      -2.141   8.754 -30.630  1.00  0.00     0.173 A 
HETATM   12  N   UNL     1      -2.043   9.043 -29.270  1.00  0.00    -0.299 N 
HETATM   13  C   UNL     1      -2.542  10.327 -29.146  1.00  0.00     0.118 A 
HETATM   14  C   UNL     1      -2.910  10.727 -30.406  1.00  0.00     0.137 A 
HETATM   15  N   UNL     1      -2.657   9.746 -31.319  1.00  0.00    -0.235 NA
BRANCH  12  16
HETATM   16  C   UNL     1      -1.531   8.243 -28.202  1.00  0.00     0.047 A 
HETATM   17  C   UNL     1      -0.177   8.392 -27.843  1.00  0.00     0.037 A 
HETATM   18  C   UNL     1       0.397   7.626 -26.820  1.00  0.00    -0.060 A 
HETATM   19  C   UNL     1       1.851   7.764 -26.474  1.00  0.00     0.048 C 
HETATM   20  C   UNL     1      -0.405   6.727 -26.120  1.00  0.00     0.007 A 
HETATM   21  C   UNL     1      -1.754   6.585 -26.447  1.00  0.00     0.009 A 
HETATM   22  C   UNL     1      -2.335   7.318 -27.500  1.00  0.00    -0.035 A 
HETATM   23  C   UNL     1      -3.777   7.024 -27.816  1.00  0.00     0.050 C 
ENDBRANCH  12  16
ENDBRANCH  10  11
ENDBRANCH   9  10
ENDBRANCH   1   9
BRANCH   4  24
HETATM   24  C   UNL     1      -5.883   2.331 -33.359  1.00  0.00     0.130 C 
BRANCH  24  25
HETATM   25  N   UNL     1      -6.073   1.317 -32.336  1.00  0.00    -0.342 N 
HETATM   26  C   UNL     1      -5.972  -0.040 -32.413  1.00  0.00     0.320 C 
HETATM   27  N   UNL     1      -5.734  -0.549 -33.658  1.00  0.00    -0.309 N 
HETATM   28  O   UNL     1      -6.100  -0.675 -31.372  1.00  0.00    -0.247 OA
HETATM   29  H   UNL     1      -5.624   0.122 -34.399  1.00  0.00     0.170 HD
HETATM   30  H   UNL     1      -6.163   1.616 -31.371  1.00  0.00     0.164 HD
BRANCH  27  31
HETATM   31  C   UNL     1      -5.602  -1.905 -34.024  1.00  0.00     0.039 A 
HETATM   32  C   UNL     1      -4.419  -2.636 -33.902  1.00  0.00     0.071 A 
HETATM   33  C   UNL     1      -4.388  -3.973 -34.290  1.00  0.00     0.118 A 
HETATM   34  F   UNL     1      -3.249  -4.667 -34.171  1.00  0.00    -0.206 F 
HETATM   35  C   UNL     1      -5.517  -4.605 -34.797  1.00  0.00     0.042 A 
HETATM   36  C   UNL     1      -6.702  -3.887 -34.923  1.00  0.00     0.005 A 
HETATM   37  C   UNL     1      -6.742  -2.543 -34.537  1.00  0.00     0.030 A 
ENDBRANCH  27  31
ENDBRANCH  24  25
ENDBRANCH   4  24
TORSDOF 7
ENDMDL
MODEL 6
REMARK VINA RESULT:      -9.3      1.724      2.170
REMARK  7 active torsions:
REMARK  status: ('A' for Active; 'I' for Inactive)
REMARK    1  A    between atoms: C_4  and  N_5 
REMARK    2  A    between atoms: C_6  and  S_7 
REMARK    3  A    between atoms: S_7  and  C_8 
REMARK    4  A    between atoms: C_8  and  C_9 
REMARK       I    between atoms: C_9  and  N_10 
REMARK    5  A    between atoms: C_12  and  C_13 
REMARK    6  A    between atoms: C_13  and  N_14 
REMARK       I    between atoms: N_14  and  C_15 
REMARK       I    between atoms: C_15  and  N_16 
REMARK    7  A    between atoms: N_16  and  C_17 
ROOT
HETATM    1  C   UNL     1      -4.850   5.038 -32.082  1.00  0.00     0.229 C 
HETATM    2  N   UNL     1      -3.510   5.369 -32.355  1.00  0.00    -0.351 N 
HETATM    3  C   UNL     1      -2.613   5.336 -31.196  1.00  0.00     0.132 C 
HETATM    4  C   UNL     1      -1.141   5.245 -31.605  1.00  0.00     0.021 C 
HETATM    5  C   UNL     1      -0.802   6.444 -32.497  1.00  0.00     0.009 C 
HETATM    6  C   UNL     1      -1.677   6.400 -33.741  1.00  0.00     0.020 C 
HETATM    7  C   UNL     1      -3.165   6.322 -33.412  1.00  0.00     0.126 C 
HETATM    8  O   UNL     1      -5.206   4.775 -30.926  1.00  0.00    -0.273 OA
ENDROOT
BRANCH   1   9
HETATM    9  C   UNL     1      -5.812   4.784 -33.237  1.00  0.00     0.185 C 
BRANCH   9  10
HETATM   10  S   UNL     1      -5.969   3.091 -33.828  1.00  0.00    -0.082 SA
BRANCH  10  11
HETATM   11  C   UNL     1      -7.053   2.364 -32.693  1.00  0.00     0.173 A 
HETATM   12  N   UNL     1      -7.175   0.990 -32.490  1.00  0.00    -0.299 N 
HETATM   13  C   UNL     1      -8.205   0.858 -31.578  1.00  0.00     0.118 A 
HETATM   14  C   UNL     1      -8.641   2.128 -31.293  1.00  0.00     0.137 A 
HETATM   15  N   UNL     1      -7.920   3.054 -31.989  1.00  0.00    -0.235 NA
BRANCH  12  16
HETATM   16  C   UNL     1      -6.419  -0.085 -33.053  1.00  0.00     0.047 A 
HETATM   17  C   UNL     1      -5.341  -0.607 -32.311  1.00  0.00     0.037 A 
HETATM   18  C   UNL     1      -4.545  -1.646 -32.810  1.00  0.00    -0.060 A 
HETATM   19  C   UNL     1      -3.373  -2.165 -32.029  1.00  0.00     0.048 C 
HETATM   20  C   UNL     1      -4.856  -2.198 -34.050  1.00  0.00     0.007 A 
HETATM   21  C   UNL     1      -5.937  -1.709 -34.787  1.00  0.00     0.009 A 
HETATM   22  C   UNL     1      -6.720  -0.638 -34.317  1.00  0.00    -0.035 A 
HETATM   23  C   UNL     1      -7.808  -0.141 -35.233  1.00  0.00     0.050 C 
ENDBRANCH  12  16
ENDBRANCH  10  11
ENDBRANCH   9  10
ENDBRANCH   1   9
BRANCH   4  24
HETATM   24  C   UNL     1      -0.230   5.167 -30.376  1.00  0.00     0.130 C 
BRANCH  24  25
HETATM   25  N   UNL     1       0.120   6.490 -29.889  1.00  0.00    -0.342 N 
HETATM   26  C   UNL     1      -0.438   7.238 -28.896  1.00  0.00     0.320 C 
HETATM   27  N   UNL     1      -1.555   6.711 -28.311  1.00  0.00    -0.309 N 
HETATM   28  O   UNL     1       0.104   8.303 -28.618  1.00  0.00    -0.247 OA
HETATM   29  H   UNL     1      -1.845   5.808 -28.641  1.00  0.00     0.170 HD
HETATM   30  H   UNL     1       0.987   6.908 -30.208  1.00  0.00     0.164 HD
BRANCH  27  31
HETATM   31  C   UNL     1      -2.335   7.276 -27.279  1.00  0.00     0.039 A 
HETATM   32  C   UNL     1      -3.544   7.941 -27.489  1.00  0.00     0.071 A 
HETATM   33  C   UNL     1      -4.243   8.463 -26.404  1.00  0.00     0.118 A 
HETATM   34  F   UNL     1      -5.402   9.103 -26.612  1.00  0.00    -0.206 F 
HETATM   35  C   UNL     1      -3.765   8.334 -25.105  1.00  0.00     0.042 A 
HETATM   36  C   UNL     1      -2.562   7.672 -24.884  1.00  0.00     0.005 A 
HETATM   37  C   UNL     1      -1.852   7.146 -25.968  1.00  0.00     0.030 A 
ENDBRANCH  27  31
ENDBRANCH  24  25
ENDBRANCH   4  24
TORSDOF 7
ENDMDL
MODEL 7
REMARK VINA RESULT:      -9.2      5.090     11.328
REMARK  7 active torsions:
REMARK  status: ('A' for Active; 'I' for Inactive)
REMARK    1  A    between atoms: C_4  and  N_5 
REMARK    2  A    between atoms: C_6  and  S_7 
REMARK    3  A    between atoms: S_7  and  C_8 
REMARK    4  A    between atoms: C_8  and  C_9 
REMARK       I    between atoms: C_9  and  N_10 
REMARK    5  A    between atoms: C_12  and  C_13 
REMARK    6  A    between atoms: C_13  and  N_14 
REMARK       I    between atoms: N_14  and  C_15 
REMARK       I    between atoms: C_15  and  N_16 
REMARK    7  A    between atoms: N_16  and  C_17 
ROOT
HETATM    1  C   UNL     1      -6.033   1.789 -31.388  1.00  0.00     0.229 C 
HETATM    2  N   UNL     1      -6.780   1.459 -32.534  1.00  0.00    -0.351 N 
HETATM    3  C   UNL     1      -8.152   1.014 -32.275  1.00  0.00     0.132 C 
HETATM    4  C   UNL     1      -9.038   1.113 -33.519  1.00  0.00     0.021 C 
HETATM    5  C   UNL     1      -8.415   0.270 -34.636  1.00  0.00     0.009 C 
HETATM    6  C   UNL     1      -7.031   0.814 -34.956  1.00  0.00     0.020 C 
HETATM    7  C   UNL     1      -6.134   0.902 -33.724  1.00  0.00     0.126 C 
HETATM    8  O   UNL     1      -6.531   1.669 -30.262  1.00  0.00    -0.273 OA
ENDROOT
BRANCH   1   9
HETATM    9  C   UNL     1      -4.697   2.507 -31.542  1.00  0.00     0.185 C 
BRANCH   9  10
HETATM   10  S   UNL     1      -4.688   4.295 -31.340  1.00  0.00    -0.082 SA
BRANCH  10  11
HETATM   11  C   UNL     1      -3.938   4.864 -32.792  1.00  0.00     0.173 A 
HETATM   12  N   UNL     1      -2.801   5.669 -32.827  1.00  0.00    -0.299 N 
HETATM   13  C   UNL     1      -2.611   5.953 -34.166  1.00  0.00     0.118 A 
HETATM   14  C   UNL     1      -3.623   5.325 -34.847  1.00  0.00     0.137 A 
HETATM   15  N   UNL     1      -4.440   4.652 -33.987  1.00  0.00    -0.235 NA
BRANCH  12  16
HETATM   16  C   UNL     1      -1.965   6.114 -31.755  1.00  0.00     0.047 A 
HETATM   17  C   UNL     1      -0.939   5.259 -31.306  1.00  0.00     0.037 A 
HETATM   18  C   UNL     1      -0.096   5.621 -30.248  1.00  0.00    -0.060 A 
HETATM   19  C   UNL     1       0.966   4.685 -29.750  1.00  0.00     0.048 C 
HETATM   20  C   UNL     1      -0.256   6.872 -29.657  1.00  0.00     0.007 A 
HETATM   21  C   UNL     1      -1.252   7.741 -30.106  1.00  0.00     0.009 A 
HETATM   22  C   UNL     1      -2.133   7.375 -31.142  1.00  0.00    -0.035 A 
HETATM   23  C   UNL     1      -3.218   8.358 -31.488  1.00  0.00     0.050 C 
ENDBRANCH  12  16
ENDBRANCH  10  11
ENDBRANCH   9  10
ENDBRANCH   1   9
BRANCH   4  24
HETATM   24  C   UNL     1     -10.476   0.685 -33.209  1.00  0.00     0.130 C 
BRANCH  24  25
HETATM   25  N   UNL     1     -11.389   1.079 -34.268  1.00  0.00    -0.342 N 
HETATM   26  C   UNL     1     -12.565   1.765 -34.206  1.00  0.00     0.320 C 
HETATM   27  N   UNL     1     -13.012   2.066 -32.950  1.00  0.00    -0.309 N 
HETATM   28  O   UNL     1     -13.110   2.048 -35.267  1.00  0.00    -0.247 OA
HETATM   29  H   UNL     1     -12.419   1.785 -32.188  1.00  0.00     0.170 HD
HETATM   30  H   UNL     1     -11.087   0.972 -35.230  1.00  0.00     0.164 HD
BRANCH  27  31
HETATM   31  C   UNL     1     -14.196   2.748 -32.597  1.00  0.00     0.039 A 
HETATM   32  C   UNL     1     -15.417   2.118 -32.354  1.00  0.00     0.071 A 
HETATM   33  C   UNL     1     -16.531   2.879 -32.008  1.00  0.00     0.118 A 
HETATM   34  F   UNL     1     -17.701   2.268 -31.778  1.00  0.00    -0.206 F 
HETATM   35  C   UNL     1     -16.456   4.262 -31.897  1.00  0.00     0.042 A 
HETATM   36  C   UNL     1     -15.244   4.901 -32.136  1.00  0.00     0.005 A 
HETATM   37  C   UNL     1     -14.120   4.145 -32.485  1.00  0.00     0.030 A 
ENDBRANCH  27  31
ENDBRANCH  24  25
ENDBRANCH   4  24
TORSDOF 7
ENDMDL
MODEL 8
REMARK VINA RESULT:      -9.1      5.541      9.417
REMARK  7 active torsions:
REMARK  status: ('A' for Active; 'I' for Inactive)
REMARK    1  A    between atoms: C_4  and  N_5 
REMARK    2  A    between atoms: C_6  and  S_7 
REMARK    3  A    between atoms: S_7  and  C_8 
REMARK    4  A    between atoms: C_8  and  C_9 
REMARK       I    between atoms: C_9  and  N_10 
REMARK    5  A    between atoms: C_12  and  C_13 
REMARK    6  A    between atoms: C_13  and  N_14 
REMARK       I    between atoms: N_14  and  C_15 
REMARK       I    between atoms: C_15  and  N_16 
REMARK    7  A    between atoms: N_16  and  C_17 
ROOT
HETATM    1  C   UNL     1      -5.384   4.993 -33.474  1.00  0.00     0.229 C 
HETATM    2  N   UNL     1      -6.303   5.574 -32.580  1.00  0.00    -0.351 N 
HETATM    3  C   UNL     1      -7.672   5.698 -33.089  1.00  0.00     0.132 C 
HETATM    4  C   UNL     1      -8.693   5.892 -31.966  1.00  0.00     0.021 C 
HETATM    5  C   UNL     1      -8.314   7.144 -31.168  1.00  0.00     0.009 C 
HETATM    6  C   UNL     1      -6.931   6.950 -30.566  1.00  0.00     0.020 C 
HETATM    7  C   UNL     1      -5.880   6.588 -31.612  1.00  0.00     0.126 C 
HETATM    8  O   UNL     1      -5.744   4.653 -34.607  1.00  0.00    -0.273 OA
ENDROOT
BRANCH   1   9
HETATM    9  C   UNL     1      -4.007   4.574 -32.970  1.00  0.00     0.185 C 
BRANCH   9  10
HETATM   10  S   UNL     1      -3.784   2.852 -32.498  1.00  0.00    -0.082 SA
BRANCH  10  11
HETATM   11  C   UNL     1      -5.129   2.539 -31.456  1.00  0.00     0.173 A 
HETATM   12  N   UNL     1      -6.160   1.647 -31.746  1.00  0.00    -0.299 N 
HETATM   13  C   UNL     1      -7.050   1.782 -30.697  1.00  0.00     0.118 A 
HETATM   14  C   UNL     1      -6.522   2.730 -29.856  1.00  0.00     0.137 A 
HETATM   15  N   UNL     1      -5.332   3.192 -30.334  1.00  0.00    -0.235 NA
BRANCH  12  16
HETATM   16  C   UNL     1      -6.307   0.753 -32.853  1.00  0.00     0.047 A 
HETATM   17  C   UNL     1      -5.490  -0.394 -32.900  1.00  0.00     0.037 A 
HETATM   18  C   UNL     1      -5.566  -1.302 -33.964  1.00  0.00    -0.060 A 
HETATM   19  C   UNL     1      -4.662  -2.498 -34.026  1.00  0.00     0.048 C 
HETATM   20  C   UNL     1      -6.500  -1.081 -34.973  1.00  0.00     0.007 A 
HETATM   21  C   UNL     1      -7.334   0.037 -34.928  1.00  0.00     0.009 A 
HETATM   22  C   UNL     1      -7.241   0.980 -33.887  1.00  0.00    -0.035 A 
HETATM   23  C   UNL     1      -8.134   2.189 -33.985  1.00  0.00     0.050 C 
ENDBRANCH  12  16
ENDBRANCH  10  11
ENDBRANCH   9  10
ENDBRANCH   1   9
BRANCH   4  24
HETATM   24  C   UNL     1     -10.117   5.974 -32.523  1.00  0.00     0.130 C 
BRANCH  24  25
HETATM   25  N   UNL     1     -10.216   5.342 -33.827  1.00  0.00    -0.342 N 
HETATM   26  C   UNL     1     -10.957   4.273 -34.233  1.00  0.00     0.320 C 
HETATM   27  N   UNL     1     -11.661   3.631 -33.253  1.00  0.00    -0.309 N 
HETATM   28  O   UNL     1     -10.928   3.985 -35.425  1.00  0.00    -0.247 OA
HETATM   29  H   UNL     1     -11.596   4.023 -32.330  1.00  0.00     0.170 HD
HETATM   30  H   UNL     1      -9.797   5.811 -34.623  1.00  0.00     0.164 HD
BRANCH  27  31
HETATM   31  C   UNL     1     -12.489   2.496 -33.389  1.00  0.00     0.039 A 
HETATM   32  C   UNL     1     -13.883   2.539 -33.371  1.00  0.00     0.071 A 
HETATM   33  C   UNL     1     -14.614   1.363 -33.515  1.00  0.00     0.118 A 
HETATM   34  F   UNL     1     -15.953   1.412 -33.494  1.00  0.00    -0.206 F 
HETATM   35  C   UNL     1     -13.984   0.135 -33.681  1.00  0.00     0.042 A 
HETATM   36  C   UNL     1     -12.594   0.080 -33.702  1.00  0.00     0.005 A 
HETATM   37  C   UNL     1     -11.852   1.256 -33.556  1.00  0.00     0.030 A 
ENDBRANCH  27  31
ENDBRANCH  24  25
ENDBRANCH   4  24
TORSDOF 7
ENDMDL
MODEL 9
REMARK VINA RESULT:      -9.0      4.042     10.211
REMARK  7 active torsions:
REMARK  status: ('A' for Active; 'I' for Inactive)
REMARK    1  A    between atoms: C_4  and  N_5 
REMARK    2  A    between atoms: C_6  and  S_7 
REMARK    3  A    between atoms: S_7  and  C_8 
REMARK    4  A    between atoms: C_8  and  C_9 
REMARK       I    between atoms: C_9  and  N_10 
REMARK    5  A    between atoms: C_12  and  C_13 
REMARK    6  A    between atoms: C_13  and  N_14 
REMARK       I    between atoms: N_14  and  C_15 
REMARK       I    between atoms: C_15  and  N_16 
REMARK    7  A    between atoms: N_16  and  C_17 
ROOT
HETATM    1  C   UNL     1      -3.971   8.209 -31.207  1.00  0.00     0.229 C 
HETATM    2  N   UNL     1      -4.513   6.923 -31.027  1.00  0.00    -0.351 N 
HETATM    3  C   UNL     1      -3.838   5.854 -31.769  1.00  0.00     0.132 C 
HETATM    4  C   UNL     1      -4.151   4.467 -31.202  1.00  0.00     0.021 C 
HETATM    5  C   UNL     1      -5.668   4.252 -31.235  1.00  0.00     0.009 C 
HETATM    6  C   UNL     1      -6.338   5.314 -30.376  1.00  0.00     0.020 C 
HETATM    7  C   UNL     1      -5.943   6.732 -30.778  1.00  0.00     0.126 C 
HETATM    8  O   UNL     1      -3.012   8.381 -31.969  1.00  0.00    -0.273 OA
ENDROOT
BRANCH   1   9
HETATM    9  C   UNL     1      -4.415   9.346 -30.295  1.00  0.00     0.185 C 
BRANCH   9  10
HETATM   10  S   UNL     1      -3.318   9.802 -28.942  1.00  0.00    -0.082 SA
BRANCH  10  11
HETATM   11  C   UNL     1      -3.456   8.473 -27.843  1.00  0.00     0.173 A 
HETATM   12  N   UNL     1      -2.373   7.820 -27.258  1.00  0.00    -0.299 N 
HETATM   13  C   UNL     1      -2.934   6.782 -26.538  1.00  0.00     0.118 A 
HETATM   14  C   UNL     1      -4.291   6.861 -26.729  1.00  0.00     0.137 A 
HETATM   15  N   UNL     1      -4.604   7.913 -27.539  1.00  0.00    -0.235 NA
BRANCH  12  16
HETATM   16  C   UNL     1      -0.978   8.123 -27.332  1.00  0.00     0.047 A 
HETATM   17  C   UNL     1      -0.391   8.844 -26.273  1.00  0.00     0.037 A 
HETATM   18  C   UNL     1       0.965   9.192 -26.289  1.00  0.00    -0.060 A 
HETATM   19  C   UNL     1       1.569   9.997 -25.175  1.00  0.00     0.048 C 
HETATM   20  C   UNL     1       1.755   8.779 -27.359  1.00  0.00     0.007 A 
HETATM   21  C   UNL     1       1.195   8.043 -28.404  1.00  0.00     0.009 A 
HETATM   22  C   UNL     1      -0.175   7.720 -28.422  1.00  0.00    -0.035 A 
HETATM   23  C   UNL     1      -0.685   6.993 -29.638  1.00  0.00     0.050 C 
ENDBRANCH  12  16
ENDBRANCH  10  11
ENDBRANCH   9  10
ENDBRANCH   1   9
BRANCH   4  24
HETATM   24  C   UNL     1      -3.398   3.375 -31.968  1.00  0.00     0.130 C 
BRANCH  24  25
HETATM   25  N   UNL     1      -3.354   2.133 -31.216  1.00  0.00    -0.342 N 
HETATM   26  C   UNL     1      -3.750   0.877 -31.567  1.00  0.00     0.320 C 
HETATM   27  N   UNL     1      -4.364   0.765 -32.783  1.00  0.00    -0.309 N 
HETATM   28  O   UNL     1      -3.524  -0.030 -30.773  1.00  0.00    -0.247 OA
HETATM   29  H   UNL     1      -4.438   1.610 -33.322  1.00  0.00     0.170 HD
HETATM   30  H   UNL     1      -2.834   2.114 -30.346  1.00  0.00     0.164 HD
BRANCH  27  31
HETATM   31  C   UNL     1      -4.884  -0.402 -33.382  1.00  0.00     0.039 A 
HETATM   32  C   UNL     1      -4.125  -1.536 -33.672  1.00  0.00     0.071 A 
HETATM   33  C   UNL     1      -4.730  -2.641 -34.264  1.00  0.00     0.118 A 
HETATM   34  F   UNL     1      -3.995  -3.727 -34.541  1.00  0.00    -0.206 F 
HETATM   35  C   UNL     1      -6.085  -2.644 -34.574  1.00  0.00     0.042 A 
HETATM   36  C   UNL     1      -6.852  -1.519 -34.289  1.00  0.00     0.005 A 
HETATM   37  C   UNL     1      -6.252  -0.404 -33.695  1.00  0.00     0.030 A 
ENDBRANCH  27  31
ENDBRANCH  24  25
ENDBRANCH   4  24
TORSDOF 7
ENDMDL
MODEL 10
REMARK VINA RESULT:      -9.0      2.653      3.510
REMARK  7 active torsions:
REMARK  status: ('A' for Active; 'I' for Inactive)
REMARK    1  A    between atoms: C_4  and  N_5 
REMARK    2  A    between atoms: C_6  and  S_7 
REMARK    3  A    between atoms: S_7  and  C_8 
REMARK    4  A    between atoms: C_8  and  C_9 
REMARK       I    between atoms: C_9  and  N_10 
REMARK    5  A    between atoms: C_12  and  C_13 
REMARK    6  A    between atoms: C_13  and  N_14 
REMARK       I    between atoms: N_14  and  C_15 
REMARK       I    between atoms: C_15  and  N_16 
REMARK    7  A    between atoms: N_16  and  C_17 
ROOT
HETATM    1  C   UNL     1      -4.092   4.251 -31.611  1.00  0.00     0.229 C 
HETATM    2  N   UNL     1      -4.950   4.923 -30.721  1.00  0.00    -0.351 N 
HETATM    3  C   UNL     1      -4.524   6.276 -30.349  1.00  0.00     0.132 C 
HETATM    4  C   UNL     1      -5.674   7.109 -29.778  1.00  0.00     0.021 C 
HETATM    5  C   UNL     1      -6.247   6.385 -28.555  1.00  0.00     0.009 C 
HETATM    6  C   UNL     1      -6.774   5.024 -28.987  1.00  0.00     0.020 C 
HETATM    7  C   UNL     1      -5.724   4.191 -29.716  1.00  0.00     0.126 C 
HETATM    8  O   UNL     1      -3.050   4.791 -32.002  1.00  0.00    -0.273 OA
ENDROOT
BRANCH   1   9
HETATM    9  C   UNL     1      -4.557   2.957 -32.270  1.00  0.00     0.185 C 
BRANCH   9  10
HETATM   10  S   UNL     1      -5.984   3.047 -33.363  1.00  0.00    -0.082 SA
BRANCH  10  11
HETATM   11  C   UNL     1      -7.214   2.194 -32.496  1.00  0.00     0.173 A 
HETATM   12  N   UNL     1      -7.348   0.808 -32.479  1.00  0.00    -0.299 N 
HETATM   13  C   UNL     1      -8.500   0.573 -31.752  1.00  0.00     0.118 A 
HETATM   14  C   UNL     1      -8.988   1.802 -31.384  1.00  0.00     0.137 A 
HETATM   15  N   UNL     1      -8.184   2.800 -31.849  1.00  0.00    -0.235 NA
BRANCH  12  16
HETATM   16  C   UNL     1      -6.505  -0.197 -33.050  1.00  0.00     0.047 A 
HETATM   17  C   UNL     1      -5.426  -0.681 -32.283  1.00  0.00     0.037 A 
HETATM   18  C   UNL     1      -4.548  -1.649 -32.786  1.00  0.00    -0.060 A 
HETATM   19  C   UNL     1      -3.378  -2.126 -31.976  1.00  0.00     0.048 C 
HETATM   20  C   UNL     1      -4.775  -2.169 -34.058  1.00  0.00     0.007 A 
HETATM   21  C   UNL     1      -5.854  -1.719 -34.820  1.00  0.00     0.009 A 
HETATM   22  C   UNL     1      -6.721  -0.717 -34.345  1.00  0.00    -0.035 A 
HETATM   23  C   UNL     1      -7.800  -0.252 -35.286  1.00  0.00     0.050 C 
ENDBRANCH  12  16
ENDBRANCH  10  11
ENDBRANCH   9  10
ENDBRANCH   1   9
BRANCH   4  24
HETATM   24  C   UNL     1      -5.211   8.529 -29.440  1.00  0.00     0.130 C 
BRANCH  24  25
HETATM   25  N   UNL     1      -4.874   8.659 -28.033  1.00  0.00    -0.342 N 
HETATM   26  C   UNL     1      -3.675   8.521 -27.399  1.00  0.00     0.320 C 
HETATM   27  N   UNL     1      -2.631   8.118 -28.183  1.00  0.00    -0.309 N 
HETATM   28  O   UNL     1      -3.639   8.769 -26.199  1.00  0.00    -0.247 OA
HETATM   29  H   UNL     1      -2.832   7.992 -29.160  1.00  0.00     0.170 HD
HETATM   30  H   UNL     1      -5.571   9.041 -27.403  1.00  0.00     0.164 HD
BRANCH  27  31
HETATM   31  C   UNL     1      -1.297   7.883 -27.788  1.00  0.00     0.039 A 
HETATM   32  C   UNL     1      -0.205   8.622 -28.244  1.00  0.00     0.071 A 
HETATM   33  C   UNL     1       1.076   8.314 -27.793  1.00  0.00     0.118 A 
HETATM   34  F   UNL     1       2.121   9.026 -28.237  1.00  0.00    -0.206 F 
HETATM   35  C   UNL     1       1.296   7.280 -26.890  1.00  0.00     0.042 A 
HETATM   36  C   UNL     1       0.215   6.537 -26.428  1.00  0.00     0.005 A 
HETATM   37  C   UNL     1      -1.075   6.839 -26.876  1.00  0.00     0.030 A 
ENDBRANCH  27  31
ENDBRANCH  24  25
ENDBRANCH   4  24
TORSDOF 7
ENDMDL
