MODEL 1
REMARK VINA RESULT:      -7.9      0.000      0.000
REMARK  6 active torsions:
REMARK  status: ('A' for Active; 'I' for Inactive)
REMARK    1  A    between atoms: C_2  and  N_3 
REMARK    2  A    between atoms: C_2  and  C_11 
REMARK       I    between atoms: N_3  and  C_4 
REMARK    3  A    between atoms: C_4  and  C_5 
REMARK    4  A    between atoms: C_14  and  O_15 
REMARK    5  A    between atoms: O_15  and  C_16 
REMARK    6  A    between atoms: C_16  and  C_17 
ROOT
HETATM    1  C   UNL     1      -5.715   2.317 -31.692  1.00  0.00    -0.036 A 
HETATM    2  C   UNL     1      -6.029   1.197 -30.908  1.00  0.00     0.012 A 
HETATM    3  C   UNL     1      -6.556   0.038 -31.490  1.00  0.00     0.037 A 
HETATM    4  C   UNL     1      -6.795  -0.010 -32.861  1.00  0.00     0.069 A 
HETATM    5  C   UNL     1      -6.456   1.088 -33.653  1.00  0.00     0.037 A 
HETATM    6  C   UNL     1      -5.925   2.243 -33.076  1.00  0.00     0.012 A 
ENDROOT
BRANCH   1   7
HETATM    7  C   UNL     1      -5.211   3.588 -31.030  1.00  0.00     0.113 C 
HETATM    8  C   UNL     1      -5.621   3.671 -29.558  1.00  0.00     0.037 C 
BRANCH   7   9
HETATM    9  N   UNL     1      -3.766   3.671 -31.182  1.00  0.00    -0.352 N 
HETATM   10  C   UNL     1      -3.160   4.695 -31.860  1.00  0.00     0.225 C 
HETATM   11  O   UNL     1      -3.773   5.639 -32.341  1.00  0.00    -0.273 OA
HETATM   12  H   UNL     1      -3.226   2.848 -30.942  1.00  0.00     0.163 HD
BRANCH  10  13
HETATM   13  C   UNL     1      -1.682   4.667 -31.985  1.00  0.00     0.119 A 
HETATM   14  C   UNL     1      -0.752   5.714 -31.436  1.00  0.00     0.126 A 
HETATM   15 CL   UNL     1      -1.329   7.194 -30.688  1.00  0.00    -0.101 Cl
HETATM   16 CL   UNL     1       0.791   5.172 -30.772  1.00  0.00    -0.101 Cl
HETATM   17  C   UNL     1      -0.937   5.583 -32.926  1.00  0.00     0.060 A 
ENDBRANCH  10  13
ENDBRANCH   7   9
ENDBRANCH   1   7
BRANCH   4  18
HETATM   18  O   UNL     1      -7.342  -1.062 -33.542  1.00  0.00    -0.347 OA
BRANCH  18  19
HETATM   19  C   UNL     1      -6.741  -1.391 -34.794  1.00  0.00     0.215 C 
BRANCH  19  20
HETATM   20  C   UNL     1      -5.975  -2.673 -34.630  1.00  0.00    -0.017 A 
HETATM   21  C   UNL     1      -6.530  -3.894 -35.002  1.00  0.00     0.125 A 
HETATM   22  N   UNL     1      -5.902  -5.085 -34.878  1.00  0.00    -0.272 NA
HETATM   23  C   UNL     1      -4.653  -5.061 -34.367  1.00  0.00     0.116 A 
HETATM   24  C   UNL     1      -4.006  -3.903 -33.972  1.00  0.00     0.020 A 
HETATM   25  C   UNL     1      -4.679  -2.692 -34.104  1.00  0.00     0.012 A 
ENDBRANCH  19  20
ENDBRANCH  18  19
ENDBRANCH   4  18
TORSDOF 6
ENDMDL
MODEL 2
REMARK VINA RESULT:      -7.9      1.566      2.063
REMARK  6 active torsions:
REMARK  status: ('A' for Active; 'I' for Inactive)
REMARK    1  A    between atoms: C_2  and  N_3 
REMARK    2  A    between atoms: C_2  and  C_11 
REMARK       I    between atoms: N_3  and  C_4 
REMARK    3  A    between atoms: C_4  and  C_5 
REMARK    4  A    between atoms: C_14  and  O_15 
REMARK    5  A    between atoms: O_15  and  C_16 
REMARK    6  A    between atoms: C_16  and  C_17 
ROOT
HETATM    1  C   UNL     1      -4.264   3.445 -32.079  1.00  0.00    -0.036 A 
HETATM    2  C   UNL     1      -3.534   2.467 -31.386  1.00  0.00     0.012 A 
HETATM    3  C   UNL     1      -3.824   1.107 -31.543  1.00  0.00     0.037 A 
HETATM    4  C   UNL     1      -4.863   0.707 -32.381  1.00  0.00     0.069 A 
HETATM    5  C   UNL     1      -5.573   1.670 -33.098  1.00  0.00     0.037 A 
HETATM    6  C   UNL     1      -5.282   3.027 -32.947  1.00  0.00     0.012 A 
ENDROOT
BRANCH   1   7
HETATM    7  C   UNL     1      -3.977   4.917 -31.837  1.00  0.00     0.113 C 
HETATM    8  C   UNL     1      -5.118   5.610 -31.088  1.00  0.00     0.037 C 
BRANCH   7   9
HETATM    9  N   UNL     1      -2.717   5.052 -31.122  1.00  0.00    -0.352 N 
HETATM   10  C   UNL     1      -1.538   5.326 -31.765  1.00  0.00     0.225 C 
HETATM   11  O   UNL     1      -1.459   5.529 -32.969  1.00  0.00    -0.273 OA
HETATM   12  H   UNL     1      -2.694   4.745 -30.158  1.00  0.00     0.163 HD
BRANCH  10  13
HETATM   13  C   UNL     1      -0.303   5.411 -30.946  1.00  0.00     0.119 A 
HETATM   14  C   UNL     1      -0.103   6.346 -29.786  1.00  0.00     0.126 A 
HETATM   15 CL   UNL     1      -1.280   7.571 -29.343  1.00  0.00    -0.101 Cl
HETATM   16 CL   UNL     1       0.811   5.747 -28.399  1.00  0.00    -0.101 Cl
HETATM   17  C   UNL     1       0.664   6.564 -31.066  1.00  0.00     0.060 A 
ENDBRANCH  10  13
ENDBRANCH   7   9
ENDBRANCH   1   7
BRANCH   4  18
HETATM   18  O   UNL     1      -5.272  -0.581 -32.589  1.00  0.00    -0.347 OA
BRANCH  18  19
HETATM   19  C   UNL     1      -5.940  -0.847 -33.821  1.00  0.00     0.215 C 
BRANCH  19  20
HETATM   20  C   UNL     1      -5.731  -2.293 -34.171  1.00  0.00    -0.017 A 
HETATM   21  C   UNL     1      -4.496  -2.906 -33.983  1.00  0.00     0.125 A 
HETATM   22  N   UNL     1      -4.234  -4.198 -34.280  1.00  0.00    -0.272 NA
HETATM   23  C   UNL     1      -5.256  -4.924 -34.781  1.00  0.00     0.116 A 
HETATM   24  C   UNL     1      -6.525  -4.415 -35.001  1.00  0.00     0.020 A 
HETATM   25  C   UNL     1      -6.763  -3.079 -34.693  1.00  0.00     0.012 A 
ENDBRANCH  19  20
ENDBRANCH  18  19
ENDBRANCH   4  18
TORSDOF 6
ENDMDL
MODEL 3
REMARK VINA RESULT:      -7.8      2.135      3.600
REMARK  6 active torsions:
REMARK  status: ('A' for Active; 'I' for Inactive)
REMARK    1  A    between atoms: C_2  and  N_3 
REMARK    2  A    between atoms: C_2  and  C_11 
REMARK       I    between atoms: N_3  and  C_4 
REMARK    3  A    between atoms: C_4  and  C_5 
REMARK    4  A    between atoms: C_14  and  O_15 
REMARK    5  A    between atoms: O_15  and  C_16 
REMARK    6  A    between atoms: C_16  and  C_17 
ROOT
HETATM    1  C   UNL     1      -3.129   3.841 -32.728  1.00  0.00    -0.036 A 
HETATM    2  C   UNL     1      -4.362   3.896 -33.397  1.00  0.00     0.012 A 
HETATM    3  C   UNL     1      -5.429   3.080 -33.004  1.00  0.00     0.037 A 
HETATM    4  C   UNL     1      -5.273   2.184 -31.949  1.00  0.00     0.069 A 
HETATM    5  C   UNL     1      -4.062   2.145 -31.258  1.00  0.00     0.037 A 
HETATM    6  C   UNL     1      -2.997   2.962 -31.644  1.00  0.00     0.012 A 
ENDROOT
BRANCH   1   7
HETATM    7  C   UNL     1      -1.964   4.684 -33.216  1.00  0.00     0.113 C 
HETATM    8  C   UNL     1      -2.201   5.232 -34.625  1.00  0.00     0.037 C 
BRANCH   7   9
HETATM    9  N   UNL     1      -1.715   5.759 -32.267  1.00  0.00    -0.352 N 
HETATM   10  C   UNL     1      -0.631   5.757 -31.429  1.00  0.00     0.225 C 
HETATM   11  O   UNL     1       0.232   4.890 -31.446  1.00  0.00    -0.273 OA
HETATM   12  H   UNL     1      -2.467   6.416 -32.101  1.00  0.00     0.163 HD
BRANCH  10  13
HETATM   13  C   UNL     1      -0.488   6.885 -30.475  1.00  0.00     0.119 A 
HETATM   14  C   UNL     1       0.181   6.796 -29.132  1.00  0.00     0.126 A 
HETATM   15 CL   UNL     1       0.761   5.280 -28.461  1.00  0.00    -0.101 Cl
HETATM   16 CL   UNL     1       1.130   8.185 -28.596  1.00  0.00    -0.101 Cl
HETATM   17  C   UNL     1      -1.313   6.982 -29.215  1.00  0.00     0.060 A 
ENDBRANCH  10  13
ENDBRANCH   7   9
ENDBRANCH   1   7
BRANCH   4  18
HETATM   18  O   UNL     1      -6.221   1.307 -31.497  1.00  0.00    -0.347 OA
BRANCH  18  19
HETATM   19  C   UNL     1      -5.775  -0.015 -31.202  1.00  0.00     0.215 C 
BRANCH  19  20
HETATM   20  C   UNL     1      -5.752  -0.804 -32.481  1.00  0.00    -0.017 A 
HETATM   21  C   UNL     1      -4.641  -1.564 -32.835  1.00  0.00     0.125 A 
HETATM   22  N   UNL     1      -4.547  -2.292 -33.970  1.00  0.00    -0.272 NA
HETATM   23  C   UNL     1      -5.617  -2.274 -34.792  1.00  0.00     0.116 A 
HETATM   24  C   UNL     1      -6.774  -1.558 -34.533  1.00  0.00     0.020 A 
HETATM   25  C   UNL     1      -6.839  -0.811 -33.360  1.00  0.00     0.012 A 
ENDBRANCH  19  20
ENDBRANCH  18  19
ENDBRANCH   4  18
TORSDOF 6
ENDMDL
MODEL 4
REMARK VINA RESULT:      -7.7      3.886      8.236
REMARK  6 active torsions:
REMARK  status: ('A' for Active; 'I' for Inactive)
REMARK    1  A    between atoms: C_2  and  N_3 
REMARK    2  A    between atoms: C_2  and  C_11 
REMARK       I    between atoms: N_3  and  C_4 
REMARK    3  A    between atoms: C_4  and  C_5 
REMARK    4  A    between atoms: C_14  and  O_15 
REMARK    5  A    between atoms: O_15  and  C_16 
REMARK    6  A    between atoms: C_16  and  C_17 
ROOT
HETATM    1  C   UNL     1      -6.744   2.911 -32.406  1.00  0.00    -0.036 A 
HETATM    2  C   UNL     1      -6.347   4.043 -31.677  1.00  0.00     0.012 A 
HETATM    3  C   UNL     1      -5.615   5.069 -32.284  1.00  0.00     0.037 A 
HETATM    4  C   UNL     1      -5.252   4.970 -33.626  1.00  0.00     0.069 A 
HETATM    5  C   UNL     1      -5.669   3.864 -34.367  1.00  0.00     0.037 A 
HETATM    6  C   UNL     1      -6.404   2.841 -33.765  1.00  0.00     0.012 A 
ENDROOT
BRANCH   1   7
HETATM    7  C   UNL     1      -7.476   1.778 -31.708  1.00  0.00     0.113 C 
HETATM    8  C   UNL     1      -8.784   2.247 -31.067  1.00  0.00     0.037 C 
BRANCH   7   9
HETATM    9  N   UNL     1      -7.710   0.699 -32.657  1.00  0.00    -0.352 N 
HETATM   10  C   UNL     1      -6.954  -0.444 -32.664  1.00  0.00     0.225 C 
HETATM   11  O   UNL     1      -6.068  -0.670 -31.850  1.00  0.00    -0.273 OA
HETATM   12  H   UNL     1      -8.319   0.894 -33.442  1.00  0.00     0.163 HD
BRANCH  10  13
HETATM   13  C   UNL     1      -7.254  -1.469 -33.694  1.00  0.00     0.119 A 
HETATM   14  C   UNL     1      -6.226  -2.321 -34.384  1.00  0.00     0.126 A 
HETATM   15 CL   UNL     1      -4.500  -2.102 -34.146  1.00  0.00    -0.101 Cl
HETATM   16 CL   UNL     1      -6.656  -3.996 -34.741  1.00  0.00    -0.101 Cl
HETATM   17  C   UNL     1      -6.952  -1.250 -35.157  1.00  0.00     0.060 A 
ENDBRANCH  10  13
ENDBRANCH   7   9
ENDBRANCH   1   7
BRANCH   4  18
HETATM   18  O   UNL     1      -4.506   5.880 -34.322  1.00  0.00    -0.347 OA
BRANCH  18  19
HETATM   19  C   UNL     1      -3.212   5.453 -34.745  1.00  0.00     0.215 C 
BRANCH  19  20
HETATM   20  C   UNL     1      -2.204   5.927 -33.736  1.00  0.00    -0.017 A 
HETATM   21  C   UNL     1      -1.897   7.279 -33.610  1.00  0.00     0.125 A 
HETATM   22  N   UNL     1      -0.998   7.776 -32.732  1.00  0.00    -0.272 NA
HETATM   23  C   UNL     1      -0.380   6.886 -31.928  1.00  0.00     0.116 A 
HETATM   24  C   UNL     1      -0.616   5.522 -31.965  1.00  0.00     0.020 A 
HETATM   25  C   UNL     1      -1.541   5.038 -32.886  1.00  0.00     0.012 A 
ENDBRANCH  19  20
ENDBRANCH  18  19
ENDBRANCH   4  18
TORSDOF 6
ENDMDL
MODEL 5
REMARK VINA RESULT:      -7.7      3.853      8.651
REMARK  6 active torsions:
REMARK  status: ('A' for Active; 'I' for Inactive)
REMARK    1  A    between atoms: C_2  and  N_3 
REMARK    2  A    between atoms: C_2  and  C_11 
REMARK       I    between atoms: N_3  and  C_4 
REMARK    3  A    between atoms: C_4  and  C_5 
REMARK    4  A    between atoms: C_14  and  O_15 
REMARK    5  A    between atoms: O_15  and  C_16 
REMARK    6  A    between atoms: C_16  and  C_17 
ROOT
HETATM    1  C   UNL     1      -5.445   2.802 -31.982  1.00  0.00    -0.036 A 
HETATM    2  C   UNL     1      -4.225   2.440 -31.391  1.00  0.00     0.012 A 
HETATM    3  C   UNL     1      -3.024   3.028 -31.802  1.00  0.00     0.037 A 
HETATM    4  C   UNL     1      -3.023   3.974 -32.826  1.00  0.00     0.069 A 
HETATM    5  C   UNL     1      -4.235   4.363 -33.398  1.00  0.00     0.037 A 
HETATM    6  C   UNL     1      -5.435   3.781 -32.985  1.00  0.00     0.012 A 
ENDROOT
BRANCH   1   7
HETATM    7  C   UNL     1      -6.726   2.098 -31.567  1.00  0.00     0.113 C 
HETATM    8  C   UNL     1      -7.862   3.086 -31.293  1.00  0.00     0.037 C 
BRANCH   7   9
HETATM    9  N   UNL     1      -7.100   1.135 -32.593  1.00  0.00    -0.352 N 
HETATM   10  C   UNL     1      -6.744  -0.186 -32.519  1.00  0.00     0.225 C 
HETATM   11  O   UNL     1      -6.136  -0.668 -31.571  1.00  0.00    -0.273 OA
HETATM   12  H   UNL     1      -7.464   1.501 -33.464  1.00  0.00     0.163 HD
BRANCH  10  13
HETATM   13  C   UNL     1      -7.148  -1.078 -33.633  1.00  0.00     0.119 A 
HETATM   14  C   UNL     1      -6.227  -2.021 -34.358  1.00  0.00     0.126 A 
HETATM   15 CL   UNL     1      -4.498  -2.076 -34.053  1.00  0.00    -0.101 Cl
HETATM   16 CL   UNL     1      -6.880  -3.583 -34.856  1.00  0.00    -0.101 Cl
HETATM   17  C   UNL     1      -6.759  -0.801 -35.065  1.00  0.00     0.060 A 
ENDBRANCH  10  13
ENDBRANCH   7   9
ENDBRANCH   1   7
BRANCH   4  18
HETATM   18  O   UNL     1      -1.919   4.589 -33.346  1.00  0.00    -0.347 OA
BRANCH  18  19
HETATM   19  C   UNL     1      -0.963   5.080 -32.407  1.00  0.00     0.215 C 
BRANCH  19  20
HETATM   20  C   UNL     1      -1.424   6.425 -31.921  1.00  0.00    -0.017 A 
HETATM   21  C   UNL     1      -1.569   7.495 -32.800  1.00  0.00     0.125 A 
HETATM   22  N   UNL     1      -1.973   8.732 -32.434  1.00  0.00    -0.272 NA
HETATM   23  C   UNL     1      -2.259   8.914 -31.127  1.00  0.00     0.116 A 
HETATM   24  C   UNL     1      -2.155   7.917 -30.171  1.00  0.00     0.020 A 
HETATM   25  C   UNL     1      -1.729   6.656 -30.576  1.00  0.00     0.012 A 
ENDBRANCH  19  20
ENDBRANCH  18  19
ENDBRANCH   4  18
TORSDOF 6
ENDMDL
MODEL 6
REMARK VINA RESULT:      -7.5      3.706      8.705
REMARK  6 active torsions:
REMARK  status: ('A' for Active; 'I' for Inactive)
REMARK    1  A    between atoms: C_2  and  N_3 
REMARK    2  A    between atoms: C_2  and  C_11 
REMARK       I    between atoms: N_3  and  C_4 
REMARK    3  A    between atoms: C_4  and  C_5 
REMARK    4  A    between atoms: C_14  and  O_15 
REMARK    5  A    between atoms: O_15  and  C_16 
REMARK    6  A    between atoms: C_16  and  C_17 
ROOT
HETATM    1  C   UNL     1      -4.955   3.134 -31.232  1.00  0.00    -0.036 A 
HETATM    2  C   UNL     1      -4.979   4.453 -30.752  1.00  0.00     0.012 A 
HETATM    3  C   UNL     1      -3.981   5.366 -31.110  1.00  0.00     0.037 A 
HETATM    4  C   UNL     1      -2.933   4.968 -31.938  1.00  0.00     0.069 A 
HETATM    5  C   UNL     1      -2.918   3.669 -32.445  1.00  0.00     0.037 A 
HETATM    6  C   UNL     1      -3.916   2.757 -32.093  1.00  0.00     0.012 A 
ENDROOT
BRANCH   1   7
HETATM    7  C   UNL     1      -6.010   2.142 -30.772  1.00  0.00     0.113 C 
HETATM    8  C   UNL     1      -7.165   2.828 -30.041  1.00  0.00     0.037 C 
BRANCH   7   9
HETATM    9  N   UNL     1      -6.486   1.381 -31.918  1.00  0.00    -0.352 N 
HETATM   10  C   UNL     1      -6.388   0.015 -31.980  1.00  0.00     0.225 C 
HETATM   11  O   UNL     1      -5.945  -0.670 -31.068  1.00  0.00    -0.273 OA
HETATM   12  H   UNL     1      -6.716   1.899 -32.757  1.00  0.00     0.163 HD
BRANCH  10  13
HETATM   13  C   UNL     1      -6.875  -0.661 -33.208  1.00  0.00     0.119 A 
HETATM   14  C   UNL     1      -6.044  -1.557 -34.083  1.00  0.00     0.126 A 
HETATM   15 CL   UNL     1      -4.324  -1.804 -33.825  1.00  0.00    -0.101 Cl
HETATM   16 CL   UNL     1      -6.834  -2.966 -34.797  1.00  0.00    -0.101 Cl
HETATM   17  C   UNL     1      -6.474  -0.205 -34.590  1.00  0.00     0.060 A 
ENDBRANCH  10  13
ENDBRANCH   7   9
ENDBRANCH   1   7
BRANCH   4  18
HETATM   18  O   UNL     1      -1.880   5.749 -32.326  1.00  0.00    -0.347 OA
BRANCH  18  19
HETATM   19  C   UNL     1      -0.576   5.257 -32.020  1.00  0.00     0.215 C 
BRANCH  19  20
HETATM   20  C   UNL     1      -0.150   5.835 -30.700  1.00  0.00    -0.017 A 
HETATM   21  C   UNL     1       0.447   5.039 -29.727  1.00  0.00     0.125 A 
HETATM   22  N   UNL     1       0.850   5.488 -28.518  1.00  0.00    -0.272 NA
HETATM   23  C   UNL     1       0.661   6.800 -28.265  1.00  0.00     0.116 A 
HETATM   24  C   UNL     1       0.083   7.681 -29.164  1.00  0.00     0.020 A 
HETATM   25  C   UNL     1      -0.329   7.188 -30.398  1.00  0.00     0.012 A 
ENDBRANCH  19  20
ENDBRANCH  18  19
ENDBRANCH   4  18
TORSDOF 6
ENDMDL
MODEL 7
REMARK VINA RESULT:      -7.5      4.466      5.890
REMARK  6 active torsions:
REMARK  status: ('A' for Active; 'I' for Inactive)
REMARK    1  A    between atoms: C_2  and  N_3 
REMARK    2  A    between atoms: C_2  and  C_11 
REMARK       I    between atoms: N_3  and  C_4 
REMARK    3  A    between atoms: C_4  and  C_5 
REMARK    4  A    between atoms: C_14  and  O_15 
REMARK    5  A    between atoms: O_15  and  C_16 
REMARK    6  A    between atoms: C_16  and  C_17 
ROOT
HETATM    1  C   UNL     1      -6.274   2.031 -31.499  1.00  0.00    -0.036 A 
HETATM    2  C   UNL     1      -6.780   0.823 -30.994  1.00  0.00     0.012 A 
HETATM    3  C   UNL     1      -6.071  -0.373 -31.147  1.00  0.00     0.037 A 
HETATM    4  C   UNL     1      -4.853  -0.383 -31.825  1.00  0.00     0.069 A 
HETATM    5  C   UNL     1      -4.327   0.818 -32.302  1.00  0.00     0.037 A 
HETATM    6  C   UNL     1      -5.031   2.014 -32.146  1.00  0.00     0.012 A 
ENDROOT
BRANCH   1   7
HETATM    7  C   UNL     1      -7.095   3.304 -31.383  1.00  0.00     0.113 C 
HETATM    8  C   UNL     1      -6.276   4.550 -31.728  1.00  0.00     0.037 C 
BRANCH   7   9
HETATM    9  N   UNL     1      -8.274   3.195 -32.230  1.00  0.00    -0.352 N 
HETATM   10  C   UNL     1      -9.538   3.087 -31.712  1.00  0.00     0.225 C 
HETATM   11  O   UNL     1      -9.780   3.124 -30.513  1.00  0.00    -0.273 OA
HETATM   12  H   UNL     1      -8.124   3.005 -33.213  1.00  0.00     0.163 HD
BRANCH  10  13
HETATM   13  C   UNL     1     -10.669   2.949 -32.663  1.00  0.00     0.119 A 
HETATM   14  C   UNL     1     -11.074   1.667 -33.338  1.00  0.00     0.126 A 
HETATM   15 CL   UNL     1     -10.150   0.182 -33.182  1.00  0.00    -0.101 Cl
HETATM   16 CL   UNL     1     -12.799   1.374 -33.571  1.00  0.00    -0.101 Cl
HETATM   17  C   UNL     1     -10.455   2.778 -34.147  1.00  0.00     0.060 A 
ENDBRANCH  10  13
ENDBRANCH   7   9
ENDBRANCH   1   7
BRANCH   4  18
HETATM   18  O   UNL     1      -4.086  -1.486 -32.076  1.00  0.00    -0.347 OA
BRANCH  18  19
HETATM   19  C   UNL     1      -3.733  -1.719 -33.438  1.00  0.00     0.215 C 
BRANCH  19  20
HETATM   20  C   UNL     1      -4.667  -2.752 -34.000  1.00  0.00    -0.017 A 
HETATM   21  C   UNL     1      -4.300  -4.093 -34.063  1.00  0.00     0.125 A 
HETATM   22  N   UNL     1      -5.085  -5.075 -34.560  1.00  0.00    -0.272 NA
HETATM   23  C   UNL     1      -6.304  -4.708 -35.008  1.00  0.00     0.116 A 
HETATM   24  C   UNL     1      -6.771  -3.404 -34.986  1.00  0.00     0.020 A 
HETATM   25  C   UNL     1      -5.938  -2.413 -34.476  1.00  0.00     0.012 A 
ENDBRANCH  19  20
ENDBRANCH  18  19
ENDBRANCH   4  18
TORSDOF 6
ENDMDL
MODEL 8
REMARK VINA RESULT:      -7.2      2.341      3.407
REMARK  6 active torsions:
REMARK  status: ('A' for Active; 'I' for Inactive)
REMARK    1  A    between atoms: C_2  and  N_3 
REMARK    2  A    between atoms: C_2  and  C_11 
REMARK       I    between atoms: N_3  and  C_4 
REMARK    3  A    between atoms: C_4  and  C_5 
REMARK    4  A    between atoms: C_14  and  O_15 
REMARK    5  A    between atoms: O_15  and  C_16 
REMARK    6  A    between atoms: C_16  and  C_17 
ROOT
HETATM    1  C   UNL     1      -3.562   4.454 -31.717  1.00  0.00    -0.036 A 
HETATM    2  C   UNL     1      -4.893   4.445 -31.272  1.00  0.00     0.012 A 
HETATM    3  C   UNL     1      -5.675   3.289 -31.367  1.00  0.00     0.037 A 
HETATM    4  C   UNL     1      -5.143   2.129 -31.928  1.00  0.00     0.069 A 
HETATM    5  C   UNL     1      -3.812   2.120 -32.345  1.00  0.00     0.037 A 
HETATM    6  C   UNL     1      -3.027   3.271 -32.245  1.00  0.00     0.012 A 
ENDROOT
BRANCH   1   7
HETATM    7  C   UNL     1      -2.755   5.741 -31.668  1.00  0.00     0.113 C 
HETATM    8  C   UNL     1      -3.635   6.978 -31.858  1.00  0.00     0.037 C 
BRANCH   7   9
HETATM    9  N   UNL     1      -2.021   5.801 -30.413  1.00  0.00    -0.352 N 
HETATM   10  C   UNL     1      -0.713   6.206 -30.350  1.00  0.00     0.225 C 
HETATM   11  O   UNL     1      -0.081   6.594 -31.324  1.00  0.00    -0.273 OA
HETATM   12  H   UNL     1      -2.438   5.351 -29.608  1.00  0.00     0.163 HD
BRANCH  10  13
HETATM   13  C   UNL     1      -0.047   6.201 -29.024  1.00  0.00     0.119 A 
HETATM   14  C   UNL     1      -0.570   6.892 -27.796  1.00  0.00     0.126 A 
HETATM   15 CL   UNL     1      -1.991   7.924 -27.823  1.00  0.00    -0.101 Cl
HETATM   16 CL   UNL     1      -0.345   6.083 -26.243  1.00  0.00    -0.101 Cl
HETATM   17  C   UNL     1       0.668   7.413 -28.479  1.00  0.00     0.060 A 
ENDBRANCH  10  13
ENDBRANCH   7   9
ENDBRANCH   1   7
BRANCH   4  18
HETATM   18  O   UNL     1      -5.813   0.952 -32.116  1.00  0.00    -0.347 OA
BRANCH  18  19
HETATM   19  C   UNL     1      -5.093  -0.244 -31.819  1.00  0.00     0.215 C 
BRANCH  19  20
HETATM   20  C   UNL     1      -5.296  -1.212 -32.950  1.00  0.00    -0.017 A 
HETATM   21  C   UNL     1      -4.261  -2.034 -33.386  1.00  0.00     0.125 A 
HETATM   22  N   UNL     1      -4.369  -2.923 -34.398  1.00  0.00    -0.272 NA
HETATM   23  C   UNL     1      -5.572  -3.009 -35.003  1.00  0.00     0.116 A 
HETATM   24  C   UNL     1      -6.670  -2.244 -34.644  1.00  0.00     0.020 A 
HETATM   25  C   UNL     1      -6.526  -1.332 -33.603  1.00  0.00     0.012 A 
ENDBRANCH  19  20
ENDBRANCH  18  19
ENDBRANCH   4  18
TORSDOF 6
ENDMDL
MODEL 9
REMARK VINA RESULT:      -7.1      1.634      2.209
REMARK  6 active torsions:
REMARK  status: ('A' for Active; 'I' for Inactive)
REMARK    1  A    between atoms: C_2  and  N_3 
REMARK    2  A    between atoms: C_2  and  C_11 
REMARK       I    between atoms: N_3  and  C_4 
REMARK    3  A    between atoms: C_4  and  C_5 
REMARK    4  A    between atoms: C_14  and  O_15 
REMARK    5  A    between atoms: O_15  and  C_16 
REMARK    6  A    between atoms: C_16  and  C_17 
ROOT
HETATM    1  C   UNL     1      -6.060   3.884 -31.571  1.00  0.00    -0.036 A 
HETATM    2  C   UNL     1      -5.496   3.660 -32.837  1.00  0.00     0.012 A 
HETATM    3  C   UNL     1      -5.995   2.660 -33.679  1.00  0.00     0.037 A 
HETATM    4  C   UNL     1      -7.053   1.856 -33.259  1.00  0.00     0.069 A 
HETATM    5  C   UNL     1      -7.640   2.092 -32.016  1.00  0.00     0.037 A 
HETATM    6  C   UNL     1      -7.147   3.093 -31.176  1.00  0.00     0.012 A 
ENDROOT
BRANCH   1   7
HETATM    7  C   UNL     1      -5.456   4.927 -30.647  1.00  0.00     0.113 C 
HETATM    8  C   UNL     1      -5.963   4.785 -29.210  1.00  0.00     0.037 C 
BRANCH   7   9
HETATM    9  N   UNL     1      -4.004   4.840 -30.705  1.00  0.00    -0.352 N 
HETATM   10  C   UNL     1      -3.212   5.946 -30.868  1.00  0.00     0.225 C 
HETATM   11  O   UNL     1      -3.652   7.087 -30.925  1.00  0.00    -0.273 OA
HETATM   12  H   UNL     1      -3.598   3.920 -30.818  1.00  0.00     0.163 HD
BRANCH  10  13
HETATM   13  C   UNL     1      -1.744   5.744 -30.948  1.00  0.00     0.119 A 
HETATM   14  C   UNL     1      -0.829   6.452 -31.909  1.00  0.00     0.126 A 
HETATM   15 CL   UNL     1      -1.423   7.521 -33.169  1.00  0.00    -0.101 Cl
HETATM   16 CL   UNL     1       0.773   6.910 -31.327  1.00  0.00    -0.101 Cl
HETATM   17  C   UNL     1      -1.098   4.978 -32.077  1.00  0.00     0.060 A 
ENDBRANCH  10  13
ENDBRANCH   7   9
ENDBRANCH   1   7
BRANCH   4  18
HETATM   18  O   UNL     1      -7.602   0.823 -33.968  1.00  0.00    -0.347 OA
BRANCH  18  19
HETATM   19  C   UNL     1      -7.721  -0.424 -33.285  1.00  0.00     0.215 C 
BRANCH  19  20
HETATM   20  C   UNL     1      -6.576  -1.304 -33.702  1.00  0.00    -0.017 A 
HETATM   21  C   UNL     1      -5.327  -1.189 -33.100  1.00  0.00     0.125 A 
HETATM   22  N   UNL     1      -4.252  -1.940 -33.427  1.00  0.00    -0.272 NA
HETATM   23  C   UNL     1      -4.430  -2.862 -34.396  1.00  0.00     0.116 A 
HETATM   24  C   UNL     1      -5.631  -3.064 -35.055  1.00  0.00     0.020 A 
HETATM   25  C   UNL     1      -6.719  -2.270 -34.702  1.00  0.00     0.012 A 
ENDBRANCH  19  20
ENDBRANCH  18  19
ENDBRANCH   4  18
TORSDOF 6
ENDMDL
MODEL 10
REMARK VINA RESULT:      -7.1     15.908     17.425
REMARK  6 active torsions:
REMARK  status: ('A' for Active; 'I' for Inactive)
REMARK    1  A    between atoms: C_2  and  N_3 
REMARK    2  A    between atoms: C_2  and  C_11 
REMARK       I    between atoms: N_3  and  C_4 
REMARK    3  A    between atoms: C_4  and  C_5 
REMARK    4  A    between atoms: C_14  and  O_15 
REMARK    5  A    between atoms: O_15  and  C_16 
REMARK    6  A    between atoms: C_16  and  C_17 
ROOT
HETATM    1  C   UNL     1      -5.473 -12.397 -38.693  1.00  0.00    -0.036 A 
HETATM    2  C   UNL     1      -5.547 -12.265 -40.088  1.00  0.00     0.012 A 
HETATM    3  C   UNL     1      -6.782 -12.258 -40.745  1.00  0.00     0.037 A 
HETATM    4  C   UNL     1      -7.962 -12.402 -40.018  1.00  0.00     0.069 A 
HETATM    5  C   UNL     1      -7.901 -12.503 -38.628  1.00  0.00     0.037 A 
HETATM    6  C   UNL     1      -6.669 -12.505 -37.969  1.00  0.00     0.012 A 
ENDROOT
BRANCH   1   7
HETATM    7  C   UNL     1      -4.119 -12.474 -38.009  1.00  0.00     0.113 C 
HETATM    8  C   UNL     1      -4.226 -13.014 -36.581  1.00  0.00     0.037 C 
BRANCH   7   9
HETATM    9  N   UNL     1      -3.218 -13.285 -38.815  1.00  0.00    -0.352 N 
HETATM   10  C   UNL     1      -1.878 -13.013 -38.910  1.00  0.00     0.225 C 
HETATM   11  O   UNL     1      -1.329 -12.111 -38.293  1.00  0.00    -0.273 OA
HETATM   12  H   UNL     1      -3.637 -13.941 -39.462  1.00  0.00     0.163 HD
BRANCH  10  13
HETATM   13  C   UNL     1      -1.053 -13.883 -39.785  1.00  0.00     0.119 A 
HETATM   14  C   UNL     1      -0.900 -15.369 -39.622  1.00  0.00     0.126 A 
HETATM   15 CL   UNL     1      -1.584 -16.249 -38.264  1.00  0.00    -0.101 Cl
HETATM   16 CL   UNL     1      -0.803 -16.349 -41.088  1.00  0.00    -0.101 Cl
HETATM   17  C   UNL     1       0.266 -14.459 -39.331  1.00  0.00     0.060 A 
ENDBRANCH  10  13
ENDBRANCH   7   9
ENDBRANCH   1   7
BRANCH   4  18
HETATM   18  O   UNL     1      -9.224 -12.452 -40.543  1.00  0.00    -0.347 OA
BRANCH  18  19
HETATM   19  C   UNL     1     -10.224 -13.073 -39.737  1.00  0.00     0.215 C 
BRANCH  19  20
HETATM   20  C   UNL     1     -10.417 -14.482 -40.222  1.00  0.00    -0.017 A 
HETATM   21  C   UNL     1     -11.213 -14.756 -41.330  1.00  0.00     0.125 A 
HETATM   22  N   UNL     1     -11.436 -15.997 -41.818  1.00  0.00    -0.272 NA
HETATM   23  C   UNL     1     -10.827 -17.018 -41.180  1.00  0.00     0.116 A 
HETATM   24  C   UNL     1     -10.009 -16.855 -40.074  1.00  0.00     0.020 A 
HETATM   25  C   UNL     1      -9.804 -15.567 -39.589  1.00  0.00     0.012 A 
ENDBRANCH  19  20
ENDBRANCH  18  19
ENDBRANCH   4  18
TORSDOF 6
ENDMDL
