MODEL 1
REMARK VINA RESULT:      -7.9      0.000      0.000
REMARK  8 active torsions:
REMARK  status: ('A' for Active; 'I' for Inactive)
REMARK    1  A    between atoms: C_2  and  C_3 
REMARK    2  A    between atoms: C_3  and  N_4 
REMARK    3  A    between atoms: N_4  and  C_5 
REMARK    4  A    between atoms: C_7  and  N_8 
REMARK    5  A    between atoms: N_8  and  C_9 
REMARK    6  A    between atoms: C_9  and  C_10 
REMARK    7  A    between atoms: C_10  and  C_11 
REMARK    8  A    between atoms: C_13  and  O_14 
ROOT
HETATM    1  C   UNL     1      -6.249  -0.980 -34.311  1.00  0.00     0.119 A 
HETATM    2  N   UNL     1      -5.413  -0.080 -33.758  1.00  0.00    -0.207 NA
HETATM    3  C   UNL     1      -4.243  -0.525 -33.290  1.00  0.00     0.181 A 
HETATM    4  N   UNL     1      -3.879  -1.803 -33.318  1.00  0.00    -0.330 N 
HETATM    5  H   UNL     1      -3.005  -2.045 -32.870  1.00  0.00     0.168 HD
HETATM    6  C   UNL     1      -4.658  -2.732 -33.881  1.00  0.00     0.048 A 
HETATM    7  C   UNL     1      -5.899  -2.344 -34.425  1.00  0.00     0.031 A 
HETATM    8  C   UNL     1      -4.234  -4.067 -33.933  1.00  0.00     0.030 A 
HETATM    9  C   UNL     1      -5.034  -5.032 -34.543  1.00  0.00     0.002 A 
HETATM   10  C   UNL     1      -6.256  -4.669 -35.102  1.00  0.00     0.001 A 
HETATM   11  C   UNL     1      -6.687  -3.341 -35.046  1.00  0.00     0.017 A 
ENDROOT
BRANCH   3  12
HETATM   12  N   UNL     1      -3.398   0.402 -32.692  1.00  0.00    -0.262 NA
HETATM   13  H   UNL     1      -2.613  -0.156 -32.342  1.00  0.00     0.130 HD
BRANCH  12  14
HETATM   14  C   UNL     1      -4.009   1.184 -31.613  1.00  0.00     0.100 C 
BRANCH  14  15
HETATM   15  C   UNL     1      -3.236   2.492 -31.394  1.00  0.00     0.053 C 
BRANCH  15  16
HETATM   16  C   UNL     1      -3.517   3.482 -32.497  1.00  0.00    -0.054 A 
HETATM   17  C   UNL     1      -4.838   3.828 -32.833  1.00  0.00     0.044 A 
HETATM   18  C   UNL     1      -5.094   4.710 -33.886  1.00  0.00     0.068 A 
HETATM   19  C   UNL     1      -4.024   5.252 -34.600  1.00  0.00     0.037 A 
HETATM   20  C   UNL     1      -2.710   4.926 -34.268  1.00  0.00     0.003 A 
HETATM   21  C   UNL     1      -2.456   4.043 -33.221  1.00  0.00     0.007 A 
BRANCH  18  22
HETATM   22  O   UNL     1      -6.326   5.109 -34.321  1.00  0.00    -0.356 OA
HETATM   23  C   UNL     1      -7.458   4.433 -33.790  1.00  0.00     0.210 C 
ENDBRANCH  18  22
ENDBRANCH  15  16
ENDBRANCH  14  15
ENDBRANCH  12  14
ENDBRANCH   3  12
BRANCH   1  24
HETATM   24  N   UNL     1      -7.472  -0.539 -34.833  1.00  0.00    -0.277 NA
HETATM   25  H   UNL     1      -8.188  -1.255 -34.733  1.00  0.00     0.129 HD
BRANCH  24  26
HETATM   26  C   UNL     1      -7.956   0.762 -34.366  1.00  0.00     0.093 C 
BRANCH  26  27
HETATM   27  C   UNL     1      -9.452   0.685 -34.057  1.00  0.00     0.010 C 
HETATM   28  C   UNL     1      -9.745   0.031 -32.715  1.00  0.00     0.006 C 
ENDBRANCH  26  27
ENDBRANCH  24  26
ENDBRANCH   1  24
TORSDOF 8
ENDMDL
MODEL 2
REMARK VINA RESULT:      -7.8      1.901      2.631
REMARK  8 active torsions:
REMARK  status: ('A' for Active; 'I' for Inactive)
REMARK    1  A    between atoms: C_2  and  C_3 
REMARK    2  A    between atoms: C_3  and  N_4 
REMARK    3  A    between atoms: N_4  and  C_5 
REMARK    4  A    between atoms: C_7  and  N_8 
REMARK    5  A    between atoms: N_8  and  C_9 
REMARK    6  A    between atoms: C_9  and  C_10 
REMARK    7  A    between atoms: C_10  and  C_11 
REMARK    8  A    between atoms: C_13  and  O_14 
ROOT
HETATM    1  C   UNL     1      -6.136  -0.847 -34.195  1.00  0.00     0.119 A 
HETATM    2  N   UNL     1      -5.383   0.089 -33.585  1.00  0.00    -0.207 NA
HETATM    3  C   UNL     1      -4.225  -0.304 -33.042  1.00  0.00     0.181 A 
HETATM    4  N   UNL     1      -3.800  -1.563 -33.051  1.00  0.00    -0.330 N 
HETATM    5  H   UNL     1      -2.947  -1.766 -32.548  1.00  0.00     0.168 HD
HETATM    6  C   UNL     1      -4.495  -2.523 -33.668  1.00  0.00     0.048 A 
HETATM    7  C   UNL     1      -5.714  -2.192 -34.291  1.00  0.00     0.031 A 
HETATM    8  C   UNL     1      -4.005  -3.837 -33.697  1.00  0.00     0.030 A 
HETATM    9  C   UNL     1      -4.716  -4.835 -34.363  1.00  0.00     0.002 A 
HETATM   10  C   UNL     1      -5.914  -4.526 -35.000  1.00  0.00     0.001 A 
HETATM   11  C   UNL     1      -6.411  -3.220 -34.968  1.00  0.00     0.017 A 
ENDROOT
BRANCH   3  12
HETATM   12  N   UNL     1      -3.468   0.659 -32.386  1.00  0.00    -0.262 NA
HETATM   13  H   UNL     1      -3.521   0.395 -31.397  1.00  0.00     0.130 HD
BRANCH  12  14
HETATM   14  C   UNL     1      -3.919   2.039 -32.588  1.00  0.00     0.100 C 
BRANCH  14  15
HETATM   15  C   UNL     1      -3.193   2.987 -31.624  1.00  0.00     0.053 C 
BRANCH  15  16
HETATM   16  C   UNL     1      -2.495   4.095 -32.372  1.00  0.00    -0.054 A 
HETATM   17  C   UNL     1      -1.541   4.905 -31.731  1.00  0.00     0.044 A 
HETATM   18  C   UNL     1      -0.932   5.960 -32.415  1.00  0.00     0.068 A 
HETATM   19  C   UNL     1      -1.275   6.201 -33.746  1.00  0.00     0.037 A 
HETATM   20  C   UNL     1      -2.210   5.397 -34.396  1.00  0.00     0.003 A 
HETATM   21  C   UNL     1      -2.821   4.349 -33.711  1.00  0.00     0.007 A 
BRANCH  18  22
HETATM   22  O   UNL     1      -0.008   6.825 -31.902  1.00  0.00    -0.356 OA
HETATM   23  C   UNL     1       0.197   6.806 -30.496  1.00  0.00     0.210 C 
ENDBRANCH  18  22
ENDBRANCH  15  16
ENDBRANCH  14  15
ENDBRANCH  12  14
ENDBRANCH   3  12
BRANCH   1  24
HETATM   24  N   UNL     1      -7.342  -0.460 -34.796  1.00  0.00    -0.277 NA
HETATM   25  H   UNL     1      -8.067  -1.156 -34.632  1.00  0.00     0.129 HD
BRANCH  24  26
HETATM   26  C   UNL     1      -7.825   0.889 -34.493  1.00  0.00     0.093 C 
BRANCH  26  27
HETATM   27  C   UNL     1      -9.304   0.841 -34.105  1.00  0.00     0.010 C 
HETATM   28  C   UNL     1      -9.552   0.067 -32.819  1.00  0.00     0.006 C 
ENDBRANCH  26  27
ENDBRANCH  24  26
ENDBRANCH   1  24
TORSDOF 8
ENDMDL
MODEL 3
REMARK VINA RESULT:      -7.7      2.675      5.736
REMARK  8 active torsions:
REMARK  status: ('A' for Active; 'I' for Inactive)
REMARK    1  A    between atoms: C_2  and  C_3 
REMARK    2  A    between atoms: C_3  and  N_4 
REMARK    3  A    between atoms: N_4  and  C_5 
REMARK    4  A    between atoms: C_7  and  N_8 
REMARK    5  A    between atoms: N_8  and  C_9 
REMARK    6  A    between atoms: C_9  and  C_10 
REMARK    7  A    between atoms: C_10  and  C_11 
REMARK    8  A    between atoms: C_13  and  O_14 
ROOT
HETATM    1  C   UNL     1      -4.920  -0.799 -33.798  1.00  0.00     0.119 A 
HETATM    2  N   UNL     1      -5.945  -0.002 -34.156  1.00  0.00    -0.207 NA
HETATM    3  C   UNL     1      -6.996  -0.573 -34.755  1.00  0.00     0.181 A 
HETATM    4  N   UNL     1      -7.066  -1.870 -35.034  1.00  0.00    -0.330 N 
HETATM    5  H   UNL     1      -7.872  -2.189 -35.555  1.00  0.00     0.168 HD
HETATM    6  C   UNL     1      -6.089  -2.709 -34.674  1.00  0.00     0.048 A 
HETATM    7  C   UNL     1      -4.956  -2.195 -34.013  1.00  0.00     0.031 A 
HETATM    8  C   UNL     1      -6.204  -4.080 -34.945  1.00  0.00     0.030 A 
HETATM    9  C   UNL     1      -5.198  -4.960 -34.546  1.00  0.00     0.002 A 
HETATM   10  C   UNL     1      -4.079  -4.475 -33.878  1.00  0.00     0.001 A 
HETATM   11  C   UNL     1      -3.954  -3.109 -33.611  1.00  0.00     0.017 A 
ENDROOT
BRANCH   3  12
HETATM   12  N   UNL     1      -8.036   0.258 -35.151  1.00  0.00    -0.262 NA
HETATM   13  H   UNL     1      -7.679   0.734 -35.985  1.00  0.00     0.130 HD
BRANCH  12  14
HETATM   14  C   UNL     1      -8.471   1.225 -34.139  1.00  0.00     0.100 C 
BRANCH  14  15
HETATM   15  C   UNL     1      -9.595   0.632 -33.278  1.00  0.00     0.053 C 
BRANCH  15  16
HETATM   16  C   UNL     1     -10.951   1.028 -33.806  1.00  0.00    -0.054 A 
HETATM   17  C   UNL     1     -11.112   2.196 -34.573  1.00  0.00     0.044 A 
HETATM   18  C   UNL     1     -12.378   2.582 -35.020  1.00  0.00     0.068 A 
HETATM   19  C   UNL     1     -13.485   1.793 -34.704  1.00  0.00     0.037 A 
HETATM   20  C   UNL     1     -13.336   0.627 -33.956  1.00  0.00     0.003 A 
HETATM   21  C   UNL     1     -12.075   0.245 -33.506  1.00  0.00     0.007 A 
BRANCH  18  22
HETATM   22  O   UNL     1     -12.667   3.698 -35.752  1.00  0.00    -0.356 OA
HETATM   23  C   UNL     1     -12.815   4.923 -35.047  1.00  0.00     0.210 C 
ENDBRANCH  18  22
ENDBRANCH  15  16
ENDBRANCH  14  15
ENDBRANCH  12  14
ENDBRANCH   3  12
BRANCH   1  24
HETATM   24  N   UNL     1      -3.816  -0.232 -33.146  1.00  0.00    -0.277 NA
HETATM   25  H   UNL     1      -3.179   0.193 -33.817  1.00  0.00     0.129 HD
BRANCH  24  26
HETATM   26  C   UNL     1      -4.104   0.681 -32.038  1.00  0.00     0.093 C 
BRANCH  26  27
HETATM   27  C   UNL     1      -4.655  -0.102 -30.844  1.00  0.00     0.010 C 
HETATM   28  C   UNL     1      -6.042   0.363 -30.423  1.00  0.00     0.006 C 
ENDBRANCH  26  27
ENDBRANCH  24  26
ENDBRANCH   1  24
TORSDOF 8
ENDMDL
MODEL 4
REMARK VINA RESULT:      -7.3      1.455      3.706
REMARK  8 active torsions:
REMARK  status: ('A' for Active; 'I' for Inactive)
REMARK    1  A    between atoms: C_2  and  C_3 
REMARK    2  A    between atoms: C_3  and  N_4 
REMARK    3  A    between atoms: N_4  and  C_5 
REMARK    4  A    between atoms: C_7  and  N_8 
REMARK    5  A    between atoms: N_8  and  C_9 
REMARK    6  A    between atoms: C_9  and  C_10 
REMARK    7  A    between atoms: C_10  and  C_11 
REMARK    8  A    between atoms: C_13  and  O_14 
ROOT
HETATM    1  C   UNL     1      -4.578  -1.011 -33.719  1.00  0.00     0.119 A 
HETATM    2  N   UNL     1      -5.412   0.031 -33.905  1.00  0.00    -0.207 NA
HETATM    3  C   UNL     1      -6.597  -0.217 -34.472  1.00  0.00     0.181 A 
HETATM    4  N   UNL     1      -6.978  -1.422 -34.881  1.00  0.00    -0.330 N 
HETATM    5  H   UNL     1      -7.864  -1.488 -35.365  1.00  0.00     0.168 HD
HETATM    6  C   UNL     1      -6.201  -2.494 -34.694  1.00  0.00     0.048 A 
HETATM    7  C   UNL     1      -4.945  -2.327 -34.078  1.00  0.00     0.031 A 
HETATM    8  C   UNL     1      -6.642  -3.762 -35.100  1.00  0.00     0.030 A 
HETATM    9  C   UNL     1      -5.844  -4.883 -34.881  1.00  0.00     0.002 A 
HETATM   10  C   UNL     1      -4.607  -4.744 -34.260  1.00  0.00     0.001 A 
HETATM   11  C   UNL     1      -4.158  -3.482 -33.860  1.00  0.00     0.017 A 
ENDROOT
BRANCH   3  12
HETATM   12  N   UNL     1      -7.440   0.866 -34.690  1.00  0.00    -0.262 NA
HETATM   13  H   UNL     1      -6.933   1.453 -35.360  1.00  0.00     0.130 HD
BRANCH  12  14
HETATM   14  C   UNL     1      -7.791   1.625 -33.486  1.00  0.00     0.100 C 
BRANCH  14  15
HETATM   15  C   UNL     1      -7.438   3.107 -33.664  1.00  0.00     0.053 C 
BRANCH  15  16
HETATM   16  C   UNL     1      -6.288   3.505 -32.774  1.00  0.00    -0.054 A 
HETATM   17  C   UNL     1      -4.969   3.505 -33.260  1.00  0.00     0.044 A 
HETATM   18  C   UNL     1      -3.902   3.829 -32.418  1.00  0.00     0.068 A 
HETATM   19  C   UNL     1      -4.159   4.161 -31.086  1.00  0.00     0.037 A 
HETATM   20  C   UNL     1      -5.463   4.176 -30.596  1.00  0.00     0.003 A 
HETATM   21  C   UNL     1      -6.525   3.848 -31.435  1.00  0.00     0.007 A 
BRANCH  18  22
HETATM   22  O   UNL     1      -2.581   3.848 -32.763  1.00  0.00    -0.356 OA
HETATM   23  C   UNL     1      -2.200   4.679 -33.850  1.00  0.00     0.210 C 
ENDBRANCH  18  22
ENDBRANCH  15  16
ENDBRANCH  14  15
ENDBRANCH  12  14
ENDBRANCH   3  12
BRANCH   1  24
HETATM   24  N   UNL     1      -3.339  -0.786 -33.104  1.00  0.00    -0.277 NA
HETATM   25  H   UNL     1      -2.935   0.095 -33.415  1.00  0.00     0.129 HD
BRANCH  24  26
HETATM   26  C   UNL     1      -3.298  -0.901 -31.645  1.00  0.00     0.093 C 
BRANCH  26  27
HETATM   27  C   UNL     1      -3.642   0.444 -31.003  1.00  0.00     0.010 C 
HETATM   28  C   UNL     1      -5.044   0.476 -30.412  1.00  0.00     0.006 C 
ENDBRANCH  26  27
ENDBRANCH  24  26
ENDBRANCH   1  24
TORSDOF 8
ENDMDL
MODEL 5
REMARK VINA RESULT:      -7.3      3.606      7.213
REMARK  8 active torsions:
REMARK  status: ('A' for Active; 'I' for Inactive)
REMARK    1  A    between atoms: C_2  and  C_3 
REMARK    2  A    between atoms: C_3  and  N_4 
REMARK    3  A    between atoms: N_4  and  C_5 
REMARK    4  A    between atoms: C_7  and  N_8 
REMARK    5  A    between atoms: N_8  and  C_9 
REMARK    6  A    between atoms: C_9  and  C_10 
REMARK    7  A    between atoms: C_10  and  C_11 
REMARK    8  A    between atoms: C_13  and  O_14 
ROOT
HETATM    1  C   UNL     1     -11.040   2.708 -33.423  1.00  0.00     0.119 A 
HETATM    2  N   UNL     1      -9.837   2.228 -33.051  1.00  0.00    -0.207 NA
HETATM    3  C   UNL     1      -9.727   0.910 -32.859  1.00  0.00     0.181 A 
HETATM    4  N   UNL     1     -10.741   0.061 -32.989  1.00  0.00    -0.330 N 
HETATM    5  H   UNL     1     -10.569  -0.906 -32.749  1.00  0.00     0.168 HD
HETATM    6  C   UNL     1     -11.947   0.481 -33.384  1.00  0.00     0.048 A 
HETATM    7  C   UNL     1     -12.145   1.853 -33.635  1.00  0.00     0.031 A 
HETATM    8  C   UNL     1     -12.992  -0.440 -33.552  1.00  0.00     0.030 A 
HETATM    9  C   UNL     1     -14.243  -0.007 -33.989  1.00  0.00     0.002 A 
HETATM   10  C   UNL     1     -14.455   1.341 -34.259  1.00  0.00     0.001 A 
HETATM   11  C   UNL     1     -13.421   2.265 -34.086  1.00  0.00     0.017 A 
ENDROOT
BRANCH   3  12
HETATM   12  N   UNL     1      -8.492   0.425 -32.445  1.00  0.00    -0.262 NA
HETATM   13  H   UNL     1      -8.293   0.938 -31.580  1.00  0.00     0.130 HD
BRANCH  12  14
HETATM   14  C   UNL     1      -7.408   0.593 -33.417  1.00  0.00     0.100 C 
BRANCH  14  15
HETATM   15  C   UNL     1      -7.408  -0.564 -34.425  1.00  0.00     0.053 C 
BRANCH  15  16
HETATM   16  C   UNL     1      -6.266  -1.513 -34.165  1.00  0.00    -0.054 A 
HETATM   17  C   UNL     1      -5.255  -1.188 -33.243  1.00  0.00     0.044 A 
HETATM   18  C   UNL     1      -4.175  -2.050 -33.040  1.00  0.00     0.068 A 
HETATM   19  C   UNL     1      -4.110  -3.245 -33.757  1.00  0.00     0.037 A 
HETATM   20  C   UNL     1      -5.112  -3.585 -34.664  1.00  0.00     0.003 A 
HETATM   21  C   UNL     1      -6.186  -2.722 -34.870  1.00  0.00     0.007 A 
BRANCH  18  22
HETATM   22  O   UNL     1      -3.126  -1.840 -32.191  1.00  0.00    -0.356 OA
HETATM   23  C   UNL     1      -2.975  -0.536 -31.647  1.00  0.00     0.210 C 
ENDBRANCH  18  22
ENDBRANCH  15  16
ENDBRANCH  14  15
ENDBRANCH  12  14
ENDBRANCH   3  12
BRANCH   1  24
HETATM   24  N   UNL     1     -11.180   4.083 -33.655  1.00  0.00    -0.277 NA
HETATM   25  H   UNL     1     -10.794   4.621 -32.883  1.00  0.00     0.129 HD
BRANCH  24  26
HETATM   26  C   UNL     1     -10.697   4.583 -34.944  1.00  0.00     0.093 C 
BRANCH  26  27
HETATM   27  C   UNL     1     -11.471   5.842 -35.340  1.00  0.00     0.010 C 
HETATM   28  C   UNL     1     -12.934   5.562 -35.654  1.00  0.00     0.006 C 
ENDBRANCH  26  27
ENDBRANCH  24  26
ENDBRANCH   1  24
TORSDOF 8
ENDMDL
MODEL 6
REMARK VINA RESULT:      -7.3      2.226      2.818
REMARK  8 active torsions:
REMARK  status: ('A' for Active; 'I' for Inactive)
REMARK    1  A    between atoms: C_2  and  C_3 
REMARK    2  A    between atoms: C_3  and  N_4 
REMARK    3  A    between atoms: N_4  and  C_5 
REMARK    4  A    between atoms: C_7  and  N_8 
REMARK    5  A    between atoms: N_8  and  C_9 
REMARK    6  A    between atoms: C_9  and  C_10 
REMARK    7  A    between atoms: C_10  and  C_11 
REMARK    8  A    between atoms: C_13  and  O_14 
ROOT
HETATM    1  C   UNL     1      -6.345  -0.902 -34.186  1.00  0.00     0.119 A 
HETATM    2  N   UNL     1      -5.534   0.037 -33.659  1.00  0.00    -0.207 NA
HETATM    3  C   UNL     1      -4.325  -0.352 -33.240  1.00  0.00     0.181 A 
HETATM    4  N   UNL     1      -3.900  -1.610 -33.292  1.00  0.00    -0.330 N 
HETATM    5  H   UNL     1      -2.998  -1.811 -32.881  1.00  0.00     0.168 HD
HETATM    6  C   UNL     1      -4.653  -2.573 -33.832  1.00  0.00     0.048 A 
HETATM    7  C   UNL     1      -5.932  -2.245 -34.325  1.00  0.00     0.031 A 
HETATM    8  C   UNL     1      -4.165  -3.886 -33.911  1.00  0.00     0.030 A 
HETATM    9  C   UNL     1      -4.939  -4.886 -34.498  1.00  0.00     0.002 A 
HETATM   10  C   UNL     1      -6.198  -4.581 -35.006  1.00  0.00     0.001 A 
HETATM   11  C   UNL     1      -6.693  -3.276 -34.923  1.00  0.00     0.017 A 
ENDROOT
BRANCH   3  12
HETATM   12  N   UNL     1      -3.505   0.613 -32.668  1.00  0.00    -0.262 NA
HETATM   13  H   UNL     1      -3.029   0.123 -31.904  1.00  0.00     0.130 HD
BRANCH  12  14
HETATM   14  C   UNL     1      -4.207   1.802 -32.175  1.00  0.00     0.100 C 
BRANCH  14  15
HETATM   15  C   UNL     1      -4.703   1.575 -30.741  1.00  0.00     0.053 C 
BRANCH  15  16
HETATM   16  C   UNL     1      -5.826   2.521 -30.397  1.00  0.00    -0.054 A 
HETATM   17  C   UNL     1      -7.167   2.153 -30.607  1.00  0.00     0.044 A 
HETATM   18  C   UNL     1      -8.201   3.051 -30.331  1.00  0.00     0.068 A 
HETATM   19  C   UNL     1      -7.891   4.319 -29.836  1.00  0.00     0.037 A 
HETATM   20  C   UNL     1      -6.567   4.691 -29.611  1.00  0.00     0.003 A 
HETATM   21  C   UNL     1      -5.537   3.797 -29.892  1.00  0.00     0.007 A 
BRANCH  18  22
HETATM   22  O   UNL     1      -9.535   2.822 -30.508  1.00  0.00    -0.356 OA
HETATM   23  C   UNL     1     -10.387   3.955 -30.600  1.00  0.00     0.210 C 
ENDBRANCH  18  22
ENDBRANCH  15  16
ENDBRANCH  14  15
ENDBRANCH  12  14
ENDBRANCH   3  12
BRANCH   1  24
HETATM   24  N   UNL     1      -7.608  -0.519 -34.657  1.00  0.00    -0.277 NA
HETATM   25  H   UNL     1      -8.337  -1.101 -34.251  1.00  0.00     0.129 HD
BRANCH  24  26
HETATM   26  C   UNL     1      -7.945   0.902 -34.554  1.00  0.00     0.093 C 
BRANCH  26  27
HETATM   27  C   UNL     1      -9.309   1.070 -33.880  1.00  0.00     0.010 C 
HETATM   28  C   UNL     1      -9.546   0.059 -32.768  1.00  0.00     0.006 C 
ENDBRANCH  26  27
ENDBRANCH  24  26
ENDBRANCH   1  24
TORSDOF 8
ENDMDL
MODEL 7
REMARK VINA RESULT:      -7.3     14.235     16.281
REMARK  8 active torsions:
REMARK  status: ('A' for Active; 'I' for Inactive)
REMARK    1  A    between atoms: C_2  and  C_3 
REMARK    2  A    between atoms: C_3  and  N_4 
REMARK    3  A    between atoms: N_4  and  C_5 
REMARK    4  A    between atoms: C_7  and  N_8 
REMARK    5  A    between atoms: N_8  and  C_9 
REMARK    6  A    between atoms: C_9  and  C_10 
REMARK    7  A    between atoms: C_10  and  C_11 
REMARK    8  A    between atoms: C_13  and  O_14 
ROOT
HETATM    1  C   UNL     1      -5.506 -12.845 -37.245  1.00  0.00     0.119 A 
HETATM    2  N   UNL     1      -4.184 -12.631 -37.399  1.00  0.00    -0.207 NA
HETATM    3  C   UNL     1      -3.753 -12.260 -38.609  1.00  0.00     0.181 A 
HETATM    4  N   UNL     1      -4.551 -12.119 -39.662  1.00  0.00    -0.330 N 
HETATM    5  H   UNL     1      -4.114 -11.907 -40.549  1.00  0.00     0.168 HD
HETATM    6  C   UNL     1      -5.873 -12.290 -39.556  1.00  0.00     0.048 A 
HETATM    7  C   UNL     1      -6.416 -12.656 -38.309  1.00  0.00     0.031 A 
HETATM    8  C   UNL     1      -6.698 -12.097 -40.673  1.00  0.00     0.030 A 
HETATM    9  C   UNL     1      -8.079 -12.250 -40.557  1.00  0.00     0.002 A 
HETATM   10  C   UNL     1      -8.639 -12.594 -39.331  1.00  0.00     0.001 A 
HETATM   11  C   UNL     1      -7.821 -12.796 -38.216  1.00  0.00     0.017 A 
ENDROOT
BRANCH   3  12
HETATM   12  N   UNL     1      -2.386 -12.072 -38.771  1.00  0.00    -0.262 NA
HETATM   13  H   UNL     1      -2.294 -11.656 -39.703  1.00  0.00     0.130 HD
BRANCH  12  14
HETATM   14  C   UNL     1      -1.580 -13.291 -38.657  1.00  0.00     0.100 C 
BRANCH  14  15
HETATM   15  C   UNL     1      -0.721 -13.485 -39.914  1.00  0.00     0.053 C 
BRANCH  15  16
HETATM   16  C   UNL     1      -1.265 -14.593 -40.780  1.00  0.00    -0.054 A 
HETATM   17  C   UNL     1      -2.364 -14.369 -41.628  1.00  0.00     0.044 A 
HETATM   18  C   UNL     1      -2.894 -15.411 -42.394  1.00  0.00     0.068 A 
HETATM   19  C   UNL     1      -2.317 -16.680 -42.315  1.00  0.00     0.037 A 
HETATM   20  C   UNL     1      -1.219 -16.911 -41.487  1.00  0.00     0.003 A 
HETATM   21  C   UNL     1      -0.695 -15.873 -40.721  1.00  0.00     0.007 A 
BRANCH  18  22
HETATM   22  O   UNL     1      -3.965 -15.327 -43.238  1.00  0.00    -0.356 OA
HETATM   23  C   UNL     1      -4.878 -14.258 -43.031  1.00  0.00     0.210 C 
ENDBRANCH  18  22
ENDBRANCH  15  16
ENDBRANCH  14  15
ENDBRANCH  12  14
ENDBRANCH   3  12
BRANCH   1  24
HETATM   24  N   UNL     1      -5.991 -13.210 -35.982  1.00  0.00    -0.277 NA
HETATM   25  H   UNL     1      -6.607 -14.017 -36.051  1.00  0.00     0.129 HD
BRANCH  24  26
HETATM   26  C   UNL     1      -4.995 -13.393 -34.923  1.00  0.00     0.093 C 
BRANCH  26  27
HETATM   27  C   UNL     1      -5.501 -12.778 -33.617  1.00  0.00     0.010 C 
HETATM   28  C   UNL     1      -5.573 -13.786 -32.479  1.00  0.00     0.006 C 
ENDBRANCH  26  27
ENDBRANCH  24  26
ENDBRANCH   1  24
TORSDOF 8
ENDMDL
MODEL 8
REMARK VINA RESULT:      -7.2      2.924      3.633
REMARK  8 active torsions:
REMARK  status: ('A' for Active; 'I' for Inactive)
REMARK    1  A    between atoms: C_2  and  C_3 
REMARK    2  A    between atoms: C_3  and  N_4 
REMARK    3  A    between atoms: N_4  and  C_5 
REMARK    4  A    between atoms: C_7  and  N_8 
REMARK    5  A    between atoms: N_8  and  C_9 
REMARK    6  A    between atoms: C_9  and  C_10 
REMARK    7  A    between atoms: C_10  and  C_11 
REMARK    8  A    between atoms: C_13  and  O_14 
ROOT
HETATM    1  C   UNL     1      -6.155   0.849 -33.029  1.00  0.00     0.119 A 
HETATM    2  N   UNL     1      -5.224   1.612 -32.422  1.00  0.00    -0.207 NA
HETATM    3  C   UNL     1      -3.994   1.104 -32.292  1.00  0.00     0.181 A 
HETATM    4  N   UNL     1      -3.655  -0.113 -32.704  1.00  0.00    -0.330 N 
HETATM    5  H   UNL     1      -2.718  -0.429 -32.491  1.00  0.00     0.168 HD
HETATM    6  C   UNL     1      -4.532  -0.898 -33.338  1.00  0.00     0.048 A 
HETATM    7  C   UNL     1      -5.845  -0.430 -33.542  1.00  0.00     0.031 A 
HETATM    8  C   UNL     1      -4.138  -2.163 -33.798  1.00  0.00     0.030 A 
HETATM    9  C   UNL     1      -5.044  -2.972 -34.483  1.00  0.00     0.002 A 
HETATM   10  C   UNL     1      -6.341  -2.522 -34.710  1.00  0.00     0.001 A 
HETATM   11  C   UNL     1      -6.742  -1.266 -34.247  1.00  0.00     0.017 A 
ENDROOT
BRANCH   3  12
HETATM   12  N   UNL     1      -3.047   1.881 -31.637  1.00  0.00    -0.262 NA
HETATM   13  H   UNL     1      -2.985   1.471 -30.699  1.00  0.00     0.130 HD
BRANCH  12  14
HETATM   14  C   UNL     1      -3.368   3.310 -31.566  1.00  0.00     0.100 C 
BRANCH  14  15
HETATM   15  C   UNL     1      -2.405   4.120 -32.445  1.00  0.00     0.053 C 
BRANCH  15  16
HETATM   16  C   UNL     1      -1.649   5.139 -31.630  1.00  0.00    -0.054 A 
HETATM   17  C   UNL     1      -2.325   5.996 -30.743  1.00  0.00     0.044 A 
HETATM   18  C   UNL     1      -1.627   6.969 -30.026  1.00  0.00     0.068 A 
HETATM   19  C   UNL     1      -0.245   7.081 -30.192  1.00  0.00     0.037 A 
HETATM   20  C   UNL     1       0.438   6.230 -31.058  1.00  0.00     0.003 A 
HETATM   21  C   UNL     1      -0.261   5.263 -31.777  1.00  0.00     0.007 A 
BRANCH  18  22
HETATM   22  O   UNL     1      -2.168   7.869 -29.152  1.00  0.00    -0.356 OA
HETATM   23  C   UNL     1      -1.351   8.959 -28.747  1.00  0.00     0.210 C 
ENDBRANCH  18  22
ENDBRANCH  15  16
ENDBRANCH  14  15
ENDBRANCH  12  14
ENDBRANCH   3  12
BRANCH   1  24
HETATM   24  N   UNL     1      -7.447   1.365 -33.202  1.00  0.00    -0.277 NA
HETATM   25  H   UNL     1      -8.031   0.711 -33.719  1.00  0.00     0.129 HD
BRANCH  24  26
HETATM   26  C   UNL     1      -8.128   1.847 -31.999  1.00  0.00     0.093 C 
BRANCH  26  27
HETATM   27  C   UNL     1      -9.545   1.273 -31.933  1.00  0.00     0.010 C 
HETATM   28  C   UNL     1      -9.824   0.263 -33.036  1.00  0.00     0.006 C 
ENDBRANCH  26  27
ENDBRANCH  24  26
ENDBRANCH   1  24
TORSDOF 8
ENDMDL
MODEL 9
REMARK VINA RESULT:      -7.1     14.442     15.985
REMARK  8 active torsions:
REMARK  status: ('A' for Active; 'I' for Inactive)
REMARK    1  A    between atoms: C_2  and  C_3 
REMARK    2  A    between atoms: C_3  and  N_4 
REMARK    3  A    between atoms: N_4  and  C_5 
REMARK    4  A    between atoms: C_7  and  N_8 
REMARK    5  A    between atoms: N_8  and  C_9 
REMARK    6  A    between atoms: C_9  and  C_10 
REMARK    7  A    between atoms: C_10  and  C_11 
REMARK    8  A    between atoms: C_13  and  O_14 
ROOT
HETATM    1  C   UNL     1      -3.629 -13.255 -39.529  1.00  0.00     0.119 A 
HETATM    2  N   UNL     1      -4.295 -12.852 -38.429  1.00  0.00    -0.207 NA
HETATM    3  C   UNL     1      -3.647 -12.893 -37.261  1.00  0.00     0.181 A 
HETATM    4  N   UNL     1      -2.400 -13.333 -37.128  1.00  0.00    -0.330 N 
HETATM    5  H   UNL     1      -2.028 -13.393 -36.190  1.00  0.00     0.168 HD
HETATM    6  C   UNL     1      -1.685 -13.717 -38.191  1.00  0.00     0.048 A 
HETATM    7  C   UNL     1      -2.283 -13.679 -39.466  1.00  0.00     0.031 A 
HETATM    8  C   UNL     1      -0.358 -14.140 -38.029  1.00  0.00     0.030 A 
HETATM    9  C   UNL     1       0.397 -14.515 -39.139  1.00  0.00     0.002 A 
HETATM   10  C   UNL     1      -0.168 -14.469 -40.410  1.00  0.00     0.001 A 
HETATM   11  C   UNL     1      -1.492 -14.056 -40.577  1.00  0.00     0.017 A 
ENDROOT
BRANCH   3  12
HETATM   12  N   UNL     1      -4.349 -12.507 -36.126  1.00  0.00    -0.262 NA
HETATM   13  H   UNL     1      -3.713 -11.869 -35.637  1.00  0.00     0.130 HD
BRANCH  12  14
HETATM   14  C   UNL     1      -4.761 -13.610 -35.252  1.00  0.00     0.100 C 
BRANCH  14  15
HETATM   15  C   UNL     1      -6.279 -13.583 -35.034  1.00  0.00     0.053 C 
BRANCH  15  16
HETATM   16  C   UNL     1      -7.012 -14.139 -36.229  1.00  0.00    -0.054 A 
HETATM   17  C   UNL     1      -7.856 -13.321 -37.001  1.00  0.00     0.044 A 
HETATM   18  C   UNL     1      -8.568 -13.853 -38.078  1.00  0.00     0.068 A 
HETATM   19  C   UNL     1      -8.429 -15.206 -38.389  1.00  0.00     0.037 A 
HETATM   20  C   UNL     1      -7.586 -16.025 -37.640  1.00  0.00     0.003 A 
HETATM   21  C   UNL     1      -6.880 -15.495 -36.562  1.00  0.00     0.007 A 
BRANCH  18  22
HETATM   22  O   UNL     1      -9.430 -13.170 -38.889  1.00  0.00    -0.356 OA
HETATM   23  C   UNL     1     -10.140 -13.919 -39.866  1.00  0.00     0.210 C 
ENDBRANCH  18  22
ENDBRANCH  15  16
ENDBRANCH  14  15
ENDBRANCH  12  14
ENDBRANCH   3  12
BRANCH   1  24
HETATM   24  N   UNL     1      -4.275 -13.199 -40.772  1.00  0.00    -0.277 NA
HETATM   25  H   UNL     1      -3.597 -13.168 -41.530  1.00  0.00     0.129 HD
BRANCH  24  26
HETATM   26  C   UNL     1      -5.305 -14.209 -41.023  1.00  0.00     0.093 C 
BRANCH  26  27
HETATM   27  C   UNL     1      -6.636 -13.530 -41.349  1.00  0.00     0.010 C 
HETATM   28  C   UNL     1      -6.715 -12.104 -40.824  1.00  0.00     0.006 C 
ENDBRANCH  26  27
ENDBRANCH  24  26
ENDBRANCH   1  24
TORSDOF 8
ENDMDL
MODEL 10
REMARK VINA RESULT:      -7.0      3.780      7.076
REMARK  8 active torsions:
REMARK  status: ('A' for Active; 'I' for Inactive)
REMARK    1  A    between atoms: C_2  and  C_3 
REMARK    2  A    between atoms: C_3  and  N_4 
REMARK    3  A    between atoms: N_4  and  C_5 
REMARK    4  A    between atoms: C_7  and  N_8 
REMARK    5  A    between atoms: N_8  and  C_9 
REMARK    6  A    between atoms: C_9  and  C_10 
REMARK    7  A    between atoms: C_10  and  C_11 
REMARK    8  A    between atoms: C_13  and  O_14 
ROOT
HETATM    1  C   UNL     1      -6.596   0.457 -31.607  1.00  0.00     0.119 A 
HETATM    2  N   UNL     1      -7.874   0.872 -31.509  1.00  0.00    -0.207 NA
HETATM    3  C   UNL     1      -8.754   0.386 -32.390  1.00  0.00     0.181 A 
HETATM    4  N   UNL     1      -8.428  -0.457 -33.365  1.00  0.00    -0.330 N 
HETATM    5  H   UNL     1      -9.154  -0.706 -34.023  1.00  0.00     0.168 HD
HETATM    6  C   UNL     1      -7.181  -0.923 -33.488  1.00  0.00     0.048 A 
HETATM    7  C   UNL     1      -6.195  -0.483 -32.583  1.00  0.00     0.031 A 
HETATM    8  C   UNL     1      -6.871  -1.842 -34.501  1.00  0.00     0.030 A 
HETATM    9  C   UNL     1      -5.577  -2.348 -34.614  1.00  0.00     0.002 A 
HETATM   10  C   UNL     1      -4.592  -1.940 -33.721  1.00  0.00     0.001 A 
HETATM   11  C   UNL     1      -4.893  -1.018 -32.714  1.00  0.00     0.017 A 
ENDROOT
BRANCH   3  12
HETATM   12  N   UNL     1     -10.064   0.842 -32.305  1.00  0.00    -0.262 NA
HETATM   13  H   UNL     1     -10.632   0.047 -32.615  1.00  0.00     0.130 HD
BRANCH  12  14
HETATM   14  C   UNL     1     -10.352   2.037 -33.103  1.00  0.00     0.100 C 
BRANCH  14  15
HETATM   15  C   UNL     1     -11.212   1.674 -34.321  1.00  0.00     0.053 C 
BRANCH  15  16
HETATM   16  C   UNL     1     -12.678   1.653 -33.966  1.00  0.00    -0.054 A 
HETATM   17  C   UNL     1     -13.210   2.582 -33.054  1.00  0.00     0.044 A 
HETATM   18  C   UNL     1     -14.559   2.529 -32.693  1.00  0.00     0.068 A 
HETATM   19  C   UNL     1     -15.378   1.546 -33.251  1.00  0.00     0.037 A 
HETATM   20  C   UNL     1     -14.865   0.628 -34.165  1.00  0.00     0.003 A 
HETATM   21  C   UNL     1     -13.519   0.679 -34.521  1.00  0.00     0.007 A 
BRANCH  18  22
HETATM   22  O   UNL     1     -15.189   3.358 -31.809  1.00  0.00    -0.356 OA
HETATM   23  C   UNL     1     -14.654   4.663 -31.641  1.00  0.00     0.210 C 
ENDBRANCH  18  22
ENDBRANCH  15  16
ENDBRANCH  14  15
ENDBRANCH  12  14
ENDBRANCH   3  12
BRANCH   1  24
HETATM   24  N   UNL     1      -5.656   0.931 -30.682  1.00  0.00    -0.277 NA
HETATM   25  H   UNL     1      -4.927   0.239 -30.521  1.00  0.00     0.129 HD
BRANCH  24  26
HETATM   26  C   UNL     1      -5.084   2.253 -30.944  1.00  0.00     0.093 C 
BRANCH  26  27
HETATM   27  C   UNL     1      -5.609   3.264 -29.923  1.00  0.00     0.010 C 
HETATM   28  C   UNL     1      -6.679   4.181 -30.497  1.00  0.00     0.006 C 
ENDBRANCH  26  27
ENDBRANCH  24  26
ENDBRANCH   1  24
TORSDOF 8
ENDMDL
