MODEL 1
REMARK VINA RESULT:      -9.6      0.000      0.000
REMARK  4 active torsions:
REMARK  status: ('A' for Active; 'I' for Inactive)
REMARK    1  A    between atoms: C_5  and  C_6 
REMARK    2  A    between atoms: C_7  and  C_8 
REMARK       I    between atoms: C_8  and  N_9 
REMARK    3  A    between atoms: N_9  and  C_10 
REMARK    4  A    between atoms: C_17  and  C_18 
REMARK       I    between atoms: C_18  and  N_19 
ROOT
HETATM    1  C   UNL     1      -4.867   2.125 -31.662  1.00  0.00     0.245 C 
HETATM    2  N   UNL     1      -4.264   2.864 -32.659  1.00  0.00    -0.324 N 
HETATM    3  O   UNL     1      -4.884   2.367 -30.463  1.00  0.00    -0.268 OA
HETATM    4  H   UNL     1      -4.319   2.498 -33.600  1.00  0.00     0.169 HD
ENDROOT
BRANCH   2   5
HETATM    5  C   UNL     1      -3.506   4.047 -32.509  1.00  0.00     0.035 A 
HETATM    6  C   UNL     1      -2.289   4.112 -31.817  1.00  0.00     0.046 A 
HETATM    7  C   UNL     1      -1.592   5.339 -31.743  1.00  0.00     0.030 A 
HETATM    8  C   UNL     1      -2.136   6.457 -32.361  1.00  0.00     0.063 A 
HETATM    9  C   UNL     1      -0.372   5.796 -31.159  1.00  0.00     0.156 A 
HETATM   10  N   UNL     1      -1.247   7.469 -32.129  1.00  0.00    -0.277 N 
HETATM   11  C   UNL     1      -3.349   6.433 -33.050  1.00  0.00     0.034 A 
HETATM   12  H   UNL     1      -1.318   8.431 -32.439  1.00  0.00     0.189 HD
HETATM   13  N   UNL     1      -0.172   7.111 -31.409  1.00  0.00    -0.168 NA
HETATM   14  C   UNL     1      -4.022   5.206 -33.108  1.00  0.00     0.032 A 
BRANCH   9  15
HETATM   15  C   UNL     1       0.599   5.016 -30.379  1.00  0.00     0.270 C 
HETATM   16  N   UNL     1       0.403   5.074 -29.025  1.00  0.00    -0.365 N 
HETATM   17  H   UNL     1      -0.367   5.627 -28.670  1.00  0.00     0.159 HD
HETATM   18  H   UNL     1       1.020   4.567 -28.410  1.00  0.00     0.159 HD
HETATM   19  O   UNL     1       1.516   4.358 -30.858  1.00  0.00    -0.266 OA
ENDBRANCH   9  15
ENDBRANCH   2   5
BRANCH   1  20
HETATM   20  C   UNL     1      -5.512   0.895 -32.202  1.00  0.00     0.075 C 
HETATM   21  C   UNL     1      -4.866   0.166 -33.125  1.00  0.00     0.018 C 
BRANCH  21  22
HETATM   22  C   UNL     1      -5.419  -1.056 -33.736  1.00  0.00    -0.025 A 
HETATM   23  C   UNL     1      -4.792  -2.324 -33.565  1.00  0.00    -0.016 A 
HETATM   24  C   UNL     1      -5.335  -3.449 -34.239  1.00  0.00    -0.025 A 
HETATM   25  C   UNL     1      -3.652  -2.538 -32.753  1.00  0.00     0.013 A 
HETATM   26  C   UNL     1      -4.735  -4.711 -34.100  1.00  0.00     0.012 A 
HETATM   27  C   UNL     1      -6.471  -3.298 -35.050  1.00  0.00     0.012 A 
HETATM   28  C   UNL     1      -3.606  -4.886 -33.301  1.00  0.00     0.001 A 
HETATM   29  C   UNL     1      -3.067  -3.800 -32.625  1.00  0.00     0.001 A 
HETATM   30  C   UNL     1      -7.074  -2.055 -35.211  1.00  0.00     0.002 A 
HETATM   31  C   UNL     1      -6.547  -0.941 -34.564  1.00  0.00     0.012 A 
ENDBRANCH  21  22
ENDBRANCH   1  20
TORSDOF 4
ENDMDL
MODEL 2
REMARK VINA RESULT:      -9.4      6.335      9.368
REMARK  4 active torsions:
REMARK  status: ('A' for Active; 'I' for Inactive)
REMARK    1  A    between atoms: C_5  and  C_6 
REMARK    2  A    between atoms: C_7  and  C_8 
REMARK       I    between atoms: C_8  and  N_9 
REMARK    3  A    between atoms: N_9  and  C_10 
REMARK    4  A    between atoms: C_17  and  C_18 
REMARK       I    between atoms: C_18  and  N_19 
ROOT
HETATM    1  C   UNL     1      -9.646   1.505 -34.294  1.00  0.00     0.245 C 
HETATM    2  N   UNL     1     -10.692   0.718 -33.859  1.00  0.00    -0.324 N 
HETATM    3  O   UNL     1      -9.663   2.706 -34.525  1.00  0.00    -0.268 OA
HETATM    4  H   UNL     1     -10.511  -0.270 -33.751  1.00  0.00     0.169 HD
ENDROOT
BRANCH   2   5
HETATM    5  C   UNL     1     -12.024   1.123 -33.615  1.00  0.00     0.035 A 
HETATM    6  C   UNL     1     -12.375   2.171 -32.753  1.00  0.00     0.046 A 
HETATM    7  C   UNL     1     -13.735   2.519 -32.593  1.00  0.00     0.030 A 
HETATM    8  C   UNL     1     -14.696   1.806 -33.299  1.00  0.00     0.063 A 
HETATM    9  C   UNL     1     -14.470   3.486 -31.842  1.00  0.00     0.156 A 
HETATM   10  N   UNL     1     -15.893   2.369 -32.952  1.00  0.00    -0.277 N 
HETATM   11  C   UNL     1     -14.385   0.752 -34.157  1.00  0.00     0.034 A 
HETATM   12  H   UNL     1     -16.814   2.103 -33.281  1.00  0.00     0.189 HD
HETATM   13  N   UNL     1     -15.798   3.383 -32.077  1.00  0.00    -0.168 NA
HETATM   14  C   UNL     1     -13.030   0.425 -34.298  1.00  0.00     0.032 A 
BRANCH   9  15
HETATM   15  C   UNL     1     -13.939   4.499 -30.918  1.00  0.00     0.270 C 
HETATM   16  N   UNL     1     -13.052   4.007 -30.000  1.00  0.00    -0.365 N 
HETATM   17  H   UNL     1     -12.831   3.018 -30.021  1.00  0.00     0.159 HD
HETATM   18  H   UNL     1     -12.634   4.629 -29.327  1.00  0.00     0.159 HD
HETATM   19  O   UNL     1     -14.237   5.688 -30.937  1.00  0.00    -0.266 OA
ENDBRANCH   9  15
ENDBRANCH   2   5
BRANCH   1  20
HETATM   20  C   UNL     1      -8.408   0.704 -34.513  1.00  0.00     0.075 C 
HETATM   21  C   UNL     1      -8.058  -0.223 -33.607  1.00  0.00     0.018 C 
BRANCH  21  22
HETATM   22  C   UNL     1      -6.848  -1.058 -33.716  1.00  0.00    -0.025 A 
HETATM   23  C   UNL     1      -5.710  -0.833 -32.889  1.00  0.00    -0.016 A 
HETATM   24  C   UNL     1      -4.551  -1.627 -33.095  1.00  0.00    -0.025 A 
HETATM   25  C   UNL     1      -5.661   0.138 -31.861  1.00  0.00     0.013 A 
HETATM   26  C   UNL     1      -3.409  -1.424 -32.304  1.00  0.00     0.012 A 
HETATM   27  C   UNL     1      -4.546  -2.612 -34.094  1.00  0.00     0.012 A 
HETATM   28  C   UNL     1      -3.390  -0.451 -31.306  1.00  0.00     0.001 A 
HETATM   29  C   UNL     1      -4.517   0.328 -31.082  1.00  0.00     0.001 A 
HETATM   30  C   UNL     1      -5.663  -2.822 -34.897  1.00  0.00     0.002 A 
HETATM   31  C   UNL     1      -6.803  -2.046 -34.714  1.00  0.00     0.012 A 
ENDBRANCH  21  22
ENDBRANCH   1  20
TORSDOF 4
ENDMDL
MODEL 3
REMARK VINA RESULT:      -9.2      1.908      2.153
REMARK  4 active torsions:
REMARK  status: ('A' for Active; 'I' for Inactive)
REMARK    1  A    between atoms: C_5  and  C_6 
REMARK    2  A    between atoms: C_7  and  C_8 
REMARK       I    between atoms: C_8  and  N_9 
REMARK    3  A    between atoms: N_9  and  C_10 
REMARK    4  A    between atoms: C_17  and  C_18 
REMARK       I    between atoms: C_18  and  N_19 
ROOT
HETATM    1  C   UNL     1      -3.715   1.828 -31.925  1.00  0.00     0.245 C 
HETATM    2  N   UNL     1      -3.853   3.095 -32.454  1.00  0.00    -0.324 N 
HETATM    3  O   UNL     1      -2.892   1.450 -31.104  1.00  0.00    -0.268 OA
HETATM    4  H   UNL     1      -4.571   3.226 -33.154  1.00  0.00     0.169 HD
ENDROOT
BRANCH   2   5
HETATM    5  C   UNL     1      -3.051   4.227 -32.185  1.00  0.00     0.035 A 
HETATM    6  C   UNL     1      -3.230   5.064 -31.075  1.00  0.00     0.046 A 
HETATM    7  C   UNL     1      -2.359   6.159 -30.878  1.00  0.00     0.030 A 
HETATM    8  C   UNL     1      -1.342   6.381 -31.798  1.00  0.00     0.063 A 
HETATM    9  C   UNL     1      -2.214   7.199 -29.911  1.00  0.00     0.156 A 
HETATM   10  N   UNL     1      -0.675   7.484 -31.344  1.00  0.00    -0.277 N 
HETATM   11  C   UNL     1      -1.141   5.576 -32.920  1.00  0.00     0.034 A 
HETATM   12  H   UNL     1       0.131   7.930 -31.766  1.00  0.00     0.189 HD
HETATM   13  N   UNL     1      -1.170   8.005 -30.210  1.00  0.00    -0.168 NA
HETATM   14  C   UNL     1      -2.017   4.498 -33.094  1.00  0.00     0.032 A 
BRANCH   9  15
HETATM   15  C   UNL     1      -3.039   7.438 -28.718  1.00  0.00     0.270 C 
HETATM   16  N   UNL     1      -2.684   6.682 -27.633  1.00  0.00    -0.365 N 
HETATM   17  H   UNL     1      -1.908   6.038 -27.724  1.00  0.00     0.159 HD
HETATM   18  H   UNL     1      -3.193   6.781 -26.769  1.00  0.00     0.159 HD
HETATM   19  O   UNL     1      -3.969   8.235 -28.657  1.00  0.00    -0.266 OA
ENDBRANCH   9  15
ENDBRANCH   2   5
BRANCH   1  20
HETATM   20  C   UNL     1      -4.702   0.877 -32.509  1.00  0.00     0.075 C 
HETATM   21  C   UNL     1      -4.261  -0.223 -33.137  1.00  0.00     0.018 C 
BRANCH  21  22
HETATM   22  C   UNL     1      -5.149  -1.220 -33.763  1.00  0.00    -0.025 A 
HETATM   23  C   UNL     1      -4.807  -2.603 -33.804  1.00  0.00    -0.016 A 
HETATM   24  C   UNL     1      -5.672  -3.498 -34.485  1.00  0.00    -0.025 A 
HETATM   25  C   UNL     1      -3.650  -3.147 -33.197  1.00  0.00     0.013 A 
HETATM   26  C   UNL     1      -5.359  -4.866 -34.552  1.00  0.00     0.012 A 
HETATM   27  C   UNL     1      -6.840  -3.016 -35.095  1.00  0.00     0.012 A 
HETATM   28  C   UNL     1      -4.205  -5.369 -33.953  1.00  0.00     0.001 A 
HETATM   29  C   UNL     1      -3.352  -4.510 -33.273  1.00  0.00     0.001 A 
HETATM   30  C   UNL     1      -7.163  -1.663 -35.052  1.00  0.00     0.002 A 
HETATM   31  C   UNL     1      -6.320  -0.771 -34.396  1.00  0.00     0.012 A 
ENDBRANCH  21  22
ENDBRANCH   1  20
TORSDOF 4
ENDMDL
MODEL 4
REMARK VINA RESULT:      -9.2      6.229      7.913
REMARK  4 active torsions:
REMARK  status: ('A' for Active; 'I' for Inactive)
REMARK    1  A    between atoms: C_5  and  C_6 
REMARK    2  A    between atoms: C_7  and  C_8 
REMARK       I    between atoms: C_8  and  N_9 
REMARK    3  A    between atoms: N_9  and  C_10 
REMARK    4  A    between atoms: C_17  and  C_18 
REMARK       I    between atoms: C_18  and  N_19 
ROOT
HETATM    1  C   UNL     1      -8.574   0.603 -34.034  1.00  0.00     0.245 C 
HETATM    2  N   UNL     1      -9.895   0.578 -33.636  1.00  0.00    -0.324 N 
HETATM    3  O   UNL     1      -7.976   1.525 -34.572  1.00  0.00    -0.268 OA
HETATM    4  H   UNL     1     -10.238  -0.285 -33.236  1.00  0.00     0.169 HD
ENDROOT
BRANCH   2   5
HETATM    5  C   UNL     1     -10.855   1.602 -33.792  1.00  0.00     0.035 A 
HETATM    6  C   UNL     1     -10.999   2.678 -32.905  1.00  0.00     0.046 A 
HETATM    7  C   UNL     1     -11.974   3.668 -33.160  1.00  0.00     0.030 A 
HETATM    8  C   UNL     1     -12.774   3.547 -34.290  1.00  0.00     0.063 A 
HETATM    9  C   UNL     1     -12.412   4.871 -32.527  1.00  0.00     0.156 A 
HETATM   10  N   UNL     1     -13.597   4.637 -34.272  1.00  0.00    -0.277 N 
HETATM   11  C   UNL     1     -12.666   2.485 -35.188  1.00  0.00     0.034 A 
HETATM   12  H   UNL     1     -14.311   4.878 -34.950  1.00  0.00     0.189 HD
HETATM   13  N   UNL     1     -13.410   5.458 -33.226  1.00  0.00    -0.168 NA
HETATM   14  C   UNL     1     -11.693   1.515 -34.913  1.00  0.00     0.032 A 
BRANCH   9  15
HETATM   15  C   UNL     1     -11.903   5.469 -31.284  1.00  0.00     0.270 C 
HETATM   16  N   UNL     1     -12.206   4.756 -30.156  1.00  0.00    -0.365 N 
HETATM   17  H   UNL     1     -12.738   3.899 -30.253  1.00  0.00     0.159 HD
HETATM   18  H   UNL     1     -11.895   5.088 -29.257  1.00  0.00     0.159 HD
HETATM   19  O   UNL     1     -11.258   6.510 -31.221  1.00  0.00    -0.266 OA
ENDBRANCH   9  15
ENDBRANCH   2   5
BRANCH   1  20
HETATM   20  C   UNL     1      -7.894  -0.696 -33.769  1.00  0.00     0.075 C 
HETATM   21  C   UNL     1      -7.006  -1.165 -34.659  1.00  0.00     0.018 C 
BRANCH  21  22
HETATM   22  C   UNL     1      -6.289  -2.445 -34.504  1.00  0.00    -0.025 A 
HETATM   23  C   UNL     1      -5.150  -2.563 -33.656  1.00  0.00    -0.016 A 
HETATM   24  C   UNL     1      -4.464  -3.804 -33.608  1.00  0.00    -0.025 A 
HETATM   25  C   UNL     1      -4.656  -1.512 -32.846  1.00  0.00     0.013 A 
HETATM   26  C   UNL     1      -3.331  -3.952 -32.790  1.00  0.00     0.012 A 
HETATM   27  C   UNL     1      -4.916  -4.885 -34.381  1.00  0.00     0.012 A 
HETATM   28  C   UNL     1      -2.864  -2.893 -32.013  1.00  0.00     0.001 A 
HETATM   29  C   UNL     1      -3.528  -1.674 -32.039  1.00  0.00     0.001 A 
HETATM   30  C   UNL     1      -6.028  -4.757 -35.207  1.00  0.00     0.002 A 
HETATM   31  C   UNL     1      -6.706  -3.544 -35.273  1.00  0.00     0.012 A 
ENDBRANCH  21  22
ENDBRANCH   1  20
TORSDOF 4
ENDMDL
MODEL 5
REMARK VINA RESULT:      -9.1      5.493      8.643
REMARK  4 active torsions:
REMARK  status: ('A' for Active; 'I' for Inactive)
REMARK    1  A    between atoms: C_5  and  C_6 
REMARK    2  A    between atoms: C_7  and  C_8 
REMARK       I    between atoms: C_8  and  N_9 
REMARK    3  A    between atoms: N_9  and  C_10 
REMARK    4  A    between atoms: C_17  and  C_18 
REMARK       I    between atoms: C_18  and  N_19 
ROOT
HETATM    1  C   UNL     1      -7.484   2.054 -33.415  1.00  0.00     0.245 C 
HETATM    2  N   UNL     1      -8.608   1.554 -32.790  1.00  0.00    -0.324 N 
HETATM    3  O   UNL     1      -7.379   3.109 -34.026  1.00  0.00    -0.268 OA
HETATM    4  H   UNL     1      -8.526   0.644 -32.358  1.00  0.00     0.169 HD
ENDROOT
BRANCH   2   5
HETATM    5  C   UNL     1      -9.894   2.137 -32.746  1.00  0.00     0.035 A 
HETATM    6  C   UNL     1     -11.059   1.488 -33.176  1.00  0.00     0.046 A 
HETATM    7  C   UNL     1     -12.306   2.146 -33.068  1.00  0.00     0.030 A 
HETATM    8  C   UNL     1     -12.343   3.429 -32.537  1.00  0.00     0.063 A 
HETATM    9  C   UNL     1     -13.664   1.835 -33.378  1.00  0.00     0.156 A 
HETATM   10  N   UNL     1     -13.661   3.790 -32.552  1.00  0.00    -0.277 N 
HETATM   11  C   UNL     1     -11.203   4.109 -32.109  1.00  0.00     0.034 A 
HETATM   12  H   UNL     1     -14.060   4.665 -32.232  1.00  0.00     0.189 HD
HETATM   13  N   UNL     1     -14.488   2.858 -33.051  1.00  0.00    -0.168 NA
HETATM   14  C   UNL     1      -9.979   3.437 -32.227  1.00  0.00     0.032 A 
BRANCH   9  15
HETATM   15  C   UNL     1     -14.191   0.597 -33.971  1.00  0.00     0.270 C 
HETATM   16  N   UNL     1     -13.702  -0.547 -33.400  1.00  0.00    -0.365 N 
HETATM   17  H   UNL     1     -13.039  -0.464 -32.639  1.00  0.00     0.159 HD
HETATM   18  H   UNL     1     -14.010  -1.444 -33.740  1.00  0.00     0.159 HD
HETATM   19  O   UNL     1     -14.998   0.551 -34.892  1.00  0.00    -0.266 OA
ENDBRANCH   9  15
ENDBRANCH   2   5
BRANCH   1  20
HETATM   20  C   UNL     1      -6.331   1.117 -33.309  1.00  0.00     0.075 C 
HETATM   21  C   UNL     1      -6.551  -0.205 -33.379  1.00  0.00     0.018 C 
BRANCH  21  22
HETATM   22  C   UNL     1      -5.487  -1.220 -33.270  1.00  0.00    -0.025 A 
HETATM   23  C   UNL     1      -5.600  -2.490 -33.905  1.00  0.00    -0.016 A 
HETATM   24  C   UNL     1      -4.572  -3.447 -33.700  1.00  0.00    -0.025 A 
HETATM   25  C   UNL     1      -6.680  -2.861 -34.742  1.00  0.00     0.013 A 
HETATM   26  C   UNL     1      -4.657  -4.712 -34.304  1.00  0.00     0.012 A 
HETATM   27  C   UNL     1      -3.471  -3.130 -32.890  1.00  0.00     0.012 A 
HETATM   28  C   UNL     1      -5.740  -5.050 -35.114  1.00  0.00     0.001 A 
HETATM   29  C   UNL     1      -6.750  -4.124 -35.335  1.00  0.00     0.001 A 
HETATM   30  C   UNL     1      -3.373  -1.887 -32.272  1.00  0.00     0.002 A 
HETATM   31  C   UNL     1      -4.377  -0.941 -32.456  1.00  0.00     0.012 A 
ENDBRANCH  21  22
ENDBRANCH   1  20
TORSDOF 4
ENDMDL
MODEL 6
REMARK VINA RESULT:      -9.1      5.629      7.680
REMARK  4 active torsions:
REMARK  status: ('A' for Active; 'I' for Inactive)
REMARK    1  A    between atoms: C_5  and  C_6 
REMARK    2  A    between atoms: C_7  and  C_8 
REMARK       I    between atoms: C_8  and  N_9 
REMARK    3  A    between atoms: N_9  and  C_10 
REMARK    4  A    between atoms: C_17  and  C_18 
REMARK       I    between atoms: C_18  and  N_19 
ROOT
HETATM    1  C   UNL     1      -8.647   1.127 -32.121  1.00  0.00     0.245 C 
HETATM    2  N   UNL     1      -9.145   1.173 -33.407  1.00  0.00    -0.324 N 
HETATM    3  O   UNL     1      -9.021   1.776 -31.154  1.00  0.00    -0.268 OA
HETATM    4  H   UNL     1      -8.692   0.589 -34.097  1.00  0.00     0.169 HD
ENDROOT
BRANCH   2   5
HETATM    5  C   UNL     1     -10.178   2.004 -33.896  1.00  0.00     0.035 A 
HETATM    6  C   UNL     1      -9.986   3.331 -34.302  1.00  0.00     0.046 A 
HETATM    7  C   UNL     1     -11.078   4.075 -34.802  1.00  0.00     0.030 A 
HETATM    8  C   UNL     1     -12.325   3.467 -34.876  1.00  0.00     0.063 A 
HETATM    9  C   UNL     1     -11.282   5.398 -35.299  1.00  0.00     0.156 A 
HETATM   10  N   UNL     1     -13.161   4.414 -35.397  1.00  0.00    -0.277 N 
HETATM   11  C   UNL     1     -12.556   2.152 -34.471  1.00  0.00     0.034 A 
HETATM   12  H   UNL     1     -14.150   4.317 -35.595  1.00  0.00     0.189 HD
HETATM   13  N   UNL     1     -12.571   5.590 -35.665  1.00  0.00    -0.168 NA
HETATM   14  C   UNL     1     -11.458   1.436 -33.978  1.00  0.00     0.032 A 
BRANCH   9  15
HETATM   15  C   UNL     1     -10.287   6.471 -35.435  1.00  0.00     0.270 C 
HETATM   16  N   UNL     1      -9.925   7.051 -34.249  1.00  0.00    -0.365 N 
HETATM   17  H   UNL     1     -10.352   6.713 -33.395  1.00  0.00     0.159 HD
HETATM   18  H   UNL     1      -9.246   7.794 -34.245  1.00  0.00     0.159 HD
HETATM   19  O   UNL     1      -9.798   6.841 -36.497  1.00  0.00    -0.266 OA
ENDBRANCH   9  15
ENDBRANCH   2   5
BRANCH   1  20
HETATM   20  C   UNL     1      -7.504   0.178 -32.007  1.00  0.00     0.075 C 
HETATM   21  C   UNL     1      -6.742  -0.065 -33.085  1.00  0.00     0.018 C 
BRANCH  21  22
HETATM   22  C   UNL     1      -5.599  -0.996 -33.086  1.00  0.00    -0.025 A 
HETATM   23  C   UNL     1      -5.658  -2.247 -33.765  1.00  0.00    -0.016 A 
HETATM   24  C   UNL     1      -4.550  -3.128 -33.667  1.00  0.00    -0.025 A 
HETATM   25  C   UNL     1      -6.762  -2.672 -34.544  1.00  0.00     0.013 A 
HETATM   26  C   UNL     1      -4.580  -4.374 -34.316  1.00  0.00     0.012 A 
HETATM   27  C   UNL     1      -3.424  -2.755 -32.917  1.00  0.00     0.012 A 
HETATM   28  C   UNL     1      -5.687  -4.766 -35.066  1.00  0.00     0.001 A 
HETATM   29  C   UNL     1      -6.777  -3.914 -35.183  1.00  0.00     0.001 A 
HETATM   30  C   UNL     1      -3.378  -1.532 -32.257  1.00  0.00     0.002 A 
HETATM   31  C   UNL     1      -4.460  -0.661 -32.336  1.00  0.00     0.012 A 
ENDBRANCH  21  22
ENDBRANCH   1  20
TORSDOF 4
ENDMDL
MODEL 7
REMARK VINA RESULT:      -9.0      1.168      2.311
REMARK  4 active torsions:
REMARK  status: ('A' for Active; 'I' for Inactive)
REMARK    1  A    between atoms: C_5  and  C_6 
REMARK    2  A    between atoms: C_7  and  C_8 
REMARK       I    between atoms: C_8  and  N_9 
REMARK    3  A    between atoms: N_9  and  C_10 
REMARK    4  A    between atoms: C_17  and  C_18 
REMARK       I    between atoms: C_18  and  N_19 
ROOT
HETATM    1  C   UNL     1      -4.502   1.845 -31.785  1.00  0.00     0.245 C 
HETATM    2  N   UNL     1      -3.393   2.398 -32.392  1.00  0.00    -0.324 N 
HETATM    3  O   UNL     1      -5.459   2.435 -31.305  1.00  0.00    -0.268 OA
HETATM    4  H   UNL     1      -2.674   1.759 -32.705  1.00  0.00     0.169 HD
ENDROOT
BRANCH   2   5
HETATM    5  C   UNL     1      -3.106   3.770 -32.565  1.00  0.00     0.035 A 
HETATM    6  C   UNL     1      -2.191   4.481 -31.776  1.00  0.00     0.046 A 
HETATM    7  C   UNL     1      -1.952   5.848 -32.042  1.00  0.00     0.030 A 
HETATM    8  C   UNL     1      -2.638   6.457 -33.085  1.00  0.00     0.063 A 
HETATM    9  C   UNL     1      -1.128   6.876 -31.492  1.00  0.00     0.156 A 
HETATM   10  N   UNL     1      -2.199   7.751 -33.103  1.00  0.00    -0.277 N 
HETATM   11  C   UNL     1      -3.564   5.785 -33.884  1.00  0.00     0.034 A 
HETATM   12  H   UNL     1      -2.483   8.487 -33.739  1.00  0.00     0.189 HD
HETATM   13  N   UNL     1      -1.290   8.043 -32.159  1.00  0.00    -0.168 NA
HETATM   14  C   UNL     1      -3.784   4.431 -33.600  1.00  0.00     0.032 A 
BRANCH   9  15
HETATM   15  C   UNL     1      -0.198   6.773 -30.359  1.00  0.00     0.270 C 
HETATM   16  N   UNL     1      -0.339   7.767 -29.428  1.00  0.00    -0.365 N 
HETATM   17  H   UNL     1      -1.047   8.475 -29.580  1.00  0.00     0.159 HD
HETATM   18  H   UNL     1       0.255   7.775 -28.615  1.00  0.00     0.159 HD
HETATM   19  O   UNL     1       0.641   5.890 -30.220  1.00  0.00    -0.266 OA
ENDBRANCH   9  15
ENDBRANCH   2   5
BRANCH   1  20
HETATM   20  C   UNL     1      -4.413   0.359 -31.724  1.00  0.00     0.075 C 
HETATM   21  C   UNL     1      -3.931  -0.314 -32.780  1.00  0.00     0.018 C 
BRANCH  21  22
HETATM   22  C   UNL     1      -3.815  -1.783 -32.832  1.00  0.00    -0.025 A 
HETATM   23  C   UNL     1      -4.629  -2.565 -33.702  1.00  0.00    -0.016 A 
HETATM   24  C   UNL     1      -4.517  -3.979 -33.650  1.00  0.00    -0.025 A 
HETATM   25  C   UNL     1      -5.548  -2.016 -34.628  1.00  0.00     0.013 A 
HETATM   26  C   UNL     1      -5.312  -4.779 -34.487  1.00  0.00     0.012 A 
HETATM   27  C   UNL     1      -3.615  -4.578 -32.758  1.00  0.00     0.012 A 
HETATM   28  C   UNL     1      -6.216  -4.207 -35.381  1.00  0.00     0.001 A 
HETATM   29  C   UNL     1      -6.332  -2.825 -35.454  1.00  0.00     0.001 A 
HETATM   30  C   UNL     1      -2.826  -3.804 -31.912  1.00  0.00     0.002 A 
HETATM   31  C   UNL     1      -2.931  -2.417 -31.944  1.00  0.00     0.012 A 
ENDBRANCH  21  22
ENDBRANCH   1  20
TORSDOF 4
ENDMDL
MODEL 8
REMARK VINA RESULT:      -9.0      6.010      8.389
REMARK  4 active torsions:
REMARK  status: ('A' for Active; 'I' for Inactive)
REMARK    1  A    between atoms: C_5  and  C_6 
REMARK    2  A    between atoms: C_7  and  C_8 
REMARK       I    between atoms: C_8  and  N_9 
REMARK    3  A    between atoms: N_9  and  C_10 
REMARK    4  A    between atoms: C_17  and  C_18 
REMARK       I    between atoms: C_18  and  N_19 
ROOT
HETATM    1  C   UNL     1      -9.692   0.629 -33.053  1.00  0.00     0.245 C 
HETATM    2  N   UNL     1      -9.718   1.982 -33.323  1.00  0.00    -0.324 N 
HETATM    3  O   UNL     1     -10.647  -0.127 -32.944  1.00  0.00    -0.268 OA
HETATM    4  H   UNL     1      -8.830   2.464 -33.344  1.00  0.00     0.169 HD
ENDROOT
BRANCH   2   5
HETATM    5  C   UNL     1     -10.858   2.797 -33.502  1.00  0.00     0.035 A 
HETATM    6  C   UNL     1     -11.427   3.577 -32.487  1.00  0.00     0.046 A 
HETATM    7  C   UNL     1     -12.554   4.381 -32.771  1.00  0.00     0.030 A 
HETATM    8  C   UNL     1     -13.074   4.375 -34.059  1.00  0.00     0.063 A 
HETATM    9  C   UNL     1     -13.387   5.282 -32.041  1.00  0.00     0.156 A 
HETATM   10  N   UNL     1     -14.132   5.239 -34.028  1.00  0.00    -0.277 N 
HETATM   11  C   UNL     1     -12.540   3.604 -35.092  1.00  0.00     0.034 A 
HETATM   12  H   UNL     1     -14.745   5.486 -34.796  1.00  0.00     0.189 HD
HETATM   13  N   UNL     1     -14.353   5.805 -32.831  1.00  0.00    -0.168 NA
HETATM   14  C   UNL     1     -11.425   2.815 -34.785  1.00  0.00     0.032 A 
BRANCH   9  15
HETATM   15  C   UNL     1     -13.283   5.654 -30.623  1.00  0.00     0.270 C 
HETATM   16  N   UNL     1     -13.272   4.588 -29.765  1.00  0.00    -0.365 N 
HETATM   17  H   UNL     1     -13.334   3.654 -30.152  1.00  0.00     0.159 HD
HETATM   18  H   UNL     1     -13.200   4.747 -28.772  1.00  0.00     0.159 HD
HETATM   19  O   UNL     1     -13.207   6.804 -30.204  1.00  0.00    -0.266 OA
ENDBRANCH   9  15
ENDBRANCH   2   5
BRANCH   1  20
HETATM   20  C   UNL     1      -8.301   0.134 -32.852  1.00  0.00     0.075 C 
HETATM   21  C   UNL     1      -7.639  -0.402 -33.889  1.00  0.00     0.018 C 
BRANCH  21  22
HETATM   22  C   UNL     1      -6.267  -0.935 -33.796  1.00  0.00    -0.025 A 
HETATM   23  C   UNL     1      -5.967  -2.284 -34.145  1.00  0.00    -0.016 A 
HETATM   24  C   UNL     1      -4.640  -2.754 -33.965  1.00  0.00    -0.025 A 
HETATM   25  C   UNL     1      -6.916  -3.193 -34.670  1.00  0.00     0.013 A 
HETATM   26  C   UNL     1      -4.313  -4.081 -34.290  1.00  0.00     0.012 A 
HETATM   27  C   UNL     1      -3.655  -1.893 -33.458  1.00  0.00     0.012 A 
HETATM   28  C   UNL     1      -5.275  -4.955 -34.795  1.00  0.00     0.001 A 
HETATM   29  C   UNL     1      -6.576  -4.510 -34.988  1.00  0.00     0.001 A 
HETATM   30  C   UNL     1      -3.960  -0.579 -33.119  1.00  0.00     0.002 A 
HETATM   31  C   UNL     1      -5.258  -0.105 -33.281  1.00  0.00     0.012 A 
ENDBRANCH  21  22
ENDBRANCH   1  20
TORSDOF 4
ENDMDL
MODEL 9
REMARK VINA RESULT:      -9.0      2.427      3.140
REMARK  4 active torsions:
REMARK  status: ('A' for Active; 'I' for Inactive)
REMARK    1  A    between atoms: C_5  and  C_6 
REMARK    2  A    between atoms: C_7  and  C_8 
REMARK       I    between atoms: C_8  and  N_9 
REMARK    3  A    between atoms: N_9  and  C_10 
REMARK    4  A    between atoms: C_17  and  C_18 
REMARK       I    between atoms: C_18  and  N_19 
ROOT
HETATM    1  C   UNL     1      -3.115   3.126 -31.855  1.00  0.00     0.245 C 
HETATM    2  N   UNL     1      -2.899   4.470 -32.077  1.00  0.00    -0.324 N 
HETATM    3  O   UNL     1      -2.577   2.415 -31.017  1.00  0.00    -0.268 OA
HETATM    4  H   UNL     1      -3.408   4.898 -32.839  1.00  0.00     0.169 HD
ENDROOT
BRANCH   2   5
HETATM    5  C   UNL     1      -1.985   5.314 -31.407  1.00  0.00     0.035 A 
HETATM    6  C   UNL     1      -2.270   5.973 -30.203  1.00  0.00     0.046 A 
HETATM    7  C   UNL     1      -1.280   6.776 -29.595  1.00  0.00     0.030 A 
HETATM    8  C   UNL     1      -0.041   6.894 -30.211  1.00  0.00     0.063 A 
HETATM    9  C   UNL     1      -1.183   7.575 -28.415  1.00  0.00     0.156 A 
HETATM   10  N   UNL     1       0.694   7.711 -29.398  1.00  0.00    -0.277 N 
HETATM   11  C   UNL     1       0.276   6.261 -31.414  1.00  0.00     0.034 A 
HETATM   12  H   UNL     1       1.652   8.012 -29.534  1.00  0.00     0.189 HD
HETATM   13  N   UNL     1       0.041   8.142 -28.306  1.00  0.00    -0.168 NA
HETATM   14  C   UNL     1      -0.723   5.472 -31.998  1.00  0.00     0.032 A 
BRANCH   9  15
HETATM   15  C   UNL     1      -2.218   7.805 -27.398  1.00  0.00     0.270 C 
HETATM   16  N   UNL     1      -2.646   6.667 -26.769  1.00  0.00    -0.365 N 
HETATM   17  H   UNL     1      -2.235   5.781 -27.037  1.00  0.00     0.159 HD
HETATM   18  H   UNL     1      -3.354   6.729 -26.054  1.00  0.00     0.159 HD
HETATM   19  O   UNL     1      -2.682   8.902 -27.107  1.00  0.00    -0.266 OA
ENDBRANCH   9  15
ENDBRANCH   2   5
BRANCH   1  20
HETATM   20  C   UNL     1      -4.104   2.560 -32.815  1.00  0.00     0.075 C 
HETATM   21  C   UNL     1      -4.714   1.402 -32.522  1.00  0.00     0.018 C 
BRANCH  21  22
HETATM   22  C   UNL     1      -5.695   0.747 -33.407  1.00  0.00    -0.025 A 
HETATM   23  C   UNL     1      -5.539  -0.608 -33.819  1.00  0.00    -0.016 A 
HETATM   24  C   UNL     1      -6.481  -1.156 -34.728  1.00  0.00    -0.025 A 
HETATM   25  C   UNL     1      -4.497  -1.455 -33.371  1.00  0.00     0.013 A 
HETATM   26  C   UNL     1      -6.350  -2.485 -35.163  1.00  0.00     0.012 A 
HETATM   27  C   UNL     1      -7.542  -0.366 -35.198  1.00  0.00     0.012 A 
HETATM   28  C   UNL     1      -5.305  -3.289 -34.710  1.00  0.00     0.001 A 
HETATM   29  C   UNL     1      -4.380  -2.775 -33.812  1.00  0.00     0.001 A 
HETATM   30  C   UNL     1      -7.683   0.957 -34.790  1.00  0.00     0.002 A 
HETATM   31  C   UNL     1      -6.763   1.511 -33.906  1.00  0.00     0.012 A 
ENDBRANCH  21  22
ENDBRANCH   1  20
TORSDOF 4
ENDMDL
MODEL 10
REMARK VINA RESULT:      -9.0      3.114      9.140
REMARK  4 active torsions:
REMARK  status: ('A' for Active; 'I' for Inactive)
REMARK    1  A    between atoms: C_5  and  C_6 
REMARK    2  A    between atoms: C_7  and  C_8 
REMARK       I    between atoms: C_8  and  N_9 
REMARK    3  A    between atoms: N_9  and  C_10 
REMARK    4  A    between atoms: C_17  and  C_18 
REMARK       I    between atoms: C_18  and  N_19 
ROOT
HETATM    1  C   UNL     1      -4.417   1.781 -32.316  1.00  0.00     0.245 C 
HETATM    2  N   UNL     1      -4.834   1.337 -33.554  1.00  0.00    -0.324 N 
HETATM    3  O   UNL     1      -4.400   1.152 -31.267  1.00  0.00    -0.268 OA
HETATM    4  H   UNL     1      -4.813   2.005 -34.313  1.00  0.00     0.169 HD
ENDROOT
BRANCH   2   5
HETATM    5  C   UNL     1      -5.362   0.067 -33.875  1.00  0.00     0.035 A 
HETATM    6  C   UNL     1      -4.671  -1.138 -33.684  1.00  0.00     0.046 A 
HETATM    7  C   UNL     1      -5.295  -2.362 -34.012  1.00  0.00     0.030 A 
HETATM    8  C   UNL     1      -6.587  -2.340 -34.523  1.00  0.00     0.063 A 
HETATM    9  C   UNL     1      -4.942  -3.744 -33.962  1.00  0.00     0.156 A 
HETATM   10  N   UNL     1      -6.918  -3.649 -34.731  1.00  0.00    -0.277 N 
HETATM   11  C   UNL     1      -7.301  -1.161 -34.738  1.00  0.00     0.034 A 
HETATM   12  H   UNL     1      -7.792  -4.011 -35.095  1.00  0.00     0.189 HD
HETATM   13  N   UNL     1      -5.954  -4.525 -34.406  1.00  0.00    -0.168 NA
HETATM   14  C   UNL     1      -6.661   0.040 -34.405  1.00  0.00     0.032 A 
BRANCH   9  15
HETATM   15  C   UNL     1      -3.675  -4.332 -33.504  1.00  0.00     0.270 C 
HETATM   16  N   UNL     1      -3.148  -5.262 -34.359  1.00  0.00    -0.365 N 
HETATM   17  H   UNL     1      -3.648  -5.471 -35.215  1.00  0.00     0.159 HD
HETATM   18  H   UNL     1      -2.280  -5.716 -34.128  1.00  0.00     0.159 HD
HETATM   19  O   UNL     1      -3.108  -4.042 -32.456  1.00  0.00    -0.266 OA
ENDBRANCH   9  15
ENDBRANCH   2   5
BRANCH   1  20
HETATM   20  C   UNL     1      -3.993   3.208 -32.357  1.00  0.00     0.075 C 
HETATM   21  C   UNL     1      -2.745   3.511 -32.748  1.00  0.00     0.018 C 
BRANCH  21  22
HETATM   22  C   UNL     1      -2.218   4.886 -32.810  1.00  0.00    -0.025 A 
HETATM   23  C   UNL     1      -1.284   5.370 -31.848  1.00  0.00    -0.016 A 
HETATM   24  C   UNL     1      -0.871   6.726 -31.922  1.00  0.00    -0.025 A 
HETATM   25  C   UNL     1      -0.732   4.576 -30.814  1.00  0.00     0.013 A 
HETATM   26  C   UNL     1       0.040   7.238 -30.983  1.00  0.00     0.012 A 
HETATM   27  C   UNL     1      -1.378   7.558 -32.933  1.00  0.00     0.012 A 
HETATM   28  C   UNL     1       0.557   6.431 -29.971  1.00  0.00     0.001 A 
HETATM   29  C   UNL     1       0.173   5.099 -29.888  1.00  0.00     0.001 A 
HETATM   30  C   UNL     1      -2.290   7.075 -33.866  1.00  0.00     0.002 A 
HETATM   31  C   UNL     1      -2.712   5.751 -33.800  1.00  0.00     0.012 A 
ENDBRANCH  21  22
ENDBRANCH   1  20
TORSDOF 4
ENDMDL
