MODEL 1
REMARK VINA RESULT:      -8.9      0.000      0.000
REMARK  6 active torsions:
REMARK  status: ('A' for Active; 'I' for Inactive)
REMARK    1  A    between atoms: C_3  and  C_4 
REMARK       I    between atoms: C_4  and  N_5 
REMARK    2  A    between atoms: N_5  and  C_6 
REMARK    3  A    between atoms: C_6  and  C_7 
REMARK    4  A    between atoms: C_7  and  C_8 
REMARK    5  A    between atoms: C_19  and  O_20 
REMARK    6  A    between atoms: C_29  and  O_30 
ROOT
HETATM    1  C   UNL     1      -4.284   3.194 -32.119  1.00  0.00     0.158 A 
HETATM    2  N   UNL     1      -3.301   3.087 -31.216  1.00  0.00    -0.111 NA
HETATM    3  O   UNL     1      -3.001   1.725 -31.229  1.00  0.00    -0.189 OA
HETATM    4  C   UNL     1      -3.830   1.143 -32.151  1.00  0.00     0.223 A 
HETATM    5  C   UNL     1      -3.833  -0.249 -32.457  1.00  0.00     0.089 A 
HETATM    6  N   UNL     1      -4.695  -0.787 -33.378  1.00  0.00    -0.352 N 
HETATM    7  H   UNL     1      -5.379  -0.252 -33.899  1.00  0.00     0.166 HD
HETATM    8  C   UNL     1      -4.498  -2.144 -33.486  1.00  0.00     0.045 A 
HETATM    9  C   UNL     1      -3.476  -2.479 -32.600  1.00  0.00    -0.007 A 
HETATM   10  C   UNL     1      -3.064  -1.280 -31.957  1.00  0.00     0.048 A 
HETATM   11  C   UNL     1      -5.140  -3.092 -34.290  1.00  0.00     0.067 A 
HETATM   12  C   UNL     1      -4.732  -4.429 -34.194  1.00  0.00     0.070 A 
HETATM   13  C   UNL     1      -3.712  -4.790 -33.312  1.00  0.00     0.038 A 
HETATM   14  C   UNL     1      -3.077  -3.827 -32.513  1.00  0.00     0.016 A 
HETATM   15  N   UNL     1      -4.628   2.016 -32.735  1.00  0.00    -0.203 NA
ENDROOT
BRANCH   1  16
HETATM   16  C   UNL     1      -4.905   4.501 -32.447  1.00  0.00     0.103 C 
BRANCH  16  17
HETATM   17  C   UNL     1      -6.222   4.744 -31.708  1.00  0.00     0.133 C 
BRANCH  17  18
HETATM   18  N   UNL     1      -7.367   4.128 -32.385  1.00  0.00    -0.352 N 
HETATM   19  C   UNL     1      -8.310   3.462 -31.603  1.00  0.00     0.254 C 
HETATM   20  O   UNL     1      -8.286   3.463 -30.375  1.00  0.00    -0.267 OA
HETATM   21  C   UNL     1      -7.486   4.354 -33.821  1.00  0.00     0.152 C 
BRANCH  19  22
HETATM   22  C   UNL     1      -9.386   2.701 -32.282  1.00  0.00     0.038 A 
HETATM   23  C   UNL     1      -9.222   1.344 -32.609  1.00  0.00    -0.044 A 
HETATM   24  C   UNL     1      -7.947   0.607 -32.305  1.00  0.00     0.049 C 
HETATM   25  C   UNL     1     -10.274   0.675 -33.263  1.00  0.00     0.044 A 
HETATM   26  C   UNL     1     -11.462   1.342 -33.579  1.00  0.00     0.068 A 
HETATM   27  C   UNL     1     -11.594   2.696 -33.267  1.00  0.00     0.038 A 
HETATM   28  C   UNL     1     -10.560   3.380 -32.627  1.00  0.00     0.020 A 
BRANCH  26  29
HETATM   29  O   UNL     1     -12.552   0.793 -34.197  1.00  0.00    -0.356 OA
HETATM   30  C   UNL     1     -13.142  -0.342 -33.577  1.00  0.00     0.210 C 
ENDBRANCH  26  29
ENDBRANCH  19  22
ENDBRANCH  17  18
ENDBRANCH  16  17
ENDBRANCH   1  16
BRANCH  12  31
HETATM   31  O   UNL     1      -5.416  -5.284 -35.017  1.00  0.00    -0.356 OA
HETATM   32  C   UNL     1      -6.549  -4.758 -35.696  1.00  0.00     0.210 C 
ENDBRANCH  12  31
TORSDOF 6
ENDMDL
MODEL 2
REMARK VINA RESULT:      -8.8      4.491      8.091
REMARK  6 active torsions:
REMARK  status: ('A' for Active; 'I' for Inactive)
REMARK    1  A    between atoms: C_3  and  C_4 
REMARK       I    between atoms: C_4  and  N_5 
REMARK    2  A    between atoms: N_5  and  C_6 
REMARK    3  A    between atoms: C_6  and  C_7 
REMARK    4  A    between atoms: C_7  and  C_8 
REMARK    5  A    between atoms: C_19  and  O_20 
REMARK    6  A    between atoms: C_29  and  O_30 
ROOT
HETATM    1  C   UNL     1      -6.024   5.122 -33.267  1.00  0.00     0.158 A 
HETATM    2  N   UNL     1      -7.219   5.169 -33.869  1.00  0.00    -0.111 NA
HETATM    3  O   UNL     1      -7.457   3.838 -34.212  1.00  0.00    -0.189 OA
HETATM    4  C   UNL     1      -6.381   3.114 -33.769  1.00  0.00     0.223 A 
HETATM    5  C   UNL     1      -6.245   1.705 -33.932  1.00  0.00     0.089 A 
HETATM    6  N   UNL     1      -5.140   1.027 -33.485  1.00  0.00    -0.352 N 
HETATM    7  H   UNL     1      -4.355   1.462 -33.018  1.00  0.00     0.166 HD
HETATM    8  C   UNL     1      -5.253  -0.315 -33.765  1.00  0.00     0.045 A 
HETATM    9  C   UNL     1      -6.473  -0.495 -34.415  1.00  0.00    -0.007 A 
HETATM   10  C   UNL     1      -7.089   0.783 -34.515  1.00  0.00     0.048 A 
HETATM   11  C   UNL     1      -4.378  -1.374 -33.498  1.00  0.00     0.067 A 
HETATM   12  C   UNL     1      -4.752  -2.662 -33.904  1.00  0.00     0.070 A 
HETATM   13  C   UNL     1      -5.968  -2.867 -34.558  1.00  0.00     0.038 A 
HETATM   14  C   UNL     1      -6.835  -1.794 -34.818  1.00  0.00     0.016 A 
HETATM   15  N   UNL     1      -5.481   3.865 -33.167  1.00  0.00    -0.203 NA
ENDROOT
BRANCH   1  16
HETATM   16  C   UNL     1      -5.380   6.339 -32.714  1.00  0.00     0.103 C 
BRANCH  16  17
HETATM   17  C   UNL     1      -3.858   6.340 -32.874  1.00  0.00     0.133 C 
BRANCH  17  18
HETATM   18  N   UNL     1      -3.164   6.676 -31.627  1.00  0.00    -0.352 N 
HETATM   19  C   UNL     1      -2.177   7.660 -31.671  1.00  0.00     0.254 C 
HETATM   20  O   UNL     1      -1.942   8.331 -32.673  1.00  0.00    -0.267 OA
HETATM   21  C   UNL     1      -3.639   6.028 -30.410  1.00  0.00     0.152 C 
BRANCH  19  22
HETATM   22  C   UNL     1      -1.359   7.901 -30.459  1.00  0.00     0.038 A 
HETATM   23  C   UNL     1      -0.157   7.205 -30.242  1.00  0.00    -0.044 A 
HETATM   24  C   UNL     1       0.343   6.173 -31.215  1.00  0.00     0.049 C 
HETATM   25  C   UNL     1       0.573   7.467 -29.067  1.00  0.00     0.044 A 
HETATM   26  C   UNL     1       0.118   8.405 -28.134  1.00  0.00     0.068 A 
HETATM   27  C   UNL     1      -1.090   9.067 -28.358  1.00  0.00     0.038 A 
HETATM   28  C   UNL     1      -1.833   8.815 -29.511  1.00  0.00     0.020 A 
BRANCH  26  29
HETATM   29  O   UNL     1       0.748   8.751 -26.970  1.00  0.00    -0.356 OA
HETATM   30  C   UNL     1       1.674   7.816 -26.434  1.00  0.00     0.210 C 
ENDBRANCH  26  29
ENDBRANCH  19  22
ENDBRANCH  17  18
ENDBRANCH  16  17
ENDBRANCH   1  16
BRANCH  12  31
HETATM   31  O   UNL     1      -3.835  -3.633 -33.601  1.00  0.00    -0.356 OA
HETATM   32  C   UNL     1      -4.182  -4.973 -33.922  1.00  0.00     0.210 C 
ENDBRANCH  12  31
TORSDOF 6
ENDMDL
MODEL 3
REMARK VINA RESULT:      -8.8      2.719      7.577
REMARK  6 active torsions:
REMARK  status: ('A' for Active; 'I' for Inactive)
REMARK    1  A    between atoms: C_3  and  C_4 
REMARK       I    between atoms: C_4  and  N_5 
REMARK    2  A    between atoms: N_5  and  C_6 
REMARK    3  A    between atoms: C_6  and  C_7 
REMARK    4  A    between atoms: C_7  and  C_8 
REMARK    5  A    between atoms: C_19  and  O_20 
REMARK    6  A    between atoms: C_29  and  O_30 
ROOT
HETATM    1  C   UNL     1      -8.369   3.491 -33.410  1.00  0.00     0.158 A 
HETATM    2  N   UNL     1      -8.609   4.517 -34.237  1.00  0.00    -0.111 NA
HETATM    3  O   UNL     1      -7.394   5.203 -34.256  1.00  0.00    -0.189 OA
HETATM    4  C   UNL     1      -6.534   4.513 -33.443  1.00  0.00     0.223 A 
HETATM    5  C   UNL     1      -5.185   4.899 -33.196  1.00  0.00     0.089 A 
HETATM    6  N   UNL     1      -4.367   4.183 -32.360  1.00  0.00    -0.352 N 
HETATM    7  H   UNL     1      -4.650   3.347 -31.864  1.00  0.00     0.166 HD
HETATM    8  C   UNL     1      -3.122   4.764 -32.291  1.00  0.00     0.045 A 
HETATM    9  C   UNL     1      -3.151   5.890 -33.112  1.00  0.00    -0.007 A 
HETATM   10  C   UNL     1      -4.454   5.966 -33.676  1.00  0.00     0.048 A 
HETATM   11  C   UNL     1      -1.983   4.384 -31.572  1.00  0.00     0.067 A 
HETATM   12  C   UNL     1      -0.832   5.175 -31.688  1.00  0.00     0.070 A 
HETATM   13  C   UNL     1      -0.838   6.308 -32.502  1.00  0.00     0.038 A 
HETATM   14  C   UNL     1      -1.988   6.675 -33.218  1.00  0.00     0.016 A 
HETATM   15  N   UNL     1      -7.091   3.442 -32.913  1.00  0.00    -0.203 NA
ENDROOT
BRANCH   1  16
HETATM   16  C   UNL     1      -9.406   2.473 -33.109  1.00  0.00     0.103 C 
BRANCH  16  17
HETATM   17  C   UNL     1      -9.368   1.276 -34.062  1.00  0.00     0.133 C 
BRANCH  17  18
HETATM   18  N   UNL     1      -8.299   0.330 -33.731  1.00  0.00    -0.352 N 
HETATM   19  C   UNL     1      -7.271   0.153 -34.656  1.00  0.00     0.254 C 
HETATM   20  O   UNL     1      -7.161   0.829 -35.676  1.00  0.00    -0.267 OA
HETATM   21  C   UNL     1      -8.339  -0.275 -32.405  1.00  0.00     0.152 C 
BRANCH  19  22
HETATM   22  C   UNL     1      -6.269  -0.912 -34.410  1.00  0.00     0.038 A 
HETATM   23  C   UNL     1      -5.116  -0.663 -33.646  1.00  0.00    -0.044 A 
HETATM   24  C   UNL     1      -4.835   0.694 -33.061  1.00  0.00     0.049 C 
HETATM   25  C   UNL     1      -4.193  -1.709 -33.454  1.00  0.00     0.044 A 
HETATM   26  C   UNL     1      -4.418  -2.973 -34.007  1.00  0.00     0.068 A 
HETATM   27  C   UNL     1      -5.558  -3.192 -34.783  1.00  0.00     0.038 A 
HETATM   28  C   UNL     1      -6.480  -2.167 -34.993  1.00  0.00     0.020 A 
BRANCH  26  29
HETATM   29  O   UNL     1      -3.604  -4.065 -33.874  1.00  0.00    -0.356 OA
HETATM   30  C   UNL     1      -4.237  -5.328 -33.724  1.00  0.00     0.210 C 
ENDBRANCH  26  29
ENDBRANCH  19  22
ENDBRANCH  17  18
ENDBRANCH  16  17
ENDBRANCH   1  16
BRANCH  12  31
HETATM   31  O   UNL     1       0.231   4.727 -30.950  1.00  0.00    -0.356 OA
HETATM   32  C   UNL     1       0.337   5.204 -29.615  1.00  0.00     0.210 C 
ENDBRANCH  12  31
TORSDOF 6
ENDMDL
MODEL 4
REMARK VINA RESULT:      -8.8      5.098      9.348
REMARK  6 active torsions:
REMARK  status: ('A' for Active; 'I' for Inactive)
REMARK    1  A    between atoms: C_3  and  C_4 
REMARK       I    between atoms: C_4  and  N_5 
REMARK    2  A    between atoms: N_5  and  C_6 
REMARK    3  A    between atoms: C_6  and  C_7 
REMARK    4  A    between atoms: C_7  and  C_8 
REMARK    5  A    between atoms: C_19  and  O_20 
REMARK    6  A    between atoms: C_29  and  O_30 
ROOT
HETATM    1  C   UNL     1      -3.132   4.833 -32.102  1.00  0.00     0.158 A 
HETATM    2  N   UNL     1      -2.049   4.067 -32.282  1.00  0.00    -0.111 NA
HETATM    3  O   UNL     1      -1.087   4.679 -31.479  1.00  0.00    -0.189 OA
HETATM    4  C   UNL     1      -1.692   5.753 -30.882  1.00  0.00     0.223 A 
HETATM    5  C   UNL     1      -1.035   6.641 -29.981  1.00  0.00     0.089 A 
HETATM    6  N   UNL     1      -1.679   7.714 -29.422  1.00  0.00    -0.352 N 
HETATM    7  H   UNL     1      -2.646   7.954 -29.599  1.00  0.00     0.166 HD
HETATM    8  C   UNL     1      -0.827   8.410 -28.595  1.00  0.00     0.045 A 
HETATM    9  C   UNL     1       0.403   7.756 -28.634  1.00  0.00    -0.007 A 
HETATM   10  C   UNL     1       0.262   6.644 -29.509  1.00  0.00     0.048 A 
HETATM   11  C   UNL     1      -1.047   9.557 -27.825  1.00  0.00     0.067 A 
HETATM   12  C   UNL     1       0.018  10.061 -27.067  1.00  0.00     0.070 A 
HETATM   13  C   UNL     1       1.260   9.425 -27.091  1.00  0.00     0.038 A 
HETATM   14  C   UNL     1       1.465   8.274 -27.868  1.00  0.00     0.016 A 
HETATM   15  N   UNL     1      -2.958   5.877 -31.227  1.00  0.00    -0.203 NA
ENDROOT
BRANCH   1  16
HETATM   16  C   UNL     1      -4.423   4.530 -32.770  1.00  0.00     0.103 C 
BRANCH  16  17
HETATM   17  C   UNL     1      -5.266   3.504 -32.010  1.00  0.00     0.133 C 
BRANCH  17  18
HETATM   18  N   UNL     1      -5.541   2.305 -32.807  1.00  0.00    -0.352 N 
HETATM   19  C   UNL     1      -5.453   1.064 -32.176  1.00  0.00     0.254 C 
HETATM   20  O   UNL     1      -5.268   0.937 -30.968  1.00  0.00    -0.267 OA
HETATM   21  C   UNL     1      -5.994   2.511 -34.178  1.00  0.00     0.152 C 
BRANCH  19  22
HETATM   22  C   UNL     1      -5.573  -0.162 -33.000  1.00  0.00     0.038 A 
HETATM   23  C   UNL     1      -6.830  -0.704 -33.319  1.00  0.00    -0.044 A 
HETATM   24  C   UNL     1      -8.107  -0.078 -32.827  1.00  0.00     0.049 C 
HETATM   25  C   UNL     1      -6.883  -1.876 -34.096  1.00  0.00     0.044 A 
HETATM   26  C   UNL     1      -5.711  -2.492 -34.547  1.00  0.00     0.068 A 
HETATM   27  C   UNL     1      -4.472  -1.950 -34.197  1.00  0.00     0.038 A 
HETATM   28  C   UNL     1      -4.398  -0.794 -33.421  1.00  0.00     0.020 A 
BRANCH  26  29
HETATM   29  O   UNL     1      -5.640  -3.620 -35.317  1.00  0.00    -0.356 OA
HETATM   30  C   UNL     1      -6.722  -4.536 -35.221  1.00  0.00     0.210 C 
ENDBRANCH  26  29
ENDBRANCH  19  22
ENDBRANCH  17  18
ENDBRANCH  16  17
ENDBRANCH   1  16
BRANCH  12  31
HETATM   31  O   UNL     1      -0.290  11.185 -26.346  1.00  0.00    -0.356 OA
HETATM   32  C   UNL     1      -1.372  11.086 -25.429  1.00  0.00     0.210 C 
ENDBRANCH  12  31
TORSDOF 6
ENDMDL
MODEL 5
REMARK VINA RESULT:      -8.5      4.677      8.871
REMARK  6 active torsions:
REMARK  status: ('A' for Active; 'I' for Inactive)
REMARK    1  A    between atoms: C_3  and  C_4 
REMARK       I    between atoms: C_4  and  N_5 
REMARK    2  A    between atoms: N_5  and  C_6 
REMARK    3  A    between atoms: C_6  and  C_7 
REMARK    4  A    between atoms: C_7  and  C_8 
REMARK    5  A    between atoms: C_19  and  O_20 
REMARK    6  A    between atoms: C_29  and  O_30 
ROOT
HETATM    1  C   UNL     1      -4.447   5.130 -32.407  1.00  0.00     0.158 A 
HETATM    2  N   UNL     1      -3.496   5.092 -33.350  1.00  0.00    -0.111 NA
HETATM    3  O   UNL     1      -2.383   5.626 -32.702  1.00  0.00    -0.189 OA
HETATM    4  C   UNL     1      -2.770   5.924 -31.423  1.00  0.00     0.223 A 
HETATM    5  C   UNL     1      -1.911   6.495 -30.440  1.00  0.00     0.089 A 
HETATM    6  N   UNL     1      -2.351   6.791 -29.175  1.00  0.00    -0.352 N 
HETATM    7  H   UNL     1      -3.296   6.633 -28.849  1.00  0.00     0.166 HD
HETATM    8  C   UNL     1      -1.332   7.331 -28.425  1.00  0.00     0.045 A 
HETATM    9  C   UNL     1      -0.205   7.382 -29.244  1.00  0.00    -0.007 A 
HETATM   10  C   UNL     1      -0.580   6.853 -30.510  1.00  0.00     0.048 A 
HETATM   11  C   UNL     1      -1.320   7.777 -27.099  1.00  0.00     0.067 A 
HETATM   12  C   UNL     1      -0.124   8.293 -26.583  1.00  0.00     0.070 A 
HETATM   13  C   UNL     1       1.017   8.355 -27.384  1.00  0.00     0.038 A 
HETATM   14  C   UNL     1       0.989   7.903 -28.712  1.00  0.00     0.016 A 
HETATM   15  N   UNL     1      -4.032   5.620 -31.194  1.00  0.00    -0.203 NA
ENDROOT
BRANCH   1  16
HETATM   16  C   UNL     1      -5.820   4.629 -32.663  1.00  0.00     0.103 C 
BRANCH  16  17
HETATM   17  C   UNL     1      -6.150   3.354 -31.886  1.00  0.00     0.133 C 
BRANCH  17  18
HETATM   18  N   UNL     1      -6.115   2.157 -32.732  1.00  0.00    -0.352 N 
HETATM   19  C   UNL     1      -6.032   0.914 -32.105  1.00  0.00     0.254 C 
HETATM   20  O   UNL     1      -6.101   0.770 -30.887  1.00  0.00    -0.267 OA
HETATM   21  C   UNL     1      -6.278   2.356 -34.167  1.00  0.00     0.152 C 
BRANCH  19  22
HETATM   22  C   UNL     1      -5.837  -0.293 -32.943  1.00  0.00     0.038 A 
HETATM   23  C   UNL     1      -4.550  -0.761 -33.257  1.00  0.00    -0.044 A 
HETATM   24  C   UNL     1      -3.314  -0.051 -32.776  1.00  0.00     0.049 C 
HETATM   25  C   UNL     1      -4.425  -1.906 -34.066  1.00  0.00     0.044 A 
HETATM   26  C   UNL     1      -5.557  -2.571 -34.547  1.00  0.00     0.068 A 
HETATM   27  C   UNL     1      -6.827  -2.076 -34.243  1.00  0.00     0.038 A 
HETATM   28  C   UNL     1      -6.972  -0.937 -33.450  1.00  0.00     0.020 A 
BRANCH  26  29
HETATM   29  O   UNL     1      -5.559  -3.697 -35.324  1.00  0.00    -0.356 OA
HETATM   30  C   UNL     1      -6.693  -4.547 -35.227  1.00  0.00     0.210 C 
ENDBRANCH  26  29
ENDBRANCH  19  22
ENDBRANCH  17  18
ENDBRANCH  16  17
ENDBRANCH   1  16
BRANCH  12  31
HETATM   31  O   UNL     1      -0.209   8.703 -25.279  1.00  0.00    -0.356 OA
HETATM   32  C   UNL     1      -0.877   9.933 -25.030  1.00  0.00     0.210 C 
ENDBRANCH  12  31
TORSDOF 6
ENDMDL
MODEL 6
REMARK VINA RESULT:      -8.2      9.749     13.254
REMARK  6 active torsions:
REMARK  status: ('A' for Active; 'I' for Inactive)
REMARK    1  A    between atoms: C_3  and  C_4 
REMARK       I    between atoms: C_4  and  N_5 
REMARK    2  A    between atoms: N_5  and  C_6 
REMARK    3  A    between atoms: C_6  and  C_7 
REMARK    4  A    between atoms: C_7  and  C_8 
REMARK    5  A    between atoms: C_19  and  O_20 
REMARK    6  A    between atoms: C_29  and  O_30 
ROOT
HETATM    1  C   UNL     1       0.710   7.678 -27.213  1.00  0.00     0.158 A 
HETATM    2  N   UNL     1       0.688   8.942 -27.654  1.00  0.00    -0.111 NA
HETATM    3  O   UNL     1       1.440   9.626 -26.700  1.00  0.00    -0.189 OA
HETATM    4  C   UNL     1       1.854   8.700 -25.779  1.00  0.00     0.223 A 
HETATM    5  C   UNL     1       2.650   9.008 -24.638  1.00  0.00     0.089 A 
HETATM    6  N   UNL     1       3.025   8.047 -23.734  1.00  0.00    -0.352 N 
HETATM    7  H   UNL     1       2.772   7.070 -23.804  1.00  0.00     0.166 HD
HETATM    8  C   UNL     1       3.783   8.602 -22.730  1.00  0.00     0.045 A 
HETATM    9  C   UNL     1       3.892   9.964 -23.004  1.00  0.00    -0.007 A 
HETATM   10  C   UNL     1       3.175  10.210 -24.207  1.00  0.00     0.048 A 
HETATM   11  C   UNL     1       4.375   8.010 -21.608  1.00  0.00     0.067 A 
HETATM   12  C   UNL     1       5.103   8.826 -20.733  1.00  0.00     0.070 A 
HETATM   13  C   UNL     1       5.224  10.194 -20.986  1.00  0.00     0.038 A 
HETATM   14  C   UNL     1       4.626  10.773 -22.116  1.00  0.00     0.016 A 
HETATM   15  N   UNL     1       1.438   7.483 -26.065  1.00  0.00    -0.203 NA
ENDROOT
BRANCH   1  16
HETATM   16  C   UNL     1       0.034   6.582 -27.951  1.00  0.00     0.103 C 
BRANCH  16  17
HETATM   17  C   UNL     1       0.313   6.607 -29.455  1.00  0.00     0.133 C 
BRANCH  17  18
HETATM   18  N   UNL     1      -0.886   6.332 -30.252  1.00  0.00    -0.352 N 
HETATM   19  C   UNL     1      -0.792   5.382 -31.269  1.00  0.00     0.254 C 
HETATM   20  O   UNL     1       0.207   4.691 -31.453  1.00  0.00    -0.267 OA
HETATM   21  C   UNL     1      -2.117   6.999 -29.847  1.00  0.00     0.152 C 
BRANCH  19  22
HETATM   22  C   UNL     1      -1.945   5.205 -32.185  1.00  0.00     0.038 A 
HETATM   23  C   UNL     1      -2.123   6.042 -33.300  1.00  0.00    -0.044 A 
HETATM   24  C   UNL     1      -1.169   7.163 -33.605  1.00  0.00     0.049 C 
HETATM   25  C   UNL     1      -3.243   5.834 -34.128  1.00  0.00     0.044 A 
HETATM   26  C   UNL     1      -4.158   4.814 -33.854  1.00  0.00     0.068 A 
HETATM   27  C   UNL     1      -3.975   4.010 -32.727  1.00  0.00     0.038 A 
HETATM   28  C   UNL     1      -2.878   4.205 -31.888  1.00  0.00     0.020 A 
BRANCH  26  29
HETATM   29  O   UNL     1      -5.268   4.509 -34.593  1.00  0.00    -0.356 OA
HETATM   30  C   UNL     1      -6.149   3.528 -34.062  1.00  0.00     0.210 C 
ENDBRANCH  26  29
ENDBRANCH  19  22
ENDBRANCH  17  18
ENDBRANCH  16  17
ENDBRANCH   1  16
BRANCH  12  31
HETATM   31  O   UNL     1       5.645   8.160 -19.666  1.00  0.00    -0.356 OA
HETATM   32  C   UNL     1       6.500   7.062 -19.957  1.00  0.00     0.210 C 
ENDBRANCH  12  31
TORSDOF 6
ENDMDL
MODEL 7
REMARK VINA RESULT:      -8.2      4.014      8.873
REMARK  6 active torsions:
REMARK  status: ('A' for Active; 'I' for Inactive)
REMARK    1  A    between atoms: C_3  and  C_4 
REMARK       I    between atoms: C_4  and  N_5 
REMARK    2  A    between atoms: N_5  and  C_6 
REMARK    3  A    between atoms: C_6  and  C_7 
REMARK    4  A    between atoms: C_7  and  C_8 
REMARK    5  A    between atoms: C_19  and  O_20 
REMARK    6  A    between atoms: C_29  and  O_30 
ROOT
HETATM    1  C   UNL     1      -5.302   3.960 -33.645  1.00  0.00     0.158 A 
HETATM    2  N   UNL     1      -4.787   2.968 -32.907  1.00  0.00    -0.111 NA
HETATM    3  O   UNL     1      -5.864   2.098 -32.744  1.00  0.00    -0.189 OA
HETATM    4  C   UNL     1      -6.926   2.648 -33.412  1.00  0.00     0.223 A 
HETATM    5  C   UNL     1      -8.220   2.056 -33.480  1.00  0.00     0.089 A 
HETATM    6  N   UNL     1      -9.257   2.655 -34.149  1.00  0.00    -0.352 N 
HETATM    7  H   UNL     1      -9.187   3.541 -34.633  1.00  0.00     0.166 HD
HETATM    8  C   UNL     1     -10.393   1.885 -34.063  1.00  0.00     0.045 A 
HETATM    9  C   UNL     1     -10.067   0.758 -33.310  1.00  0.00    -0.007 A 
HETATM   10  C   UNL     1      -8.697   0.875 -32.949  1.00  0.00     0.048 A 
HETATM   11  C   UNL     1     -11.674   2.096 -34.586  1.00  0.00     0.067 A 
HETATM   12  C   UNL     1     -12.660   1.132 -34.337  1.00  0.00     0.070 A 
HETATM   13  C   UNL     1     -12.357  -0.004 -33.585  1.00  0.00     0.038 A 
HETATM   14  C   UNL     1     -11.067  -0.202 -33.068  1.00  0.00     0.016 A 
HETATM   15  N   UNL     1      -6.619   3.790 -33.995  1.00  0.00    -0.203 NA
ENDROOT
BRANCH   1  16
HETATM   16  C   UNL     1      -4.482   5.118 -34.079  1.00  0.00     0.103 C 
BRANCH  16  17
HETATM   17  C   UNL     1      -2.978   4.840 -34.037  1.00  0.00     0.133 C 
BRANCH  17  18
HETATM   18  N   UNL     1      -2.271   5.718 -33.100  1.00  0.00    -0.352 N 
HETATM   19  C   UNL     1      -1.820   5.168 -31.901  1.00  0.00     0.254 C 
HETATM   20  O   UNL     1      -1.887   3.969 -31.644  1.00  0.00    -0.267 OA
HETATM   21  C   UNL     1      -2.000   7.079 -33.546  1.00  0.00     0.152 C 
BRANCH  19  22
HETATM   22  C   UNL     1      -1.244   6.073 -30.877  1.00  0.00     0.038 A 
HETATM   23  C   UNL     1      -2.069   6.794 -29.997  1.00  0.00    -0.044 A 
HETATM   24  C   UNL     1      -3.569   6.698 -30.065  1.00  0.00     0.049 C 
HETATM   25  C   UNL     1      -1.467   7.646 -29.052  1.00  0.00     0.044 A 
HETATM   26  C   UNL     1      -0.076   7.772 -28.983  1.00  0.00     0.068 A 
HETATM   27  C   UNL     1       0.724   7.065 -29.882  1.00  0.00     0.038 A 
HETATM   28  C   UNL     1       0.147   6.222 -30.832  1.00  0.00     0.020 A 
BRANCH  26  29
HETATM   29  O   UNL     1       0.617   8.554 -28.100  1.00  0.00    -0.356 OA
HETATM   30  C   UNL     1       1.316   7.886 -27.058  1.00  0.00     0.210 C 
ENDBRANCH  26  29
ENDBRANCH  19  22
ENDBRANCH  17  18
ENDBRANCH  16  17
ENDBRANCH   1  16
BRANCH  12  31
HETATM   31  O   UNL     1     -13.880   1.424 -34.888  1.00  0.00    -0.356 OA
HETATM   32  C   UNL     1     -15.020   0.825 -34.286  1.00  0.00     0.210 C 
ENDBRANCH  12  31
TORSDOF 6
ENDMDL
MODEL 8
REMARK VINA RESULT:      -8.2      4.175     10.396
REMARK  6 active torsions:
REMARK  status: ('A' for Active; 'I' for Inactive)
REMARK    1  A    between atoms: C_3  and  C_4 
REMARK       I    between atoms: C_4  and  N_5 
REMARK    2  A    between atoms: N_5  and  C_6 
REMARK    3  A    between atoms: C_6  and  C_7 
REMARK    4  A    between atoms: C_7  and  C_8 
REMARK    5  A    between atoms: C_19  and  O_20 
REMARK    6  A    between atoms: C_29  and  O_30 
ROOT
HETATM    1  C   UNL     1     -10.943   2.113 -33.812  1.00  0.00     0.158 A 
HETATM    2  N   UNL     1     -11.304   0.824 -33.816  1.00  0.00    -0.111 NA
HETATM    3  O   UNL     1     -12.639   0.864 -33.414  1.00  0.00    -0.189 OA
HETATM    4  C   UNL     1     -12.956   2.182 -33.217  1.00  0.00     0.223 A 
HETATM    5  C   UNL     1     -14.238   2.641 -32.796  1.00  0.00     0.089 A 
HETATM    6  N   UNL     1     -14.502   3.972 -32.597  1.00  0.00    -0.352 N 
HETATM    7  H   UNL     1     -13.826   4.714 -32.729  1.00  0.00     0.166 HD
HETATM    8  C   UNL     1     -15.805   4.149 -32.193  1.00  0.00     0.045 A 
HETATM    9  C   UNL     1     -16.388   2.885 -32.132  1.00  0.00    -0.007 A 
HETATM   10  C   UNL     1     -15.393   1.943 -32.513  1.00  0.00     0.048 A 
HETATM   11  C   UNL     1     -16.506   5.318 -31.879  1.00  0.00     0.067 A 
HETATM   12  C   UNL     1     -17.847   5.203 -31.487  1.00  0.00     0.070 A 
HETATM   13  C   UNL     1     -18.452   3.947 -31.416  1.00  0.00     0.038 A 
HETATM   14  C   UNL     1     -17.735   2.784 -31.736  1.00  0.00     0.016 A 
HETATM   15  N   UNL     1     -11.943   2.988 -33.466  1.00  0.00    -0.203 NA
ENDROOT
BRANCH   1  16
HETATM   16  C   UNL     1      -9.577   2.543 -34.202  1.00  0.00     0.103 C 
BRANCH  16  17
HETATM   17  C   UNL     1      -8.582   2.513 -33.041  1.00  0.00     0.133 C 
BRANCH  17  18
HETATM   18  N   UNL     1      -7.805   1.270 -33.001  1.00  0.00    -0.352 N 
HETATM   19  C   UNL     1      -6.742   1.133 -33.892  1.00  0.00     0.254 C 
HETATM   20  O   UNL     1      -6.359   2.041 -34.626  1.00  0.00    -0.267 OA
HETATM   21  C   UNL     1      -8.141   0.314 -31.952  1.00  0.00     0.152 C 
BRANCH  19  22
HETATM   22  C   UNL     1      -6.046  -0.174 -33.974  1.00  0.00     0.038 A 
HETATM   23  C   UNL     1      -4.847  -0.405 -33.278  1.00  0.00    -0.044 A 
HETATM   24  C   UNL     1      -4.205   0.664 -32.437  1.00  0.00     0.049 C 
HETATM   25  C   UNL     1      -4.226  -1.662 -33.401  1.00  0.00     0.044 A 
HETATM   26  C   UNL     1      -4.789  -2.666 -34.195  1.00  0.00     0.068 A 
HETATM   27  C   UNL     1      -5.968  -2.407 -34.897  1.00  0.00     0.038 A 
HETATM   28  C   UNL     1      -6.595  -1.166 -34.796  1.00  0.00     0.020 A 
BRANCH  26  29
HETATM   29  O   UNL     1      -4.286  -3.925 -34.376  1.00  0.00    -0.356 OA
HETATM   30  C   UNL     1      -3.508  -4.468 -33.318  1.00  0.00     0.210 C 
ENDBRANCH  26  29
ENDBRANCH  19  22
ENDBRANCH  17  18
ENDBRANCH  16  17
ENDBRANCH   1  16
BRANCH  12  31
HETATM   31  O   UNL     1     -18.450   6.399 -31.200  1.00  0.00    -0.356 OA
HETATM   32  C   UNL     1     -18.125   7.503 -32.034  1.00  0.00     0.210 C 
ENDBRANCH  12  31
TORSDOF 6
ENDMDL
MODEL 9
REMARK VINA RESULT:      -8.1      2.532      6.470
REMARK  6 active torsions:
REMARK  status: ('A' for Active; 'I' for Inactive)
REMARK    1  A    between atoms: C_3  and  C_4 
REMARK       I    between atoms: C_4  and  N_5 
REMARK    2  A    between atoms: N_5  and  C_6 
REMARK    3  A    between atoms: C_6  and  C_7 
REMARK    4  A    between atoms: C_7  and  C_8 
REMARK    5  A    between atoms: C_19  and  O_20 
REMARK    6  A    between atoms: C_29  and  O_30 
ROOT
HETATM    1  C   UNL     1      -8.842   3.404 -30.978  1.00  0.00     0.158 A 
HETATM    2  N   UNL     1      -9.980   3.209 -31.657  1.00  0.00    -0.111 NA
HETATM    3  O   UNL     1      -9.703   2.079 -32.426  1.00  0.00    -0.189 OA
HETATM    4  C   UNL     1      -8.423   1.695 -32.125  1.00  0.00     0.223 A 
HETATM    5  C   UNL     1      -7.766   0.574 -32.711  1.00  0.00     0.089 A 
HETATM    6  N   UNL     1      -6.476   0.240 -32.388  1.00  0.00    -0.352 N 
HETATM    7  H   UNL     1      -5.903   0.750 -31.727  1.00  0.00     0.166 HD
HETATM    8  C   UNL     1      -6.078  -0.874 -33.089  1.00  0.00     0.045 A 
HETATM    9  C   UNL     1      -7.154  -1.260 -33.887  1.00  0.00    -0.007 A 
HETATM   10  C   UNL     1      -8.211  -0.342 -33.642  1.00  0.00     0.048 A 
HETATM   11  C   UNL     1      -4.861  -1.564 -33.081  1.00  0.00     0.067 A 
HETATM   12  C   UNL     1      -4.727  -2.685 -33.912  1.00  0.00     0.070 A 
HETATM   13  C   UNL     1      -5.790  -3.089 -34.721  1.00  0.00     0.038 A 
HETATM   14  C   UNL     1      -7.006  -2.388 -34.717  1.00  0.00     0.016 A 
HETATM   15  N   UNL     1      -7.860   2.476 -31.225  1.00  0.00    -0.203 NA
ENDROOT
BRANCH   1  16
HETATM   16  C   UNL     1      -8.695   4.513 -30.003  1.00  0.00     0.103 C 
BRANCH  16  17
HETATM   17  C   UNL     1      -7.990   5.738 -30.588  1.00  0.00     0.133 C 
BRANCH  17  18
HETATM   18  N   UNL     1      -6.531   5.656 -30.468  1.00  0.00    -0.352 N 
HETATM   19  C   UNL     1      -5.771   5.762 -31.632  1.00  0.00     0.254 C 
HETATM   20  O   UNL     1      -6.255   6.031 -32.729  1.00  0.00    -0.267 OA
HETATM   21  C   UNL     1      -5.982   5.577 -29.119  1.00  0.00     0.152 C 
BRANCH  19  22
HETATM   22  C   UNL     1      -4.309   5.524 -31.551  1.00  0.00     0.038 A 
HETATM   23  C   UNL     1      -3.409   6.587 -31.366  1.00  0.00    -0.044 A 
HETATM   24  C   UNL     1      -3.881   8.012 -31.261  1.00  0.00     0.049 C 
HETATM   25  C   UNL     1      -2.031   6.303 -31.306  1.00  0.00     0.044 A 
HETATM   26  C   UNL     1      -1.564   4.990 -31.424  1.00  0.00     0.068 A 
HETATM   27  C   UNL     1      -2.474   3.952 -31.632  1.00  0.00     0.038 A 
HETATM   28  C   UNL     1      -3.842   4.213 -31.703  1.00  0.00     0.020 A 
BRANCH  26  29
HETATM   29  O   UNL     1      -0.256   4.595 -31.367  1.00  0.00    -0.356 OA
HETATM   30  C   UNL     1       0.671   5.509 -30.797  1.00  0.00     0.210 C 
ENDBRANCH  26  29
ENDBRANCH  19  22
ENDBRANCH  17  18
ENDBRANCH  16  17
ENDBRANCH   1  16
BRANCH  12  31
HETATM   31  O   UNL     1      -3.503  -3.295 -33.837  1.00  0.00    -0.356 OA
HETATM   32  C   UNL     1      -3.491  -4.682 -33.528  1.00  0.00     0.210 C 
ENDBRANCH  12  31
TORSDOF 6
ENDMDL
MODEL 10
REMARK VINA RESULT:      -7.8      5.088      8.692
REMARK  6 active torsions:
REMARK  status: ('A' for Active; 'I' for Inactive)
REMARK    1  A    between atoms: C_3  and  C_4 
REMARK       I    between atoms: C_4  and  N_5 
REMARK    2  A    between atoms: N_5  and  C_6 
REMARK    3  A    between atoms: C_6  and  C_7 
REMARK    4  A    between atoms: C_7  and  C_8 
REMARK    5  A    between atoms: C_19  and  O_20 
REMARK    6  A    between atoms: C_29  and  O_30 
ROOT
HETATM    1  C   UNL     1      -2.966   4.750 -32.032  1.00  0.00     0.158 A 
HETATM    2  N   UNL     1      -1.836   4.073 -32.272  1.00  0.00    -0.111 NA
HETATM    3  O   UNL     1      -0.894   4.733 -31.483  1.00  0.00    -0.189 OA
HETATM    4  C   UNL     1      -1.555   5.741 -30.832  1.00  0.00     0.223 A 
HETATM    5  C   UNL     1      -0.935   6.650 -29.927  1.00  0.00     0.089 A 
HETATM    6  N   UNL     1      -1.638   7.655 -29.313  1.00  0.00    -0.352 N 
HETATM    7  H   UNL     1      -2.626   7.826 -29.450  1.00  0.00     0.166 HD
HETATM    8  C   UNL     1      -0.811   8.389 -28.494  1.00  0.00     0.045 A 
HETATM    9  C   UNL     1       0.463   7.832 -28.595  1.00  0.00    -0.007 A 
HETATM   10  C   UNL     1       0.374   6.739 -29.499  1.00  0.00     0.048 A 
HETATM   11  C   UNL     1      -1.088   9.494 -27.682  1.00  0.00     0.067 A 
HETATM   12  C   UNL     1      -0.037  10.056 -26.944  1.00  0.00     0.070 A 
HETATM   13  C   UNL     1       1.247   9.516 -27.030  1.00  0.00     0.038 A 
HETATM   14  C   UNL     1       1.509   8.407 -27.849  1.00  0.00     0.016 A 
HETATM   15  N   UNL     1      -2.839   5.778 -31.131  1.00  0.00    -0.203 NA
ENDROOT
BRANCH   1  16
HETATM   16  C   UNL     1      -4.253   4.369 -32.664  1.00  0.00     0.103 C 
BRANCH  16  17
HETATM   17  C   UNL     1      -5.289   3.859 -31.661  1.00  0.00     0.133 C 
BRANCH  17  18
HETATM   18  N   UNL     1      -6.524   3.408 -32.309  1.00  0.00    -0.352 N 
HETATM   19  C   UNL     1      -7.479   2.763 -31.524  1.00  0.00     0.254 C 
HETATM   20  O   UNL     1      -7.384   2.656 -30.303  1.00  0.00    -0.267 OA
HETATM   21  C   UNL     1      -6.704   3.767 -33.711  1.00  0.00     0.152 C 
BRANCH  19  22
HETATM   22  C   UNL     1      -8.659   2.162 -32.190  1.00  0.00     0.038 A 
HETATM   23  C   UNL     1      -8.631   0.841 -32.667  1.00  0.00    -0.044 A 
HETATM   24  C   UNL     1      -7.402  -0.017 -32.542  1.00  0.00     0.049 C 
HETATM   25  C   UNL     1      -9.778   0.327 -33.301  1.00  0.00     0.044 A 
HETATM   26  C   UNL     1     -10.926   1.110 -33.452  1.00  0.00     0.068 A 
HETATM   27  C   UNL     1     -10.924   2.429 -32.992  1.00  0.00     0.038 A 
HETATM   28  C   UNL     1      -9.795   2.960 -32.369  1.00  0.00     0.020 A 
BRANCH  26  29
HETATM   29  O   UNL     1     -12.099   0.715 -34.034  1.00  0.00    -0.356 OA
HETATM   30  C   UNL     1     -12.690   1.608 -34.968  1.00  0.00     0.210 C 
ENDBRANCH  26  29
ENDBRANCH  19  22
ENDBRANCH  17  18
ENDBRANCH  16  17
ENDBRANCH   1  16
BRANCH  12  31
HETATM   31  O   UNL     1      -0.403  11.131 -26.179  1.00  0.00    -0.356 OA
HETATM   32  C   UNL     1      -1.100  10.857 -24.971  1.00  0.00     0.210 C 
ENDBRANCH  12  31
TORSDOF 6
ENDMDL
