MODEL 1
REMARK VINA RESULT:      -9.7      0.000      0.000
REMARK  5 active torsions:
REMARK  status: ('A' for Active; 'I' for Inactive)
REMARK    1  A    between atoms: C_5  and  C_6 
REMARK    2  A    between atoms: C_10  and  C_11 
REMARK       I    between atoms: C_11  and  N_12 
REMARK    3  A    between atoms: N_12  and  N_13 
REMARK       I    between atoms: N_13  and  C_14 
REMARK       I    between atoms: C_14  and  N_15 
REMARK    4  A    between atoms: N_15  and  C_16 
REMARK    5  A    between atoms: C_16  and  C_17 
ROOT
HETATM    1  C   UNL     1      -3.861   3.120 -31.196  1.00  0.00     0.288 C 
HETATM    2  N   UNL     1      -2.614   3.689 -31.316  1.00  0.00    -0.261 N 
HETATM    3  O   UNL     1      -4.824   3.736 -30.742  1.00  0.00    -0.264 OA
HETATM    4  H   UNL     1      -1.794   3.196 -31.660  1.00  0.00     0.190 HD
ENDROOT
BRANCH   2   5
HETATM    5  N   UNL     1      -2.401   5.006 -30.883  1.00  0.00    -0.249 N 
HETATM    6  C   UNL     1      -1.110   5.320 -30.513  1.00  0.00     0.334 C 
HETATM    7  N   UNL     1      -0.954   6.657 -30.252  1.00  0.00    -0.341 N 
HETATM    8  O   UNL     1      -0.220   4.479 -30.425  1.00  0.00    -0.246 OA
HETATM    9  H   UNL     1      -1.795   7.138 -29.962  1.00  0.00     0.164 HD
HETATM   10  H   UNL     1      -2.966   5.711 -31.346  1.00  0.00     0.192 HD
BRANCH   7  11
HETATM   11  C   UNL     1       0.304   7.174 -29.747  1.00  0.00     0.129 C 
BRANCH  11  12
HETATM   12  C   UNL     1       0.127   8.302 -28.710  1.00  0.00     0.004 C 
HETATM   13  C   UNL     1      -1.098   8.092 -27.802  1.00  0.00     0.010 C 
HETATM   14  C   UNL     1      -0.911   6.954 -26.787  1.00  0.00    -0.018 C 
HETATM   15  C   UNL     1      -2.130   6.852 -25.869  1.00  0.00     0.010 C 
HETATM   16  C   UNL     1       0.366   7.161 -25.963  1.00  0.00     0.004 C 
HETATM   17  C   UNL     1       1.594   7.343 -26.850  1.00  0.00     0.001 C 
HETATM   18  C   UNL     1       1.397   8.472 -27.859  1.00  0.00     0.006 C 
ENDBRANCH  11  12
ENDBRANCH   7  11
ENDBRANCH   2   5
BRANCH   1  19
HETATM   19  C   UNL     1      -3.949   1.755 -31.636  1.00  0.00     0.121 A 
HETATM   20  N   UNL     1      -3.124   0.780 -31.154  1.00  0.00    -0.272 N 
HETATM   21  N   UNL     1      -3.322  -0.430 -31.700  1.00  0.00    -0.174 NA
HETATM   22  H   UNL     1      -2.390   0.890 -30.459  1.00  0.00     0.189 HD
HETATM   23  C   UNL     1      -4.350  -0.255 -32.545  1.00  0.00     0.089 A 
HETATM   24  C   UNL     1      -4.768   1.105 -32.538  1.00  0.00     0.071 A 
BRANCH  23  25
HETATM   25  C   UNL     1      -4.899  -1.355 -33.341  1.00  0.00    -0.006 A 
HETATM   26  C   UNL     1      -4.120  -2.481 -33.645  1.00  0.00     0.014 A 
HETATM   27  C   UNL     1      -4.656  -3.539 -34.387  1.00  0.00     0.007 A 
HETATM   28  C   UNL     1      -5.975  -3.488 -34.845  1.00  0.00    -0.062 A 
HETATM   29  C   UNL     1      -6.567  -4.636 -35.608  1.00  0.00     0.048 C 
HETATM   30  C   UNL     1      -6.757  -2.369 -34.540  1.00  0.00     0.007 A 
HETATM   31  C   UNL     1      -6.220  -1.309 -33.802  1.00  0.00     0.014 A 
ENDBRANCH  23  25
ENDBRANCH   1  19
TORSDOF 5
ENDMDL
MODEL 2
REMARK VINA RESULT:      -9.3      0.874      1.636
REMARK  5 active torsions:
REMARK  status: ('A' for Active; 'I' for Inactive)
REMARK    1  A    between atoms: C_5  and  C_6 
REMARK    2  A    between atoms: C_10  and  C_11 
REMARK       I    between atoms: C_11  and  N_12 
REMARK    3  A    between atoms: N_12  and  N_13 
REMARK       I    between atoms: N_13  and  C_14 
REMARK       I    between atoms: C_14  and  N_15 
REMARK    4  A    between atoms: N_15  and  C_16 
REMARK    5  A    between atoms: C_16  and  C_17 
ROOT
HETATM    1  C   UNL     1      -3.603   3.162 -31.582  1.00  0.00     0.288 C 
HETATM    2  N   UNL     1      -2.517   3.739 -32.202  1.00  0.00    -0.261 N 
HETATM    3  O   UNL     1      -4.331   3.788 -30.814  1.00  0.00    -0.264 OA
HETATM    4  H   UNL     1      -1.882   3.239 -32.819  1.00  0.00     0.190 HD
ENDROOT
BRANCH   2   5
HETATM    5  N   UNL     1      -2.189   5.077 -31.938  1.00  0.00    -0.249 N 
HETATM    6  C   UNL     1      -1.149   5.283 -31.056  1.00  0.00     0.334 C 
HETATM    7  N   UNL     1      -0.793   6.604 -30.971  1.00  0.00    -0.341 N 
HETATM    8  O   UNL     1      -0.625   4.371 -30.422  1.00  0.00    -0.246 OA
HETATM    9  H   UNL     1      -1.527   7.261 -31.197  1.00  0.00     0.164 HD
HETATM   10  H   UNL     1      -2.305   5.713 -32.720  1.00  0.00     0.192 HD
BRANCH   7  11
HETATM   11  C   UNL     1       0.211   7.043 -30.020  1.00  0.00     0.129 C 
BRANCH  11  12
HETATM   12  C   UNL     1      -0.235   6.896 -28.552  1.00  0.00     0.004 C 
HETATM   13  C   UNL     1       0.894   7.198 -27.550  1.00  0.00     0.010 C 
HETATM   14  C   UNL     1       1.250   8.691 -27.471  1.00  0.00    -0.018 C 
HETATM   15  C   UNL     1       2.320   8.929 -26.406  1.00  0.00     0.010 C 
HETATM   16  C   UNL     1       0.003   9.535 -27.179  1.00  0.00     0.004 C 
HETATM   17  C   UNL     1      -1.116   9.266 -28.180  1.00  0.00     0.001 C 
HETATM   18  C   UNL     1      -1.459   7.779 -28.255  1.00  0.00     0.006 C 
ENDBRANCH  11  12
ENDBRANCH   7  11
ENDBRANCH   2   5
BRANCH   1  19
HETATM   19  C   UNL     1      -3.816   1.777 -31.900  1.00  0.00     0.121 A 
HETATM   20  N   UNL     1      -3.208   0.769 -31.208  1.00  0.00    -0.272 N 
HETATM   21  N   UNL     1      -3.494  -0.461 -31.661  1.00  0.00    -0.174 NA
HETATM   22  H   UNL     1      -2.569   0.867 -30.424  1.00  0.00     0.189 HD
HETATM   23  C   UNL     1      -4.362  -0.259 -32.665  1.00  0.00     0.089 A 
HETATM   24  C   UNL     1      -4.584   1.134 -32.850  1.00  0.00     0.071 A 
BRANCH  23  25
HETATM   25  C   UNL     1      -4.941  -1.367 -33.427  1.00  0.00    -0.006 A 
HETATM   26  C   UNL     1      -4.173  -2.491 -33.759  1.00  0.00     0.014 A 
HETATM   27  C   UNL     1      -4.737  -3.557 -34.468  1.00  0.00     0.007 A 
HETATM   28  C   UNL     1      -6.077  -3.514 -34.866  1.00  0.00    -0.062 A 
HETATM   29  C   UNL     1      -6.698  -4.670 -35.593  1.00  0.00     0.048 C 
HETATM   30  C   UNL     1      -6.849  -2.396 -34.532  1.00  0.00     0.007 A 
HETATM   31  C   UNL     1      -6.283  -1.329 -33.827  1.00  0.00     0.014 A 
ENDBRANCH  23  25
ENDBRANCH   1  19
TORSDOF 5
ENDMDL
MODEL 3
REMARK VINA RESULT:      -8.9      2.051     11.091
REMARK  5 active torsions:
REMARK  status: ('A' for Active; 'I' for Inactive)
REMARK    1  A    between atoms: C_5  and  C_6 
REMARK    2  A    between atoms: C_10  and  C_11 
REMARK       I    between atoms: C_11  and  N_12 
REMARK    3  A    between atoms: N_12  and  N_13 
REMARK       I    between atoms: N_13  and  C_14 
REMARK       I    between atoms: C_14  and  N_15 
REMARK    4  A    between atoms: N_15  and  C_16 
REMARK    5  A    between atoms: C_16  and  C_17 
ROOT
HETATM    1  C   UNL     1      -1.587   5.079 -31.250  1.00  0.00     0.288 C 
HETATM    2  N   UNL     1      -2.791   4.537 -30.860  1.00  0.00    -0.261 N 
HETATM    3  O   UNL     1      -1.224   5.098 -32.424  1.00  0.00    -0.264 OA
HETATM    4  H   UNL     1      -3.104   4.482 -29.894  1.00  0.00     0.190 HD
ENDROOT
BRANCH   2   5
HETATM    5  N   UNL     1      -3.636   3.950 -31.813  1.00  0.00    -0.249 N 
HETATM    6  C   UNL     1      -3.641   2.572 -31.851  1.00  0.00     0.334 C 
HETATM    7  N   UNL     1      -4.600   2.078 -32.697  1.00  0.00    -0.341 N 
HETATM    8  O   UNL     1      -2.858   1.886 -31.199  1.00  0.00    -0.246 OA
HETATM    9  H   UNL     1      -4.871   2.699 -33.446  1.00  0.00     0.164 HD
HETATM   10  H   UNL     1      -4.500   4.451 -31.992  1.00  0.00     0.192 HD
BRANCH   7  11
HETATM   11  C   UNL     1      -4.700   0.654 -32.957  1.00  0.00     0.129 C 
BRANCH  11  12
HETATM   12  C   UNL     1      -6.061   0.054 -32.549  1.00  0.00     0.004 C 
HETATM   13  C   UNL     1      -7.228   1.040 -32.734  1.00  0.00     0.010 C 
HETATM   14  C   UNL     1      -7.585   1.286 -34.208  1.00  0.00    -0.018 C 
HETATM   15  C   UNL     1      -8.799   2.209 -34.317  1.00  0.00     0.010 C 
HETATM   16  C   UNL     1      -7.852  -0.040 -34.934  1.00  0.00     0.004 C 
HETATM   17  C   UNL     1      -6.691  -1.017 -34.782  1.00  0.00     0.001 C 
HETATM   18  C   UNL     1      -6.340  -1.250 -33.313  1.00  0.00     0.006 C 
ENDBRANCH  11  12
ENDBRANCH   7  11
ENDBRANCH   2   5
BRANCH   1  19
HETATM   19  C   UNL     1      -0.790   5.616 -30.181  1.00  0.00     0.121 A 
HETATM   20  N   UNL     1       0.192   4.890 -29.569  1.00  0.00    -0.272 N 
HETATM   21  N   UNL     1       0.813   5.535 -28.570  1.00  0.00    -0.174 NA
HETATM   22  H   UNL     1       0.470   3.936 -29.785  1.00  0.00     0.189 HD
HETATM   23  C   UNL     1       0.248   6.752 -28.550  1.00  0.00     0.089 A 
HETATM   24  C   UNL     1      -0.768   6.840 -29.542  1.00  0.00     0.071 A 
BRANCH  23  25
HETATM   25  C   UNL     1       0.660   7.786 -27.599  1.00  0.00    -0.006 A 
HETATM   26  C   UNL     1       1.656   7.530 -26.645  1.00  0.00     0.014 A 
HETATM   27  C   UNL     1       2.062   8.528 -25.753  1.00  0.00     0.007 A 
HETATM   28  C   UNL     1       1.476   9.797 -25.793  1.00  0.00    -0.062 A 
HETATM   29  C   UNL     1       1.935  10.882 -24.864  1.00  0.00     0.048 C 
HETATM   30  C   UNL     1       0.487  10.058 -26.747  1.00  0.00     0.007 A 
HETATM   31  C   UNL     1       0.077   9.059 -27.635  1.00  0.00     0.014 A 
ENDBRANCH  23  25
ENDBRANCH   1  19
TORSDOF 5
ENDMDL
MODEL 4
REMARK VINA RESULT:      -8.8      1.781     10.801
REMARK  5 active torsions:
REMARK  status: ('A' for Active; 'I' for Inactive)
REMARK    1  A    between atoms: C_5  and  C_6 
REMARK    2  A    between atoms: C_10  and  C_11 
REMARK       I    between atoms: C_11  and  N_12 
REMARK    3  A    between atoms: N_12  and  N_13 
REMARK       I    between atoms: N_13  and  C_14 
REMARK       I    between atoms: C_14  and  N_15 
REMARK    4  A    between atoms: N_15  and  C_16 
REMARK    5  A    between atoms: C_16  and  C_17 
ROOT
HETATM    1  C   UNL     1      -2.946   5.471 -31.729  1.00  0.00     0.288 C 
HETATM    2  N   UNL     1      -3.662   4.492 -31.077  1.00  0.00    -0.261 N 
HETATM    3  O   UNL     1      -3.261   5.885 -32.843  1.00  0.00    -0.264 OA
HETATM    4  H   UNL     1      -3.409   4.111 -30.170  1.00  0.00     0.190 HD
ENDROOT
BRANCH   2   5
HETATM    5  N   UNL     1      -4.776   3.908 -31.699  1.00  0.00    -0.249 N 
HETATM    6  C   UNL     1      -4.557   2.697 -32.319  1.00  0.00     0.334 C 
HETATM    7  N   UNL     1      -5.719   2.123 -32.766  1.00  0.00    -0.341 N 
HETATM    8  O   UNL     1      -3.437   2.212 -32.454  1.00  0.00    -0.246 OA
HETATM    9  H   UNL     1      -6.468   2.771 -32.964  1.00  0.00     0.164 HD
HETATM   10  H   UNL     1      -5.664   4.072 -31.236  1.00  0.00     0.192 HD
BRANCH   7  11
HETATM   11  C   UNL     1      -5.693   0.895 -33.537  1.00  0.00     0.129 C 
BRANCH  11  12
HETATM   12  C   UNL     1      -6.072  -0.352 -32.712  1.00  0.00     0.004 C 
HETATM   13  C   UNL     1      -6.660  -1.483 -33.573  1.00  0.00     0.010 C 
HETATM   14  C   UNL     1      -5.614  -2.177 -34.459  1.00  0.00    -0.018 C 
HETATM   15  C   UNL     1      -6.248  -3.337 -35.226  1.00  0.00     0.010 C 
HETATM   16  C   UNL     1      -4.429  -2.672 -33.619  1.00  0.00     0.004 C 
HETATM   17  C   UNL     1      -3.818  -1.554 -32.780  1.00  0.00     0.001 C 
HETATM   18  C   UNL     1      -4.867  -0.867 -31.907  1.00  0.00     0.006 C 
ENDBRANCH  11  12
ENDBRANCH   7  11
ENDBRANCH   2   5
BRANCH   1  19
HETATM   19  C   UNL     1      -1.804   5.966 -31.010  1.00  0.00     0.121 A 
HETATM   20  N   UNL     1      -0.562   6.034 -31.575  1.00  0.00    -0.272 N 
HETATM   21  N   UNL     1       0.393   6.489 -30.750  1.00  0.00    -0.174 NA
HETATM   22  H   UNL     1      -0.306   5.765 -32.520  1.00  0.00     0.189 HD
HETATM   23  C   UNL     1      -0.252   6.774 -29.608  1.00  0.00     0.089 A 
HETATM   24  C   UNL     1      -1.633   6.453 -29.730  1.00  0.00     0.071 A 
BRANCH  23  25
HETATM   25  C   UNL     1       0.439   7.321 -28.439  1.00  0.00    -0.006 A 
HETATM   26  C   UNL     1       0.341   6.696 -27.188  1.00  0.00     0.014 A 
HETATM   27  C   UNL     1       1.021   7.209 -26.078  1.00  0.00     0.007 A 
HETATM   28  C   UNL     1       1.805   8.361 -26.197  1.00  0.00    -0.062 A 
HETATM   29  C   UNL     1       2.568   8.894 -25.020  1.00  0.00     0.048 C 
HETATM   30  C   UNL     1       1.911   8.984 -27.445  1.00  0.00     0.007 A 
HETATM   31  C   UNL     1       1.226   8.473 -28.553  1.00  0.00     0.014 A 
ENDBRANCH  23  25
ENDBRANCH   1  19
TORSDOF 5
ENDMDL
MODEL 5
REMARK VINA RESULT:      -8.8      1.726     11.130
REMARK  5 active torsions:
REMARK  status: ('A' for Active; 'I' for Inactive)
REMARK    1  A    between atoms: C_5  and  C_6 
REMARK    2  A    between atoms: C_10  and  C_11 
REMARK       I    between atoms: C_11  and  N_12 
REMARK    3  A    between atoms: N_12  and  N_13 
REMARK       I    between atoms: N_13  and  C_14 
REMARK       I    between atoms: C_14  and  N_15 
REMARK    4  A    between atoms: N_15  and  C_16 
REMARK    5  A    between atoms: C_16  and  C_17 
ROOT
HETATM    1  C   UNL     1      -2.839   4.593 -31.761  1.00  0.00     0.288 C 
HETATM    2  N   UNL     1      -3.560   3.735 -30.962  1.00  0.00    -0.261 N 
HETATM    3  O   UNL     1      -3.015   4.666 -32.976  1.00  0.00    -0.264 OA
HETATM    4  H   UNL     1      -3.416   3.633 -29.961  1.00  0.00     0.190 HD
ENDROOT
BRANCH   2   5
HETATM    5  N   UNL     1      -4.513   2.880 -31.535  1.00  0.00    -0.249 N 
HETATM    6  C   UNL     1      -4.138   1.560 -31.670  1.00  0.00     0.334 C 
HETATM    7  N   UNL     1      -5.173   0.766 -32.092  1.00  0.00    -0.341 N 
HETATM    8  O   UNL     1      -2.998   1.166 -31.442  1.00  0.00    -0.246 OA
HETATM    9  H   UNL     1      -5.891   1.242 -32.619  1.00  0.00     0.164 HD
HETATM   10  H   UNL     1      -5.479   3.097 -31.312  1.00  0.00     0.192 HD
BRANCH   7  11
HETATM   11  C   UNL     1      -4.958  -0.637 -32.395  1.00  0.00     0.129 C 
BRANCH  11  12
HETATM   12  C   UNL     1      -4.817  -0.919 -33.904  1.00  0.00     0.004 C 
HETATM   13  C   UNL     1      -4.242  -2.316 -34.200  1.00  0.00     0.010 C 
HETATM   14  C   UNL     1      -5.233  -3.453 -33.906  1.00  0.00    -0.018 C 
HETATM   15  C   UNL     1      -4.628  -4.802 -34.295  1.00  0.00     0.010 C 
HETATM   16  C   UNL     1      -6.559  -3.226 -34.643  1.00  0.00     0.004 C 
HETATM   17  C   UNL     1      -7.155  -1.856 -34.337  1.00  0.00     0.001 C 
HETATM   18  C   UNL     1      -6.161  -0.733 -34.628  1.00  0.00     0.006 C 
ENDBRANCH  11  12
ENDBRANCH   7  11
ENDBRANCH   2   5
BRANCH   1  19
HETATM   19  C   UNL     1      -1.865   5.392 -31.069  1.00  0.00     0.121 A 
HETATM   20  N   UNL     1      -0.522   5.237 -31.267  1.00  0.00    -0.272 N 
HETATM   21  N   UNL     1       0.242   6.042 -30.514  1.00  0.00    -0.174 NA
HETATM   22  H   UNL     1      -0.071   4.581 -31.897  1.00  0.00     0.189 HD
HETATM   23  C   UNL     1      -0.632   6.789 -29.821  1.00  0.00     0.089 A 
HETATM   24  C   UNL     1      -1.966   6.406 -30.137  1.00  0.00     0.071 A 
BRANCH  23  25
HETATM   25  C   UNL     1      -0.198   7.821 -28.878  1.00  0.00    -0.006 A 
HETATM   26  C   UNL     1       1.118   7.847 -28.395  1.00  0.00     0.014 A 
HETATM   27  C   UNL     1       1.534   8.849 -27.512  1.00  0.00     0.007 A 
HETATM   28  C   UNL     1       0.640   9.837 -27.088  1.00  0.00    -0.062 A 
HETATM   29  C   UNL     1       1.091  10.936 -26.171  1.00  0.00     0.048 C 
HETATM   30  C   UNL     1      -0.673   9.818 -27.572  1.00  0.00     0.007 A 
HETATM   31  C   UNL     1      -1.089   8.814 -28.451  1.00  0.00     0.014 A 
ENDBRANCH  23  25
ENDBRANCH   1  19
TORSDOF 5
ENDMDL
MODEL 6
REMARK VINA RESULT:      -8.7      1.579     11.295
REMARK  5 active torsions:
REMARK  status: ('A' for Active; 'I' for Inactive)
REMARK    1  A    between atoms: C_5  and  C_6 
REMARK    2  A    between atoms: C_10  and  C_11 
REMARK       I    between atoms: C_11  and  N_12 
REMARK    3  A    between atoms: N_12  and  N_13 
REMARK       I    between atoms: N_13  and  C_14 
REMARK       I    between atoms: C_14  and  N_15 
REMARK    4  A    between atoms: N_15  and  C_16 
REMARK    5  A    between atoms: C_16  and  C_17 
ROOT
HETATM    1  C   UNL     1      -0.937   5.317 -30.881  1.00  0.00     0.288 C 
HETATM    2  N   UNL     1      -2.204   4.785 -30.793  1.00  0.00    -0.261 N 
HETATM    3  O   UNL     1      -0.099   4.892 -31.674  1.00  0.00    -0.264 OA
HETATM    4  H   UNL     1      -2.907   5.098 -30.129  1.00  0.00     0.190 HD
ENDROOT
BRANCH   2   5
HETATM    5  N   UNL     1      -2.565   3.698 -31.603  1.00  0.00    -0.249 N 
HETATM    6  C   UNL     1      -3.878   3.288 -31.515  1.00  0.00     0.334 C 
HETATM    7  N   UNL     1      -4.187   2.328 -32.444  1.00  0.00    -0.341 N 
HETATM    8  O   UNL     1      -4.661   3.738 -30.683  1.00  0.00    -0.246 OA
HETATM    9  H   UNL     1      -3.405   1.772 -32.762  1.00  0.00     0.164 HD
HETATM   10  H   UNL     1      -2.093   3.652 -32.501  1.00  0.00     0.192 HD
BRANCH   7  11
HETATM   11  C   UNL     1      -5.489   1.690 -32.448  1.00  0.00     0.129 C 
BRANCH  11  12
HETATM   12  C   UNL     1      -5.483   0.288 -31.805  1.00  0.00     0.004 C 
HETATM   13  C   UNL     1      -6.447  -0.692 -32.498  1.00  0.00     0.010 C 
HETATM   14  C   UNL     1      -5.962  -1.139 -33.886  1.00  0.00    -0.018 C 
HETATM   15  C   UNL     1      -6.923  -2.168 -34.482  1.00  0.00     0.010 C 
HETATM   16  C   UNL     1      -4.541  -1.712 -33.810  1.00  0.00     0.004 C 
HETATM   17  C   UNL     1      -3.568  -0.740 -33.150  1.00  0.00     0.001 C 
HETATM   18  C   UNL     1      -4.062  -0.298 -31.773  1.00  0.00     0.006 C 
ENDBRANCH  11  12
ENDBRANCH   7  11
ENDBRANCH   2   5
BRANCH   1  19
HETATM   19  C   UNL     1      -0.671   6.401 -29.976  1.00  0.00     0.121 A 
HETATM   20  N   UNL     1      -1.368   7.575 -30.021  1.00  0.00    -0.272 N 
HETATM   21  N   UNL     1      -0.965   8.489 -29.126  1.00  0.00    -0.174 NA
HETATM   22  H   UNL     1      -2.122   7.812 -30.659  1.00  0.00     0.189 HD
HETATM   23  C   UNL     1       0.008   7.878 -28.432  1.00  0.00     0.089 A 
HETATM   24  C   UNL     1       0.227   6.568 -28.941  1.00  0.00     0.071 A 
BRANCH  23  25
HETATM   25  C   UNL     1       0.712   8.539 -27.331  1.00  0.00    -0.006 A 
HETATM   26  C   UNL     1       0.457   9.882 -27.017  1.00  0.00     0.014 A 
HETATM   27  C   UNL     1       1.115  10.502 -25.950  1.00  0.00     0.007 A 
HETATM   28  C   UNL     1       2.046   9.796 -25.183  1.00  0.00    -0.062 A 
HETATM   29  C   UNL     1       2.727  10.445 -24.015  1.00  0.00     0.048 C 
HETATM   30  C   UNL     1       2.300   8.454 -25.490  1.00  0.00     0.007 A 
HETATM   31  C   UNL     1       1.645   7.835 -26.559  1.00  0.00     0.014 A 
ENDBRANCH  23  25
ENDBRANCH   1  19
TORSDOF 5
ENDMDL
MODEL 7
REMARK VINA RESULT:      -8.6      1.734      2.675
REMARK  5 active torsions:
REMARK  status: ('A' for Active; 'I' for Inactive)
REMARK    1  A    between atoms: C_5  and  C_6 
REMARK    2  A    between atoms: C_10  and  C_11 
REMARK       I    between atoms: C_11  and  N_12 
REMARK    3  A    between atoms: N_12  and  N_13 
REMARK       I    between atoms: N_13  and  C_14 
REMARK       I    between atoms: C_14  and  N_15 
REMARK    4  A    between atoms: N_15  and  C_16 
REMARK    5  A    between atoms: C_16  and  C_17 
ROOT
HETATM    1  C   UNL     1      -2.356   4.530 -31.209  1.00  0.00     0.288 C 
HETATM    2  N   UNL     1      -2.918   5.671 -30.680  1.00  0.00    -0.261 N 
HETATM    3  O   UNL     1      -1.165   4.460 -31.504  1.00  0.00    -0.264 OA
HETATM    4  H   UNL     1      -3.905   5.767 -30.454  1.00  0.00     0.190 HD
ENDROOT
BRANCH   2   5
HETATM    5  N   UNL     1      -2.131   6.816 -30.491  1.00  0.00    -0.249 N 
HETATM    6  C   UNL     1      -2.030   7.275 -29.195  1.00  0.00     0.334 C 
HETATM    7  N   UNL     1      -1.126   8.298 -29.073  1.00  0.00    -0.341 N 
HETATM    8  O   UNL     1      -2.695   6.810 -28.272  1.00  0.00    -0.246 OA
HETATM    9  H   UNL     1      -0.975   8.838 -29.914  1.00  0.00     0.164 HD
HETATM   10  H   UNL     1      -1.326   6.894 -31.105  1.00  0.00     0.192 HD
BRANCH   7  11
HETATM   11  C   UNL     1      -0.951   8.988 -27.810  1.00  0.00     0.129 C 
BRANCH  11  12
HETATM   12  C   UNL     1       0.452   9.606 -27.643  1.00  0.00     0.004 C 
HETATM   13  C   UNL     1       0.626  10.343 -26.302  1.00  0.00     0.010 C 
HETATM   14  C   UNL     1       0.714   9.394 -25.097  1.00  0.00    -0.018 C 
HETATM   15  C   UNL     1       0.963  10.184 -23.812  1.00  0.00     0.010 C 
HETATM   16  C   UNL     1       1.814   8.346 -25.306  1.00  0.00     0.004 C 
HETATM   17  C   UNL     1       1.639   7.588 -26.618  1.00  0.00     0.001 C 
HETATM   18  C   UNL     1       1.548   8.540 -27.810  1.00  0.00     0.006 C 
ENDBRANCH  11  12
ENDBRANCH   7  11
ENDBRANCH   2   5
BRANCH   1  19
HETATM   19  C   UNL     1      -3.268   3.435 -31.392  1.00  0.00     0.121 A 
HETATM   20  N   UNL     1      -4.268   3.164 -30.502  1.00  0.00    -0.272 N 
HETATM   21  N   UNL     1      -5.004   2.085 -30.812  1.00  0.00    -0.174 NA
HETATM   22  H   UNL     1      -4.484   3.676 -29.652  1.00  0.00     0.189 HD
HETATM   23  C   UNL     1      -4.496   1.652 -31.977  1.00  0.00     0.089 A 
HETATM   24  C   UNL     1      -3.401   2.470 -32.371  1.00  0.00     0.071 A 
BRANCH  23  25
HETATM   25  C   UNL     1      -5.037   0.485 -32.676  1.00  0.00    -0.006 A 
HETATM   26  C   UNL     1      -6.393   0.420 -33.027  1.00  0.00     0.014 A 
HETATM   27  C   UNL     1      -6.900  -0.687 -33.714  1.00  0.00     0.007 A 
HETATM   28  C   UNL     1      -6.064  -1.755 -34.055  1.00  0.00    -0.062 A 
HETATM   29  C   UNL     1      -6.594  -2.928 -34.826  1.00  0.00     0.048 C 
HETATM   30  C   UNL     1      -4.709  -1.692 -33.712  1.00  0.00     0.007 A 
HETATM   31  C   UNL     1      -4.203  -0.586 -33.021  1.00  0.00     0.014 A 
ENDBRANCH  23  25
ENDBRANCH   1  19
TORSDOF 5
ENDMDL
MODEL 8
REMARK VINA RESULT:      -8.6      2.597     10.778
REMARK  5 active torsions:
REMARK  status: ('A' for Active; 'I' for Inactive)
REMARK    1  A    between atoms: C_5  and  C_6 
REMARK    2  A    between atoms: C_10  and  C_11 
REMARK       I    between atoms: C_11  and  N_12 
REMARK    3  A    between atoms: N_12  and  N_13 
REMARK       I    between atoms: N_13  and  C_14 
REMARK       I    between atoms: C_14  and  N_15 
REMARK    4  A    between atoms: N_15  and  C_16 
REMARK    5  A    between atoms: C_16  and  C_17 
ROOT
HETATM    1  C   UNL     1      -5.284   5.389 -33.055  1.00  0.00     0.288 C 
HETATM    2  N   UNL     1      -5.928   4.330 -32.456  1.00  0.00    -0.261 N 
HETATM    3  O   UNL     1      -5.361   5.609 -34.262  1.00  0.00    -0.264 OA
HETATM    4  H   UNL     1      -5.859   4.107 -31.467  1.00  0.00     0.190 HD
ENDROOT
BRANCH   2   5
HETATM    5  N   UNL     1      -6.679   3.437 -33.235  1.00  0.00    -0.249 N 
HETATM    6  C   UNL     1      -6.080   2.227 -33.515  1.00  0.00     0.334 C 
HETATM    7  N   UNL     1      -6.933   1.358 -34.144  1.00  0.00    -0.341 N 
HETATM    8  O   UNL     1      -4.911   1.983 -33.232  1.00  0.00    -0.246 OA
HETATM    9  H   UNL     1      -7.679   1.794 -34.669  1.00  0.00     0.164 HD
HETATM   10  H   UNL     1      -7.682   3.467 -33.081  1.00  0.00     0.192 HD
BRANCH   7  11
HETATM   11  C   UNL     1      -6.465   0.069 -34.617  1.00  0.00     0.129 C 
BRANCH  11  12
HETATM   12  C   UNL     1      -6.618  -1.056 -33.572  1.00  0.00     0.004 C 
HETATM   13  C   UNL     1      -7.043  -2.397 -34.196  1.00  0.00     0.010 C 
HETATM   14  C   UNL     1      -5.924  -3.069 -35.007  1.00  0.00    -0.018 C 
HETATM   15  C   UNL     1      -6.387  -4.429 -35.530  1.00  0.00     0.010 C 
HETATM   16  C   UNL     1      -4.653  -3.223 -34.162  1.00  0.00     0.004 C 
HETATM   17  C   UNL     1      -4.204  -1.895 -33.560  1.00  0.00     0.001 C 
HETATM   18  C   UNL     1      -5.324  -1.232 -32.760  1.00  0.00     0.006 C 
ENDBRANCH  11  12
ENDBRANCH   7  11
ENDBRANCH   2   5
BRANCH   1  19
HETATM   19  C   UNL     1      -4.514   6.212 -32.163  1.00  0.00     0.121 A 
HETATM   20  N   UNL     1      -4.990   7.394 -31.670  1.00  0.00    -0.272 N 
HETATM   21  N   UNL     1      -4.126   8.049 -30.879  1.00  0.00    -0.174 NA
HETATM   22  H   UNL     1      -5.897   7.812 -31.857  1.00  0.00     0.189 HD
HETATM   23  C   UNL     1      -3.053   7.245 -30.811  1.00  0.00     0.089 A 
HETATM   24  C   UNL     1      -3.256   6.085 -31.610  1.00  0.00     0.071 A 
BRANCH  23  25
HETATM   25  C   UNL     1      -1.870   7.591 -30.020  1.00  0.00    -0.006 A 
HETATM   26  C   UNL     1      -1.936   8.571 -29.020  1.00  0.00     0.014 A 
HETATM   27  C   UNL     1      -0.809   8.882 -28.252  1.00  0.00     0.007 A 
HETATM   28  C   UNL     1       0.405   8.225 -28.474  1.00  0.00    -0.062 A 
HETATM   29  C   UNL     1       1.606   8.527 -27.627  1.00  0.00     0.048 C 
HETATM   30  C   UNL     1       0.473   7.242 -29.467  1.00  0.00     0.007 A 
HETATM   31  C   UNL     1      -0.652   6.935 -30.238  1.00  0.00     0.014 A 
ENDBRANCH  23  25
ENDBRANCH   1  19
TORSDOF 5
ENDMDL
MODEL 9
REMARK VINA RESULT:      -8.5      8.505     12.360
REMARK  5 active torsions:
REMARK  status: ('A' for Active; 'I' for Inactive)
REMARK    1  A    between atoms: C_5  and  C_6 
REMARK    2  A    between atoms: C_10  and  C_11 
REMARK       I    between atoms: C_11  and  N_12 
REMARK    3  A    between atoms: N_12  and  N_13 
REMARK       I    between atoms: N_13  and  C_14 
REMARK       I    between atoms: C_14  and  N_15 
REMARK    4  A    between atoms: N_15  and  C_16 
REMARK    5  A    between atoms: C_16  and  C_17 
ROOT
HETATM    1  C   UNL     1     -12.457   1.745 -34.321  1.00  0.00     0.288 C 
HETATM    2  N   UNL     1     -11.123   1.910 -34.026  1.00  0.00    -0.261 N 
HETATM    3  O   UNL     1     -12.840   1.125 -35.311  1.00  0.00    -0.264 OA
HETATM    4  H   UNL     1     -10.777   2.442 -33.231  1.00  0.00     0.190 HD
ENDROOT
BRANCH   2   5
HETATM    5  N   UNL     1     -10.146   1.388 -34.887  1.00  0.00    -0.249 N 
HETATM    6  C   UNL     1      -8.958   1.012 -34.297  1.00  0.00     0.334 C 
HETATM    7  N   UNL     1      -8.120   0.374 -35.175  1.00  0.00    -0.341 N 
HETATM    8  O   UNL     1      -8.698   1.243 -33.119  1.00  0.00    -0.246 OA
HETATM    9  H   UNL     1      -8.258   0.610 -36.148  1.00  0.00     0.164 HD
HETATM   10  H   UNL     1     -10.502   0.845 -35.667  1.00  0.00     0.192 HD
BRANCH   7  11
HETATM   11  C   UNL     1      -6.778  -0.009 -34.777  1.00  0.00     0.129 C 
BRANCH  11  12
HETATM   12  C   UNL     1      -6.754  -1.090 -33.677  1.00  0.00     0.004 C 
HETATM   13  C   UNL     1      -7.040  -2.502 -34.220  1.00  0.00     0.010 C 
HETATM   14  C   UNL     1      -5.882  -3.077 -35.050  1.00  0.00    -0.018 C 
HETATM   15  C   UNL     1      -6.199  -4.506 -35.491  1.00  0.00     0.010 C 
HETATM   16  C   UNL     1      -4.569  -3.038 -34.257  1.00  0.00     0.004 C 
HETATM   17  C   UNL     1      -4.259  -1.639 -33.736  1.00  0.00     0.001 C 
HETATM   18  C   UNL     1      -5.418  -1.073 -32.917  1.00  0.00     0.006 C 
ENDBRANCH  11  12
ENDBRANCH   7  11
ENDBRANCH   2   5
BRANCH   1  19
HETATM   19  C   UNL     1     -13.364   2.356 -33.388  1.00  0.00     0.121 A 
HETATM   20  N   UNL     1     -14.277   1.629 -32.679  1.00  0.00    -0.272 N 
HETATM   21  N   UNL     1     -15.065   2.364 -31.880  1.00  0.00    -0.174 NA
HETATM   22  H   UNL     1     -14.418   0.624 -32.716  1.00  0.00     0.189 HD
HETATM   23  C   UNL     1     -14.625   3.623 -32.035  1.00  0.00     0.089 A 
HETATM   24  C   UNL     1     -13.561   3.660 -32.979  1.00  0.00     0.071 A 
BRANCH  23  25
HETATM   25  C   UNL     1     -15.218   4.750 -31.311  1.00  0.00    -0.006 A 
HETATM   26  C   UNL     1     -16.590   5.020 -31.402  1.00  0.00     0.014 A 
HETATM   27  C   UNL     1     -17.156   6.084 -30.692  1.00  0.00     0.007 A 
HETATM   28  C   UNL     1     -16.359   6.902 -29.884  1.00  0.00    -0.062 A 
HETATM   29  C   UNL     1     -16.966   8.020 -29.090  1.00  0.00     0.048 C 
HETATM   30  C   UNL     1     -14.990   6.632 -29.787  1.00  0.00     0.007 A 
HETATM   31  C   UNL     1     -14.424   5.571 -30.501  1.00  0.00     0.014 A 
ENDBRANCH  23  25
ENDBRANCH   1  19
TORSDOF 5
ENDMDL
MODEL 10
REMARK VINA RESULT:      -8.4      1.808      2.584
REMARK  5 active torsions:
REMARK  status: ('A' for Active; 'I' for Inactive)
REMARK    1  A    between atoms: C_5  and  C_6 
REMARK    2  A    between atoms: C_10  and  C_11 
REMARK       I    between atoms: C_11  and  N_12 
REMARK    3  A    between atoms: N_12  and  N_13 
REMARK       I    between atoms: N_13  and  C_14 
REMARK       I    between atoms: C_14  and  N_15 
REMARK    4  A    between atoms: N_15  and  C_16 
REMARK    5  A    between atoms: C_16  and  C_17 
ROOT
HETATM    1  C   UNL     1      -3.339   3.662 -31.613  1.00  0.00     0.288 C 
HETATM    2  N   UNL     1      -3.966   4.867 -31.385  1.00  0.00    -0.261 N 
HETATM    3  O   UNL     1      -2.139   3.495 -31.400  1.00  0.00    -0.264 OA
HETATM    4  H   UNL     1      -4.948   5.042 -31.578  1.00  0.00     0.190 HD
ENDROOT
BRANCH   2   5
HETATM    5  N   UNL     1      -3.225   5.965 -30.925  1.00  0.00    -0.249 N 
HETATM    6  C   UNL     1      -3.661   6.540 -29.750  1.00  0.00     0.334 C 
HETATM    7  N   UNL     1      -2.800   7.502 -29.290  1.00  0.00    -0.341 N 
HETATM    8  O   UNL     1      -4.711   6.216 -29.201  1.00  0.00    -0.246 OA
HETATM    9  H   UNL     1      -2.234   7.946 -30.000  1.00  0.00     0.164 HD
HETATM   10  H   UNL     1      -2.228   5.925 -31.113  1.00  0.00     0.192 HD
BRANCH   7  11
HETATM   11  C   UNL     1      -3.129   8.298 -28.122  1.00  0.00     0.129 C 
BRANCH  11  12
HETATM   12  C   UNL     1      -2.286   7.939 -26.882  1.00  0.00     0.004 C 
HETATM   13  C   UNL     1      -0.821   7.617 -27.228  1.00  0.00     0.010 C 
HETATM   14  C   UNL     1      -0.008   8.856 -27.634  1.00  0.00    -0.018 C 
HETATM   15  C   UNL     1       1.451   8.477 -27.888  1.00  0.00     0.010 C 
HETATM   16  C   UNL     1      -0.102   9.947 -26.560  1.00  0.00     0.004 C 
HETATM   17  C   UNL     1      -1.549  10.296 -26.226  1.00  0.00     0.001 C 
HETATM   18  C   UNL     1      -2.350   9.058 -25.829  1.00  0.00     0.006 C 
ENDBRANCH  11  12
ENDBRANCH   7  11
ENDBRANCH   2   5
BRANCH   1  19
HETATM   19  C   UNL     1      -4.191   2.622 -32.119  1.00  0.00     0.121 A 
HETATM   20  N   UNL     1      -5.550   2.754 -32.170  1.00  0.00    -0.272 N 
HETATM   21  N   UNL     1      -6.191   1.674 -32.640  1.00  0.00    -0.174 NA
HETATM   22  H   UNL     1      -6.095   3.560 -31.878  1.00  0.00     0.189 HD
HETATM   23  C   UNL     1      -5.213   0.809 -32.954  1.00  0.00     0.089 A 
HETATM   24  C   UNL     1      -3.943   1.366 -32.635  1.00  0.00     0.071 A 
BRANCH  23  25
HETATM   25  C   UNL     1      -5.493  -0.510 -33.524  1.00  0.00    -0.006 A 
HETATM   26  C   UNL     1      -4.461  -1.431 -33.749  1.00  0.00     0.014 A 
HETATM   27  C   UNL     1      -4.737  -2.698 -34.273  1.00  0.00     0.007 A 
HETATM   28  C   UNL     1      -6.048  -3.065 -34.590  1.00  0.00    -0.062 A 
HETATM   29  C   UNL     1      -6.355  -4.436 -35.116  1.00  0.00     0.048 C 
HETATM   30  C   UNL     1      -7.083  -2.151 -34.361  1.00  0.00     0.007 A 
HETATM   31  C   UNL     1      -6.806  -0.883 -33.841  1.00  0.00     0.014 A 
ENDBRANCH  23  25
ENDBRANCH   1  19
TORSDOF 5
ENDMDL
