MODEL 1
REMARK VINA RESULT:      -8.1      0.000      0.000
REMARK  5 active torsions:
REMARK  status: ('A' for Active; 'I' for Inactive)
REMARK    1  A    between atoms: C_2  and  O_3 
REMARK    2  A    between atoms: O_3  and  C_4 
REMARK    3  A    between atoms: C_5  and  C_6 
REMARK       I    between atoms: C_6  and  N_7 
REMARK    4  A    between atoms: N_7  and  N_8 
REMARK    5  A    between atoms: C_9  and  C_10 
ROOT
HETATM    1  C   UNL     1      -6.480  -0.888 -34.304  1.00  0.00     0.274 C 
HETATM    2  N   UNL     1      -6.753  -0.400 -33.037  1.00  0.00    -0.243 N 
HETATM    3  O   UNL     1      -6.730  -0.297 -35.353  1.00  0.00    -0.266 OA
HETATM    4  H   UNL     1      -6.506  -0.956 -32.223  1.00  0.00     0.192 HD
ENDROOT
BRANCH   2   5
HETATM    5  N   UNL     1      -7.421   0.781 -32.893  1.00  0.00    -0.183 NA
HETATM    6  C   UNL     1      -8.710   0.712 -32.948  1.00  0.00     0.152 C 
BRANCH   6   7
HETATM    7  C   UNL     1      -9.488   1.931 -32.843  1.00  0.00     0.011 A 
HETATM    8  C   UNL     1     -10.887   2.106 -33.095  1.00  0.00     0.005 A 
HETATM    9  C   UNL     1     -11.183   3.456 -32.893  1.00  0.00     0.043 A 
HETATM   10  C   UNL     1     -11.932   1.244 -33.492  1.00  0.00     0.033 A 
HETATM   11  C   UNL     1     -12.465   3.992 -33.069  1.00  0.00     0.031 A 
HETATM   12  N   UNL     1     -10.012   4.077 -32.521  1.00  0.00    -0.364 N 
HETATM   13  C   UNL     1     -13.482   3.120 -33.465  1.00  0.00     0.021 A 
HETATM   14  C   UNL     1     -13.217   1.768 -33.672  1.00  0.00     0.012 A 
HETATM   15 BR   UNL     1     -14.619   0.618 -34.213  1.00  0.00    -0.051 Br
HETATM   16  H   UNL     1      -9.922   5.062 -32.313  1.00  0.00     0.165 HD
HETATM   17  C   UNL     1      -8.990   3.173 -32.493  1.00  0.00     0.102 A 
ENDBRANCH   6   7
ENDBRANCH   2   5
BRANCH   1  18
HETATM   18  C   UNL     1      -5.900  -2.265 -34.366  1.00  0.00     0.067 A 
HETATM   19  C   UNL     1      -4.599  -2.593 -33.946  1.00  0.00     0.084 A 
HETATM   20  C   UNL     1      -4.175  -3.930 -33.987  1.00  0.00     0.038 A 
HETATM   21  C   UNL     1      -5.018  -4.926 -34.484  1.00  0.00     0.003 A 
HETATM   22  C   UNL     1      -6.292  -4.599 -34.938  1.00  0.00     0.001 A 
HETATM   23  C   UNL     1      -6.731  -3.277 -34.878  1.00  0.00     0.020 A 
BRANCH  19  24
HETATM   24  O   UNL     1      -3.784  -1.602 -33.455  1.00  0.00    -0.350 OA
BRANCH  24  25
HETATM   25  C   UNL     1      -3.372  -1.812 -32.098  1.00  0.00     0.171 C 
HETATM   26  C   UNL     1      -3.364  -0.467 -31.394  1.00  0.00     0.034 C 
ENDBRANCH  24  25
ENDBRANCH  19  24
ENDBRANCH   1  18
TORSDOF 5
ENDMDL
MODEL 2
REMARK VINA RESULT:      -8.1      4.512      6.224
REMARK  5 active torsions:
REMARK  status: ('A' for Active; 'I' for Inactive)
REMARK    1  A    between atoms: C_2  and  O_3 
REMARK    2  A    between atoms: O_3  and  C_4 
REMARK    3  A    between atoms: C_5  and  C_6 
REMARK       I    between atoms: C_6  and  N_7 
REMARK    4  A    between atoms: N_7  and  N_8 
REMARK    5  A    between atoms: C_9  and  C_10 
ROOT
HETATM    1  C   UNL     1      -4.435  -1.061 -33.032  1.00  0.00     0.274 C 
HETATM    2  N   UNL     1      -5.129  -0.537 -31.954  1.00  0.00    -0.243 N 
HETATM    3  O   UNL     1      -3.407  -0.579 -33.506  1.00  0.00    -0.266 OA
HETATM    4  H   UNL     1      -5.968  -1.006 -31.624  1.00  0.00     0.192 HD
ENDROOT
BRANCH   2   5
HETATM    5  N   UNL     1      -4.730   0.642 -31.396  1.00  0.00    -0.183 NA
HETATM    6  C   UNL     1      -5.478   1.667 -31.644  1.00  0.00     0.152 C 
BRANCH   6   7
HETATM    7  C   UNL     1      -5.096   2.963 -31.119  1.00  0.00     0.011 A 
HETATM    8  C   UNL     1      -4.223   3.930 -31.714  1.00  0.00     0.005 A 
HETATM    9  C   UNL     1      -4.132   5.010 -30.833  1.00  0.00     0.043 A 
HETATM   10  C   UNL     1      -3.485   3.984 -32.917  1.00  0.00     0.033 A 
HETATM   11  C   UNL     1      -3.342   6.138 -31.086  1.00  0.00     0.031 A 
HETATM   12  N   UNL     1      -4.928   4.718 -29.749  1.00  0.00    -0.364 N 
HETATM   13  C   UNL     1      -2.620   6.168 -32.282  1.00  0.00     0.021 A 
HETATM   14  C   UNL     1      -2.692   5.106 -33.180  1.00  0.00     0.012 A 
HETATM   15 BR   UNL     1      -1.696   5.179 -34.788  1.00  0.00    -0.051 Br
HETATM   16  H   UNL     1      -5.053   5.318 -28.946  1.00  0.00     0.165 HD
HETATM   17  C   UNL     1      -5.506   3.491 -29.909  1.00  0.00     0.102 A 
ENDBRANCH   6   7
ENDBRANCH   2   5
BRANCH   1  18
HETATM   18  C   UNL     1      -5.043  -2.262 -33.683  1.00  0.00     0.067 A 
HETATM   19  C   UNL     1      -6.361  -2.317 -34.165  1.00  0.00     0.084 A 
HETATM   20  C   UNL     1      -6.812  -3.474 -34.817  1.00  0.00     0.038 A 
HETATM   21  C   UNL     1      -5.977  -4.585 -34.949  1.00  0.00     0.003 A 
HETATM   22  C   UNL     1      -4.683  -4.549 -34.438  1.00  0.00     0.001 A 
HETATM   23  C   UNL     1      -4.219  -3.395 -33.810  1.00  0.00     0.020 A 
BRANCH  19  24
HETATM   24  O   UNL     1      -7.169  -1.214 -34.032  1.00  0.00    -0.350 OA
BRANCH  24  25
HETATM   25  C   UNL     1      -7.318  -0.457 -35.240  1.00  0.00     0.171 C 
HETATM   26  C   UNL     1      -6.974   0.989 -34.936  1.00  0.00     0.034 C 
ENDBRANCH  24  25
ENDBRANCH  19  24
ENDBRANCH   1  18
TORSDOF 5
ENDMDL
MODEL 3
REMARK VINA RESULT:      -7.9      2.388      3.053
REMARK  5 active torsions:
REMARK  status: ('A' for Active; 'I' for Inactive)
REMARK    1  A    between atoms: C_2  and  O_3 
REMARK    2  A    between atoms: O_3  and  C_4 
REMARK    3  A    between atoms: C_5  and  C_6 
REMARK       I    between atoms: C_6  and  N_7 
REMARK    4  A    between atoms: N_7  and  N_8 
REMARK    5  A    between atoms: C_9  and  C_10 
ROOT
HETATM    1  C   UNL     1      -6.539  -1.046 -34.281  1.00  0.00     0.274 C 
HETATM    2  N   UNL     1      -6.828  -0.570 -33.013  1.00  0.00    -0.243 N 
HETATM    3  O   UNL     1      -6.839  -0.478 -35.330  1.00  0.00    -0.266 OA
HETATM    4  H   UNL     1      -6.535  -1.104 -32.199  1.00  0.00     0.192 HD
ENDROOT
BRANCH   2   5
HETATM    5  N   UNL     1      -7.569   0.566 -32.866  1.00  0.00    -0.183 NA
HETATM    6  C   UNL     1      -8.795   0.397 -32.493  1.00  0.00     0.152 C 
BRANCH   6   7
HETATM    7  C   UNL     1      -9.656   1.555 -32.354  1.00  0.00     0.011 A 
HETATM    8  C   UNL     1      -9.428   2.731 -31.571  1.00  0.00     0.005 A 
HETATM    9  C   UNL     1     -10.544   3.559 -31.723  1.00  0.00     0.043 A 
HETATM   10  C   UNL     1      -8.383   3.167 -30.728  1.00  0.00     0.033 A 
HETATM   11  C   UNL     1     -10.671   4.796 -31.080  1.00  0.00     0.031 A 
HETATM   12  N   UNL     1     -11.412   2.917 -32.577  1.00  0.00    -0.364 N 
HETATM   13  C   UNL     1      -9.624   5.205 -30.250  1.00  0.00     0.021 A 
HETATM   14  C   UNL     1      -8.499   4.402 -30.079  1.00  0.00     0.012 A 
HETATM   15 BR   UNL     1      -7.103   4.985 -28.944  1.00  0.00    -0.051 Br
HETATM   16  H   UNL     1     -12.309   3.279 -32.868  1.00  0.00     0.165 HD
HETATM   17  C   UNL     1     -10.891   1.713 -32.957  1.00  0.00     0.102 A 
ENDBRANCH   6   7
ENDBRANCH   2   5
BRANCH   1  18
HETATM   18  C   UNL     1      -5.871  -2.382 -34.343  1.00  0.00     0.067 A 
HETATM   19  C   UNL     1      -4.555  -2.628 -33.917  1.00  0.00     0.084 A 
HETATM   20  C   UNL     1      -4.046  -3.935 -33.960  1.00  0.00     0.038 A 
HETATM   21  C   UNL     1      -4.820  -4.981 -34.466  1.00  0.00     0.003 A 
HETATM   22  C   UNL     1      -6.110  -4.735 -34.926  1.00  0.00     0.001 A 
HETATM   23  C   UNL     1      -6.632  -3.444 -34.864  1.00  0.00     0.020 A 
BRANCH  19  24
HETATM   24  O   UNL     1      -3.808  -1.589 -33.418  1.00  0.00    -0.350 OA
BRANCH  24  25
HETATM   25  C   UNL     1      -3.367  -1.790 -32.068  1.00  0.00     0.171 C 
HETATM   26  C   UNL     1      -3.416  -0.453 -31.352  1.00  0.00     0.034 C 
ENDBRANCH  24  25
ENDBRANCH  19  24
ENDBRANCH   1  18
TORSDOF 5
ENDMDL
MODEL 4
REMARK VINA RESULT:      -7.9      4.941      6.489
REMARK  5 active torsions:
REMARK  status: ('A' for Active; 'I' for Inactive)
REMARK    1  A    between atoms: C_2  and  O_3 
REMARK    2  A    between atoms: O_3  and  C_4 
REMARK    3  A    between atoms: C_5  and  C_6 
REMARK       I    between atoms: C_6  and  N_7 
REMARK    4  A    between atoms: N_7  and  N_8 
REMARK    5  A    between atoms: C_9  and  C_10 
ROOT
HETATM    1  C   UNL     1      -6.332  -0.152 -33.161  1.00  0.00     0.274 C 
HETATM    2  N   UNL     1      -5.646   0.940 -33.668  1.00  0.00    -0.243 N 
HETATM    3  O   UNL     1      -7.140  -0.105 -32.235  1.00  0.00    -0.266 OA
HETATM    4  H   UNL     1      -5.000   0.809 -34.442  1.00  0.00     0.192 HD
ENDROOT
BRANCH   2   5
HETATM    5  N   UNL     1      -5.781   2.162 -33.077  1.00  0.00    -0.183 NA
HETATM    6  C   UNL     1      -4.702   2.673 -32.582  1.00  0.00     0.152 C 
BRANCH   6   7
HETATM    7  C   UNL     1      -4.773   3.951 -31.902  1.00  0.00     0.011 A 
HETATM    8  C   UNL     1      -3.688   4.763 -31.439  1.00  0.00     0.005 A 
HETATM    9  C   UNL     1      -4.240   5.887 -30.820  1.00  0.00     0.043 A 
HETATM   10  C   UNL     1      -2.282   4.640 -31.472  1.00  0.00     0.033 A 
HETATM   11  C   UNL     1      -3.464   6.893 -30.232  1.00  0.00     0.031 A 
HETATM   12  N   UNL     1      -5.608   5.771 -30.914  1.00  0.00    -0.364 N 
HETATM   13  C   UNL     1      -2.075   6.749 -30.276  1.00  0.00     0.021 A 
HETATM   14  C   UNL     1      -1.496   5.639 -30.887  1.00  0.00     0.012 A 
HETATM   15 BR   UNL     1       0.389   5.474 -30.923  1.00  0.00    -0.051 Br
HETATM   16  H   UNL     1      -6.270   6.440 -30.548  1.00  0.00     0.165 HD
HETATM   17  C   UNL     1      -5.938   4.612 -31.556  1.00  0.00     0.102 A 
ENDBRANCH   6   7
ENDBRANCH   2   5
BRANCH   1  18
HETATM   18  C   UNL     1      -5.993  -1.477 -33.764  1.00  0.00     0.067 A 
HETATM   19  C   UNL     1      -4.688  -1.988 -33.866  1.00  0.00     0.084 A 
HETATM   20  C   UNL     1      -4.487  -3.273 -34.392  1.00  0.00     0.038 A 
HETATM   21  C   UNL     1      -5.567  -4.026 -34.856  1.00  0.00     0.003 A 
HETATM   22  C   UNL     1      -6.856  -3.508 -34.794  1.00  0.00     0.001 A 
HETATM   23  C   UNL     1      -7.069  -2.242 -34.250  1.00  0.00     0.020 A 
BRANCH  19  24
HETATM   24  O   UNL     1      -3.637  -1.236 -33.400  1.00  0.00    -0.350 OA
BRANCH  24  25
HETATM   25  C   UNL     1      -3.220  -1.584 -32.073  1.00  0.00     0.171 C 
HETATM   26  C   UNL     1      -3.101  -0.305 -31.266  1.00  0.00     0.034 C 
ENDBRANCH  24  25
ENDBRANCH  19  24
ENDBRANCH   1  18
TORSDOF 5
ENDMDL
MODEL 5
REMARK VINA RESULT:      -7.7      5.817      8.373
REMARK  5 active torsions:
REMARK  status: ('A' for Active; 'I' for Inactive)
REMARK    1  A    between atoms: C_2  and  O_3 
REMARK    2  A    between atoms: O_3  and  C_4 
REMARK    3  A    between atoms: C_5  and  C_6 
REMARK       I    between atoms: C_6  and  N_7 
REMARK    4  A    between atoms: N_7  and  N_8 
REMARK    5  A    between atoms: C_9  and  C_10 
ROOT
HETATM    1  C   UNL     1      -3.348   5.529 -31.183  1.00  0.00     0.274 C 
HETATM    2  N   UNL     1      -3.506   4.153 -31.150  1.00  0.00    -0.243 N 
HETATM    3  O   UNL     1      -4.230   6.329 -31.489  1.00  0.00    -0.266 OA
HETATM    4  H   UNL     1      -2.722   3.566 -30.878  1.00  0.00     0.192 HD
ENDROOT
BRANCH   2   5
HETATM    5  N   UNL     1      -4.682   3.593 -31.557  1.00  0.00    -0.183 NA
HETATM    6  C   UNL     1      -4.629   2.345 -31.888  1.00  0.00     0.152 C 
BRANCH   6   7
HETATM    7  C   UNL     1      -5.830   1.691 -32.370  1.00  0.00     0.011 A 
HETATM    8  C   UNL     1      -5.945   0.396 -32.969  1.00  0.00     0.005 A 
HETATM    9  C   UNL     1      -7.289   0.205 -33.299  1.00  0.00     0.043 A 
HETATM   10  C   UNL     1      -5.028  -0.632 -33.280  1.00  0.00     0.033 A 
HETATM   11  C   UNL     1      -7.765  -0.954 -33.923  1.00  0.00     0.031 A 
HETATM   12  N   UNL     1      -7.968   1.335 -32.903  1.00  0.00    -0.364 N 
HETATM   13  C   UNL     1      -6.838  -1.956 -34.222  1.00  0.00     0.021 A 
HETATM   14  C   UNL     1      -5.492  -1.795 -33.905  1.00  0.00     0.012 A 
HETATM   15 BR   UNL     1      -4.264  -3.170 -34.330  1.00  0.00    -0.051 Br
HETATM   16  H   UNL     1      -8.961   1.482 -33.020  1.00  0.00     0.165 HD
HETATM   17  C   UNL     1      -7.101   2.233 -32.350  1.00  0.00     0.102 A 
ENDBRANCH   6   7
ENDBRANCH   2   5
BRANCH   1  18
HETATM   18  C   UNL     1      -1.975   6.039 -30.882  1.00  0.00     0.067 A 
HETATM   19  C   UNL     1      -0.853   5.815 -31.698  1.00  0.00     0.084 A 
HETATM   20  C   UNL     1       0.378   6.394 -31.355  1.00  0.00     0.038 A 
HETATM   21  C   UNL     1       0.506   7.150 -30.188  1.00  0.00     0.003 A 
HETATM   22  C   UNL     1      -0.593   7.341 -29.357  1.00  0.00     0.001 A 
HETATM   23  C   UNL     1      -1.826   6.790 -29.702  1.00  0.00     0.020 A 
BRANCH  19  24
HETATM   24  O   UNL     1      -0.996   5.073 -32.845  1.00  0.00    -0.350 OA
BRANCH  24  25
HETATM   25  C   UNL     1      -1.249   5.861 -34.015  1.00  0.00     0.171 C 
HETATM   26  C   UNL     1      -2.318   5.160 -34.834  1.00  0.00     0.034 C 
ENDBRANCH  24  25
ENDBRANCH  19  24
ENDBRANCH   1  18
TORSDOF 5
ENDMDL
MODEL 6
REMARK VINA RESULT:      -7.7      5.307      8.752
REMARK  5 active torsions:
REMARK  status: ('A' for Active; 'I' for Inactive)
REMARK    1  A    between atoms: C_2  and  O_3 
REMARK    2  A    between atoms: O_3  and  C_4 
REMARK    3  A    between atoms: C_5  and  C_6 
REMARK       I    between atoms: C_6  and  N_7 
REMARK    4  A    between atoms: N_7  and  N_8 
REMARK    5  A    between atoms: C_9  and  C_10 
ROOT
HETATM    1  C   UNL     1      -2.139   4.452 -32.075  1.00  0.00     0.274 C 
HETATM    2  N   UNL     1      -2.750   3.406 -31.403  1.00  0.00    -0.243 N 
HETATM    3  O   UNL     1      -1.949   4.490 -33.289  1.00  0.00    -0.266 OA
HETATM    4  H   UNL     1      -2.872   3.462 -30.395  1.00  0.00     0.192 HD
ENDROOT
BRANCH   2   5
HETATM    5  N   UNL     1      -3.110   2.279 -32.082  1.00  0.00    -0.183 NA
HETATM    6  C   UNL     1      -3.302   1.222 -31.363  1.00  0.00     0.152 C 
BRANCH   6   7
HETATM    7  C   UNL     1      -3.648  -0.024 -32.017  1.00  0.00     0.011 A 
HETATM    8  C   UNL     1      -4.786  -0.298 -32.842  1.00  0.00     0.005 A 
HETATM    9  C   UNL     1      -4.713  -1.640 -33.224  1.00  0.00     0.043 A 
HETATM   10  C   UNL     1      -5.886   0.466 -33.289  1.00  0.00     0.033 A 
HETATM   11  C   UNL     1      -5.679  -2.259 -34.027  1.00  0.00     0.031 A 
HETATM   12  N   UNL     1      -3.569  -2.160 -32.664  1.00  0.00    -0.364 N 
HETATM   13  C   UNL     1      -6.759  -1.483 -34.455  1.00  0.00     0.021 A 
HETATM   14  C   UNL     1      -6.858  -0.142 -34.091  1.00  0.00     0.012 A 
HETATM   15 BR   UNL     1      -8.337   0.877 -34.686  1.00  0.00    -0.051 Br
HETATM   16  H   UNL     1      -3.258  -3.116 -32.767  1.00  0.00     0.165 HD
HETATM   17  C   UNL     1      -2.926  -1.201 -31.935  1.00  0.00     0.102 A 
ENDBRANCH   6   7
ENDBRANCH   2   5
BRANCH   1  18
HETATM   18  C   UNL     1      -1.627   5.569 -31.223  1.00  0.00     0.067 A 
HETATM   19  C   UNL     1      -2.415   6.292 -30.312  1.00  0.00     0.084 A 
HETATM   20  C   UNL     1      -1.820   7.281 -29.514  1.00  0.00     0.038 A 
HETATM   21  C   UNL     1      -0.464   7.582 -29.653  1.00  0.00     0.003 A 
HETATM   22  C   UNL     1       0.312   6.896 -30.582  1.00  0.00     0.001 A 
HETATM   23  C   UNL     1      -0.266   5.895 -31.361  1.00  0.00     0.020 A 
BRANCH  19  24
HETATM   24  O   UNL     1      -3.747   5.981 -30.185  1.00  0.00    -0.350 OA
BRANCH  24  25
HETATM   25  C   UNL     1      -4.613   7.124 -30.211  1.00  0.00     0.171 C 
HETATM   26  C   UNL     1      -5.055   7.347 -31.646  1.00  0.00     0.034 C 
ENDBRANCH  24  25
ENDBRANCH  19  24
ENDBRANCH   1  18
TORSDOF 5
ENDMDL
MODEL 7
REMARK VINA RESULT:      -7.6      5.726      9.313
REMARK  5 active torsions:
REMARK  status: ('A' for Active; 'I' for Inactive)
REMARK    1  A    between atoms: C_2  and  O_3 
REMARK    2  A    between atoms: O_3  and  C_4 
REMARK    3  A    between atoms: C_5  and  C_6 
REMARK       I    between atoms: C_6  and  N_7 
REMARK    4  A    between atoms: N_7  and  N_8 
REMARK    5  A    between atoms: C_9  and  C_10 
ROOT
HETATM    1  C   UNL     1      -1.668   5.096 -31.545  1.00  0.00     0.274 C 
HETATM    2  N   UNL     1      -2.728   4.241 -31.294  1.00  0.00    -0.243 N 
HETATM    3  O   UNL     1      -0.695   4.822 -32.246  1.00  0.00    -0.266 OA
HETATM    4  H   UNL     1      -3.496   4.555 -30.705  1.00  0.00     0.192 HD
ENDROOT
BRANCH   2   5
HETATM    5  N   UNL     1      -2.698   2.963 -31.769  1.00  0.00    -0.183 NA
HETATM    6  C   UNL     1      -3.490   2.124 -31.187  1.00  0.00     0.152 C 
BRANCH   6   7
HETATM    7  C   UNL     1      -3.484   0.737 -31.610  1.00  0.00     0.011 A 
HETATM    8  C   UNL     1      -4.352   0.104 -32.556  1.00  0.00     0.005 A 
HETATM    9  C   UNL     1      -3.991  -1.245 -32.619  1.00  0.00     0.043 A 
HETATM   10  C   UNL     1      -5.427   0.546 -33.358  1.00  0.00     0.033 A 
HETATM   11  C   UNL     1      -4.645  -2.174 -33.436  1.00  0.00     0.031 A 
HETATM   12  N   UNL     1      -2.936  -1.422 -31.753  1.00  0.00    -0.364 N 
HETATM   13  C   UNL     1      -5.707  -1.713 -34.219  1.00  0.00     0.021 A 
HETATM   14  C   UNL     1      -6.089  -0.374 -34.179  1.00  0.00     0.012 A 
HETATM   15 BR   UNL     1      -7.534   0.213 -35.250  1.00  0.00    -0.051 Br
HETATM   16  H   UNL     1      -2.468  -2.302 -31.586  1.00  0.00     0.165 HD
HETATM   17  C   UNL     1      -2.628  -0.242 -31.139  1.00  0.00     0.102 A 
ENDBRANCH   6   7
ENDBRANCH   2   5
BRANCH   1  18
HETATM   18  C   UNL     1      -1.710   6.417 -30.844  1.00  0.00     0.067 A 
HETATM   19  C   UNL     1      -2.654   7.423 -31.110  1.00  0.00     0.084 A 
HETATM   20  C   UNL     1      -2.643   8.601 -30.349  1.00  0.00     0.038 A 
HETATM   21  C   UNL     1      -1.676   8.799 -29.362  1.00  0.00     0.003 A 
HETATM   22  C   UNL     1      -0.715   7.822 -29.122  1.00  0.00     0.001 A 
HETATM   23  C   UNL     1      -0.733   6.638 -29.857  1.00  0.00     0.020 A 
BRANCH  19  24
HETATM   24  O   UNL     1      -3.602   7.211 -32.081  1.00  0.00    -0.350 OA
BRANCH  24  25
HETATM   25  C   UNL     1      -4.948   7.231 -31.589  1.00  0.00     0.171 C 
HETATM   26  C   UNL     1      -5.803   6.388 -32.518  1.00  0.00     0.034 C 
ENDBRANCH  24  25
ENDBRANCH  19  24
ENDBRANCH   1  18
TORSDOF 5
ENDMDL
MODEL 8
REMARK VINA RESULT:      -7.6      3.344      8.545
REMARK  5 active torsions:
REMARK  status: ('A' for Active; 'I' for Inactive)
REMARK    1  A    between atoms: C_2  and  O_3 
REMARK    2  A    between atoms: O_3  and  C_4 
REMARK    3  A    between atoms: C_5  and  C_6 
REMARK       I    between atoms: C_6  and  N_7 
REMARK    4  A    between atoms: N_7  and  N_8 
REMARK    5  A    between atoms: C_9  and  C_10 
ROOT
HETATM    1  C   UNL     1      -9.369   2.385 -34.215  1.00  0.00     0.274 C 
HETATM    2  N   UNL     1      -9.257   1.090 -34.692  1.00  0.00    -0.243 N 
HETATM    3  O   UNL     1      -8.602   2.904 -33.405  1.00  0.00    -0.266 OA
HETATM    4  H   UNL     1      -9.934   0.745 -35.368  1.00  0.00     0.192 HD
ENDROOT
BRANCH   2   5
HETATM    5  N   UNL     1      -8.291   0.263 -34.196  1.00  0.00    -0.183 NA
HETATM    6  C   UNL     1      -7.539  -0.318 -35.072  1.00  0.00     0.152 C 
BRANCH   6   7
HETATM    7  C   UNL     1      -6.517  -1.243 -34.623  1.00  0.00     0.011 A 
HETATM    8  C   UNL     1      -5.439  -0.988 -33.715  1.00  0.00     0.005 A 
HETATM    9  C   UNL     1      -4.696  -2.167 -33.606  1.00  0.00     0.043 A 
HETATM   10  C   UNL     1      -5.012   0.142 -32.984  1.00  0.00     0.033 A 
HETATM   11  C   UNL     1      -3.550  -2.276 -32.810  1.00  0.00     0.031 A 
HETATM   12  N   UNL     1      -5.305  -3.106 -34.407  1.00  0.00    -0.364 N 
HETATM   13  C   UNL     1      -3.146  -1.144 -32.097  1.00  0.00     0.021 A 
HETATM   14  C   UNL     1      -3.867   0.044 -32.185  1.00  0.00     0.012 A 
HETATM   15 BR   UNL     1      -3.287   1.558 -31.210  1.00  0.00    -0.051 Br
HETATM   16  H   UNL     1      -4.984  -4.055 -34.530  1.00  0.00     0.165 HD
HETATM   17  C   UNL     1      -6.395  -2.560 -35.025  1.00  0.00     0.102 A 
ENDBRANCH   6   7
ENDBRANCH   2   5
BRANCH   1  18
HETATM   18  C   UNL     1     -10.556   3.159 -34.691  1.00  0.00     0.067 A 
HETATM   19  C   UNL     1     -11.848   2.622 -34.823  1.00  0.00     0.084 A 
HETATM   20  C   UNL     1     -12.906   3.454 -35.218  1.00  0.00     0.038 A 
HETATM   21  C   UNL     1     -12.677   4.797 -35.524  1.00  0.00     0.003 A 
HETATM   22  C   UNL     1     -11.392   5.323 -35.432  1.00  0.00     0.001 A 
HETATM   23  C   UNL     1     -10.339   4.510 -35.017  1.00  0.00     0.020 A 
BRANCH  19  24
HETATM   24  O   UNL     1     -12.058   1.300 -34.515  1.00  0.00    -0.350 OA
BRANCH  24  25
HETATM   25  C   UNL     1     -13.236   1.070 -33.731  1.00  0.00     0.171 C 
HETATM   26  C   UNL     1     -13.448  -0.430 -33.627  1.00  0.00     0.034 C 
ENDBRANCH  24  25
ENDBRANCH  19  24
ENDBRANCH   1  18
TORSDOF 5
ENDMDL
MODEL 9
REMARK VINA RESULT:      -7.4      5.856      9.170
REMARK  5 active torsions:
REMARK  status: ('A' for Active; 'I' for Inactive)
REMARK    1  A    between atoms: C_2  and  O_3 
REMARK    2  A    between atoms: O_3  and  C_4 
REMARK    3  A    between atoms: C_5  and  C_6 
REMARK       I    between atoms: C_6  and  N_7 
REMARK    4  A    between atoms: N_7  and  N_8 
REMARK    5  A    between atoms: C_9  and  C_10 
ROOT
HETATM    1  C   UNL     1      -2.669   5.336 -31.900  1.00  0.00     0.274 C 
HETATM    2  N   UNL     1      -2.796   4.268 -31.028  1.00  0.00    -0.243 N 
HETATM    3  O   UNL     1      -2.531   5.236 -33.118  1.00  0.00    -0.266 OA
HETATM    4  H   UNL     1      -2.914   4.444 -30.034  1.00  0.00     0.192 HD
ENDROOT
BRANCH   2   5
HETATM    5  N   UNL     1      -2.685   2.991 -31.496  1.00  0.00    -0.183 NA
HETATM    6  C   UNL     1      -3.636   2.182 -31.164  1.00  0.00     0.152 C 
BRANCH   6   7
HETATM    7  C   UNL     1      -3.566   0.798 -31.590  1.00  0.00     0.011 A 
HETATM    8  C   UNL     1      -4.398   0.129 -32.544  1.00  0.00     0.005 A 
HETATM    9  C   UNL     1      -3.978  -1.202 -32.607  1.00  0.00     0.043 A 
HETATM   10  C   UNL     1      -5.485   0.525 -33.353  1.00  0.00     0.033 A 
HETATM   11  C   UNL     1      -4.584  -2.157 -33.431  1.00  0.00     0.031 A 
HETATM   12  N   UNL     1      -2.922  -1.335 -31.734  1.00  0.00    -0.364 N 
HETATM   13  C   UNL     1      -5.659  -1.741 -34.221  1.00  0.00     0.021 A 
HETATM   14  C   UNL     1      -6.100  -0.421 -34.181  1.00  0.00     0.012 A 
HETATM   15 BR   UNL     1      -7.563   0.105 -35.261  1.00  0.00    -0.051 Br
HETATM   16  H   UNL     1      -2.417  -2.194 -31.565  1.00  0.00     0.165 HD
HETATM   17  C   UNL     1      -2.671  -0.144 -31.116  1.00  0.00     0.102 A 
ENDBRANCH   6   7
ENDBRANCH   2   5
BRANCH   1  18
HETATM   18  C   UNL     1      -2.636   6.694 -31.273  1.00  0.00     0.067 A 
HETATM   19  C   UNL     1      -1.511   7.242 -30.634  1.00  0.00     0.084 A 
HETATM   20  C   UNL     1      -1.568   8.551 -30.135  1.00  0.00     0.038 A 
HETATM   21  C   UNL     1      -2.746   9.295 -30.227  1.00  0.00     0.003 A 
HETATM   22  C   UNL     1      -3.874   8.742 -30.824  1.00  0.00     0.001 A 
HETATM   23  C   UNL     1      -3.820   7.450 -31.344  1.00  0.00     0.020 A 
BRANCH  19  24
HETATM   24  O   UNL     1      -0.358   6.499 -30.556  1.00  0.00    -0.350 OA
BRANCH  24  25
HETATM   25  C   UNL     1       0.046   6.199 -29.213  1.00  0.00     0.171 C 
HETATM   26  C   UNL     1       0.843   4.907 -29.238  1.00  0.00     0.034 C 
ENDBRANCH  24  25
ENDBRANCH  19  24
ENDBRANCH   1  18
TORSDOF 5
ENDMDL
MODEL 10
REMARK VINA RESULT:      -7.4      4.948      5.951
REMARK  5 active torsions:
REMARK  status: ('A' for Active; 'I' for Inactive)
REMARK    1  A    between atoms: C_2  and  O_3 
REMARK    2  A    between atoms: O_3  and  C_4 
REMARK    3  A    between atoms: C_5  and  C_6 
REMARK       I    between atoms: C_6  and  N_7 
REMARK    4  A    between atoms: N_7  and  N_8 
REMARK    5  A    between atoms: C_9  and  C_10 
ROOT
HETATM    1  C   UNL     1      -4.656  -1.174 -33.273  1.00  0.00     0.274 C 
HETATM    2  N   UNL     1      -5.325  -0.708 -32.153  1.00  0.00    -0.243 N 
HETATM    3  O   UNL     1      -3.632  -0.675 -33.737  1.00  0.00    -0.266 OA
HETATM    4  H   UNL     1      -6.163  -1.189 -31.835  1.00  0.00     0.192 HD
ENDROOT
BRANCH   2   5
HETATM    5  N   UNL     1      -4.905   0.433 -31.535  1.00  0.00    -0.183 NA
HETATM    6  C   UNL     1      -5.590   1.499 -31.790  1.00  0.00     0.152 C 
BRANCH   6   7
HETATM    7  C   UNL     1      -5.179   2.759 -31.202  1.00  0.00     0.011 A 
HETATM    8  C   UNL     1      -4.300   3.743 -31.757  1.00  0.00     0.005 A 
HETATM    9  C   UNL     1      -4.178   4.772 -30.820  1.00  0.00     0.043 A 
HETATM   10  C   UNL     1      -3.578   3.850 -32.966  1.00  0.00     0.033 A 
HETATM   11  C   UNL     1      -3.374   5.900 -31.024  1.00  0.00     0.031 A 
HETATM   12  N   UNL     1      -4.963   4.434 -29.741  1.00  0.00    -0.364 N 
HETATM   13  C   UNL     1      -2.668   5.983 -32.227  1.00  0.00     0.021 A 
HETATM   14  C   UNL     1      -2.771   4.973 -33.181  1.00  0.00     0.012 A 
HETATM   15 BR   UNL     1      -1.797   5.116 -34.797  1.00  0.00    -0.051 Br
HETATM   16  H   UNL     1      -5.067   4.992 -28.905  1.00  0.00     0.165 HD
HETATM   17  C   UNL     1      -5.564   3.227 -29.958  1.00  0.00     0.102 A 
ENDBRANCH   6   7
ENDBRANCH   2   5
BRANCH   1  18
HETATM   18  C   UNL     1      -5.287  -2.330 -33.980  1.00  0.00     0.067 A 
HETATM   19  C   UNL     1      -4.636  -3.548 -34.240  1.00  0.00     0.084 A 
HETATM   20  C   UNL     1      -5.342  -4.593 -34.856  1.00  0.00     0.038 A 
HETATM   21  C   UNL     1      -6.669  -4.414 -35.252  1.00  0.00     0.003 A 
HETATM   22  C   UNL     1      -7.305  -3.197 -35.033  1.00  0.00     0.001 A 
HETATM   23  C   UNL     1      -6.619  -2.161 -34.400  1.00  0.00     0.020 A 
BRANCH  19  24
HETATM   24  O   UNL     1      -3.332  -3.709 -33.840  1.00  0.00    -0.350 OA
BRANCH  24  25
HETATM   25  C   UNL     1      -3.182  -4.536 -32.678  1.00  0.00     0.171 C 
HETATM   26  C   UNL     1      -2.756  -3.651 -31.521  1.00  0.00     0.034 C 
ENDBRANCH  24  25
ENDBRANCH  19  24
ENDBRANCH   1  18
TORSDOF 5
ENDMDL
