MODEL 1
REMARK VINA RESULT:      -9.2      0.000      0.000
REMARK  6 active torsions:
REMARK  status: ('A' for Active; 'I' for Inactive)
REMARK    1  A    between atoms: C_7  and  S_8 
REMARK    2  A    between atoms: S_8  and  C_9 
REMARK    3  A    between atoms: C_9  and  C_10 
REMARK    4  A    between atoms: C_18  and  C_19 
REMARK    5  A    between atoms: C_27  and  C_28 
REMARK    6  A    between atoms: C_28  and  O_29 
ROOT
HETATM    1  C   UNL     1      -7.116   4.831 -28.968  1.00  0.00     0.070 C 
HETATM    2  C   UNL     1      -6.004   4.149 -29.724  1.00  0.00     0.037 A 
HETATM    3  N   UNL     1      -6.079   2.760 -29.780  1.00  0.00    -0.192 N 
HETATM    4  C   UNL     1      -5.179   1.993 -30.422  1.00  0.00     0.726 A 
HETATM    5  N   UNL     1      -4.100   2.583 -31.015  1.00  0.00    -0.082 N 
HETATM    6  N   UNL     1      -3.282   1.668 -31.573  1.00  0.00    -0.128 NA
HETATM    7  C   UNL     1      -3.976   0.544 -31.348  1.00  0.00     0.226 A 
HETATM    8  N   UNL     1      -5.129   0.702 -30.617  1.00  0.00    -0.035 NA
HETATM    9  C   UNL     1      -3.858   4.034 -31.038  1.00  0.00     0.208 A 
HETATM   10  C   UNL     1      -4.963   4.791 -30.310  1.00  0.00     0.070 A 
HETATM   11  H   UNL     1      -6.903   2.316 -29.383  1.00  0.00     0.184 HD
ENDROOT
BRANCH   7  12
HETATM   12  S   UNL     1      -3.494  -1.012 -31.961  1.00  0.00    -0.083 SA
BRANCH  12  13
HETATM   13  C   UNL     1      -4.140  -0.947 -33.655  1.00  0.00     0.123 C 
BRANCH  13  14
HETATM   14  C   UNL     1      -4.754  -2.269 -34.060  1.00  0.00    -0.027 A 
HETATM   15  C   UNL     1      -6.047  -2.375 -34.600  1.00  0.00     0.041 A 
HETATM   16 CL   UNL     1      -7.048  -0.992 -34.872  1.00  0.00    -0.084 Cl
HETATM   17  C   UNL     1      -6.576  -3.625 -34.941  1.00  0.00     0.024 A 
HETATM   18  C   UNL     1      -5.829  -4.784 -34.738  1.00  0.00     0.002 A 
HETATM   19  C   UNL     1      -4.551  -4.698 -34.194  1.00  0.00     0.001 A 
HETATM   20  C   UNL     1      -4.017  -3.452 -33.858  1.00  0.00     0.009 A 
ENDBRANCH  13  14
ENDBRANCH  12  13
ENDBRANCH   7  12
BRANCH   9  21
HETATM   21  C   UNL     1      -3.638   4.484 -32.476  1.00  0.00     0.032 A 
HETATM   22  C   UNL     1      -2.389   4.900 -32.964  1.00  0.00     0.045 A 
HETATM   23 CL   UNL     1      -0.983   4.983 -31.962  1.00  0.00    -0.084 Cl
HETATM   24  C   UNL     1      -2.230   5.273 -34.306  1.00  0.00     0.024 A 
HETATM   25  C   UNL     1      -3.312   5.234 -35.185  1.00  0.00     0.005 A 
HETATM   26  C   UNL     1      -4.555   4.822 -34.720  1.00  0.00     0.043 A 
HETATM   27  C   UNL     1      -4.705   4.452 -33.386  1.00  0.00     0.126 A 
HETATM   28  F   UNL     1      -5.918   4.053 -32.978  1.00  0.00    -0.205 F 
ENDBRANCH   9  21
BRANCH  10  29
HETATM   29  C   UNL     1      -4.863   6.265 -30.308  1.00  0.00     0.293 C 
HETATM   30  O   UNL     1      -5.484   7.003 -31.054  1.00  0.00    -0.259 OA
BRANCH  29  31
HETATM   31  O   UNL     1      -3.971   6.649 -29.364  1.00  0.00    -0.323 OA
HETATM   32  C   UNL     1      -2.850   7.365 -29.886  1.00  0.00     0.213 C 
ENDBRANCH  29  31
ENDBRANCH  10  29
TORSDOF 6
ENDMDL
MODEL 2
REMARK VINA RESULT:      -9.0      1.319      1.574
REMARK  6 active torsions:
REMARK  status: ('A' for Active; 'I' for Inactive)
REMARK    1  A    between atoms: C_7  and  S_8 
REMARK    2  A    between atoms: S_8  and  C_9 
REMARK    3  A    between atoms: C_9  and  C_10 
REMARK    4  A    between atoms: C_18  and  C_19 
REMARK    5  A    between atoms: C_27  and  C_28 
REMARK    6  A    between atoms: C_28  and  O_29 
ROOT
HETATM    1  C   UNL     1      -7.176   4.767 -29.180  1.00  0.00     0.070 C 
HETATM    2  C   UNL     1      -6.030   4.065 -29.863  1.00  0.00     0.037 A 
HETATM    3  N   UNL     1      -6.130   2.679 -29.933  1.00  0.00    -0.192 N 
HETATM    4  C   UNL     1      -5.204   1.896 -30.517  1.00  0.00     0.726 A 
HETATM    5  N   UNL     1      -4.075   2.466 -31.032  1.00  0.00    -0.082 N 
HETATM    6  N   UNL     1      -3.240   1.536 -31.538  1.00  0.00    -0.128 NA
HETATM    7  C   UNL     1      -3.972   0.426 -31.369  1.00  0.00     0.226 A 
HETATM    8  N   UNL     1      -5.168   0.605 -30.717  1.00  0.00    -0.035 NA
HETATM    9  C   UNL     1      -3.801   3.911 -31.028  1.00  0.00     0.208 A 
HETATM   10  C   UNL     1      -4.938   4.688 -30.372  1.00  0.00     0.070 A 
HETATM   11  H   UNL     1      -6.988   2.251 -29.596  1.00  0.00     0.184 HD
ENDROOT
BRANCH   7  12
HETATM   12  S   UNL     1      -3.482  -1.137 -31.957  1.00  0.00    -0.083 SA
BRANCH  12  13
HETATM   13  C   UNL     1      -4.072  -1.076 -33.672  1.00  0.00     0.123 C 
BRANCH  13  14
HETATM   14  C   UNL     1      -4.730  -2.377 -34.073  1.00  0.00    -0.027 A 
HETATM   15  C   UNL     1      -6.035  -2.442 -34.591  1.00  0.00     0.041 A 
HETATM   16 CL   UNL     1      -7.000  -1.029 -34.838  1.00  0.00    -0.084 Cl
HETATM   17  C   UNL     1      -6.606  -3.674 -34.928  1.00  0.00     0.024 A 
HETATM   18  C   UNL     1      -5.890  -4.856 -34.745  1.00  0.00     0.002 A 
HETATM   19  C   UNL     1      -4.601  -4.810 -34.222  1.00  0.00     0.001 A 
HETATM   20  C   UNL     1      -4.025  -3.583 -33.889  1.00  0.00     0.009 A 
ENDBRANCH  13  14
ENDBRANCH  12  13
ENDBRANCH   7  12
BRANCH   9  21
HETATM   21  C   UNL     1      -3.474   4.363 -32.445  1.00  0.00     0.032 A 
HETATM   22  C   UNL     1      -4.430   4.412 -33.472  1.00  0.00     0.045 A 
HETATM   23 CL   UNL     1      -6.070   3.919 -33.236  1.00  0.00    -0.084 Cl
HETATM   24  C   UNL     1      -4.087   4.868 -34.752  1.00  0.00     0.024 A 
HETATM   25  C   UNL     1      -2.787   5.287 -35.030  1.00  0.00     0.005 A 
HETATM   26  C   UNL     1      -1.827   5.248 -34.025  1.00  0.00     0.043 A 
HETATM   27  C   UNL     1      -2.175   4.794 -32.756  1.00  0.00     0.126 A 
HETATM   28  F   UNL     1      -1.224   4.779 -31.811  1.00  0.00    -0.205 F 
ENDBRANCH   9  21
BRANCH  10  29
HETATM   29  C   UNL     1      -4.807   6.159 -30.354  1.00  0.00     0.293 C 
HETATM   30  O   UNL     1      -5.383   6.916 -31.117  1.00  0.00    -0.259 OA
BRANCH  29  31
HETATM   31  O   UNL     1      -3.944   6.517 -29.373  1.00  0.00    -0.323 OA
HETATM   32  C   UNL     1      -2.833   7.289 -29.835  1.00  0.00     0.213 C 
ENDBRANCH  29  31
ENDBRANCH  10  29
TORSDOF 6
ENDMDL
MODEL 3
REMARK VINA RESULT:      -8.4      1.980      2.505
REMARK  6 active torsions:
REMARK  status: ('A' for Active; 'I' for Inactive)
REMARK    1  A    between atoms: C_7  and  S_8 
REMARK    2  A    between atoms: S_8  and  C_9 
REMARK    3  A    between atoms: C_9  and  C_10 
REMARK    4  A    between atoms: C_18  and  C_19 
REMARK    5  A    between atoms: C_27  and  C_28 
REMARK    6  A    between atoms: C_28  and  O_29 
ROOT
HETATM    1  C   UNL     1      -6.487   7.373 -29.099  1.00  0.00     0.070 C 
HETATM    2  C   UNL     1      -5.913   6.125 -29.720  1.00  0.00     0.037 A 
HETATM    3  N   UNL     1      -6.723   4.995 -29.657  1.00  0.00    -0.192 N 
HETATM    4  C   UNL     1      -6.374   3.801 -30.169  1.00  0.00     0.726 A 
HETATM    5  N   UNL     1      -5.144   3.654 -30.745  1.00  0.00    -0.082 N 
HETATM    6  N   UNL     1      -4.943   2.390 -31.166  1.00  0.00    -0.128 NA
HETATM    7  C   UNL     1      -6.135   1.842 -30.886  1.00  0.00     0.226 A 
HETATM    8  N   UNL     1      -7.025   2.671 -30.245  1.00  0.00    -0.035 NA
HETATM    9  C   UNL     1      -4.159   4.739 -30.882  1.00  0.00     0.208 A 
HETATM   10  C   UNL     1      -4.687   6.044 -30.295  1.00  0.00     0.070 A 
HETATM   11  H   UNL     1      -7.658   5.106 -29.273  1.00  0.00     0.184 HD
ENDROOT
BRANCH   7  12
HETATM   12  S   UNL     1      -6.562   0.213 -31.326  1.00  0.00    -0.083 SA
BRANCH  12  13
HETATM   13  C   UNL     1      -6.385   0.271 -33.130  1.00  0.00     0.123 C 
BRANCH  13  14
HETATM   14  C   UNL     1      -6.013  -1.085 -33.689  1.00  0.00    -0.027 A 
HETATM   15  C   UNL     1      -4.687  -1.544 -33.755  1.00  0.00     0.041 A 
HETATM   16 CL   UNL     1      -3.356  -0.604 -33.178  1.00  0.00    -0.084 Cl
HETATM   17  C   UNL     1      -4.395  -2.800 -34.300  1.00  0.00     0.024 A 
HETATM   18  C   UNL     1      -5.417  -3.607 -34.795  1.00  0.00     0.002 A 
HETATM   19  C   UNL     1      -6.735  -3.163 -34.748  1.00  0.00     0.001 A 
HETATM   20  C   UNL     1      -7.032  -1.913 -34.200  1.00  0.00     0.009 A 
ENDBRANCH  13  14
ENDBRANCH  12  13
ENDBRANCH   7  12
BRANCH   9  21
HETATM   21  C   UNL     1      -3.725   4.841 -32.338  1.00  0.00     0.032 A 
HETATM   22  C   UNL     1      -4.622   5.101 -33.387  1.00  0.00     0.045 A 
HETATM   23 CL   UNL     1      -6.321   5.286 -33.129  1.00  0.00    -0.084 Cl
HETATM   24  C   UNL     1      -4.168   5.220 -34.707  1.00  0.00     0.024 A 
HETATM   25  C   UNL     1      -2.813   5.086 -35.005  1.00  0.00     0.005 A 
HETATM   26  C   UNL     1      -1.910   4.832 -33.980  1.00  0.00     0.043 A 
HETATM   27  C   UNL     1      -2.368   4.716 -32.670  1.00  0.00     0.126 A 
HETATM   28  F   UNL     1      -1.465   4.478 -31.708  1.00  0.00    -0.205 F 
ENDBRANCH   9  21
BRANCH  10  29
HETATM   29  C   UNL     1      -3.811   7.225 -30.419  1.00  0.00     0.293 C 
HETATM   30  O   UNL     1      -3.997   8.149 -31.193  1.00  0.00    -0.259 OA
BRANCH  29  31
HETATM   31  O   UNL     1      -2.777   7.106 -29.552  1.00  0.00    -0.323 OA
HETATM   32  C   UNL     1      -1.553   7.666 -30.033  1.00  0.00     0.213 C 
ENDBRANCH  29  31
ENDBRANCH  10  29
TORSDOF 6
ENDMDL
MODEL 4
REMARK VINA RESULT:      -8.3      3.798      7.189
REMARK  6 active torsions:
REMARK  status: ('A' for Active; 'I' for Inactive)
REMARK    1  A    between atoms: C_7  and  S_8 
REMARK    2  A    between atoms: S_8  and  C_9 
REMARK    3  A    between atoms: C_9  and  C_10 
REMARK    4  A    between atoms: C_18  and  C_19 
REMARK    5  A    between atoms: C_27  and  C_28 
REMARK    6  A    between atoms: C_28  and  O_29 
ROOT
HETATM    1  C   UNL     1      -9.465   4.111 -30.646  1.00  0.00     0.070 C 
HETATM    2  C   UNL     1      -8.495   3.837 -31.767  1.00  0.00     0.037 A 
HETATM    3  N   UNL     1      -7.545   4.828 -31.996  1.00  0.00    -0.192 N 
HETATM    4  C   UNL     1      -6.598   4.743 -32.948  1.00  0.00     0.726 A 
HETATM    5  N   UNL     1      -6.578   3.658 -33.777  1.00  0.00    -0.082 N 
HETATM    6  N   UNL     1      -5.595   3.755 -34.693  1.00  0.00    -0.128 NA
HETATM    7  C   UNL     1      -5.003   4.893 -34.304  1.00  0.00     0.226 A 
HETATM    8  N   UNL     1      -5.611   5.542 -33.256  1.00  0.00    -0.035 NA
HETATM    9  C   UNL     1      -7.516   2.528 -33.685  1.00  0.00     0.208 A 
HETATM   10  C   UNL     1      -8.514   2.728 -32.549  1.00  0.00     0.070 A 
HETATM   11  H   UNL     1      -7.522   5.616 -31.354  1.00  0.00     0.184 HD
ENDROOT
BRANCH   7  12
HETATM   12  S   UNL     1      -3.546   5.506 -35.032  1.00  0.00    -0.083 SA
BRANCH  12  13
HETATM   13  C   UNL     1      -2.283   4.491 -34.217  1.00  0.00     0.123 C 
BRANCH  13  14
HETATM   14  C   UNL     1      -1.682   5.209 -33.029  1.00  0.00    -0.027 A 
HETATM   15  C   UNL     1      -1.845   4.764 -31.707  1.00  0.00     0.041 A 
HETATM   16 CL   UNL     1      -2.735   3.333 -31.320  1.00  0.00    -0.084 Cl
HETATM   17  C   UNL     1      -1.285   5.477 -30.641  1.00  0.00     0.024 A 
HETATM   18  C   UNL     1      -0.565   6.646 -30.878  1.00  0.00     0.002 A 
HETATM   19  C   UNL     1      -0.403   7.107 -32.180  1.00  0.00     0.001 A 
HETATM   20  C   UNL     1      -0.955   6.396 -33.248  1.00  0.00     0.009 A 
ENDBRANCH  13  14
ENDBRANCH  12  13
ENDBRANCH   7  12
BRANCH   9  21
HETATM   21  C   UNL     1      -6.729   1.228 -33.600  1.00  0.00     0.032 A 
HETATM   22  C   UNL     1      -5.955   0.874 -32.483  1.00  0.00     0.045 A 
HETATM   23 CL   UNL     1      -5.786   1.907 -31.108  1.00  0.00    -0.084 Cl
HETATM   24  C   UNL     1      -5.275  -0.351 -32.440  1.00  0.00     0.024 A 
HETATM   25  C   UNL     1      -5.358  -1.246 -33.505  1.00  0.00     0.005 A 
HETATM   26  C   UNL     1      -6.122  -0.914 -34.618  1.00  0.00     0.043 A 
HETATM   27  C   UNL     1      -6.795   0.304 -34.655  1.00  0.00     0.126 A 
HETATM   28  F   UNL     1      -7.527   0.585 -35.742  1.00  0.00    -0.205 F 
ENDBRANCH   9  21
BRANCH  10  29
HETATM   29  C   UNL     1      -9.480   1.635 -32.318  1.00  0.00     0.293 C 
HETATM   30  O   UNL     1      -9.310   0.713 -31.539  1.00  0.00    -0.259 OA
BRANCH  29  31
HETATM   31  O   UNL     1     -10.560   1.819 -33.115  1.00  0.00    -0.323 OA
HETATM   32  C   UNL     1     -11.233   0.608 -33.464  1.00  0.00     0.213 C 
ENDBRANCH  29  31
ENDBRANCH  10  29
TORSDOF 6
ENDMDL
MODEL 5
REMARK VINA RESULT:      -8.2      4.817      6.541
REMARK  6 active torsions:
REMARK  status: ('A' for Active; 'I' for Inactive)
REMARK    1  A    between atoms: C_7  and  S_8 
REMARK    2  A    between atoms: S_8  and  C_9 
REMARK    3  A    between atoms: C_9  and  C_10 
REMARK    4  A    between atoms: C_18  and  C_19 
REMARK    5  A    between atoms: C_27  and  C_28 
REMARK    6  A    between atoms: C_28  and  O_29 
ROOT
HETATM    1  C   UNL     1      -3.579   4.875 -31.228  1.00  0.00     0.070 C 
HETATM    2  C   UNL     1      -4.864   4.087 -31.247  1.00  0.00     0.037 A 
HETATM    3  N   UNL     1      -6.026   4.826 -31.047  1.00  0.00    -0.192 N 
HETATM    4  C   UNL     1      -7.258   4.287 -31.044  1.00  0.00     0.726 A 
HETATM    5  N   UNL     1      -7.398   2.937 -31.196  1.00  0.00    -0.082 N 
HETATM    6  N   UNL     1      -8.691   2.563 -31.127  1.00  0.00    -0.128 NA
HETATM    7  C   UNL     1      -9.289   3.758 -31.015  1.00  0.00     0.226 A 
HETATM    8  N   UNL     1      -8.439   4.834 -30.929  1.00  0.00    -0.035 NA
HETATM    9  C   UNL     1      -6.277   2.006 -31.402  1.00  0.00     0.208 A 
HETATM   10  C   UNL     1      -4.942   2.743 -31.420  1.00  0.00     0.070 A 
HETATM   11  H   UNL     1      -5.936   5.837 -30.981  1.00  0.00     0.184 HD
ENDROOT
BRANCH   7  12
HETATM   12  S   UNL     1     -11.018   3.961 -31.014  1.00  0.00    -0.083 SA
BRANCH  12  13
HETATM   13  C   UNL     1     -11.398   3.811 -32.781  1.00  0.00     0.123 C 
BRANCH  13  14
HETATM   14  C   UNL     1     -12.356   2.670 -33.043  1.00  0.00    -0.027 A 
HETATM   15  C   UNL     1     -11.947   1.444 -33.594  1.00  0.00     0.041 A 
HETATM   16 CL   UNL     1     -10.299   1.121 -34.003  1.00  0.00    -0.084 Cl
HETATM   17  C   UNL     1     -12.877   0.426 -33.835  1.00  0.00     0.024 A 
HETATM   18  C   UNL     1     -14.225   0.621 -33.540  1.00  0.00     0.002 A 
HETATM   19  C   UNL     1     -14.649   1.834 -33.004  1.00  0.00     0.001 A 
HETATM   20  C   UNL     1     -13.723   2.850 -32.757  1.00  0.00     0.009 A 
ENDBRANCH  13  14
ENDBRANCH  12  13
ENDBRANCH   7  12
BRANCH   9  21
HETATM   21  C   UNL     1      -6.543   1.169 -32.646  1.00  0.00     0.032 A 
HETATM   22  C   UNL     1      -6.643   1.721 -33.932  1.00  0.00     0.045 A 
HETATM   23 CL   UNL     1      -6.518   3.420 -34.224  1.00  0.00    -0.084 Cl
HETATM   24  C   UNL     1      -6.855   0.903 -35.051  1.00  0.00     0.024 A 
HETATM   25  C   UNL     1      -6.966  -0.479 -34.907  1.00  0.00     0.005 A 
HETATM   26  C   UNL     1      -6.867  -1.045 -33.641  1.00  0.00     0.043 A 
HETATM   27  C   UNL     1      -6.656  -0.226 -32.535  1.00  0.00     0.126 A 
HETATM   28  F   UNL     1      -6.557  -0.809 -31.331  1.00  0.00    -0.205 F 
ENDBRANCH   9  21
BRANCH  10  29
HETATM   29  C   UNL     1      -3.740   1.924 -31.673  1.00  0.00     0.293 C 
HETATM   30  O   UNL     1      -2.940   2.126 -32.572  1.00  0.00    -0.259 OA
BRANCH  29  31
HETATM   31  O   UNL     1      -3.683   0.922 -30.764  1.00  0.00    -0.323 OA
HETATM   32  C   UNL     1      -3.139  -0.295 -31.278  1.00  0.00     0.213 C 
ENDBRANCH  29  31
ENDBRANCH  10  29
TORSDOF 6
ENDMDL
MODEL 6
REMARK VINA RESULT:      -8.1      3.886      7.478
REMARK  6 active torsions:
REMARK  status: ('A' for Active; 'I' for Inactive)
REMARK    1  A    between atoms: C_7  and  S_8 
REMARK    2  A    between atoms: S_8  and  C_9 
REMARK    3  A    between atoms: C_9  and  C_10 
REMARK    4  A    between atoms: C_18  and  C_19 
REMARK    5  A    between atoms: C_27  and  C_28 
REMARK    6  A    between atoms: C_28  and  O_29 
ROOT
HETATM    1  C   UNL     1     -10.294   4.275 -31.999  1.00  0.00     0.070 C 
HETATM    2  C   UNL     1      -8.976   3.943 -32.652  1.00  0.00     0.037 A 
HETATM    3  N   UNL     1      -8.080   5.001 -32.770  1.00  0.00    -0.192 N 
HETATM    4  C   UNL     1      -6.856   4.880 -33.316  1.00  0.00     0.726 A 
HETATM    5  N   UNL     1      -6.470   3.676 -33.832  1.00  0.00    -0.082 N 
HETATM    6  N   UNL     1      -5.238   3.744 -34.374  1.00  0.00    -0.128 NA
HETATM    7  C   UNL     1      -4.903   5.007 -34.073  1.00  0.00     0.226 A 
HETATM    8  N   UNL     1      -5.884   5.742 -33.453  1.00  0.00    -0.035 NA
HETATM    9  C   UNL     1      -7.297   2.460 -33.805  1.00  0.00     0.208 A 
HETATM   10  C   UNL     1      -8.641   2.719 -33.132  1.00  0.00     0.070 A 
HETATM   11  H   UNL     1      -8.339   5.888 -32.346  1.00  0.00     0.184 HD
ENDROOT
BRANCH   7  12
HETATM   12  S   UNL     1      -3.331   5.679 -34.401  1.00  0.00    -0.083 SA
BRANCH  12  13
HETATM   13  C   UNL     1      -3.071   6.714 -32.934  1.00  0.00     0.123 C 
BRANCH  13  14
HETATM   14  C   UNL     1      -1.833   6.291 -32.175  1.00  0.00    -0.027 A 
HETATM   15  C   UNL     1      -1.764   5.099 -31.436  1.00  0.00     0.041 A 
HETATM   16 CL   UNL     1      -3.088   3.991 -31.347  1.00  0.00    -0.084 Cl
HETATM   17  C   UNL     1      -0.600   4.763 -30.734  1.00  0.00     0.024 A 
HETATM   18  C   UNL     1       0.503   5.614 -30.751  1.00  0.00     0.002 A 
HETATM   19  C   UNL     1       0.447   6.805 -31.469  1.00  0.00     0.001 A 
HETATM   20  C   UNL     1      -0.710   7.142 -32.175  1.00  0.00     0.009 A 
ENDBRANCH  13  14
ENDBRANCH  12  13
ENDBRANCH   7  12
BRANCH   9  21
HETATM   21  C   UNL     1      -6.498   1.323 -33.183  1.00  0.00     0.032 A 
HETATM   22  C   UNL     1      -6.237   0.117 -33.852  1.00  0.00     0.045 A 
HETATM   23 CL   UNL     1      -6.838  -0.212 -35.438  1.00  0.00    -0.084 Cl
HETATM   24  C   UNL     1      -5.467  -0.887 -33.248  1.00  0.00     0.024 A 
HETATM   25  C   UNL     1      -4.941  -0.705 -31.970  1.00  0.00     0.005 A 
HETATM   26  C   UNL     1      -5.187   0.484 -31.293  1.00  0.00     0.043 A 
HETATM   27  C   UNL     1      -5.952   1.477 -31.899  1.00  0.00     0.126 A 
HETATM   28  F   UNL     1      -6.161   2.613 -31.218  1.00  0.00    -0.205 F 
ENDBRANCH   9  21
BRANCH  10  29
HETATM   29  C   UNL     1      -9.545   1.560 -32.995  1.00  0.00     0.293 C 
HETATM   30  O   UNL     1      -9.592   0.829 -32.019  1.00  0.00    -0.259 OA
BRANCH  29  31
HETATM   31  O   UNL     1     -10.289   1.439 -34.120  1.00  0.00    -0.323 OA
HETATM   32  C   UNL     1     -11.664   1.138 -33.873  1.00  0.00     0.213 C 
ENDBRANCH  29  31
ENDBRANCH  10  29
TORSDOF 6
ENDMDL
MODEL 7
REMARK VINA RESULT:      -7.9      2.061      3.416
REMARK  6 active torsions:
REMARK  status: ('A' for Active; 'I' for Inactive)
REMARK    1  A    between atoms: C_7  and  S_8 
REMARK    2  A    between atoms: S_8  and  C_9 
REMARK    3  A    between atoms: C_9  and  C_10 
REMARK    4  A    between atoms: C_18  and  C_19 
REMARK    5  A    between atoms: C_27  and  C_28 
REMARK    6  A    between atoms: C_28  and  O_29 
ROOT
HETATM    1  C   UNL     1      -1.689   6.017 -30.884  1.00  0.00     0.070 C 
HETATM    2  C   UNL     1      -2.759   5.039 -31.299  1.00  0.00     0.037 A 
HETATM    3  N   UNL     1      -2.410   3.695 -31.218  1.00  0.00    -0.192 N 
HETATM    4  C   UNL     1      -3.245   2.689 -31.538  1.00  0.00     0.726 A 
HETATM    5  N   UNL     1      -4.490   2.981 -32.015  1.00  0.00    -0.082 N 
HETATM    6  N   UNL     1      -5.175   1.862 -32.324  1.00  0.00    -0.128 NA
HETATM    7  C   UNL     1      -4.307   0.921 -31.926  1.00  0.00     0.226 A 
HETATM    8  N   UNL     1      -3.100   1.393 -31.469  1.00  0.00    -0.035 NA
HETATM    9  C   UNL     1      -5.016   4.345 -32.179  1.00  0.00     0.208 A 
HETATM   10  C   UNL     1      -3.990   5.389 -31.751  1.00  0.00     0.070 A 
HETATM   11  H   UNL     1      -1.503   3.467 -30.819  1.00  0.00     0.184 HD
ENDROOT
BRANCH   7  12
HETATM   12  S   UNL     1      -4.672  -0.781 -31.942  1.00  0.00    -0.083 SA
BRANCH  12  13
HETATM   13  C   UNL     1      -4.114  -1.252 -33.603  1.00  0.00     0.123 C 
BRANCH  13  14
HETATM   14  C   UNL     1      -4.828  -2.493 -34.091  1.00  0.00    -0.027 A 
HETATM   15  C   UNL     1      -6.126  -2.464 -34.628  1.00  0.00     0.041 A 
HETATM   16 CL   UNL     1      -7.019  -0.994 -34.800  1.00  0.00    -0.084 Cl
HETATM   17  C   UNL     1      -6.749  -3.645 -35.047  1.00  0.00     0.024 A 
HETATM   18  C   UNL     1      -6.093  -4.868 -34.926  1.00  0.00     0.002 A 
HETATM   19  C   UNL     1      -4.811  -4.916 -34.386  1.00  0.00     0.001 A 
HETATM   20  C   UNL     1      -4.183  -3.740 -33.972  1.00  0.00     0.009 A 
ENDBRANCH  13  14
ENDBRANCH  12  13
ENDBRANCH   7  12
BRANCH   9  21
HETATM   21  C   UNL     1      -6.354   4.456 -31.461  1.00  0.00     0.032 A 
HETATM   22  C   UNL     1      -7.563   4.703 -32.130  1.00  0.00     0.045 A 
HETATM   23 CL   UNL     1      -7.643   4.948 -33.839  1.00  0.00    -0.084 Cl
HETATM   24  C   UNL     1      -8.774   4.763 -31.427  1.00  0.00     0.024 A 
HETATM   25  C   UNL     1      -8.802   4.575 -30.046  1.00  0.00     0.005 A 
HETATM   26  C   UNL     1      -7.616   4.328 -29.366  1.00  0.00     0.043 A 
HETATM   27  C   UNL     1      -6.416   4.268 -30.071  1.00  0.00     0.126 A 
HETATM   28  F   UNL     1      -5.294   4.020 -29.381  1.00  0.00    -0.205 F 
ENDBRANCH   9  21
BRANCH  10  29
HETATM   29  C   UNL     1      -4.417   6.801 -31.817  1.00  0.00     0.293 C 
HETATM   30  O   UNL     1      -4.566   7.432 -32.850  1.00  0.00    -0.259 OA
BRANCH  29  31
HETATM   31  O   UNL     1      -4.599   7.271 -30.560  1.00  0.00    -0.323 OA
HETATM   32  C   UNL     1      -4.533   8.695 -30.461  1.00  0.00     0.213 C 
ENDBRANCH  29  31
ENDBRANCH  10  29
TORSDOF 6
ENDMDL
MODEL 8
REMARK VINA RESULT:      -7.7      6.092      7.066
REMARK  6 active torsions:
REMARK  status: ('A' for Active; 'I' for Inactive)
REMARK    1  A    between atoms: C_7  and  S_8 
REMARK    2  A    between atoms: S_8  and  C_9 
REMARK    3  A    between atoms: C_9  and  C_10 
REMARK    4  A    between atoms: C_18  and  C_19 
REMARK    5  A    between atoms: C_27  and  C_28 
REMARK    6  A    between atoms: C_28  and  O_29 
ROOT
HETATM    1  C   UNL     1     -14.992   1.788 -32.777  1.00  0.00     0.070 C 
HETATM    2  C   UNL     1     -13.547   2.213 -32.846  1.00  0.00     0.037 A 
HETATM    3  N   UNL     1     -12.668   1.271 -33.371  1.00  0.00    -0.192 N 
HETATM    4  C   UNL     1     -11.348   1.487 -33.516  1.00  0.00     0.726 A 
HETATM    5  N   UNL     1     -10.812   2.668 -33.088  1.00  0.00    -0.082 N 
HETATM    6  N   UNL     1      -9.477   2.700 -33.270  1.00  0.00    -0.128 NA
HETATM    7  C   UNL     1      -9.283   1.529 -33.894  1.00  0.00     0.226 A 
HETATM    8  N   UNL     1     -10.404   0.746 -34.032  1.00  0.00    -0.035 NA
HETATM    9  C   UNL     1     -11.593   3.766 -32.497  1.00  0.00     0.208 A 
HETATM   10  C   UNL     1     -13.075   3.411 -32.420  1.00  0.00     0.070 A 
HETATM   11  H   UNL     1     -13.063   0.409 -33.735  1.00  0.00     0.184 HD
ENDROOT
BRANCH   7  12
HETATM   12  S   UNL     1      -7.740   1.030 -34.526  1.00  0.00    -0.083 SA
BRANCH  12  13
HETATM   13  C   UNL     1      -7.121  -0.014 -33.178  1.00  0.00     0.123 C 
BRANCH  13  14
HETATM   14  C   UNL     1      -6.455  -1.263 -33.711  1.00  0.00    -0.027 A 
HETATM   15  C   UNL     1      -5.063  -1.451 -33.691  1.00  0.00     0.041 A 
HETATM   16 CL   UNL     1      -3.983  -0.274 -33.030  1.00  0.00    -0.084 Cl
HETATM   17  C   UNL     1      -4.494  -2.617 -34.216  1.00  0.00     0.024 A 
HETATM   18  C   UNL     1      -5.303  -3.604 -34.776  1.00  0.00     0.002 A 
HETATM   19  C   UNL     1      -6.683  -3.428 -34.814  1.00  0.00     0.001 A 
HETATM   20  C   UNL     1      -7.255  -2.269 -34.286  1.00  0.00     0.009 A 
ENDBRANCH  13  14
ENDBRANCH  12  13
ENDBRANCH   7  12
BRANCH   9  21
HETATM   21  C   UNL     1     -11.300   5.054 -33.252  1.00  0.00     0.032 A 
HETATM   22  C   UNL     1     -10.683   6.166 -32.657  1.00  0.00     0.045 A 
HETATM   23 CL   UNL     1     -10.236   6.194 -30.988  1.00  0.00    -0.084 Cl
HETATM   24  C   UNL     1     -10.404   7.319 -33.404  1.00  0.00     0.024 A 
HETATM   25  C   UNL     1     -10.730   7.381 -34.758  1.00  0.00     0.005 A 
HETATM   26  C   UNL     1     -11.339   6.290 -35.366  1.00  0.00     0.043 A 
HETATM   27  C   UNL     1     -11.613   5.148 -34.617  1.00  0.00     0.126 A 
HETATM   28  F   UNL     1     -12.193   4.112 -35.241  1.00  0.00    -0.205 F 
ENDBRANCH   9  21
BRANCH  10  29
HETATM   29  C   UNL     1     -13.976   4.455 -31.891  1.00  0.00     0.293 C 
HETATM   30  O   UNL     1     -14.697   5.161 -32.577  1.00  0.00    -0.259 OA
BRANCH  29  31
HETATM   31  O   UNL     1     -13.860   4.503 -30.543  1.00  0.00    -0.323 OA
HETATM   32  C   UNL     1     -13.856   5.830 -30.011  1.00  0.00     0.213 C 
ENDBRANCH  29  31
ENDBRANCH  10  29
TORSDOF 6
ENDMDL
MODEL 9
REMARK VINA RESULT:      -7.7      6.103      7.502
REMARK  6 active torsions:
REMARK  status: ('A' for Active; 'I' for Inactive)
REMARK    1  A    between atoms: C_7  and  S_8 
REMARK    2  A    between atoms: S_8  and  C_9 
REMARK    3  A    between atoms: C_9  and  C_10 
REMARK    4  A    between atoms: C_18  and  C_19 
REMARK    5  A    between atoms: C_27  and  C_28 
REMARK    6  A    between atoms: C_28  and  O_29 
ROOT
HETATM    1  C   UNL     1     -10.677   7.319 -32.708  1.00  0.00     0.070 C 
HETATM    2  C   UNL     1     -10.608   5.840 -32.991  1.00  0.00     0.037 A 
HETATM    3  N   UNL     1      -9.562   5.158 -32.376  1.00  0.00    -0.192 N 
HETATM    4  C   UNL     1      -9.357   3.835 -32.510  1.00  0.00     0.726 A 
HETATM    5  N   UNL     1     -10.178   3.111 -33.326  1.00  0.00    -0.082 N 
HETATM    6  N   UNL     1      -9.806   1.816 -33.377  1.00  0.00    -0.128 NA
HETATM    7  C   UNL     1      -8.797   1.812 -32.494  1.00  0.00     0.226 A 
HETATM    8  N   UNL     1      -8.474   3.040 -31.968  1.00  0.00    -0.035 NA
HETATM    9  C   UNL     1     -11.320   3.673 -34.063  1.00  0.00     0.208 A 
HETATM   10  C   UNL     1     -11.465   5.169 -33.801  1.00  0.00     0.070 A 
HETATM   11  H   UNL     1      -8.976   5.679 -31.729  1.00  0.00     0.184 HD
ENDROOT
BRANCH   7  12
HETATM   12  S   UNL     1      -7.963   0.365 -32.006  1.00  0.00    -0.083 SA
BRANCH  12  13
HETATM   13  C   UNL     1      -6.452   0.467 -33.003  1.00  0.00     0.123 C 
BRANCH  13  14
HETATM   14  C   UNL     1      -6.083  -0.882 -33.582  1.00  0.00    -0.027 A 
HETATM   15  C   UNL     1      -4.755  -1.330 -33.680  1.00  0.00     0.041 A 
HETATM   16 CL   UNL     1      -3.419  -0.384 -33.126  1.00  0.00    -0.084 Cl
HETATM   17  C   UNL     1      -4.465  -2.579 -34.242  1.00  0.00     0.024 A 
HETATM   18  C   UNL     1      -5.492  -3.390 -34.721  1.00  0.00     0.002 A 
HETATM   19  C   UNL     1      -6.812  -2.956 -34.642  1.00  0.00     0.001 A 
HETATM   20  C   UNL     1      -7.106  -1.713 -34.076  1.00  0.00     0.009 A 
ENDBRANCH  13  14
ENDBRANCH  12  13
ENDBRANCH   7  12
BRANCH   9  21
HETATM   21  C   UNL     1     -12.569   2.862 -33.749  1.00  0.00     0.032 A 
HETATM   22  C   UNL     1     -13.263   2.967 -32.533  1.00  0.00     0.045 A 
HETATM   23 CL   UNL     1     -12.737   4.001 -31.252  1.00  0.00    -0.084 Cl
HETATM   24  C   UNL     1     -14.429   2.222 -32.305  1.00  0.00     0.024 A 
HETATM   25  C   UNL     1     -14.925   1.364 -33.285  1.00  0.00     0.005 A 
HETATM   26  C   UNL     1     -14.253   1.249 -34.496  1.00  0.00     0.043 A 
HETATM   27  C   UNL     1     -13.096   1.993 -34.716  1.00  0.00     0.126 A 
HETATM   28  F   UNL     1     -12.481   1.861 -35.900  1.00  0.00    -0.205 F 
ENDBRANCH   9  21
BRANCH  10  29
HETATM   29  C   UNL     1     -12.610   5.844 -34.444  1.00  0.00     0.293 C 
HETATM   30  O   UNL     1     -13.655   6.125 -33.881  1.00  0.00    -0.259 OA
BRANCH  29  31
HETATM   31  O   UNL     1     -12.315   6.080 -35.745  1.00  0.00    -0.323 OA
HETATM   32  C   UNL     1     -12.184   7.467 -36.064  1.00  0.00     0.213 C 
ENDBRANCH  29  31
ENDBRANCH  10  29
TORSDOF 6
ENDMDL
MODEL 10
REMARK VINA RESULT:      -7.6      2.486      4.063
REMARK  6 active torsions:
REMARK  status: ('A' for Active; 'I' for Inactive)
REMARK    1  A    between atoms: C_7  and  S_8 
REMARK    2  A    between atoms: S_8  and  C_9 
REMARK    3  A    between atoms: C_9  and  C_10 
REMARK    4  A    between atoms: C_18  and  C_19 
REMARK    5  A    between atoms: C_27  and  C_28 
REMARK    6  A    between atoms: C_28  and  O_29 
ROOT
HETATM    1  C   UNL     1      -1.148   5.204 -30.787  1.00  0.00     0.070 C 
HETATM    2  C   UNL     1      -2.568   4.993 -31.246  1.00  0.00     0.037 A 
HETATM    3  N   UNL     1      -2.839   3.751 -31.812  1.00  0.00    -0.192 N 
HETATM    4  C   UNL     1      -4.053   3.389 -32.264  1.00  0.00     0.726 A 
HETATM    5  N   UNL     1      -5.079   4.289 -32.218  1.00  0.00    -0.082 N 
HETATM    6  N   UNL     1      -6.209   3.778 -32.747  1.00  0.00    -0.128 NA
HETATM    7  C   UNL     1      -5.812   2.527 -33.019  1.00  0.00     0.226 A 
HETATM    8  N   UNL     1      -4.487   2.263 -32.765  1.00  0.00    -0.035 NA
HETATM    9  C   UNL     1      -4.965   5.648 -31.667  1.00  0.00     0.208 A 
HETATM   10  C   UNL     1      -3.553   5.922 -31.159  1.00  0.00     0.070 A 
HETATM   11  H   UNL     1      -2.094   3.059 -31.807  1.00  0.00     0.184 HD
ENDROOT
BRANCH   7  12
HETATM   12  S   UNL     1      -6.887   1.295 -33.615  1.00  0.00    -0.083 SA
BRANCH  12  13
HETATM   13  C   UNL     1      -6.444  -0.111 -32.557  1.00  0.00     0.123 C 
BRANCH  13  14
HETATM   14  C   UNL     1      -6.057  -1.319 -33.381  1.00  0.00    -0.027 A 
HETATM   15  C   UNL     1      -4.728  -1.750 -33.522  1.00  0.00     0.041 A 
HETATM   16 CL   UNL     1      -3.410  -0.946 -32.743  1.00  0.00    -0.084 Cl
HETATM   17  C   UNL     1      -4.421  -2.863 -34.313  1.00  0.00     0.024 A 
HETATM   18  C   UNL     1      -5.431  -3.553 -34.979  1.00  0.00     0.002 A 
HETATM   19  C   UNL     1      -6.752  -3.133 -34.860  1.00  0.00     0.001 A 
HETATM   20  C   UNL     1      -7.064  -2.026 -34.067  1.00  0.00     0.009 A 
ENDBRANCH  13  14
ENDBRANCH  12  13
ENDBRANCH   7  12
BRANCH   9  21
HETATM   21  C   UNL     1      -6.054   5.861 -30.625  1.00  0.00     0.032 A 
HETATM   22  C   UNL     1      -7.053   6.839 -30.752  1.00  0.00     0.045 A 
HETATM   23 CL   UNL     1      -7.117   7.930 -32.090  1.00  0.00    -0.084 Cl
HETATM   24  C   UNL     1      -8.055   6.972 -29.780  1.00  0.00     0.024 A 
HETATM   25  C   UNL     1      -8.080   6.132 -28.668  1.00  0.00     0.005 A 
HETATM   26  C   UNL     1      -7.100   5.157 -28.526  1.00  0.00     0.043 A 
HETATM   27  C   UNL     1      -6.109   5.029 -29.496  1.00  0.00     0.126 A 
HETATM   28  F   UNL     1      -5.186   4.071 -29.328  1.00  0.00    -0.205 F 
ENDBRANCH   9  21
BRANCH  10  29
HETATM   29  C   UNL     1      -3.321   7.239 -30.531  1.00  0.00     0.293 C 
HETATM   30  O   UNL     1      -3.193   7.423 -29.332  1.00  0.00    -0.259 OA
BRANCH  29  31
HETATM   31  O   UNL     1      -3.288   8.191 -31.493  1.00  0.00    -0.323 OA
HETATM   32  C   UNL     1      -1.969   8.533 -31.923  1.00  0.00     0.213 C 
ENDBRANCH  29  31
ENDBRANCH  10  29
TORSDOF 6
ENDMDL
