MODEL 1
REMARK VINA RESULT:      -8.9      0.000      0.000
REMARK  5 active torsions:
REMARK  status: ('A' for Active; 'I' for Inactive)
REMARK    1  A    between atoms: C_3  and  N_4 
REMARK    2  A    between atoms: N_5  and  C_6 
REMARK    3  A    between atoms: C_6  and  C_7 
REMARK    4  A    between atoms: C_7  and  C_8 
REMARK    5  A    between atoms: C_19  and  C_20 
ROOT
HETATM    1  C   UNL     1      -7.434   0.403 -35.341  1.00  0.00     0.175 C 
HETATM    2  N   UNL     1      -6.409   0.543 -34.319  1.00  0.00    -0.186 N 
HETATM    3  C   UNL     1      -6.054   1.700 -33.770  1.00  0.00     0.680 C 
HETATM    4  N   UNL     1      -5.355   1.456 -32.667  1.00  0.00    -0.184 N 
HETATM    5  C   UNL     1      -5.104   0.093 -32.612  1.00  0.00     0.140 C 
HETATM    6  C   UNL     1      -5.703  -0.506 -33.701  1.00  0.00     0.077 C 
ENDROOT
BRANCH   4   7
HETATM    7  C   UNL     1      -4.958   2.422 -31.622  1.00  0.00     0.231 C 
BRANCH   7   8
HETATM    8  C   UNL     1      -3.456   2.682 -31.569  1.00  0.00     0.178 C 
HETATM    9  O   UNL     1      -2.665   1.854 -31.112  1.00  0.00    -0.290 OA
BRANCH   8  10
HETATM   10  C   UNL     1      -2.927   3.952 -32.134  1.00  0.00     0.014 A 
HETATM   11  C   UNL     1      -2.810   5.109 -31.356  1.00  0.00     0.055 A 
HETATM   12  C   UNL     1      -2.329   6.246 -31.976  1.00  0.00     0.106 A 
HETATM   13  C   UNL     1      -1.973   6.261 -33.304  1.00  0.00     0.105 A 
HETATM   14  O   UNL     1      -2.161   7.456 -31.380  1.00  0.00    -0.323 OA
HETATM   15  O   UNL     1      -1.532   7.480 -33.708  1.00  0.00    -0.323 OA
HETATM   16  C   UNL     1      -2.082   5.140 -34.095  1.00  0.00     0.040 A 
HETATM   17  C   UNL     1      -1.675   8.244 -32.492  1.00  0.00     0.352 A 
HETATM   18  C   UNL     1      -2.571   3.971 -33.503  1.00  0.00     0.018 A 
ENDBRANCH   8  10
ENDBRANCH   7   8
ENDBRANCH   4   7
BRANCH   3  19
HETATM   19  N   UNL     1      -6.372   2.895 -34.255  1.00  0.00    -0.234 N 
HETATM   20  H   UNL     1      -5.684   3.616 -34.393  1.00  0.00     0.174 HD
HETATM   21  H   UNL     1      -7.344   3.199 -34.185  1.00  0.00     0.174 HD
ENDBRANCH   3  19
BRANCH   6  22
HETATM   22  C   UNL     1      -5.600  -1.958 -34.073  1.00  0.00    -0.007 A 
HETATM   23  C   UNL     1      -6.732  -2.652 -34.521  1.00  0.00     0.014 A 
HETATM   24  C   UNL     1      -6.642  -4.005 -34.855  1.00  0.00     0.001 A 
HETATM   25  C   UNL     1      -5.428  -4.676 -34.732  1.00  0.00     0.000 A 
HETATM   26  C   UNL     1      -4.304  -3.998 -34.268  1.00  0.00     0.001 A 
HETATM   27  C   UNL     1      -4.388  -2.643 -33.938  1.00  0.00     0.014 A 
ENDBRANCH   6  22
TORSDOF 5
ENDMDL
MODEL 2
REMARK VINA RESULT:      -8.9      2.303      3.054
REMARK  5 active torsions:
REMARK  status: ('A' for Active; 'I' for Inactive)
REMARK    1  A    between atoms: C_3  and  N_4 
REMARK    2  A    between atoms: N_5  and  C_6 
REMARK    3  A    between atoms: C_6  and  C_7 
REMARK    4  A    between atoms: C_7  and  C_8 
REMARK    5  A    between atoms: C_19  and  C_20 
ROOT
HETATM    1  C   UNL     1      -6.004   0.044 -29.942  1.00  0.00     0.175 C 
HETATM    2  N   UNL     1      -6.390   1.007 -30.963  1.00  0.00    -0.186 N 
HETATM    3  C   UNL     1      -6.814   2.239 -30.705  1.00  0.00     0.680 C 
HETATM    4  N   UNL     1      -6.766   2.953 -31.824  1.00  0.00    -0.184 N 
HETATM    5  C   UNL     1      -6.470   2.091 -32.870  1.00  0.00     0.140 C 
HETATM    6  C   UNL     1      -6.302   0.822 -32.355  1.00  0.00     0.077 C 
ENDROOT
BRANCH   4   7
HETATM    7  C   UNL     1      -6.919   4.416 -31.965  1.00  0.00     0.231 C 
BRANCH   7   8
HETATM    8  C   UNL     1      -6.546   4.939 -33.348  1.00  0.00     0.178 C 
HETATM    9  O   UNL     1      -7.378   5.049 -34.251  1.00  0.00    -0.290 OA
BRANCH   8  10
HETATM   10  C   UNL     1      -5.148   5.378 -33.596  1.00  0.00     0.014 A 
HETATM   11  C   UNL     1      -4.468   6.208 -32.696  1.00  0.00     0.055 A 
HETATM   12  C   UNL     1      -3.180   6.581 -33.024  1.00  0.00     0.106 A 
HETATM   13  C   UNL     1      -2.569   6.163 -34.183  1.00  0.00     0.105 A 
HETATM   14  O   UNL     1      -2.379   7.387 -32.278  1.00  0.00    -0.323 OA
HETATM   15  O   UNL     1      -1.308   6.650 -34.309  1.00  0.00    -0.323 OA
HETATM   16  C   UNL     1      -3.213   5.350 -35.089  1.00  0.00     0.040 A 
HETATM   17  C   UNL     1      -1.198   7.447 -33.110  1.00  0.00     0.352 A 
HETATM   18  C   UNL     1      -4.523   4.958 -34.793  1.00  0.00     0.018 A 
ENDBRANCH   8  10
ENDBRANCH   7   8
ENDBRANCH   4   7
BRANCH   3  19
HETATM   19  N   UNL     1      -7.202   2.669 -29.510  1.00  0.00    -0.234 N 
HETATM   20  H   UNL     1      -6.574   3.147 -28.884  1.00  0.00     0.174 HD
HETATM   21  H   UNL     1      -8.027   2.242 -29.089  1.00  0.00     0.174 HD
ENDBRANCH   3  19
BRANCH   6  22
HETATM   22  C   UNL     1      -6.061  -0.426 -33.155  1.00  0.00    -0.007 A 
HETATM   23  C   UNL     1      -4.765  -0.945 -33.279  1.00  0.00     0.014 A 
HETATM   24  C   UNL     1      -4.537  -2.098 -34.034  1.00  0.00     0.001 A 
HETATM   25  C   UNL     1      -5.596  -2.732 -34.679  1.00  0.00     0.000 A 
HETATM   26  C   UNL     1      -6.883  -2.211 -34.576  1.00  0.00     0.001 A 
HETATM   27  C   UNL     1      -7.117  -1.061 -33.819  1.00  0.00     0.014 A 
ENDBRANCH   6  22
TORSDOF 5
ENDMDL
MODEL 3
REMARK VINA RESULT:      -8.8      1.875      2.943
REMARK  5 active torsions:
REMARK  status: ('A' for Active; 'I' for Inactive)
REMARK    1  A    between atoms: C_3  and  N_4 
REMARK    2  A    between atoms: N_5  and  C_6 
REMARK    3  A    between atoms: C_6  and  C_7 
REMARK    4  A    between atoms: C_7  and  C_8 
REMARK    5  A    between atoms: C_19  and  C_20 
ROOT
HETATM    1  C   UNL     1      -3.957   0.215 -30.862  1.00  0.00     0.175 C 
HETATM    2  N   UNL     1      -4.718   1.085 -31.746  1.00  0.00    -0.186 N 
HETATM    3  C   UNL     1      -4.894   2.386 -31.543  1.00  0.00     0.680 C 
HETATM    4  N   UNL     1      -5.333   2.941 -32.667  1.00  0.00    -0.184 N 
HETATM    5  C   UNL     1      -5.616   1.922 -33.565  1.00  0.00     0.140 C 
HETATM    6  C   UNL     1      -5.304   0.718 -32.972  1.00  0.00     0.077 C 
ENDROOT
BRANCH   4   7
HETATM    7  C   UNL     1      -5.444   4.382 -32.975  1.00  0.00     0.231 C 
BRANCH   7   8
HETATM    8  C   UNL     1      -4.355   4.893 -33.912  1.00  0.00     0.178 C 
HETATM    9  O   UNL     1      -4.506   4.922 -35.136  1.00  0.00    -0.290 OA
BRANCH   8  10
HETATM   10  C   UNL     1      -3.094   5.419 -33.326  1.00  0.00     0.014 A 
HETATM   11  C   UNL     1      -2.280   4.630 -32.505  1.00  0.00     0.055 A 
HETATM   12  C   UNL     1      -1.140   5.215 -31.990  1.00  0.00     0.106 A 
HETATM   13  C   UNL     1      -0.799   6.519 -32.261  1.00  0.00     0.105 A 
HETATM   14  O   UNL     1      -0.244   4.604 -31.170  1.00  0.00    -0.323 OA
HETATM   15  O   UNL     1       0.355   6.890 -31.650  1.00  0.00    -0.323 OA
HETATM   16  C   UNL     1      -1.581   7.320 -33.062  1.00  0.00     0.040 A 
HETATM   17  C   UNL     1       0.693   5.681 -30.938  1.00  0.00     0.352 A 
HETATM   18  C   UNL     1      -2.748   6.764 -33.596  1.00  0.00     0.018 A 
ENDBRANCH   8  10
ENDBRANCH   7   8
ENDBRANCH   4   7
BRANCH   3  19
HETATM   19  N   UNL     1      -4.649   3.012 -30.397  1.00  0.00    -0.234 N 
HETATM   20  H   UNL     1      -3.715   3.254 -30.111  1.00  0.00     0.174 HD
HETATM   21  H   UNL     1      -5.353   2.960 -29.660  1.00  0.00     0.174 HD
ENDBRANCH   3  19
BRANCH   6  22
HETATM   22  C   UNL     1      -5.544  -0.643 -33.563  1.00  0.00    -0.007 A 
HETATM   23  C   UNL     1      -4.461  -1.475 -33.877  1.00  0.00     0.014 A 
HETATM   24  C   UNL     1      -4.681  -2.735 -34.439  1.00  0.00     0.001 A 
HETATM   25  C   UNL     1      -5.979  -3.165 -34.703  1.00  0.00     0.000 A 
HETATM   26  C   UNL     1      -7.059  -2.335 -34.412  1.00  0.00     0.001 A 
HETATM   27  C   UNL     1      -6.843  -1.076 -33.845  1.00  0.00     0.014 A 
ENDBRANCH   6  22
TORSDOF 5
ENDMDL
MODEL 4
REMARK VINA RESULT:      -8.6      4.196      6.819
REMARK  5 active torsions:
REMARK  status: ('A' for Active; 'I' for Inactive)
REMARK    1  A    between atoms: C_3  and  N_4 
REMARK    2  A    between atoms: N_5  and  C_6 
REMARK    3  A    between atoms: C_6  and  C_7 
REMARK    4  A    between atoms: C_7  and  C_8 
REMARK    5  A    between atoms: C_19  and  C_20 
ROOT
HETATM    1  C   UNL     1      -3.685  -0.461 -32.242  1.00  0.00     0.175 C 
HETATM    2  N   UNL     1      -4.911  -0.058 -32.914  1.00  0.00    -0.186 N 
HETATM    3  C   UNL     1      -5.467   1.142 -32.797  1.00  0.00     0.680 C 
HETATM    4  N   UNL     1      -6.360   1.299 -33.768  1.00  0.00    -0.184 N 
HETATM    5  C   UNL     1      -6.504   0.082 -34.418  1.00  0.00     0.140 C 
HETATM    6  C   UNL     1      -5.643  -0.827 -33.839  1.00  0.00     0.077 C 
ENDROOT
BRANCH   4   7
HETATM    7  C   UNL     1      -7.045   2.546 -34.167  1.00  0.00     0.231 C 
BRANCH   7   8
HETATM    8  C   UNL     1      -8.221   2.911 -33.267  1.00  0.00     0.178 C 
HETATM    9  O   UNL     1      -8.063   3.452 -32.171  1.00  0.00    -0.290 OA
BRANCH   8  10
HETATM   10  C   UNL     1      -9.603   2.652 -33.752  1.00  0.00     0.014 A 
HETATM   11  C   UNL     1     -10.319   1.516 -33.359  1.00  0.00     0.055 A 
HETATM   12  C   UNL     1     -11.587   1.351 -33.881  1.00  0.00     0.106 A 
HETATM   13  C   UNL     1     -12.143   2.257 -34.752  1.00  0.00     0.105 A 
HETATM   14  O   UNL     1     -12.416   0.307 -33.618  1.00  0.00    -0.323 OA
HETATM   15  O   UNL     1     -13.393   1.899 -35.144  1.00  0.00    -0.323 OA
HETATM   16  C   UNL     1     -11.462   3.381 -35.160  1.00  0.00     0.040 A 
HETATM   17  C   UNL     1     -13.555   0.648 -34.442  1.00  0.00     0.352 A 
HETATM   18  C   UNL     1     -10.172   3.578 -34.658  1.00  0.00     0.018 A 
ENDBRANCH   8  10
ENDBRANCH   7   8
ENDBRANCH   4   7
BRANCH   3  19
HETATM   19  N   UNL     1      -5.152   2.032 -31.863  1.00  0.00    -0.234 N 
HETATM   20  H   UNL     1      -4.273   2.004 -31.372  1.00  0.00     0.174 HD
HETATM   21  H   UNL     1      -5.910   2.544 -31.411  1.00  0.00     0.174 HD
ENDBRANCH   3  19
BRANCH   6  22
HETATM   22  C   UNL     1      -5.546  -2.287 -34.179  1.00  0.00    -0.007 A 
HETATM   23  C   UNL     1      -6.658  -2.963 -34.701  1.00  0.00     0.014 A 
HETATM   24  C   UNL     1      -6.574  -4.324 -35.005  1.00  0.00     0.001 A 
HETATM   25  C   UNL     1      -5.389  -5.020 -34.779  1.00  0.00     0.000 A 
HETATM   26  C   UNL     1      -4.287  -4.358 -34.242  1.00  0.00     0.001 A 
HETATM   27  C   UNL     1      -4.365  -2.996 -33.941  1.00  0.00     0.014 A 
ENDBRANCH   6  22
TORSDOF 5
ENDMDL
MODEL 5
REMARK VINA RESULT:      -8.6      4.341      7.990
REMARK  5 active torsions:
REMARK  status: ('A' for Active; 'I' for Inactive)
REMARK    1  A    between atoms: C_3  and  N_4 
REMARK    2  A    between atoms: N_5  and  C_6 
REMARK    3  A    between atoms: C_6  and  C_7 
REMARK    4  A    between atoms: C_7  and  C_8 
REMARK    5  A    between atoms: C_19  and  C_20 
ROOT
HETATM    1  C   UNL     1      -9.779   2.598 -31.146  1.00  0.00     0.175 C 
HETATM    2  N   UNL     1      -9.322   2.165 -32.457  1.00  0.00    -0.186 N 
HETATM    3  C   UNL     1      -8.068   2.263 -32.881  1.00  0.00     0.680 C 
HETATM    4  N   UNL     1      -7.915   1.497 -33.955  1.00  0.00    -0.184 N 
HETATM    5  C   UNL     1      -9.167   1.034 -34.333  1.00  0.00     0.140 C 
HETATM    6  C   UNL     1     -10.098   1.512 -33.434  1.00  0.00     0.077 C 
ENDROOT
BRANCH   4   7
HETATM    7  C   UNL     1      -6.649   1.118 -34.617  1.00  0.00     0.231 C 
BRANCH   7   8
HETATM    8  C   UNL     1      -5.733   0.268 -33.743  1.00  0.00     0.178 C 
HETATM    9  O   UNL     1      -5.085   0.751 -32.813  1.00  0.00    -0.290 OA
BRANCH   8  10
HETATM   10  C   UNL     1      -5.663  -1.197 -33.990  1.00  0.00     0.014 A 
HETATM   11  C   UNL     1      -4.526  -1.944 -33.658  1.00  0.00     0.055 A 
HETATM   12  C   UNL     1      -4.546  -3.294 -33.947  1.00  0.00     0.106 A 
HETATM   13  C   UNL     1      -5.630  -3.901 -34.535  1.00  0.00     0.105 A 
HETATM   14  O   UNL     1      -3.532  -4.166 -33.704  1.00  0.00    -0.323 OA
HETATM   15  O   UNL     1      -5.436  -5.230 -34.733  1.00  0.00    -0.323 OA
HETATM   16  C   UNL     1      -6.760  -3.192 -34.877  1.00  0.00     0.040 A 
HETATM   17  C   UNL     1      -4.094  -5.392 -34.228  1.00  0.00     0.352 A 
HETATM   18  C   UNL     1      -6.773  -1.820 -34.606  1.00  0.00     0.018 A 
ENDBRANCH   8  10
ENDBRANCH   7   8
ENDBRANCH   4   7
BRANCH   3  19
HETATM   19  N   UNL     1      -7.130   3.002 -32.299  1.00  0.00    -0.234 N 
HETATM   20  H   UNL     1      -6.860   2.863 -31.339  1.00  0.00     0.174 HD
HETATM   21  H   UNL     1      -6.911   3.911 -32.707  1.00  0.00     0.174 HD
ENDBRANCH   3  19
BRANCH   6  22
HETATM   22  C   UNL     1     -11.586   1.325 -33.526  1.00  0.00    -0.007 A 
HETATM   23  C   UNL     1     -12.436   2.439 -33.534  1.00  0.00     0.014 A 
HETATM   24  C   UNL     1     -13.821   2.267 -33.606  1.00  0.00     0.001 A 
HETATM   25  C   UNL     1     -14.365   0.986 -33.656  1.00  0.00     0.000 A 
HETATM   26  C   UNL     1     -13.527  -0.125 -33.628  1.00  0.00     0.001 A 
HETATM   27  C   UNL     1     -12.141   0.042 -33.561  1.00  0.00     0.014 A 
ENDBRANCH   6  22
TORSDOF 5
ENDMDL
MODEL 6
REMARK VINA RESULT:      -8.6      3.325      8.048
REMARK  5 active torsions:
REMARK  status: ('A' for Active; 'I' for Inactive)
REMARK    1  A    between atoms: C_3  and  N_4 
REMARK    2  A    between atoms: N_5  and  C_6 
REMARK    3  A    between atoms: C_6  and  C_7 
REMARK    4  A    between atoms: C_7  and  C_8 
REMARK    5  A    between atoms: C_19  and  C_20 
ROOT
HETATM    1  C   UNL     1      -5.377   3.514 -30.140  1.00  0.00     0.175 C 
HETATM    2  N   UNL     1      -5.613   2.630 -31.271  1.00  0.00    -0.186 N 
HETATM    3  C   UNL     1      -6.374   1.542 -31.224  1.00  0.00     0.680 C 
HETATM    4  N   UNL     1      -6.650   1.155 -32.464  1.00  0.00    -0.184 N 
HETATM    5  C   UNL     1      -5.886   1.923 -33.332  1.00  0.00     0.140 C 
HETATM    6  C   UNL     1      -5.154   2.824 -32.588  1.00  0.00     0.077 C 
ENDROOT
BRANCH   4   7
HETATM    7  C   UNL     1      -7.639   0.145 -32.892  1.00  0.00     0.231 C 
BRANCH   7   8
HETATM    8  C   UNL     1      -7.323  -0.484 -34.246  1.00  0.00     0.178 C 
HETATM    9  O   UNL     1      -7.608   0.074 -35.308  1.00  0.00    -0.290 OA
BRANCH   8  10
HETATM   10  C   UNL     1      -6.603  -1.784 -34.282  1.00  0.00     0.014 A 
HETATM   11  C   UNL     1      -5.311  -1.922 -33.762  1.00  0.00     0.055 A 
HETATM   12  C   UNL     1      -4.715  -3.164 -33.862  1.00  0.00     0.106 A 
HETATM   13  C   UNL     1      -5.349  -4.236 -34.444  1.00  0.00     0.105 A 
HETATM   14  O   UNL     1      -3.467  -3.476 -33.424  1.00  0.00    -0.323 OA
HETATM   15  O   UNL     1      -4.582  -5.356 -34.441  1.00  0.00    -0.323 OA
HETATM   16  C   UNL     1      -6.618  -4.129 -34.968  1.00  0.00     0.040 A 
HETATM   17  C   UNL     1      -3.377  -4.865 -33.815  1.00  0.00     0.352 A 
HETATM   18  C   UNL     1      -7.250  -2.884 -34.890  1.00  0.00     0.018 A 
ENDBRANCH   8  10
ENDBRANCH   7   8
ENDBRANCH   4   7
BRANCH   3  19
HETATM   19  N   UNL     1      -6.793   0.962 -30.104  1.00  0.00    -0.234 N 
HETATM   20  H   UNL     1      -7.371   1.445 -29.437  1.00  0.00     0.174 HD
HETATM   21  H   UNL     1      -6.276   0.154 -29.759  1.00  0.00     0.174 HD
ENDBRANCH   3  19
BRANCH   6  22
HETATM   22  C   UNL     1      -4.128   3.781 -33.126  1.00  0.00    -0.007 A 
HETATM   23  C   UNL     1      -4.474   4.688 -34.138  1.00  0.00     0.014 A 
HETATM   24  C   UNL     1      -3.518   5.569 -34.650  1.00  0.00     0.001 A 
HETATM   25  C   UNL     1      -2.213   5.543 -34.166  1.00  0.00     0.000 A 
HETATM   26  C   UNL     1      -1.858   4.631 -33.176  1.00  0.00     0.001 A 
HETATM   27  C   UNL     1      -2.811   3.751 -32.657  1.00  0.00     0.014 A 
ENDBRANCH   6  22
TORSDOF 5
ENDMDL
MODEL 7
REMARK VINA RESULT:      -8.5      2.448      3.228
REMARK  5 active torsions:
REMARK  status: ('A' for Active; 'I' for Inactive)
REMARK    1  A    between atoms: C_3  and  N_4 
REMARK    2  A    between atoms: N_5  and  C_6 
REMARK    3  A    between atoms: C_6  and  C_7 
REMARK    4  A    between atoms: C_7  and  C_8 
REMARK    5  A    between atoms: C_19  and  C_20 
ROOT
HETATM    1  C   UNL     1      -6.383  -0.216 -30.544  1.00  0.00     0.175 C 
HETATM    2  N   UNL     1      -6.985   0.472 -31.676  1.00  0.00    -0.186 N 
HETATM    3  C   UNL     1      -7.693   1.592 -31.579  1.00  0.00     0.680 C 
HETATM    4  N   UNL     1      -7.813   2.131 -32.787  1.00  0.00    -0.184 N 
HETATM    5  C   UNL     1      -7.316   1.224 -33.711  1.00  0.00     0.140 C 
HETATM    6  C   UNL     1      -6.850   0.118 -33.031  1.00  0.00     0.077 C 
ENDROOT
BRANCH   4   7
HETATM    7  C   UNL     1      -8.313   3.480 -33.124  1.00  0.00     0.231 C 
BRANCH   7   8
HETATM    8  C   UNL     1      -7.490   4.608 -32.509  1.00  0.00     0.178 C 
HETATM    9  O   UNL     1      -7.990   5.446 -31.756  1.00  0.00    -0.290 OA
BRANCH   8  10
HETATM   10  C   UNL     1      -6.030   4.664 -32.787  1.00  0.00     0.014 A 
HETATM   11  C   UNL     1      -5.534   5.078 -34.029  1.00  0.00     0.055 A 
HETATM   12  C   UNL     1      -4.164   5.075 -34.198  1.00  0.00     0.106 A 
HETATM   13  C   UNL     1      -3.302   4.686 -33.200  1.00  0.00     0.105 A 
HETATM   14  O   UNL     1      -3.511   5.434 -35.335  1.00  0.00    -0.323 OA
HETATM   15  O   UNL     1      -2.001   4.755 -33.581  1.00  0.00    -0.323 OA
HETATM   16  C   UNL     1      -3.761   4.270 -31.970  1.00  0.00     0.040 A 
HETATM   17  C   UNL     1      -2.136   5.207 -34.945  1.00  0.00     0.352 A 
HETATM   18  C   UNL     1      -5.144   4.253 -31.764  1.00  0.00     0.018 A 
ENDBRANCH   8  10
ENDBRANCH   7   8
ENDBRANCH   4   7
BRANCH   3  19
HETATM   19  N   UNL     1      -8.177   2.083 -30.443  1.00  0.00    -0.234 N 
HETATM   20  H   UNL     1      -7.602   2.205 -29.626  1.00  0.00     0.174 HD
HETATM   21  H   UNL     1      -9.184   2.035 -30.289  1.00  0.00     0.174 HD
ENDBRANCH   3  19
BRANCH   6  22
HETATM   22  C   UNL     1      -6.315  -1.138 -33.657  1.00  0.00    -0.007 A 
HETATM   23  C   UNL     1      -7.195  -2.088 -34.194  1.00  0.00     0.014 A 
HETATM   24  C   UNL     1      -6.701  -3.263 -34.765  1.00  0.00     0.001 A 
HETATM   25  C   UNL     1      -5.329  -3.504 -34.791  1.00  0.00     0.000 A 
HETATM   26  C   UNL     1      -4.450  -2.574 -34.241  1.00  0.00     0.001 A 
HETATM   27  C   UNL     1      -4.940  -1.395 -33.675  1.00  0.00     0.014 A 
ENDBRANCH   6  22
TORSDOF 5
ENDMDL
MODEL 8
REMARK VINA RESULT:      -8.3      5.224      7.855
REMARK  5 active torsions:
REMARK  status: ('A' for Active; 'I' for Inactive)
REMARK    1  A    between atoms: C_3  and  N_4 
REMARK    2  A    between atoms: N_5  and  C_6 
REMARK    3  A    between atoms: C_6  and  C_7 
REMARK    4  A    between atoms: C_7  and  C_8 
REMARK    5  A    between atoms: C_19  and  C_20 
ROOT
HETATM    1  C   UNL     1      -4.706   0.283 -30.828  1.00  0.00     0.175 C 
HETATM    2  N   UNL     1      -6.050   0.545 -31.319  1.00  0.00    -0.186 N 
HETATM    3  C   UNL     1      -6.887   1.421 -30.776  1.00  0.00     0.680 C 
HETATM    4  N   UNL     1      -7.874   1.662 -31.631  1.00  0.00    -0.184 N 
HETATM    5  C   UNL     1      -7.754   0.767 -32.685  1.00  0.00     0.140 C 
HETATM    6  C   UNL     1      -6.637  -0.013 -32.471  1.00  0.00     0.077 C 
ENDROOT
BRANCH   4   7
HETATM    7  C   UNL     1      -8.894   2.728 -31.551  1.00  0.00     0.231 C 
BRANCH   7   8
HETATM    8  C   UNL     1      -9.607   2.991 -32.874  1.00  0.00     0.178 C 
HETATM    9  O   UNL     1      -9.013   3.435 -33.859  1.00  0.00    -0.290 OA
BRANCH   8  10
HETATM   10  C   UNL     1     -11.050   2.652 -32.991  1.00  0.00     0.014 A 
HETATM   11  C   UNL     1     -11.485   1.532 -33.708  1.00  0.00     0.055 A 
HETATM   12  C   UNL     1     -12.846   1.312 -33.780  1.00  0.00     0.106 A 
HETATM   13  C   UNL     1     -13.756   2.148 -33.176  1.00  0.00     0.105 A 
HETATM   14  O   UNL     1     -13.445   0.285 -34.439  1.00  0.00    -0.323 OA
HETATM   15  O   UNL     1     -15.038   1.750 -33.376  1.00  0.00    -0.323 OA
HETATM   16  C   UNL     1     -13.358   3.260 -32.467  1.00  0.00     0.040 A 
HETATM   17  C   UNL     1     -14.840   0.581 -34.199  1.00  0.00     0.352 A 
HETATM   18  C   UNL     1     -11.986   3.518 -32.380  1.00  0.00     0.018 A 
ENDBRANCH   8  10
ENDBRANCH   7   8
ENDBRANCH   4   7
BRANCH   3  19
HETATM   19  N   UNL     1      -6.732   1.968 -29.575  1.00  0.00    -0.234 N 
HETATM   20  H   UNL     1      -6.450   2.927 -29.458  1.00  0.00     0.174 HD
HETATM   21  H   UNL     1      -6.580   1.348 -28.779  1.00  0.00     0.174 HD
ENDBRANCH   3  19
BRANCH   6  22
HETATM   22  C   UNL     1      -6.194  -1.167 -33.324  1.00  0.00    -0.007 A 
HETATM   23  C   UNL     1      -4.828  -1.429 -33.501  1.00  0.00     0.014 A 
HETATM   24  C   UNL     1      -4.413  -2.494 -34.304  1.00  0.00     0.001 A 
HETATM   25  C   UNL     1      -5.356  -3.294 -34.946  1.00  0.00     0.000 A 
HETATM   26  C   UNL     1      -6.714  -3.028 -34.790  1.00  0.00     0.001 A 
HETATM   27  C   UNL     1      -7.133  -1.967 -33.983  1.00  0.00     0.014 A 
ENDBRANCH   6  22
TORSDOF 5
ENDMDL
MODEL 9
REMARK VINA RESULT:      -8.2      4.056      7.515
REMARK  5 active torsions:
REMARK  status: ('A' for Active; 'I' for Inactive)
REMARK    1  A    between atoms: C_3  and  N_4 
REMARK    2  A    between atoms: N_5  and  C_6 
REMARK    3  A    between atoms: C_6  and  C_7 
REMARK    4  A    between atoms: C_7  and  C_8 
REMARK    5  A    between atoms: C_19  and  C_20 
ROOT
HETATM    1  C   UNL     1      -8.160   3.314 -30.098  1.00  0.00     0.175 C 
HETATM    2  N   UNL     1      -7.373   2.340 -30.839  1.00  0.00    -0.186 N 
HETATM    3  C   UNL     1      -6.128   1.995 -30.529  1.00  0.00     0.680 C 
HETATM    4  N   UNL     1      -5.819   0.875 -31.173  1.00  0.00    -0.184 N 
HETATM    5  C   UNL     1      -6.846   0.597 -32.064  1.00  0.00     0.140 C 
HETATM    6  C   UNL     1      -7.818   1.564 -31.926  1.00  0.00     0.077 C 
ENDROOT
BRANCH   4   7
HETATM    7  C   UNL     1      -4.642   0.009 -30.957  1.00  0.00     0.231 C 
BRANCH   7   8
HETATM    8  C   UNL     1      -3.901  -0.345 -32.242  1.00  0.00     0.178 C 
HETATM    9  O   UNL     1      -3.069   0.413 -32.747  1.00  0.00    -0.290 OA
BRANCH   8  10
HETATM   10  C   UNL     1      -4.152  -1.668 -32.874  1.00  0.00     0.014 A 
HETATM   11  C   UNL     1      -5.144  -1.840 -33.846  1.00  0.00     0.055 A 
HETATM   12  C   UNL     1      -5.317  -3.111 -34.358  1.00  0.00     0.106 A 
HETATM   13  C   UNL     1      -4.555  -4.178 -33.945  1.00  0.00     0.105 A 
HETATM   14  O   UNL     1      -6.236  -3.463 -35.296  1.00  0.00    -0.323 OA
HETATM   15  O   UNL     1      -4.895  -5.332 -34.573  1.00  0.00    -0.323 OA
HETATM   16  C   UNL     1      -3.575  -4.039 -32.988  1.00  0.00     0.040 A 
HETATM   17  C   UNL     1      -5.979  -4.882 -35.413  1.00  0.00     0.352 A 
HETATM   18  C   UNL     1      -3.375  -2.767 -32.441  1.00  0.00     0.018 A 
ENDBRANCH   8  10
ENDBRANCH   7   8
ENDBRANCH   4   7
BRANCH   3  19
HETATM   19  N   UNL     1      -5.344   2.668 -29.695  1.00  0.00    -0.234 N 
HETATM   20  H   UNL     1      -4.608   3.272 -30.023  1.00  0.00     0.174 HD
HETATM   21  H   UNL     1      -5.264   2.334 -28.734  1.00  0.00     0.174 HD
ENDBRANCH   3  19
BRANCH   6  22
HETATM   22  C   UNL     1      -9.058   1.692 -32.765  1.00  0.00    -0.007 A 
HETATM   23  C   UNL     1      -9.980   0.638 -32.824  1.00  0.00     0.014 A 
HETATM   24  C   UNL     1     -11.126   0.749 -33.615  1.00  0.00     0.001 A 
HETATM   25  C   UNL     1     -11.353   1.903 -34.360  1.00  0.00     0.000 A 
HETATM   26  C   UNL     1     -10.431   2.946 -34.322  1.00  0.00     0.001 A 
HETATM   27  C   UNL     1      -9.285   2.842 -33.528  1.00  0.00     0.014 A 
ENDBRANCH   6  22
TORSDOF 5
ENDMDL
MODEL 10
REMARK VINA RESULT:      -8.0      2.780      8.530
REMARK  5 active torsions:
REMARK  status: ('A' for Active; 'I' for Inactive)
REMARK    1  A    between atoms: C_3  and  N_4 
REMARK    2  A    between atoms: N_5  and  C_6 
REMARK    3  A    between atoms: C_6  and  C_7 
REMARK    4  A    between atoms: C_7  and  C_8 
REMARK    5  A    between atoms: C_19  and  C_20 
ROOT
HETATM    1  C   UNL     1      -2.333   6.078 -34.220  1.00  0.00     0.175 C 
HETATM    2  N   UNL     1      -3.011   5.230 -33.252  1.00  0.00    -0.186 N 
HETATM    3  C   UNL     1      -4.082   4.492 -33.525  1.00  0.00     0.680 C 
HETATM    4  N   UNL     1      -4.251   3.603 -32.553  1.00  0.00    -0.184 N 
HETATM    5  C   UNL     1      -3.359   3.907 -31.535  1.00  0.00     0.140 C 
HETATM    6  C   UNL     1      -2.605   4.994 -31.925  1.00  0.00     0.077 C 
ENDROOT
BRANCH   4   7
HETATM    7  C   UNL     1      -5.162   2.440 -32.546  1.00  0.00     0.231 C 
BRANCH   7   8
HETATM    8  C   UNL     1      -4.439   1.097 -32.547  1.00  0.00     0.178 C 
HETATM    9  O   UNL     1      -3.331   0.952 -32.026  1.00  0.00    -0.290 OA
BRANCH   8  10
HETATM   10  C   UNL     1      -5.116  -0.082 -33.148  1.00  0.00     0.014 A 
HETATM   11  C   UNL     1      -4.400  -1.220 -33.537  1.00  0.00     0.055 A 
HETATM   12  C   UNL     1      -5.114  -2.256 -34.107  1.00  0.00     0.106 A 
HETATM   13  C   UNL     1      -6.475  -2.193 -34.292  1.00  0.00     0.105 A 
HETATM   14  O   UNL     1      -4.584  -3.426 -34.552  1.00  0.00    -0.323 OA
HETATM   15  O   UNL     1      -6.972  -3.315 -34.872  1.00  0.00    -0.323 OA
HETATM   16  C   UNL     1      -7.205  -1.085 -33.923  1.00  0.00     0.040 A 
HETATM   17  C   UNL     1      -5.766  -4.087 -35.059  1.00  0.00     0.352 A 
HETATM   18  C   UNL     1      -6.514  -0.013 -33.349  1.00  0.00     0.018 A 
ENDBRANCH   8  10
ENDBRANCH   7   8
ENDBRANCH   4   7
BRANCH   3  19
HETATM   19  N   UNL     1      -4.835   4.628 -34.611  1.00  0.00    -0.234 N 
HETATM   20  H   UNL     1      -5.481   5.392 -34.720  1.00  0.00     0.174 HD
HETATM   21  H   UNL     1      -5.004   3.802 -35.186  1.00  0.00     0.174 HD
ENDBRANCH   3  19
BRANCH   6  22
HETATM   22  C   UNL     1      -1.586   5.705 -31.081  1.00  0.00    -0.007 A 
HETATM   23  C   UNL     1      -1.856   6.987 -30.581  1.00  0.00     0.014 A 
HETATM   24  C   UNL     1      -0.904   7.655 -29.808  1.00  0.00     0.001 A 
HETATM   25  C   UNL     1       0.326   7.058 -29.541  1.00  0.00     0.000 A 
HETATM   26  C   UNL     1       0.608   5.794 -30.052  1.00  0.00     0.001 A 
HETATM   27  C   UNL     1      -0.343   5.119 -30.821  1.00  0.00     0.014 A 
ENDBRANCH   6  22
TORSDOF 5
ENDMDL
