MODEL 1
REMARK VINA RESULT:      -9.4      0.000      0.000
REMARK  8 active torsions:
REMARK  status: ('A' for Active; 'I' for Inactive)
REMARK    1  A    between atoms: C_6  and  N_7 
REMARK    2  A    between atoms: C_6  and  C_26 
REMARK       I    between atoms: N_7  and  C_8 
REMARK    3  A    between atoms: N_7  and  C_23 
REMARK    4  A    between atoms: C_8  and  C_9 
REMARK    5  A    between atoms: C_9  and  N_10 
REMARK    6  A    between atoms: C_14  and  C_15 
REMARK       I    between atoms: C_26  and  N_27 
REMARK    7  A    between atoms: N_27  and  C_28 
REMARK    8  A    between atoms: C_31  and  N_32 
ROOT
HETATM    1  C   UNL     1      -6.080   9.407 -29.229  1.00  0.00     0.269 C 
HETATM    2  N   UNL     1      -5.461   8.146 -29.781  1.00  0.00    -0.075 N 
HETATM    3  H   UNL     1      -6.249   7.496 -29.938  1.00  0.00     0.279 HD
HETATM    4  C   UNL     1      -4.793   8.407 -31.106  1.00  0.00     0.237 C 
HETATM    5  C   UNL     1      -4.161   7.135 -31.669  1.00  0.00     0.069 C 
HETATM    6  C   UNL     1      -3.276   6.353 -30.669  1.00  0.00     0.120 C 
HETATM    7  C   UNL     1      -4.043   6.192 -29.335  1.00  0.00     0.069 C 
HETATM    8  C   UNL     1      -4.538   7.516 -28.769  1.00  0.00     0.237 C 
ENDROOT
BRANCH   6   9
HETATM    9  N   UNL     1      -2.824   5.032 -31.270  1.00  0.00    -0.328 N 
HETATM   10  C   UNL     1      -3.415   3.763 -31.170  1.00  0.00     0.239 C 
HETATM   11  O   UNL     1      -2.755   2.750 -31.443  1.00  0.00    -0.271 OA
BRANCH  10  12
HETATM   12  C   UNL     1      -4.853   3.568 -30.686  1.00  0.00     0.228 C 
BRANCH  12  13
HETATM   13  N   UNL     1      -5.779   3.135 -31.731  1.00  0.00    -0.347 N 
HETATM   14  C   UNL     1      -7.175   3.137 -31.657  1.00  0.00     0.171 C 
HETATM   15  S   UNL     1      -8.144   3.342 -30.328  1.00  0.00    -0.041 SA
HETATM   16  N   UNL     1      -7.668   2.864 -32.920  1.00  0.00    -0.357 N 
HETATM   17  C   UNL     1      -6.610   2.511 -33.848  1.00  0.00     0.135 C 
HETATM   18  H   UNL     1      -8.658   2.798 -33.125  1.00  0.00     0.162 HD
HETATM   19  C   UNL     1      -5.380   3.111 -33.136  1.00  0.00     0.155 C 
BRANCH  17  20
HETATM   20  C   UNL     1      -6.496   1.005 -34.068  1.00  0.00    -0.034 A 
HETATM   21  C   UNL     1      -7.375   0.294 -34.904  1.00  0.00     0.009 A 
HETATM   22  C   UNL     1      -7.223  -1.080 -35.110  1.00  0.00     0.001 A 
HETATM   23  C   UNL     1      -6.185  -1.770 -34.491  1.00  0.00     0.000 A 
HETATM   24  C   UNL     1      -5.290  -1.084 -33.676  1.00  0.00     0.001 A 
HETATM   25  C   UNL     1      -5.437   0.290 -33.476  1.00  0.00     0.009 A 
ENDBRANCH  17  20
ENDBRANCH  12  13
ENDBRANCH  10  12
BRANCH   9  26
HETATM   26  C   UNL     1      -1.663   5.060 -32.174  1.00  0.00     0.088 A 
HETATM   27  C   UNL     1      -1.884   4.778 -33.645  1.00  0.00     0.027 A 
HETATM   28  C   UNL     1      -1.346   6.103 -33.213  1.00  0.00     0.027 A 
ENDBRANCH   9  26
ENDBRANCH   6   9
BRANCH   6  29
HETATM   29  C   UNL     1      -2.026   7.205 -30.243  1.00  0.00     0.251 C 
HETATM   30  N   UNL     1      -1.367   6.702 -29.131  1.00  0.00    -0.325 N 
HETATM   31  H   UNL     1      -1.521   5.722 -28.909  1.00  0.00     0.169 HD
HETATM   32  O   UNL     1      -1.840   8.314 -30.738  1.00  0.00    -0.270 OA
BRANCH  30  33
HETATM   33  C   UNL     1      -0.543   7.415 -28.236  1.00  0.00     0.034 A 
HETATM   34  C   UNL     1       0.786   7.733 -28.486  1.00  0.00     0.032 A 
HETATM   35  C   UNL     1       1.511   8.525 -27.583  1.00  0.00     0.031 A 
HETATM   36  C   UNL     1       0.943   9.039 -26.409  1.00  0.00     0.030 A 
HETATM   37  C   UNL     1      -0.385   8.671 -26.156  1.00  0.00     0.031 A 
HETATM   38  C   UNL     1      -1.120   7.880 -27.054  1.00  0.00     0.032 A 
BRANCH  36  39
HETATM   39  N   UNL     1       1.707   9.817 -25.545  1.00  0.00    -0.377 N 
HETATM   40  C   UNL     1       0.999  10.755 -24.640  1.00  0.00     0.149 C 
HETATM   41  C   UNL     1       0.745  10.084 -23.278  1.00  0.00     0.187 C 
HETATM   42  O   UNL     1       1.967   9.621 -22.679  1.00  0.00    -0.388 OA
HETATM   43  C   UNL     1       2.634   8.685 -23.542  1.00  0.00     0.187 C 
HETATM   44  C   UNL     1       2.941   9.300 -24.916  1.00  0.00     0.149 C 
ENDBRANCH  36  39
ENDBRANCH  30  33
ENDBRANCH   6  29
TORSDOF 8
ENDMDL
MODEL 2
REMARK VINA RESULT:      -9.3      5.110      8.104
REMARK  8 active torsions:
REMARK  status: ('A' for Active; 'I' for Inactive)
REMARK    1  A    between atoms: C_6  and  N_7 
REMARK    2  A    between atoms: C_6  and  C_26 
REMARK       I    between atoms: N_7  and  C_8 
REMARK    3  A    between atoms: N_7  and  C_23 
REMARK    4  A    between atoms: C_8  and  C_9 
REMARK    5  A    between atoms: C_9  and  N_10 
REMARK    6  A    between atoms: C_14  and  C_15 
REMARK       I    between atoms: C_26  and  N_27 
REMARK    7  A    between atoms: N_27  and  C_28 
REMARK    8  A    between atoms: C_31  and  N_32 
ROOT
HETATM    1  C   UNL     1     -12.964   7.285 -34.614  1.00  0.00     0.269 C 
HETATM    2  N   UNL     1     -12.542   5.861 -34.349  1.00  0.00    -0.075 N 
HETATM    3  H   UNL     1     -13.393   5.289 -34.482  1.00  0.00     0.279 HD
HETATM    4  C   UNL     1     -11.509   5.408 -35.349  1.00  0.00     0.237 C 
HETATM    5  C   UNL     1     -11.075   3.967 -35.086  1.00  0.00     0.069 C 
HETATM    6  C   UNL     1     -10.694   3.663 -33.617  1.00  0.00     0.120 C 
HETATM    7  C   UNL     1     -11.797   4.218 -32.684  1.00  0.00     0.069 C 
HETATM    8  C   UNL     1     -12.092   5.692 -32.920  1.00  0.00     0.237 C 
ENDROOT
BRANCH   6   9
HETATM    9  N   UNL     1     -10.430   2.180 -33.426  1.00  0.00    -0.328 N 
HETATM   10  C   UNL     1      -9.641   1.535 -32.461  1.00  0.00     0.239 C 
HETATM   11  O   UNL     1      -9.277   0.363 -32.640  1.00  0.00    -0.271 OA
BRANCH  10  12
HETATM   12  C   UNL     1      -9.162   2.243 -31.192  1.00  0.00     0.228 C 
BRANCH  12  13
HETATM   13  N   UNL     1      -7.853   1.795 -30.718  1.00  0.00    -0.347 N 
HETATM   14  C   UNL     1      -6.899   2.571 -30.053  1.00  0.00     0.171 C 
HETATM   15  S   UNL     1      -6.843   4.217 -29.874  1.00  0.00    -0.041 SA
HETATM   16  N   UNL     1      -5.910   1.724 -29.590  1.00  0.00    -0.357 N 
HETATM   17  C   UNL     1      -6.092   0.367 -30.070  1.00  0.00     0.135 C 
HETATM   18  H   UNL     1      -5.096   2.049 -29.083  1.00  0.00     0.162 HD
HETATM   19  C   UNL     1      -7.588   0.384 -30.445  1.00  0.00     0.155 C 
BRANCH  17  20
HETATM   20  C   UNL     1      -5.185   0.032 -31.251  1.00  0.00    -0.034 A 
HETATM   21  C   UNL     1      -3.812   0.337 -31.261  1.00  0.00     0.009 A 
HETATM   22  C   UNL     1      -3.002  -0.014 -32.345  1.00  0.00     0.001 A 
HETATM   23  C   UNL     1      -3.546  -0.680 -33.439  1.00  0.00     0.000 A 
HETATM   24  C   UNL     1      -4.898  -1.009 -33.443  1.00  0.00     0.001 A 
HETATM   25  C   UNL     1      -5.706  -0.667 -32.356  1.00  0.00     0.009 A 
ENDBRANCH  17  20
ENDBRANCH  12  13
ENDBRANCH  10  12
BRANCH   9  26
HETATM   26  C   UNL     1     -11.165   1.242 -34.290  1.00  0.00     0.088 A 
HETATM   27  C   UNL     1     -12.477   0.675 -33.793  1.00  0.00     0.027 A 
HETATM   28  C   UNL     1     -12.449   1.508 -35.032  1.00  0.00     0.027 A 
ENDBRANCH   9  26
ENDBRANCH   6   9
BRANCH   6  29
HETATM   29  C   UNL     1      -9.431   4.494 -33.183  1.00  0.00     0.251 C 
HETATM   30  N   UNL     1      -8.308   4.234 -33.954  1.00  0.00    -0.325 N 
HETATM   31  H   UNL     1      -8.464   3.825 -34.871  1.00  0.00     0.169 HD
HETATM   32  O   UNL     1      -9.438   5.115 -32.124  1.00  0.00    -0.270 OA
BRANCH  30  33
HETATM   33  C   UNL     1      -6.960   4.425 -33.584  1.00  0.00     0.034 A 
HETATM   34  C   UNL     1      -6.026   3.400 -33.491  1.00  0.00     0.032 A 
HETATM   35  C   UNL     1      -4.683   3.686 -33.205  1.00  0.00     0.031 A 
HETATM   36  C   UNL     1      -4.216   4.994 -33.014  1.00  0.00     0.030 A 
HETATM   37  C   UNL     1      -5.182   6.006 -33.072  1.00  0.00     0.031 A 
HETATM   38  C   UNL     1      -6.530   5.732 -33.358  1.00  0.00     0.032 A 
BRANCH  36  39
HETATM   39  N   UNL     1      -2.874   5.222 -32.730  1.00  0.00    -0.377 N 
HETATM   40  C   UNL     1      -1.857   4.560 -33.584  1.00  0.00     0.149 C 
HETATM   41  C   UNL     1      -1.432   5.501 -34.725  1.00  0.00     0.187 C 
HETATM   42  O   UNL     1      -0.938   6.754 -34.224  1.00  0.00    -0.388 OA
HETATM   43  C   UNL     1      -1.937   7.411 -33.426  1.00  0.00     0.187 C 
HETATM   44  C   UNL     1      -2.390   6.534 -32.248  1.00  0.00     0.149 C 
ENDBRANCH  36  39
ENDBRANCH  30  33
ENDBRANCH   6  29
TORSDOF 8
ENDMDL
MODEL 3
REMARK VINA RESULT:      -9.2      5.270      9.731
REMARK  8 active torsions:
REMARK  status: ('A' for Active; 'I' for Inactive)
REMARK    1  A    between atoms: C_6  and  N_7 
REMARK    2  A    between atoms: C_6  and  C_26 
REMARK       I    between atoms: N_7  and  C_8 
REMARK    3  A    between atoms: N_7  and  C_23 
REMARK    4  A    between atoms: C_8  and  C_9 
REMARK    5  A    between atoms: C_9  and  N_10 
REMARK    6  A    between atoms: C_14  and  C_15 
REMARK       I    between atoms: C_26  and  N_27 
REMARK    7  A    between atoms: N_27  and  C_28 
REMARK    8  A    between atoms: C_31  and  N_32 
ROOT
HETATM    1  C   UNL     1      -7.378   7.434 -28.589  1.00  0.00     0.269 C 
HETATM    2  N   UNL     1      -6.481   6.582 -29.452  1.00  0.00    -0.075 N 
HETATM    3  H   UNL     1      -5.603   7.118 -29.555  1.00  0.00     0.279 HD
HETATM    4  C   UNL     1      -6.159   5.276 -28.774  1.00  0.00     0.237 C 
HETATM    5  C   UNL     1      -5.252   4.406 -29.644  1.00  0.00     0.069 C 
HETATM    6  C   UNL     1      -5.720   4.247 -31.110  1.00  0.00     0.120 C 
HETATM    7  C   UNL     1      -6.071   5.641 -31.682  1.00  0.00     0.069 C 
HETATM    8  C   UNL     1      -7.074   6.402 -30.826  1.00  0.00     0.237 C 
ENDROOT
BRANCH   6   9
HETATM    9  N   UNL     1      -4.680   3.502 -31.929  1.00  0.00    -0.328 N 
HETATM   10  C   UNL     1      -4.415   2.125 -31.987  1.00  0.00     0.239 C 
HETATM   11  O   UNL     1      -3.338   1.720 -32.449  1.00  0.00    -0.271 OA
BRANCH  10  12
HETATM   12  C   UNL     1      -5.399   1.081 -31.454  1.00  0.00     0.228 C 
BRANCH  12  13
HETATM   13  N   UNL     1      -6.056   0.295 -32.497  1.00  0.00    -0.347 N 
HETATM   14  C   UNL     1      -7.403  -0.078 -32.532  1.00  0.00     0.171 C 
HETATM   15  S   UNL     1      -8.534   0.001 -31.324  1.00  0.00    -0.041 SA
HETATM   16  N   UNL     1      -7.662  -0.617 -33.779  1.00  0.00    -0.357 N 
HETATM   17  C   UNL     1      -6.452  -0.768 -34.565  1.00  0.00     0.135 C 
HETATM   18  H   UNL     1      -8.570  -0.975 -34.049  1.00  0.00     0.162 HD
HETATM   19  C   UNL     1      -5.510   0.223 -33.851  1.00  0.00     0.155 C 
BRANCH  17  20
HETATM   20  C   UNL     1      -5.922  -2.200 -34.564  1.00  0.00    -0.034 A 
HETATM   21  C   UNL     1      -4.612  -2.522 -34.171  1.00  0.00     0.009 A 
HETATM   22  C   UNL     1      -4.169  -3.848 -34.150  1.00  0.00     0.001 A 
HETATM   23  C   UNL     1      -5.029  -4.879 -34.516  1.00  0.00     0.000 A 
HETATM   24  C   UNL     1      -6.336  -4.586 -34.890  1.00  0.00     0.001 A 
HETATM   25  C   UNL     1      -6.782  -3.262 -34.902  1.00  0.00     0.009 A 
ENDBRANCH  17  20
ENDBRANCH  12  13
ENDBRANCH  10  12
BRANCH   9  26
HETATM   26  C   UNL     1      -3.881   4.284 -32.885  1.00  0.00     0.088 A 
HETATM   27  C   UNL     1      -2.837   5.240 -32.346  1.00  0.00     0.027 A 
HETATM   28  C   UNL     1      -2.422   4.098 -33.215  1.00  0.00     0.027 A 
ENDBRANCH   9  26
ENDBRANCH   6   9
BRANCH   6  29
HETATM   29  C   UNL     1      -7.099   3.494 -31.179  1.00  0.00     0.251 C 
HETATM   30  N   UNL     1      -7.737   3.620 -32.404  1.00  0.00    -0.325 N 
HETATM   31  H   UNL     1      -7.158   3.874 -33.200  1.00  0.00     0.169 HD
HETATM   32  O   UNL     1      -7.611   3.054 -30.153  1.00  0.00    -0.270 OA
BRANCH  30  33
HETATM   33  C   UNL     1      -9.117   3.488 -32.661  1.00  0.00     0.034 A 
HETATM   34  C   UNL     1     -10.106   4.190 -31.983  1.00  0.00     0.032 A 
HETATM   35  C   UNL     1     -11.452   4.069 -32.362  1.00  0.00     0.031 A 
HETATM   36  C   UNL     1     -11.863   3.260 -33.431  1.00  0.00     0.030 A 
HETATM   37  C   UNL     1     -10.855   2.530 -34.073  1.00  0.00     0.031 A 
HETATM   38  C   UNL     1      -9.504   2.644 -33.703  1.00  0.00     0.032 A 
BRANCH  36  39
HETATM   39  N   UNL     1     -13.210   3.173 -33.763  1.00  0.00    -0.377 N 
HETATM   40  C   UNL     1     -13.672   1.970 -34.499  1.00  0.00     0.149 C 
HETATM   41  C   UNL     1     -14.190   0.912 -33.508  1.00  0.00     0.187 C 
HETATM   42  O   UNL     1     -15.238   1.433 -32.675  1.00  0.00    -0.388 OA
HETATM   43  C   UNL     1     -14.779   2.578 -31.936  1.00  0.00     0.187 C 
HETATM   44  C   UNL     1     -14.269   3.687 -32.869  1.00  0.00     0.149 C 
ENDBRANCH  36  39
ENDBRANCH  30  33
ENDBRANCH   6  29
TORSDOF 8
ENDMDL
MODEL 4
REMARK VINA RESULT:      -9.2      4.191      8.449
REMARK  8 active torsions:
REMARK  status: ('A' for Active; 'I' for Inactive)
REMARK    1  A    between atoms: C_6  and  N_7 
REMARK    2  A    between atoms: C_6  and  C_26 
REMARK       I    between atoms: N_7  and  C_8 
REMARK    3  A    between atoms: N_7  and  C_23 
REMARK    4  A    between atoms: C_8  and  C_9 
REMARK    5  A    between atoms: C_9  and  N_10 
REMARK    6  A    between atoms: C_14  and  C_15 
REMARK       I    between atoms: C_26  and  N_27 
REMARK    7  A    between atoms: N_27  and  C_28 
REMARK    8  A    between atoms: C_31  and  N_32 
ROOT
HETATM    1  C   UNL     1      -4.777   9.649 -29.117  1.00  0.00     0.269 C 
HETATM    2  N   UNL     1      -4.224   8.319 -29.566  1.00  0.00    -0.075 N 
HETATM    3  H   UNL     1      -3.372   8.168 -29.001  1.00  0.00     0.279 HD
HETATM    4  C   UNL     1      -5.191   7.203 -29.269  1.00  0.00     0.237 C 
HETATM    5  C   UNL     1      -4.638   5.853 -29.724  1.00  0.00     0.069 C 
HETATM    6  C   UNL     1      -4.089   5.832 -31.170  1.00  0.00     0.120 C 
HETATM    7  C   UNL     1      -3.153   7.048 -31.373  1.00  0.00     0.069 C 
HETATM    8  C   UNL     1      -3.812   8.373 -31.015  1.00  0.00     0.237 C 
ENDROOT
BRANCH   6   9
HETATM    9  N   UNL     1      -3.424   4.500 -31.473  1.00  0.00    -0.328 N 
HETATM   10  C   UNL     1      -3.897   3.199 -31.246  1.00  0.00     0.239 C 
HETATM   11  O   UNL     1      -3.108   2.243 -31.253  1.00  0.00    -0.271 OA
BRANCH  10  12
HETATM   12  C   UNL     1      -5.368   2.907 -30.941  1.00  0.00     0.228 C 
BRANCH  12  13
HETATM   13  N   UNL     1      -6.083   2.248 -32.033  1.00  0.00    -0.347 N 
HETATM   14  C   UNL     1      -7.464   2.047 -32.120  1.00  0.00     0.171 C 
HETATM   15  S   UNL     1      -8.615   2.224 -30.941  1.00  0.00    -0.041 SA
HETATM   16  N   UNL     1      -7.747   1.591 -33.394  1.00  0.00    -0.357 N 
HETATM   17  C   UNL     1      -6.540   1.319 -34.151  1.00  0.00     0.135 C 
HETATM   18  H   UNL     1      -8.683   1.359 -33.703  1.00  0.00     0.162 HD
HETATM   19  C   UNL     1      -5.506   2.157 -33.372  1.00  0.00     0.155 C 
BRANCH  17  20
HETATM   20  C   UNL     1      -6.192  -0.167 -34.193  1.00  0.00    -0.034 A 
HETATM   21  C   UNL     1      -7.074  -1.136 -34.704  1.00  0.00     0.009 A 
HETATM   22  C   UNL     1      -6.711  -2.485 -34.759  1.00  0.00     0.001 A 
HETATM   23  C   UNL     1      -5.458  -2.892 -34.311  1.00  0.00     0.000 A 
HETATM   24  C   UNL     1      -4.562  -1.948 -33.820  1.00  0.00     0.001 A 
HETATM   25  C   UNL     1      -4.920  -0.599 -33.773  1.00  0.00     0.009 A 
ENDBRANCH  17  20
ENDBRANCH  12  13
ENDBRANCH  10  12
BRANCH   9  26
HETATM   26  C   UNL     1      -2.143   4.530 -32.199  1.00  0.00     0.088 A 
HETATM   27  C   UNL     1      -2.160   4.372 -33.705  1.00  0.00     0.027 A 
HETATM   28  C   UNL     1      -1.633   5.629 -33.095  1.00  0.00     0.027 A 
ENDBRANCH   9  26
ENDBRANCH   6   9
BRANCH   6  29
HETATM   29  C   UNL     1      -5.237   6.108 -32.209  1.00  0.00     0.251 C 
HETATM   30  N   UNL     1      -6.509   5.977 -31.673  1.00  0.00    -0.325 N 
HETATM   31  H   UNL     1      -6.593   6.048 -30.663  1.00  0.00     0.169 HD
HETATM   32  O   UNL     1      -4.975   6.196 -33.406  1.00  0.00    -0.270 OA
BRANCH  30  33
HETATM   33  C   UNL     1      -7.702   5.702 -32.373  1.00  0.00     0.034 A 
HETATM   34  C   UNL     1      -7.747   5.169 -33.655  1.00  0.00     0.032 A 
HETATM   35  C   UNL     1      -8.976   4.839 -34.246  1.00  0.00     0.031 A 
HETATM   36  C   UNL     1     -10.200   5.013 -33.585  1.00  0.00     0.030 A 
HETATM   37  C   UNL     1     -10.134   5.589 -32.310  1.00  0.00     0.031 A 
HETATM   38  C   UNL     1      -8.909   5.923 -31.708  1.00  0.00     0.032 A 
BRANCH  36  39
HETATM   39  N   UNL     1     -11.391   4.672 -34.218  1.00  0.00    -0.377 N 
HETATM   40  C   UNL     1     -11.339   3.666 -35.307  1.00  0.00     0.149 C 
HETATM   41  C   UNL     1     -11.623   2.262 -34.743  1.00  0.00     0.187 C 
HETATM   42  O   UNL     1     -12.887   2.210 -34.061  1.00  0.00    -0.388 OA
HETATM   43  C   UNL     1     -12.923   3.160 -32.984  1.00  0.00     0.187 C 
HETATM   44  C   UNL     1     -12.670   4.592 -33.482  1.00  0.00     0.149 C 
ENDBRANCH  36  39
ENDBRANCH  30  33
ENDBRANCH   6  29
TORSDOF 8
ENDMDL
MODEL 5
REMARK VINA RESULT:      -9.0      7.394     11.621
REMARK  8 active torsions:
REMARK  status: ('A' for Active; 'I' for Inactive)
REMARK    1  A    between atoms: C_6  and  N_7 
REMARK    2  A    between atoms: C_6  and  C_26 
REMARK       I    between atoms: N_7  and  C_8 
REMARK    3  A    between atoms: N_7  and  C_23 
REMARK    4  A    between atoms: C_8  and  C_9 
REMARK    5  A    between atoms: C_9  and  N_10 
REMARK    6  A    between atoms: C_14  and  C_15 
REMARK       I    between atoms: C_26  and  N_27 
REMARK    7  A    between atoms: N_27  and  C_28 
REMARK    8  A    between atoms: C_31  and  N_32 
ROOT
HETATM    1  C   UNL     1     -14.314   0.846 -34.222  1.00  0.00     0.269 C 
HETATM    2  N   UNL     1     -13.236   1.445 -33.352  1.00  0.00    -0.075 N 
HETATM    3  H   UNL     1     -13.363   1.019 -32.419  1.00  0.00     0.279 HD
HETATM    4  C   UNL     1     -11.866   1.076 -33.858  1.00  0.00     0.237 C 
HETATM    5  C   UNL     1     -10.769   1.681 -32.984  1.00  0.00     0.069 C 
HETATM    6  C   UNL     1     -10.936   3.191 -32.687  1.00  0.00     0.120 C 
HETATM    7  C   UNL     1     -12.390   3.457 -32.229  1.00  0.00     0.069 C 
HETATM    8  C   UNL     1     -13.430   2.934 -33.210  1.00  0.00     0.237 C 
ENDROOT
BRANCH   6   9
HETATM    9  N   UNL     1      -9.892   3.662 -31.690  1.00  0.00    -0.328 N 
HETATM   10  C   UNL     1      -8.511   3.412 -31.665  1.00  0.00     0.239 C 
HETATM   11  O   UNL     1      -7.867   3.597 -30.622  1.00  0.00    -0.271 OA
BRANCH  10  12
HETATM   12  C   UNL     1      -7.758   2.866 -32.880  1.00  0.00     0.228 C 
BRANCH  12  13
HETATM   13  N   UNL     1      -6.783   1.826 -32.558  1.00  0.00    -0.347 N 
HETATM   14  C   UNL     1      -5.409   2.005 -32.368  1.00  0.00     0.171 C 
HETATM   15  S   UNL     1      -4.476   3.328 -32.721  1.00  0.00    -0.041 SA
HETATM   16  N   UNL     1      -4.891   0.824 -31.869  1.00  0.00    -0.357 N 
HETATM   17  C   UNL     1      -5.880  -0.238 -31.860  1.00  0.00     0.135 C 
HETATM   18  H   UNL     1      -3.909   0.696 -31.659  1.00  0.00     0.162 HD
HETATM   19  C   UNL     1      -7.189   0.576 -31.920  1.00  0.00     0.155 C 
BRANCH  17  20
HETATM   20  C   UNL     1      -5.722  -1.201 -33.034  1.00  0.00    -0.034 A 
HETATM   21  C   UNL     1      -4.503  -1.830 -33.337  1.00  0.00     0.009 A 
HETATM   22  C   UNL     1      -4.400  -2.734 -34.400  1.00  0.00     0.001 A 
HETATM   23  C   UNL     1      -5.516  -3.030 -35.176  1.00  0.00     0.000 A 
HETATM   24  C   UNL     1      -6.739  -2.434 -34.883  1.00  0.00     0.001 A 
HETATM   25  C   UNL     1      -6.844  -1.538 -33.816  1.00  0.00     0.009 A 
ENDBRANCH  17  20
ENDBRANCH  12  13
ENDBRANCH  10  12
BRANCH   9  26
HETATM   26  C   UNL     1     -10.328   4.599 -30.642  1.00  0.00     0.088 A 
HETATM   27  C   UNL     1      -9.920   6.053 -30.754  1.00  0.00     0.027 A 
HETATM   28  C   UNL     1     -11.367   5.682 -30.767  1.00  0.00     0.027 A 
ENDBRANCH   9  26
ENDBRANCH   6   9
BRANCH   6  29
HETATM   29  C   UNL     1     -10.836   4.035 -34.010  1.00  0.00     0.251 C 
HETATM   30  N   UNL     1     -11.402   5.297 -33.904  1.00  0.00    -0.325 N 
HETATM   31  H   UNL     1     -11.517   5.673 -32.967  1.00  0.00     0.169 HD
HETATM   32  O   UNL     1     -10.491   3.496 -35.059  1.00  0.00    -0.270 OA
BRANCH  30  33
HETATM   33  C   UNL     1     -11.890   6.101 -34.955  1.00  0.00     0.034 A 
HETATM   34  C   UNL     1     -13.184   6.026 -35.456  1.00  0.00     0.032 A 
HETATM   35  C   UNL     1     -13.619   6.925 -36.442  1.00  0.00     0.031 A 
HETATM   36  C   UNL     1     -12.792   7.934 -36.957  1.00  0.00     0.030 A 
HETATM   37  C   UNL     1     -11.481   7.964 -36.469  1.00  0.00     0.031 A 
HETATM   38  C   UNL     1     -11.035   7.070 -35.481  1.00  0.00     0.032 A 
BRANCH  36  39
HETATM   39  N   UNL     1     -13.272   8.797 -37.937  1.00  0.00    -0.377 N 
HETATM   40  C   UNL     1     -13.655  10.172 -37.529  1.00  0.00     0.149 C 
HETATM   41  C   UNL     1     -12.470  11.132 -37.733  1.00  0.00     0.187 C 
HETATM   42  O   UNL     1     -12.001  11.116 -39.091  1.00  0.00    -0.388 OA
HETATM   43  C   UNL     1     -11.596   9.790 -39.473  1.00  0.00     0.187 C 
HETATM   44  C   UNL     1     -12.744   8.780 -39.317  1.00  0.00     0.149 C 
ENDBRANCH  36  39
ENDBRANCH  30  33
ENDBRANCH   6  29
TORSDOF 8
ENDMDL
MODEL 6
REMARK VINA RESULT:      -8.9      5.397      6.611
REMARK  8 active torsions:
REMARK  status: ('A' for Active; 'I' for Inactive)
REMARK    1  A    between atoms: C_6  and  N_7 
REMARK    2  A    between atoms: C_6  and  C_26 
REMARK       I    between atoms: N_7  and  C_8 
REMARK    3  A    between atoms: N_7  and  C_23 
REMARK    4  A    between atoms: C_8  and  C_9 
REMARK    5  A    between atoms: C_9  and  N_10 
REMARK    6  A    between atoms: C_14  and  C_15 
REMARK       I    between atoms: C_26  and  N_27 
REMARK    7  A    between atoms: N_27  and  C_28 
REMARK    8  A    between atoms: C_31  and  N_32 
ROOT
HETATM    1  C   UNL     1     -11.043   4.209 -33.405  1.00  0.00     0.269 C 
HETATM    2  N   UNL     1      -9.762   3.612 -32.879  1.00  0.00    -0.075 N 
HETATM    3  H   UNL     1      -9.875   2.589 -32.966  1.00  0.00     0.279 HD
HETATM    4  C   UNL     1      -8.585   4.030 -33.723  1.00  0.00     0.237 C 
HETATM    5  C   UNL     1      -7.282   3.431 -33.195  1.00  0.00     0.069 C 
HETATM    6  C   UNL     1      -7.054   3.615 -31.675  1.00  0.00     0.120 C 
HETATM    7  C   UNL     1      -8.341   3.207 -30.919  1.00  0.00     0.069 C 
HETATM    8  C   UNL     1      -9.582   3.934 -31.417  1.00  0.00     0.237 C 
ENDROOT
BRANCH   6   9
HETATM    9  N   UNL     1      -5.819   2.856 -31.221  1.00  0.00    -0.328 N 
HETATM   10  C   UNL     1      -5.706   1.530 -30.775  1.00  0.00     0.239 C 
HETATM   11  O   UNL     1      -4.699   1.173 -30.145  1.00  0.00    -0.271 OA
BRANCH  10  12
HETATM   12  C   UNL     1      -6.812   0.497 -30.996  1.00  0.00     0.228 C 
BRANCH  12  13
HETATM   13  N   UNL     1      -6.867  -0.033 -32.358  1.00  0.00    -0.347 N 
HETATM   14  C   UNL     1      -8.009  -0.154 -33.156  1.00  0.00     0.171 C 
HETATM   15  S   UNL     1      -9.601  -0.018 -32.718  1.00  0.00    -0.041 SA
HETATM   16  N   UNL     1      -7.600  -0.489 -34.434  1.00  0.00    -0.357 N 
HETATM   17  C   UNL     1      -6.175  -0.758 -34.492  1.00  0.00     0.135 C 
HETATM   18  H   UNL     1      -8.246  -0.646 -35.198  1.00  0.00     0.162 HD
HETATM   19  C   UNL     1      -5.686  -0.041 -33.218  1.00  0.00     0.155 C 
BRANCH  17  20
HETATM   20  C   UNL     1      -5.857  -2.251 -34.496  1.00  0.00    -0.034 A 
HETATM   21  C   UNL     1      -6.792  -3.223 -34.892  1.00  0.00     0.009 A 
HETATM   22  C   UNL     1      -6.458  -4.581 -34.916  1.00  0.00     0.001 A 
HETATM   23  C   UNL     1      -5.180  -4.993 -34.550  1.00  0.00     0.000 A 
HETATM   24  C   UNL     1      -4.232  -4.047 -34.173  1.00  0.00     0.001 A 
HETATM   25  C   UNL     1      -4.563  -2.690 -34.157  1.00  0.00     0.009 A 
ENDBRANCH  17  20
ENDBRANCH  12  13
ENDBRANCH  10  12
BRANCH   9  26
HETATM   26  C   UNL     1      -4.520   3.536 -31.345  1.00  0.00     0.088 A 
HETATM   27  C   UNL     1      -3.448   2.900 -32.204  1.00  0.00     0.027 A 
HETATM   28  C   UNL     1      -3.981   4.250 -32.558  1.00  0.00     0.027 A 
ENDBRANCH   9  26
ENDBRANCH   6   9
BRANCH   6  29
HETATM   29  C   UNL     1      -6.913   5.138 -31.311  1.00  0.00     0.251 C 
HETATM   30  N   UNL     1      -7.087   5.401 -29.960  1.00  0.00    -0.325 N 
HETATM   31  H   UNL     1      -6.960   4.623 -29.319  1.00  0.00     0.169 HD
HETATM   32  O   UNL     1      -6.883   5.983 -32.201  1.00  0.00    -0.270 OA
BRANCH  30  33
HETATM   33  C   UNL     1      -7.478   6.624 -29.376  1.00  0.00     0.034 A 
HETATM   34  C   UNL     1      -6.695   7.772 -29.374  1.00  0.00     0.032 A 
HETATM   35  C   UNL     1      -7.195   8.974 -28.852  1.00  0.00     0.031 A 
HETATM   36  C   UNL     1      -8.489   9.085 -28.324  1.00  0.00     0.030 A 
HETATM   37  C   UNL     1      -9.245   7.906 -28.297  1.00  0.00     0.031 A 
HETATM   38  C   UNL     1      -8.755   6.697 -28.819  1.00  0.00     0.032 A 
BRANCH  36  39
HETATM   39  N   UNL     1      -8.934  10.300 -27.815  1.00  0.00    -0.377 N 
HETATM   40  C   UNL     1     -10.291  10.351 -27.217  1.00  0.00     0.149 C 
HETATM   41  C   UNL     1     -10.206  10.125 -25.697  1.00  0.00     0.187 C 
HETATM   42  O   UNL     1      -9.335  11.077 -25.066  1.00  0.00    -0.388 OA
HETATM   43  C   UNL     1      -8.012  11.002 -25.622  1.00  0.00     0.187 C 
HETATM   44  C   UNL     1      -8.020  11.245 -27.140  1.00  0.00     0.149 C 
ENDBRANCH  36  39
ENDBRANCH  30  33
ENDBRANCH   6  29
TORSDOF 8
ENDMDL
MODEL 7
REMARK VINA RESULT:      -8.9      5.965     10.093
REMARK  8 active torsions:
REMARK  status: ('A' for Active; 'I' for Inactive)
REMARK    1  A    between atoms: C_6  and  N_7 
REMARK    2  A    between atoms: C_6  and  C_26 
REMARK       I    between atoms: N_7  and  C_8 
REMARK    3  A    between atoms: N_7  and  C_23 
REMARK    4  A    between atoms: C_8  and  C_9 
REMARK    5  A    between atoms: C_9  and  N_10 
REMARK    6  A    between atoms: C_14  and  C_15 
REMARK       I    between atoms: C_26  and  N_27 
REMARK    7  A    between atoms: N_27  and  C_28 
REMARK    8  A    between atoms: C_31  and  N_32 
ROOT
HETATM    1  C   UNL     1      -2.202   4.780 -33.328  1.00  0.00     0.269 C 
HETATM    2  N   UNL     1      -3.565   4.992 -32.717  1.00  0.00    -0.075 N 
HETATM    3  H   UNL     1      -3.422   5.666 -31.947  1.00  0.00     0.279 HD
HETATM    4  C   UNL     1      -4.514   5.607 -33.713  1.00  0.00     0.237 C 
HETATM    5  C   UNL     1      -5.898   5.823 -33.102  1.00  0.00     0.069 C 
HETATM    6  C   UNL     1      -6.480   4.592 -32.366  1.00  0.00     0.120 C 
HETATM    7  C   UNL     1      -5.403   4.017 -31.414  1.00  0.00     0.069 C 
HETATM    8  C   UNL     1      -4.088   3.712 -32.117  1.00  0.00     0.237 C 
ENDROOT
BRANCH   6   9
HETATM    9  N   UNL     1      -7.778   4.950 -31.663  1.00  0.00    -0.328 N 
HETATM   10  C   UNL     1      -8.860   5.712 -32.131  1.00  0.00     0.239 C 
HETATM   11  O   UNL     1      -9.685   6.173 -31.329  1.00  0.00    -0.271 OA
BRANCH  10  12
HETATM   12  C   UNL     1      -9.046   6.042 -33.614  1.00  0.00     0.228 C 
BRANCH  12  13
HETATM   13  N   UNL     1     -10.182   5.364 -34.237  1.00  0.00    -0.347 N 
HETATM   14  C   UNL     1     -11.510   5.801 -34.239  1.00  0.00     0.171 C 
HETATM   15  S   UNL     1     -12.210   7.000 -33.336  1.00  0.00    -0.041 SA
HETATM   16  N   UNL     1     -12.219   4.997 -35.113  1.00  0.00    -0.357 N 
HETATM   17  C   UNL     1     -11.417   3.892 -35.603  1.00  0.00     0.135 C 
HETATM   18  H   UNL     1     -13.212   5.106 -35.281  1.00  0.00     0.162 HD
HETATM   19  C   UNL     1      -9.992   4.418 -35.334  1.00  0.00     0.155 C 
BRANCH  17  20
HETATM   20  C   UNL     1     -11.715   2.581 -34.880  1.00  0.00    -0.034 A 
HETATM   21  C   UNL     1     -10.737   1.878 -34.155  1.00  0.00     0.009 A 
HETATM   22  C   UNL     1     -11.051   0.696 -33.476  1.00  0.00     0.001 A 
HETATM   23  C   UNL     1     -12.350   0.197 -33.505  1.00  0.00     0.000 A 
HETATM   24  C   UNL     1     -13.339   0.887 -34.200  1.00  0.00     0.001 A 
HETATM   25  C   UNL     1     -13.027   2.072 -34.870  1.00  0.00     0.009 A 
ENDBRANCH  17  20
ENDBRANCH  12  13
ENDBRANCH  10  12
BRANCH   9  26
HETATM   26  C   UNL     1      -8.022   4.353 -30.341  1.00  0.00     0.088 A 
HETATM   27  C   UNL     1      -8.989   3.192 -30.237  1.00  0.00     0.027 A 
HETATM   28  C   UNL     1      -7.558   3.004 -29.854  1.00  0.00     0.027 A 
ENDBRANCH   9  26
ENDBRANCH   6   9
BRANCH   6  29
HETATM   29  C   UNL     1      -6.720   3.403 -33.366  1.00  0.00     0.251 C 
HETATM   30  N   UNL     1      -6.725   2.159 -32.754  1.00  0.00    -0.325 N 
HETATM   31  H   UNL     1      -6.904   2.138 -31.754  1.00  0.00     0.169 HD
HETATM   32  O   UNL     1      -6.670   3.600 -34.578  1.00  0.00    -0.270 OA
BRANCH  30  33
HETATM   33  C   UNL     1      -6.455   0.913 -33.358  1.00  0.00     0.034 A 
HETATM   34  C   UNL     1      -7.289   0.300 -34.285  1.00  0.00     0.032 A 
HETATM   35  C   UNL     1      -6.903  -0.896 -34.908  1.00  0.00     0.031 A 
HETATM   36  C   UNL     1      -5.675  -1.520 -34.644  1.00  0.00     0.030 A 
HETATM   37  C   UNL     1      -4.870  -0.907 -33.676  1.00  0.00     0.031 A 
HETATM   38  C   UNL     1      -5.246   0.291 -33.047  1.00  0.00     0.032 A 
BRANCH  36  39
HETATM   39  N   UNL     1      -5.343  -2.708 -35.287  1.00  0.00    -0.377 N 
HETATM   40  C   UNL     1      -4.029  -3.324 -34.978  1.00  0.00     0.149 C 
HETATM   41  C   UNL     1      -4.186  -4.364 -33.855  1.00  0.00     0.187 C 
HETATM   42  O   UNL     1      -5.154  -5.370 -34.194  1.00  0.00    -0.388 OA
HETATM   43  C   UNL     1      -6.435  -4.775 -34.458  1.00  0.00     0.187 C 
HETATM   44  C   UNL     1      -6.356  -3.740 -35.592  1.00  0.00     0.149 C 
ENDBRANCH  36  39
ENDBRANCH  30  33
ENDBRANCH   6  29
TORSDOF 8
ENDMDL
MODEL 8
REMARK VINA RESULT:      -8.5      3.312      8.040
REMARK  8 active torsions:
REMARK  status: ('A' for Active; 'I' for Inactive)
REMARK    1  A    between atoms: C_6  and  N_7 
REMARK    2  A    between atoms: C_6  and  C_26 
REMARK       I    between atoms: N_7  and  C_8 
REMARK    3  A    between atoms: N_7  and  C_23 
REMARK    4  A    between atoms: C_8  and  C_9 
REMARK    5  A    between atoms: C_9  and  N_10 
REMARK    6  A    between atoms: C_14  and  C_15 
REMARK       I    between atoms: C_26  and  N_27 
REMARK    7  A    between atoms: N_27  and  C_28 
REMARK    8  A    between atoms: C_31  and  N_32 
ROOT
HETATM    1  C   UNL     1      -4.941  -2.333 -34.054  1.00  0.00     0.269 C 
HETATM    2  N   UNL     1      -6.005  -1.421 -33.494  1.00  0.00    -0.075 N 
HETATM    3  H   UNL     1      -6.803  -2.036 -33.262  1.00  0.00     0.279 HD
HETATM    4  C   UNL     1      -5.535  -0.757 -32.226  1.00  0.00     0.237 C 
HETATM    5  C   UNL     1      -6.608   0.170 -31.654  1.00  0.00     0.069 C 
HETATM    6  C   UNL     1      -7.228   1.151 -32.678  1.00  0.00     0.120 C 
HETATM    7  C   UNL     1      -7.622   0.369 -33.953  1.00  0.00     0.069 C 
HETATM    8  C   UNL     1      -6.469  -0.437 -34.538  1.00  0.00     0.237 C 
ENDROOT
BRANCH   6   9
HETATM    9  N   UNL     1      -8.384   1.916 -32.057  1.00  0.00    -0.328 N 
HETATM   10  C   UNL     1      -8.406   2.704 -30.896  1.00  0.00     0.239 C 
HETATM   11  O   UNL     1      -9.488   2.987 -30.360  1.00  0.00    -0.271 OA
BRANCH  10  12
HETATM   12  C   UNL     1      -7.126   3.202 -30.222  1.00  0.00     0.228 C 
BRANCH  12  13
HETATM   13  N   UNL     1      -7.178   4.603 -29.807  1.00  0.00    -0.347 N 
HETATM   14  C   UNL     1      -7.385   5.708 -30.638  1.00  0.00     0.171 C 
HETATM   15  S   UNL     1      -7.343   5.785 -32.292  1.00  0.00    -0.041 SA
HETATM   16  N   UNL     1      -7.581   6.814 -29.832  1.00  0.00    -0.357 N 
HETATM   17  C   UNL     1      -7.352   6.510 -28.432  1.00  0.00     0.135 C 
HETATM   18  H   UNL     1      -7.741   7.745 -30.199  1.00  0.00     0.162 HD
HETATM   19  C   UNL     1      -7.506   4.976 -28.433  1.00  0.00     0.155 C 
BRANCH  17  20
HETATM   20  C   UNL     1      -5.980   6.972 -27.945  1.00  0.00    -0.034 A 
HETATM   21  C   UNL     1      -5.151   6.166 -27.144  1.00  0.00     0.009 A 
HETATM   22  C   UNL     1      -3.886   6.607 -26.743  1.00  0.00     0.001 A 
HETATM   23  C   UNL     1      -3.422   7.857 -27.139  1.00  0.00     0.000 A 
HETATM   24  C   UNL     1      -4.217   8.663 -27.948  1.00  0.00     0.001 A 
HETATM   25  C   UNL     1      -5.477   8.221 -28.357  1.00  0.00     0.009 A 
ENDBRANCH  17  20
ENDBRANCH  12  13
ENDBRANCH  10  12
BRANCH   9  26
HETATM   26  C   UNL     1      -9.656   1.944 -32.798  1.00  0.00     0.088 A 
HETATM   27  C   UNL     1     -10.025   3.202 -33.555  1.00  0.00     0.027 A 
HETATM   28  C   UNL     1      -9.835   1.918 -34.294  1.00  0.00     0.027 A 
ENDBRANCH   9  26
ENDBRANCH   6   9
BRANCH   6  29
HETATM   29  C   UNL     1      -6.145   2.157 -33.215  1.00  0.00     0.251 C 
HETATM   30  N   UNL     1      -4.975   2.158 -32.471  1.00  0.00    -0.325 N 
HETATM   31  H   UNL     1      -4.792   1.338 -31.899  1.00  0.00     0.169 HD
HETATM   32  O   UNL     1      -6.449   2.991 -34.064  1.00  0.00    -0.270 OA
BRANCH  30  33
HETATM   33  C   UNL     1      -4.030   3.200 -32.375  1.00  0.00     0.034 A 
HETATM   34  C   UNL     1      -3.069   3.472 -33.342  1.00  0.00     0.032 A 
HETATM   35  C   UNL     1      -2.225   4.585 -33.213  1.00  0.00     0.031 A 
HETATM   36  C   UNL     1      -2.309   5.472 -32.130  1.00  0.00     0.030 A 
HETATM   37  C   UNL     1      -3.254   5.155 -31.148  1.00  0.00     0.031 A 
HETATM   38  C   UNL     1      -4.107   4.044 -31.267  1.00  0.00     0.032 A 
BRANCH  36  39
HETATM   39  N   UNL     1      -1.444   6.559 -32.049  1.00  0.00    -0.377 N 
HETATM   40  C   UNL     1      -1.945   7.884 -32.490  1.00  0.00     0.149 C 
HETATM   41  C   UNL     1      -2.505   8.663 -31.287  1.00  0.00     0.187 C 
HETATM   42  O   UNL     1      -1.525   8.810 -30.247  1.00  0.00    -0.388 OA
HETATM   43  C   UNL     1      -1.066   7.525 -29.796  1.00  0.00     0.187 C 
HETATM   44  C   UNL     1      -0.470   6.700 -30.947  1.00  0.00     0.149 C 
ENDBRANCH  36  39
ENDBRANCH  30  33
ENDBRANCH   6  29
TORSDOF 8
ENDMDL
MODEL 9
REMARK VINA RESULT:      -8.4      3.133      7.539
REMARK  8 active torsions:
REMARK  status: ('A' for Active; 'I' for Inactive)
REMARK    1  A    between atoms: C_6  and  N_7 
REMARK    2  A    between atoms: C_6  and  C_26 
REMARK       I    between atoms: N_7  and  C_8 
REMARK    3  A    between atoms: N_7  and  C_23 
REMARK    4  A    between atoms: C_8  and  C_9 
REMARK    5  A    between atoms: C_9  and  N_10 
REMARK    6  A    between atoms: C_14  and  C_15 
REMARK       I    between atoms: C_26  and  N_27 
REMARK    7  A    between atoms: N_27  and  C_28 
REMARK    8  A    between atoms: C_31  and  N_32 
ROOT
HETATM    1  C   UNL     1      -3.927  -0.814 -33.122  1.00  0.00     0.269 C 
HETATM    2  N   UNL     1      -5.297  -0.193 -32.998  1.00  0.00    -0.075 N 
HETATM    3  H   UNL     1      -5.898  -0.711 -33.660  1.00  0.00     0.279 HD
HETATM    4  C   UNL     1      -5.852  -0.381 -31.610  1.00  0.00     0.237 C 
HETATM    5  C   UNL     1      -7.238   0.248 -31.476  1.00  0.00     0.069 C 
HETATM    6  C   UNL     1      -7.343   1.702 -31.996  1.00  0.00     0.120 C 
HETATM    7  C   UNL     1      -6.697   1.783 -33.400  1.00  0.00     0.069 C 
HETATM    8  C   UNL     1      -5.271   1.251 -33.432  1.00  0.00     0.237 C 
ENDROOT
BRANCH   6   9
HETATM    9  N   UNL     1      -8.785   2.181 -31.965  1.00  0.00    -0.328 N 
HETATM   10  C   UNL     1      -9.284   3.485 -31.834  1.00  0.00     0.239 C 
HETATM   11  O   UNL     1     -10.466   3.666 -31.506  1.00  0.00    -0.271 OA
BRANCH  10  12
HETATM   12  C   UNL     1      -8.405   4.721 -32.039  1.00  0.00     0.228 C 
BRANCH  12  13
HETATM   13  N   UNL     1      -8.434   5.663 -30.921  1.00  0.00    -0.347 N 
HETATM   14  C   UNL     1      -8.812   7.009 -30.979  1.00  0.00     0.171 C 
HETATM   15  S   UNL     1      -9.046   7.965 -32.312  1.00  0.00    -0.041 SA
HETATM   16  N   UNL     1      -8.909   7.478 -29.682  1.00  0.00    -0.357 N 
HETATM   17  C   UNL     1      -8.442   6.501 -28.717  1.00  0.00     0.135 C 
HETATM   18  H   UNL     1      -9.158   8.434 -29.458  1.00  0.00     0.162 HD
HETATM   19  C   UNL     1      -8.543   5.200 -29.540  1.00  0.00     0.155 C 
BRANCH  17  20
HETATM   20  C   UNL     1      -7.025   6.787 -28.226  1.00  0.00    -0.034 A 
HETATM   21  C   UNL     1      -6.475   8.081 -28.216  1.00  0.00     0.009 A 
HETATM   22  C   UNL     1      -5.185   8.314 -27.728  1.00  0.00     0.001 A 
HETATM   23  C   UNL     1      -4.423   7.260 -27.235  1.00  0.00     0.000 A 
HETATM   24  C   UNL     1      -4.954   5.974 -27.217  1.00  0.00     0.001 A 
HETATM   25  C   UNL     1      -6.245   5.742 -27.696  1.00  0.00     0.009 A 
ENDBRANCH  17  20
ENDBRANCH  12  13
ENDBRANCH  10  12
BRANCH   9  26
HETATM   26  C   UNL     1      -9.838   1.180 -32.203  1.00  0.00     0.088 A 
HETATM   27  C   UNL     1     -10.438   1.076 -33.589  1.00  0.00     0.027 A 
HETATM   28  C   UNL     1      -9.718  -0.092 -33.001  1.00  0.00     0.027 A 
ENDBRANCH   9  26
ENDBRANCH   6   9
BRANCH   6  29
HETATM   29  C   UNL     1      -6.438   2.666 -31.147  1.00  0.00     0.251 C 
HETATM   30  N   UNL     1      -5.694   3.547 -31.919  1.00  0.00    -0.325 N 
HETATM   31  H   UNL     1      -6.021   3.719 -32.865  1.00  0.00     0.169 HD
HETATM   32  O   UNL     1      -6.273   2.459 -29.948  1.00  0.00    -0.270 OA
BRANCH  30  33
HETATM   33  C   UNL     1      -4.495   4.193 -31.553  1.00  0.00     0.034 A 
HETATM   34  C   UNL     1      -3.227   3.682 -31.804  1.00  0.00     0.032 A 
HETATM   35  C   UNL     1      -2.083   4.431 -31.490  1.00  0.00     0.031 A 
HETATM   36  C   UNL     1      -2.154   5.714 -30.929  1.00  0.00     0.030 A 
HETATM   37  C   UNL     1      -3.439   6.191 -30.646  1.00  0.00     0.031 A 
HETATM   38  C   UNL     1      -4.592   5.450 -30.958  1.00  0.00     0.032 A 
BRANCH  36  39
HETATM   39  N   UNL     1      -0.988   6.412 -30.634  1.00  0.00    -0.377 N 
HETATM   40  C   UNL     1      -1.036   7.423 -29.549  1.00  0.00     0.149 C 
HETATM   41  C   UNL     1      -0.598   6.789 -28.217  1.00  0.00     0.187 C 
HETATM   42  O   UNL     1       0.711   6.205 -28.312  1.00  0.00    -0.388 OA
HETATM   43  C   UNL     1       0.747   5.201 -29.339  1.00  0.00     0.187 C 
HETATM   44  C   UNL     1       0.343   5.774 -30.707  1.00  0.00     0.149 C 
ENDBRANCH  36  39
ENDBRANCH  30  33
ENDBRANCH   6  29
TORSDOF 8
ENDMDL
MODEL 10
REMARK VINA RESULT:      -8.3      1.353      3.049
REMARK  8 active torsions:
REMARK  status: ('A' for Active; 'I' for Inactive)
REMARK    1  A    between atoms: C_6  and  N_7 
REMARK    2  A    between atoms: C_6  and  C_26 
REMARK       I    between atoms: N_7  and  C_8 
REMARK    3  A    between atoms: N_7  and  C_23 
REMARK    4  A    between atoms: C_8  and  C_9 
REMARK    5  A    between atoms: C_9  and  N_10 
REMARK    6  A    between atoms: C_14  and  C_15 
REMARK       I    between atoms: C_26  and  N_27 
REMARK    7  A    between atoms: N_27  and  C_28 
REMARK    8  A    between atoms: C_31  and  N_32 
ROOT
HETATM    1  C   UNL     1      -1.566   4.970 -34.943  1.00  0.00     0.269 C 
HETATM    2  N   UNL     1      -2.543   5.024 -33.795  1.00  0.00    -0.075 N 
HETATM    3  H   UNL     1      -3.338   4.427 -34.077  1.00  0.00     0.279 HD
HETATM    4  C   UNL     1      -1.938   4.443 -32.543  1.00  0.00     0.237 C 
HETATM    5  C   UNL     1      -2.922   4.497 -31.374  1.00  0.00     0.069 C 
HETATM    6  C   UNL     1      -3.597   5.873 -31.158  1.00  0.00     0.120 C 
HETATM    7  C   UNL     1      -4.131   6.391 -32.515  1.00  0.00     0.069 C 
HETATM    8  C   UNL     1      -3.065   6.425 -33.602  1.00  0.00     0.237 C 
ENDROOT
BRANCH   6   9
HETATM    9  N   UNL     1      -4.665   5.784 -30.082  1.00  0.00    -0.328 N 
HETATM   10  C   UNL     1      -5.539   4.728 -29.783  1.00  0.00     0.239 C 
HETATM   11  O   UNL     1      -6.551   4.937 -29.098  1.00  0.00    -0.271 OA
BRANCH  10  12
HETATM   12  C   UNL     1      -5.318   3.310 -30.314  1.00  0.00     0.228 C 
BRANCH  12  13
HETATM   13  N   UNL     1      -6.094   2.995 -31.512  1.00  0.00    -0.347 N 
HETATM   14  C   UNL     1      -7.486   3.038 -31.635  1.00  0.00     0.171 C 
HETATM   15  S   UNL     1      -8.630   3.166 -30.444  1.00  0.00    -0.041 SA
HETATM   16  N   UNL     1      -7.799   2.886 -32.974  1.00  0.00    -0.357 N 
HETATM   17  C   UNL     1      -6.626   2.576 -33.770  1.00  0.00     0.135 C 
HETATM   18  H   UNL     1      -8.750   2.871 -33.321  1.00  0.00     0.162 HD
HETATM   19  C   UNL     1      -5.498   3.073 -32.844  1.00  0.00     0.155 C 
BRANCH  17  20
HETATM   20  C   UNL     1      -6.515   1.089 -34.101  1.00  0.00    -0.034 A 
HETATM   21  C   UNL     1      -5.484   0.277 -33.597  1.00  0.00     0.009 A 
HETATM   22  C   UNL     1      -5.430  -1.088 -33.892  1.00  0.00     0.001 A 
HETATM   23  C   UNL     1      -6.408  -1.670 -34.693  1.00  0.00     0.000 A 
HETATM   24  C   UNL     1      -7.449  -0.890 -35.187  1.00  0.00     0.001 A 
HETATM   25  C   UNL     1      -7.508   0.472 -34.885  1.00  0.00     0.009 A 
ENDBRANCH  17  20
ENDBRANCH  12  13
ENDBRANCH  10  12
BRANCH   9  26
HETATM   26  C   UNL     1      -4.765   6.903 -29.131  1.00  0.00     0.088 A 
HETATM   27  C   UNL     1      -5.615   8.099 -29.506  1.00  0.00     0.027 A 
HETATM   28  C   UNL     1      -5.964   7.286 -28.303  1.00  0.00     0.027 A 
ENDBRANCH   9  26
ENDBRANCH   6   9
BRANCH   6  29
HETATM   29  C   UNL     1      -2.533   6.964 -30.772  1.00  0.00     0.251 C 
HETATM   30  N   UNL     1      -1.614   6.528 -29.829  1.00  0.00    -0.325 N 
HETATM   31  H   UNL     1      -1.498   5.524 -29.729  1.00  0.00     0.169 HD
HETATM   32  O   UNL     1      -2.691   8.129 -31.125  1.00  0.00    -0.270 OA
BRANCH  30  33
HETATM   33  C   UNL     1      -0.855   7.328 -28.949  1.00  0.00     0.034 A 
HETATM   34  C   UNL     1       0.534   7.341 -28.910  1.00  0.00     0.032 A 
HETATM   35  C   UNL     1       1.214   8.233 -28.068  1.00  0.00     0.031 A 
HETATM   36  C   UNL     1       0.545   9.149 -27.244  1.00  0.00     0.030 A 
HETATM   37  C   UNL     1      -0.854   9.090 -27.269  1.00  0.00     0.031 A 
HETATM   38  C   UNL     1      -1.546   8.201 -28.109  1.00  0.00     0.032 A 
BRANCH  36  39
HETATM   39  N   UNL     1       1.268  10.010 -26.425  1.00  0.00    -0.377 N 
HETATM   40  C   UNL     1       0.803  11.414 -26.306  1.00  0.00     0.149 C 
HETATM   41  C   UNL     1      -0.121  11.562 -25.084  1.00  0.00     0.187 C 
HETATM   42  O   UNL     1       0.526  11.135 -23.874  1.00  0.00    -0.388 OA
HETATM   43  C   UNL     1       0.944   9.764 -23.978  1.00  0.00     0.187 C 
HETATM   44  C   UNL     1       1.893   9.549 -25.168  1.00  0.00     0.149 C 
ENDBRANCH  36  39
ENDBRANCH  30  33
ENDBRANCH   6  29
TORSDOF 8
ENDMDL
