MODEL 1
REMARK VINA RESULT:      -8.2      0.000      0.000
REMARK  4 active torsions:
REMARK  status: ('A' for Active; 'I' for Inactive)
REMARK    1  A    between atoms: O_2  and  C_3 
REMARK    2  A    between atoms: C_5  and  N_6 
REMARK    3  A    between atoms: C_10  and  C_11 
REMARK    4  A    between atoms: C_22  and  O_23 
ROOT
HETATM    1  N   UNL     1      -6.660   0.754 -33.236  1.00  0.00    -0.315 N 
HETATM    2  C   UNL     1      -7.114   1.168 -31.980  1.00  0.00     0.225 C 
HETATM    3  O   UNL     1      -6.899   0.668 -30.886  1.00  0.00    -0.273 OA
HETATM    4  C   UNL     1      -7.816   2.495 -32.154  1.00  0.00     0.117 C 
HETATM    5  C   UNL     1      -8.150   2.536 -33.642  1.00  0.00     0.082 C 
HETATM    6  C   UNL     1      -7.044   1.691 -34.266  1.00  0.00     0.145 C 
ENDROOT
BRANCH   1   7
HETATM    7  C   UNL     1      -5.924  -0.435 -33.501  1.00  0.00     0.073 A 
HETATM    8  C   UNL     1      -6.573  -1.530 -34.094  1.00  0.00     0.069 A 
HETATM    9  C   UNL     1      -5.881  -2.696 -34.444  1.00  0.00     0.070 A 
HETATM   10  C   UNL     1      -4.524  -2.800 -34.156  1.00  0.00     0.039 A 
HETATM   11  C   UNL     1      -3.860  -1.736 -33.545  1.00  0.00     0.042 A 
HETATM   12  C   UNL     1      -4.551  -0.563 -33.207  1.00  0.00     0.095 A 
BRANCH   9  13
HETATM   13  O   UNL     1      -6.635  -3.655 -35.063  1.00  0.00    -0.356 OA
HETATM   14  C   UNL     1      -6.018  -4.921 -35.256  1.00  0.00     0.210 C 
ENDBRANCH   9  13
BRANCH  12  15
HETATM   15  O   UNL     1      -3.889   0.467 -32.582  1.00  0.00    -0.354 OA
HETATM   16  C   UNL     1      -3.375   0.107 -31.298  1.00  0.00     0.210 C 
ENDBRANCH  12  15
ENDBRANCH   1   7
BRANCH   5  17
HETATM   17  C   UNL     1      -9.527   1.997 -33.888  1.00  0.00     0.111 A 
HETATM   18  N   UNL     1     -10.049   0.903 -33.373  1.00  0.00    -0.233 NA
HETATM   19  C   UNL     1     -11.371   0.905 -33.746  1.00  0.00     0.085 A 
HETATM   20  C   UNL     1     -11.659   2.010 -34.535  1.00  0.00     0.062 A 
HETATM   21  C   UNL     1     -12.395   0.001 -33.428  1.00  0.00     0.034 A 
HETATM   22  N   UNL     1     -10.464   2.674 -34.634  1.00  0.00    -0.342 N 
HETATM   23  C   UNL     1     -12.935   2.282 -35.038  1.00  0.00     0.032 A 
HETATM   24  H   UNL     1     -10.317   3.546 -35.123  1.00  0.00     0.167 HD
HETATM   25  C   UNL     1     -13.947   1.375 -34.703  1.00  0.00     0.002 A 
HETATM   26  C   UNL     1     -13.686   0.252 -33.912  1.00  0.00     0.002 A 
ENDBRANCH   5  17
TORSDOF 4
ENDMDL
MODEL 2
REMARK VINA RESULT:      -8.2      2.970      6.551
REMARK  4 active torsions:
REMARK  status: ('A' for Active; 'I' for Inactive)
REMARK    1  A    between atoms: O_2  and  C_3 
REMARK    2  A    between atoms: C_5  and  N_6 
REMARK    3  A    between atoms: C_10  and  C_11 
REMARK    4  A    between atoms: C_22  and  O_23 
ROOT
HETATM    1  N   UNL     1      -6.422   1.805 -33.171  1.00  0.00    -0.315 N 
HETATM    2  C   UNL     1      -7.484   1.284 -32.426  1.00  0.00     0.225 C 
HETATM    3  O   UNL     1      -7.779   1.500 -31.260  1.00  0.00    -0.273 OA
HETATM    4  C   UNL     1      -8.366   0.495 -33.364  1.00  0.00     0.117 C 
HETATM    5  C   UNL     1      -7.460   0.205 -34.557  1.00  0.00     0.082 C 
HETATM    6  C   UNL     1      -6.497   1.387 -34.552  1.00  0.00     0.145 C 
ENDROOT
BRANCH   1   7
HETATM    7  C   UNL     1      -5.380   2.632 -32.664  1.00  0.00     0.073 A 
HETATM    8  C   UNL     1      -5.594   4.015 -32.543  1.00  0.00     0.069 A 
HETATM    9  C   UNL     1      -4.632   4.863 -31.982  1.00  0.00     0.070 A 
HETATM   10  C   UNL     1      -3.409   4.339 -31.576  1.00  0.00     0.039 A 
HETATM   11  C   UNL     1      -3.162   2.973 -31.708  1.00  0.00     0.042 A 
HETATM   12  C   UNL     1      -4.131   2.121 -32.258  1.00  0.00     0.095 A 
BRANCH   9  13
HETATM   13  O   UNL     1      -5.004   6.176 -31.881  1.00  0.00    -0.356 OA
HETATM   14  C   UNL     1      -6.202   6.550 -32.549  1.00  0.00     0.210 C 
ENDBRANCH   9  13
BRANCH  12  15
HETATM   15  O   UNL     1      -3.862   0.781 -32.406  1.00  0.00    -0.354 OA
HETATM   16  C   UNL     1      -3.359   0.174 -31.214  1.00  0.00     0.210 C 
ENDBRANCH  12  15
ENDBRANCH   1   7
BRANCH   5  17
HETATM   17  C   UNL     1      -6.781  -1.122 -34.393  1.00  0.00     0.111 A 
HETATM   18  N   UNL     1      -7.238  -2.295 -34.781  1.00  0.00    -0.233 NA
HETATM   19  C   UNL     1      -6.213  -3.185 -34.576  1.00  0.00     0.085 A 
HETATM   20  C   UNL     1      -5.112  -2.548 -34.019  1.00  0.00     0.062 A 
HETATM   21  C   UNL     1      -6.142  -4.556 -34.863  1.00  0.00     0.034 A 
HETATM   22  N   UNL     1      -5.508  -1.243 -33.886  1.00  0.00    -0.342 N 
HETATM   23  C   UNL     1      -3.914  -3.206 -33.724  1.00  0.00     0.032 A 
HETATM   24  H   UNL     1      -4.935  -0.490 -33.533  1.00  0.00     0.167 HD
HETATM   25  C   UNL     1      -3.858  -4.572 -34.025  1.00  0.00     0.002 A 
HETATM   26  C   UNL     1      -4.951  -5.239 -34.584  1.00  0.00     0.002 A 
ENDBRANCH   5  17
TORSDOF 4
ENDMDL
MODEL 3
REMARK VINA RESULT:      -8.1      3.011      7.065
REMARK  4 active torsions:
REMARK  status: ('A' for Active; 'I' for Inactive)
REMARK    1  A    between atoms: O_2  and  C_3 
REMARK    2  A    between atoms: C_5  and  N_6 
REMARK    3  A    between atoms: C_10  and  C_11 
REMARK    4  A    between atoms: C_22  and  O_23 
ROOT
HETATM    1  N   UNL     1      -5.607   1.668 -31.335  1.00  0.00    -0.315 N 
HETATM    2  C   UNL     1      -4.720   2.132 -32.312  1.00  0.00     0.225 C 
HETATM    3  O   UNL     1      -4.818   3.117 -33.029  1.00  0.00    -0.273 OA
HETATM    4  C   UNL     1      -3.470   1.287 -32.242  1.00  0.00     0.117 C 
HETATM    5  C   UNL     1      -3.923   0.027 -31.512  1.00  0.00     0.082 C 
HETATM    6  C   UNL     1      -5.062   0.532 -30.631  1.00  0.00     0.145 C 
ENDROOT
BRANCH   1   7
HETATM    7  C   UNL     1      -6.891   2.214 -31.055  1.00  0.00     0.073 A 
HETATM    8  C   UNL     1      -6.996   3.340 -30.223  1.00  0.00     0.069 A 
HETATM    9  C   UNL     1      -8.226   3.962 -29.974  1.00  0.00     0.070 A 
HETATM   10  C   UNL     1      -9.387   3.426 -30.522  1.00  0.00     0.039 A 
HETATM   11  C   UNL     1      -9.314   2.294 -31.333  1.00  0.00     0.042 A 
HETATM   12  C   UNL     1      -8.080   1.680 -31.593  1.00  0.00     0.095 A 
BRANCH   9  13
HETATM   13  O   UNL     1      -8.163   5.080 -29.188  1.00  0.00    -0.356 OA
HETATM   14  C   UNL     1      -6.907   5.361 -28.584  1.00  0.00     0.210 C 
ENDBRANCH   9  13
BRANCH  12  15
HETATM   15  O   UNL     1      -8.027   0.549 -32.372  1.00  0.00    -0.354 OA
HETATM   16  C   UNL     1      -9.301   0.168 -32.896  1.00  0.00     0.210 C 
ENDBRANCH  12  15
ENDBRANCH   1   7
BRANCH   5  17
HETATM   17  C   UNL     1      -4.346  -1.027 -32.491  1.00  0.00     0.111 A 
HETATM   18  N   UNL     1      -3.679  -2.115 -32.815  1.00  0.00    -0.233 NA
HETATM   19  C   UNL     1      -4.522  -2.852 -33.609  1.00  0.00     0.085 A 
HETATM   20  C   UNL     1      -5.724  -2.185 -33.803  1.00  0.00     0.062 A 
HETATM   21  C   UNL     1      -4.337  -4.116 -34.187  1.00  0.00     0.034 A 
HETATM   22  N   UNL     1      -5.577  -1.014 -33.105  1.00  0.00    -0.342 N 
HETATM   23  C   UNL     1      -6.781  -2.710 -34.552  1.00  0.00     0.032 A 
HETATM   24  H   UNL     1      -6.281  -0.296 -33.011  1.00  0.00     0.167 HD
HETATM   25  C   UNL     1      -6.582  -3.977 -35.114  1.00  0.00     0.002 A 
HETATM   26  C   UNL     1      -5.382  -4.671 -34.937  1.00  0.00     0.002 A 
ENDBRANCH   5  17
TORSDOF 4
ENDMDL
MODEL 4
REMARK VINA RESULT:      -7.9      2.899      6.510
REMARK  4 active torsions:
REMARK  status: ('A' for Active; 'I' for Inactive)
REMARK    1  A    between atoms: O_2  and  C_3 
REMARK    2  A    between atoms: C_5  and  N_6 
REMARK    3  A    between atoms: C_10  and  C_11 
REMARK    4  A    between atoms: C_22  and  O_23 
ROOT
HETATM    1  N   UNL     1      -6.943   1.880 -33.843  1.00  0.00    -0.315 N 
HETATM    2  C   UNL     1      -8.028   1.341 -33.144  1.00  0.00     0.225 C 
HETATM    3  O   UNL     1      -8.455   1.646 -32.040  1.00  0.00    -0.273 OA
HETATM    4  C   UNL     1      -8.743   0.382 -34.066  1.00  0.00     0.117 C 
HETATM    5  C   UNL     1      -7.701   0.058 -35.133  1.00  0.00     0.082 C 
HETATM    6  C   UNL     1      -6.844   1.319 -35.170  1.00  0.00     0.145 C 
ENDROOT
BRANCH   1   7
HETATM    7  C   UNL     1      -6.029   2.847 -33.338  1.00  0.00     0.073 A 
HETATM    8  C   UNL     1      -4.912   2.423 -32.601  1.00  0.00     0.069 A 
HETATM    9  C   UNL     1      -3.943   3.325 -32.145  1.00  0.00     0.070 A 
HETATM   10  C   UNL     1      -4.109   4.686 -32.380  1.00  0.00     0.039 A 
HETATM   11  C   UNL     1      -5.223   5.137 -33.088  1.00  0.00     0.042 A 
HETATM   12  C   UNL     1      -6.186   4.231 -33.557  1.00  0.00     0.095 A 
BRANCH   9  13
HETATM   13  O   UNL     1      -2.884   2.757 -31.489  1.00  0.00    -0.356 OA
HETATM   14  C   UNL     1      -3.057   1.418 -31.045  1.00  0.00     0.210 C 
ENDBRANCH   9  13
BRANCH  12  15
HETATM   15  O   UNL     1      -7.292   4.693 -34.229  1.00  0.00    -0.354 OA
HETATM   16  C   UNL     1      -8.275   5.270 -33.367  1.00  0.00     0.210 C 
ENDBRANCH  12  15
ENDBRANCH   1   7
BRANCH   5  17
HETATM   17  C   UNL     1      -6.935  -1.177 -34.763  1.00  0.00     0.111 A 
HETATM   18  N   UNL     1      -7.275  -2.423 -35.018  1.00  0.00    -0.233 NA
HETATM   19  C   UNL     1      -6.200  -3.191 -34.646  1.00  0.00     0.085 A 
HETATM   20  C   UNL     1      -5.188  -2.401 -34.120  1.00  0.00     0.062 A 
HETATM   21  C   UNL     1      -6.008  -4.577 -34.748  1.00  0.00     0.034 A 
HETATM   22  N   UNL     1      -5.690  -1.126 -34.179  1.00  0.00    -0.342 N 
HETATM   23  C   UNL     1      -3.964  -2.913 -33.680  1.00  0.00     0.032 A 
HETATM   24  H   UNL     1      -5.199  -0.290 -33.897  1.00  0.00     0.167 HD
HETATM   25  C   UNL     1      -3.786  -4.297 -33.798  1.00  0.00     0.002 A 
HETATM   26  C   UNL     1      -4.788  -5.118 -34.322  1.00  0.00     0.002 A 
ENDBRANCH   5  17
TORSDOF 4
ENDMDL
MODEL 5
REMARK VINA RESULT:      -7.8      2.934      6.516
REMARK  4 active torsions:
REMARK  status: ('A' for Active; 'I' for Inactive)
REMARK    1  A    between atoms: O_2  and  C_3 
REMARK    2  A    between atoms: C_5  and  N_6 
REMARK    3  A    between atoms: C_10  and  C_11 
REMARK    4  A    between atoms: C_22  and  O_23 
ROOT
HETATM    1  N   UNL     1      -5.564   1.529 -31.438  1.00  0.00    -0.315 N 
HETATM    2  C   UNL     1      -4.606   1.951 -32.364  1.00  0.00     0.225 C 
HETATM    3  O   UNL     1      -4.626   2.933 -33.092  1.00  0.00    -0.273 OA
HETATM    4  C   UNL     1      -3.394   1.062 -32.218  1.00  0.00     0.117 C 
HETATM    5  C   UNL     1      -3.935  -0.175 -31.506  1.00  0.00     0.082 C 
HETATM    6  C   UNL     1      -5.103   0.379 -30.696  1.00  0.00     0.145 C 
ENDROOT
BRANCH   1   7
HETATM    7  C   UNL     1      -6.841   2.123 -31.235  1.00  0.00     0.073 A 
HETATM    8  C   UNL     1      -7.938   1.675 -31.989  1.00  0.00     0.069 A 
HETATM    9  C   UNL     1      -9.230   2.173 -31.779  1.00  0.00     0.070 A 
HETATM   10  C   UNL     1      -9.433   3.174 -30.834  1.00  0.00     0.039 A 
HETATM   11  C   UNL     1      -8.356   3.654 -30.089  1.00  0.00     0.042 A 
HETATM   12  C   UNL     1      -7.065   3.145 -30.290  1.00  0.00     0.095 A 
BRANCH   9  13
HETATM   13  O   UNL     1     -10.205   1.603 -32.551  1.00  0.00    -0.356 OA
HETATM   14  C   UNL     1      -9.776   0.973 -33.751  1.00  0.00     0.210 C 
ENDBRANCH   9  13
BRANCH  12  15
HETATM   15  O   UNL     1      -6.009   3.647 -29.567  1.00  0.00    -0.354 OA
HETATM   16  C   UNL     1      -5.593   4.942 -30.004  1.00  0.00     0.210 C 
ENDBRANCH  12  15
ENDBRANCH   1   7
BRANCH   5  17
HETATM   17  C   UNL     1      -4.340  -1.221 -32.501  1.00  0.00     0.111 A 
HETATM   18  N   UNL     1      -3.678  -2.319 -32.805  1.00  0.00    -0.233 NA
HETATM   19  C   UNL     1      -4.505  -3.041 -33.629  1.00  0.00     0.085 A 
HETATM   20  C   UNL     1      -5.689  -2.355 -33.863  1.00  0.00     0.062 A 
HETATM   21  C   UNL     1      -4.319  -4.308 -34.202  1.00  0.00     0.034 A 
HETATM   22  N   UNL     1      -5.548  -1.188 -33.158  1.00  0.00    -0.342 N 
HETATM   23  C   UNL     1      -6.728  -2.864 -34.649  1.00  0.00     0.032 A 
HETATM   24  H   UNL     1      -6.244  -0.460 -33.087  1.00  0.00     0.167 HD
HETATM   25  C   UNL     1      -6.529  -4.132 -35.206  1.00  0.00     0.002 A 
HETATM   26  C   UNL     1      -5.346  -4.845 -34.989  1.00  0.00     0.002 A 
ENDBRANCH   5  17
TORSDOF 4
ENDMDL
MODEL 6
REMARK VINA RESULT:      -7.8      3.395      5.851
REMARK  4 active torsions:
REMARK  status: ('A' for Active; 'I' for Inactive)
REMARK    1  A    between atoms: O_2  and  C_3 
REMARK    2  A    between atoms: C_5  and  N_6 
REMARK    3  A    between atoms: C_10  and  C_11 
REMARK    4  A    between atoms: C_22  and  O_23 
ROOT
HETATM    1  N   UNL     1      -4.318   2.570 -31.278  1.00  0.00    -0.315 N 
HETATM    2  C   UNL     1      -4.262   1.185 -31.462  1.00  0.00     0.225 C 
HETATM    3  O   UNL     1      -3.536   0.540 -32.204  1.00  0.00    -0.273 OA
HETATM    4  C   UNL     1      -5.166   0.543 -30.436  1.00  0.00     0.117 C 
HETATM    5  C   UNL     1      -6.094   1.677 -30.010  1.00  0.00     0.082 C 
HETATM    6  C   UNL     1      -5.235   2.920 -30.219  1.00  0.00     0.145 C 
ENDROOT
BRANCH   1   7
HETATM    7  C   UNL     1      -3.588   3.536 -32.026  1.00  0.00     0.073 A 
HETATM    8  C   UNL     1      -2.307   3.918 -31.596  1.00  0.00     0.069 A 
HETATM    9  C   UNL     1      -1.516   4.807 -32.334  1.00  0.00     0.070 A 
HETATM   10  C   UNL     1      -2.025   5.371 -33.500  1.00  0.00     0.039 A 
HETATM   11  C   UNL     1      -3.305   5.027 -33.936  1.00  0.00     0.042 A 
HETATM   12  C   UNL     1      -4.091   4.125 -33.204  1.00  0.00     0.095 A 
BRANCH   9  13
HETATM   13  O   UNL     1      -0.271   5.042 -31.818  1.00  0.00    -0.356 OA
HETATM   14  C   UNL     1      -0.184   5.174 -30.406  1.00  0.00     0.210 C 
ENDBRANCH   9  13
BRANCH  12  15
HETATM   15  O   UNL     1      -5.360   3.817 -33.633  1.00  0.00    -0.354 OA
HETATM   16  C   UNL     1      -6.202   4.963 -33.766  1.00  0.00     0.210 C 
ENDBRANCH  12  15
ENDBRANCH   1   7
BRANCH   5  17
HETATM   17  C   UNL     1      -7.348   1.669 -30.832  1.00  0.00     0.111 A 
HETATM   18  N   UNL     1      -7.891   2.697 -31.452  1.00  0.00    -0.233 NA
HETATM   19  C   UNL     1      -8.918   2.184 -32.203  1.00  0.00     0.085 A 
HETATM   20  C   UNL     1      -9.029   0.812 -32.016  1.00  0.00     0.062 A 
HETATM   21  C   UNL     1      -9.791   2.828 -33.092  1.00  0.00     0.034 A 
HETATM   22  N   UNL     1      -8.038   0.513 -31.118  1.00  0.00    -0.342 N 
HETATM   23  C   UNL     1      -9.975   0.021 -32.674  1.00  0.00     0.032 A 
HETATM   24  H   UNL     1      -7.816  -0.410 -30.775  1.00  0.00     0.167 HD
HETATM   25  C   UNL     1     -10.832   0.681 -33.564  1.00  0.00     0.002 A 
HETATM   26  C   UNL     1     -10.745   2.060 -33.772  1.00  0.00     0.002 A 
ENDBRANCH   5  17
TORSDOF 4
ENDMDL
MODEL 7
REMARK VINA RESULT:      -7.7      3.081      7.155
REMARK  4 active torsions:
REMARK  status: ('A' for Active; 'I' for Inactive)
REMARK    1  A    between atoms: O_2  and  C_3 
REMARK    2  A    between atoms: C_5  and  N_6 
REMARK    3  A    between atoms: C_10  and  C_11 
REMARK    4  A    between atoms: C_22  and  O_23 
ROOT
HETATM    1  N   UNL     1      -7.209   1.792 -32.859  1.00  0.00    -0.315 N 
HETATM    2  C   UNL     1      -8.179   0.797 -32.703  1.00  0.00     0.225 C 
HETATM    3  O   UNL     1      -8.989   0.653 -31.799  1.00  0.00    -0.273 OA
HETATM    4  C   UNL     1      -8.199  -0.035 -33.964  1.00  0.00     0.117 C 
HETATM    5  C   UNL     1      -6.848   0.256 -34.611  1.00  0.00     0.082 C 
HETATM    6  C   UNL     1      -6.533   1.668 -34.129  1.00  0.00     0.145 C 
ENDROOT
BRANCH   1   7
HETATM    7  C   UNL     1      -6.896   2.801 -31.906  1.00  0.00     0.073 A 
HETATM    8  C   UNL     1      -7.517   4.058 -32.002  1.00  0.00     0.069 A 
HETATM    9  C   UNL     1      -7.302   5.061 -31.049  1.00  0.00     0.070 A 
HETATM   10  C   UNL     1      -6.413   4.834 -30.004  1.00  0.00     0.039 A 
HETATM   11  C   UNL     1      -5.764   3.604 -29.899  1.00  0.00     0.042 A 
HETATM   12  C   UNL     1      -5.990   2.594 -30.845  1.00  0.00     0.095 A 
BRANCH   9  13
HETATM   13  O   UNL     1      -8.017   6.211 -31.246  1.00  0.00    -0.356 OA
HETATM   14  C   UNL     1      -7.471   7.149 -32.165  1.00  0.00     0.210 C 
ENDBRANCH   9  13
BRANCH  12  15
HETATM   15  O   UNL     1      -5.324   1.396 -30.743  1.00  0.00    -0.354 OA
HETATM   16  C   UNL     1      -5.828   0.559 -29.701  1.00  0.00     0.210 C 
ENDBRANCH  12  15
ENDBRANCH   1   7
BRANCH   5  17
HETATM   17  C   UNL     1      -5.831  -0.762 -34.189  1.00  0.00     0.111 A 
HETATM   18  N   UNL     1      -4.985  -0.662 -33.185  1.00  0.00    -0.233 NA
HETATM   19  C   UNL     1      -4.377  -1.888 -33.080  1.00  0.00     0.085 A 
HETATM   20  C   UNL     1      -4.839  -2.753 -34.064  1.00  0.00     0.062 A 
HETATM   21  C   UNL     1      -3.432  -2.347 -32.151  1.00  0.00     0.034 A 
HETATM   22  N   UNL     1      -5.742  -2.005 -34.774  1.00  0.00    -0.342 N 
HETATM   23  C   UNL     1      -4.411  -4.079 -34.183  1.00  0.00     0.032 A 
HETATM   24  H   UNL     1      -6.292  -2.335 -35.554  1.00  0.00     0.167 HD
HETATM   25  C   UNL     1      -3.474  -4.521 -33.242  1.00  0.00     0.002 A 
HETATM   26  C   UNL     1      -2.990  -3.674 -32.242  1.00  0.00     0.002 A 
ENDBRANCH   5  17
TORSDOF 4
ENDMDL
MODEL 8
REMARK VINA RESULT:      -7.6      7.037     10.037
REMARK  4 active torsions:
REMARK  status: ('A' for Active; 'I' for Inactive)
REMARK    1  A    between atoms: O_2  and  C_3 
REMARK    2  A    between atoms: C_5  and  N_6 
REMARK    3  A    between atoms: C_10  and  C_11 
REMARK    4  A    between atoms: C_22  and  O_23 
ROOT
HETATM    1  N   UNL     1      -0.971   6.851 -31.337  1.00  0.00    -0.315 N 
HETATM    2  C   UNL     1      -1.453   7.666 -32.366  1.00  0.00     0.225 C 
HETATM    3  O   UNL     1      -1.790   8.840 -32.317  1.00  0.00    -0.273 OA
HETATM    4  C   UNL     1      -1.339   6.896 -33.660  1.00  0.00     0.117 C 
HETATM    5  C   UNL     1      -1.232   5.442 -33.210  1.00  0.00     0.082 C 
HETATM    6  C   UNL     1      -0.575   5.555 -31.838  1.00  0.00     0.145 C 
ENDROOT
BRANCH   1   7
HETATM    7  C   UNL     1      -0.880   7.214 -29.964  1.00  0.00     0.073 A 
HETATM    8  C   UNL     1       0.359   7.610 -29.435  1.00  0.00     0.069 A 
HETATM    9  C   UNL     1       0.490   8.048 -28.112  1.00  0.00     0.070 A 
HETATM   10  C   UNL     1      -0.623   8.048 -27.277  1.00  0.00     0.039 A 
HETATM   11  C   UNL     1      -1.860   7.636 -27.770  1.00  0.00     0.042 A 
HETATM   12  C   UNL     1      -1.994   7.210 -29.100  1.00  0.00     0.095 A 
BRANCH   9  13
HETATM   13  O   UNL     1       1.748   8.453 -27.756  1.00  0.00    -0.356 OA
HETATM   14  C   UNL     1       2.021   8.525 -26.363  1.00  0.00     0.210 C 
ENDBRANCH   9  13
BRANCH  12  15
HETATM   15  O   UNL     1      -3.215   6.782 -29.564  1.00  0.00    -0.354 OA
HETATM   16  C   UNL     1      -4.178   7.832 -29.663  1.00  0.00     0.210 C 
ENDBRANCH  12  15
ENDBRANCH   1   7
BRANCH   5  17
HETATM   17  C   UNL     1      -2.586   4.800 -33.175  1.00  0.00     0.111 A 
HETATM   18  N   UNL     1      -3.657   5.180 -33.840  1.00  0.00    -0.233 NA
HETATM   19  C   UNL     1      -4.600   4.205 -33.626  1.00  0.00     0.085 A 
HETATM   20  C   UNL     1      -4.106   3.219 -32.782  1.00  0.00     0.062 A 
HETATM   21  C   UNL     1      -5.900   4.084 -34.138  1.00  0.00     0.034 A 
HETATM   22  N   UNL     1      -2.834   3.634 -32.487  1.00  0.00    -0.342 N 
HETATM   23  C   UNL     1      -4.841   2.089 -32.410  1.00  0.00     0.032 A 
HETATM   24  H   UNL     1      -2.173   3.133 -31.911  1.00  0.00     0.167 HD
HETATM   25  C   UNL     1      -6.133   1.980 -32.938  1.00  0.00     0.002 A 
HETATM   26  C   UNL     1      -6.657   2.958 -33.788  1.00  0.00     0.002 A 
ENDBRANCH   5  17
TORSDOF 4
ENDMDL
MODEL 9
REMARK VINA RESULT:      -7.6      2.762      5.006
REMARK  4 active torsions:
REMARK  status: ('A' for Active; 'I' for Inactive)
REMARK    1  A    between atoms: O_2  and  C_3 
REMARK    2  A    between atoms: C_5  and  N_6 
REMARK    3  A    between atoms: C_10  and  C_11 
REMARK    4  A    between atoms: C_22  and  O_23 
ROOT
HETATM    1  N   UNL     1      -5.694   1.805 -32.115  1.00  0.00    -0.315 N 
HETATM    2  C   UNL     1      -5.589   0.518 -32.652  1.00  0.00     0.225 C 
HETATM    3  O   UNL     1      -4.758   0.082 -33.435  1.00  0.00    -0.273 OA
HETATM    4  C   UNL     1      -6.609  -0.357 -31.963  1.00  0.00     0.117 C 
HETATM    5  C   UNL     1      -7.606   0.638 -31.378  1.00  0.00     0.082 C 
HETATM    6  C   UNL     1      -6.751   1.877 -31.133  1.00  0.00     0.145 C 
ENDROOT
BRANCH   1   7
HETATM    7  C   UNL     1      -4.890   2.923 -32.475  1.00  0.00     0.073 A 
HETATM    8  C   UNL     1      -3.629   3.086 -31.880  1.00  0.00     0.069 A 
HETATM    9  C   UNL     1      -2.766   4.125 -32.251  1.00  0.00     0.070 A 
HETATM   10  C   UNL     1      -3.182   5.054 -33.200  1.00  0.00     0.039 A 
HETATM   11  C   UNL     1      -4.440   4.929 -33.789  1.00  0.00     0.042 A 
HETATM   12  C   UNL     1      -5.298   3.880 -33.426  1.00  0.00     0.095 A 
BRANCH   9  13
HETATM   13  O   UNL     1      -1.551   4.123 -31.623  1.00  0.00    -0.356 OA
HETATM   14  C   UNL     1      -1.086   5.375 -31.136  1.00  0.00     0.210 C 
ENDBRANCH   9  13
BRANCH  12  15
HETATM   15  O   UNL     1      -6.545   3.785 -33.997  1.00  0.00    -0.354 OA
HETATM   16  C   UNL     1      -7.348   4.948 -33.788  1.00  0.00     0.210 C 
ENDBRANCH  12  15
ENDBRANCH   1   7
BRANCH   5  17
HETATM   17  C   UNL     1      -8.739   0.872 -32.332  1.00  0.00     0.111 A 
HETATM   18  N   UNL     1      -9.821   0.133 -32.467  1.00  0.00    -0.233 NA
HETATM   19  C   UNL     1     -10.641   0.819 -33.328  1.00  0.00     0.085 A 
HETATM   20  C   UNL     1     -10.034   1.992 -33.757  1.00  0.00     0.062 A 
HETATM   21  C   UNL     1     -11.934   0.511 -33.776  1.00  0.00     0.034 A 
HETATM   22  N   UNL     1      -8.814   1.989 -33.131  1.00  0.00    -0.342 N 
HETATM   23  C   UNL     1     -10.648   2.902 -34.622  1.00  0.00     0.032 A 
HETATM   24  H   UNL     1      -8.118   2.717 -33.201  1.00  0.00     0.167 HD
HETATM   25  C   UNL     1     -11.942   2.583 -35.052  1.00  0.00     0.002 A 
HETATM   26  C   UNL     1     -12.577   1.409 -34.639  1.00  0.00     0.002 A 
ENDBRANCH   5  17
TORSDOF 4
ENDMDL
MODEL 10
REMARK VINA RESULT:      -7.5      2.212      4.116
REMARK  4 active torsions:
REMARK  status: ('A' for Active; 'I' for Inactive)
REMARK    1  A    between atoms: O_2  and  C_3 
REMARK    2  A    between atoms: C_5  and  N_6 
REMARK    3  A    between atoms: C_10  and  C_11 
REMARK    4  A    between atoms: C_22  and  O_23 
ROOT
HETATM    1  N   UNL     1      -7.618  -0.256 -33.728  1.00  0.00    -0.315 N 
HETATM    2  C   UNL     1      -7.889   0.673 -34.738  1.00  0.00     0.225 C 
HETATM    3  O   UNL     1      -7.239   0.923 -35.742  1.00  0.00    -0.273 OA
HETATM    4  C   UNL     1      -9.264   1.246 -34.485  1.00  0.00     0.117 C 
HETATM    5  C   UNL     1      -9.518   0.944 -33.011  1.00  0.00     0.082 C 
HETATM    6  C   UNL     1      -8.701  -0.323 -32.775  1.00  0.00     0.145 C 
ENDROOT
BRANCH   1   7
HETATM    7  C   UNL     1      -6.435  -1.039 -33.617  1.00  0.00     0.073 A 
HETATM    8  C   UNL     1      -6.375  -2.292 -34.248  1.00  0.00     0.069 A 
HETATM    9  C   UNL     1      -5.211  -3.070 -34.234  1.00  0.00     0.070 A 
HETATM   10  C   UNL     1      -4.095  -2.620 -33.537  1.00  0.00     0.039 A 
HETATM   11  C   UNL     1      -4.135  -1.390 -32.881  1.00  0.00     0.042 A 
HETATM   12  C   UNL     1      -5.297  -0.604 -32.907  1.00  0.00     0.095 A 
BRANCH   9  13
HETATM   13  O   UNL     1      -5.288  -4.241 -34.937  1.00  0.00    -0.356 OA
HETATM   14  C   UNL     1      -6.561  -4.580 -35.471  1.00  0.00     0.210 C 
ENDBRANCH   9  13
BRANCH  12  15
HETATM   15  O   UNL     1      -5.330   0.593 -32.234  1.00  0.00    -0.354 OA
HETATM   16  C   UNL     1      -4.693   0.538 -30.956  1.00  0.00     0.210 C 
ENDBRANCH  12  15
ENDBRANCH   1   7
BRANCH   5  17
HETATM   17  C   UNL     1      -9.092   2.099 -32.155  1.00  0.00     0.111 A 
HETATM   18  N   UNL     1      -9.768   3.208 -31.934  1.00  0.00    -0.233 NA
HETATM   19  C   UNL     1      -9.070   3.888 -30.967  1.00  0.00     0.085 A 
HETATM   20  C   UNL     1      -7.921   3.195 -30.608  1.00  0.00     0.062 A 
HETATM   21  C   UNL     1      -9.369   5.100 -30.328  1.00  0.00     0.034 A 
HETATM   22  N   UNL     1      -7.943   2.074 -31.397  1.00  0.00    -0.342 N 
HETATM   23  C   UNL     1      -7.031   3.641 -29.627  1.00  0.00     0.032 A 
HETATM   24  H   UNL     1      -7.261   1.330 -31.377  1.00  0.00     0.167 HD
HETATM   25  C   UNL     1      -7.350   4.848 -28.994  1.00  0.00     0.002 A 
HETATM   26  C   UNL     1      -8.498   5.568 -29.335  1.00  0.00     0.002 A 
ENDBRANCH   5  17
TORSDOF 4
ENDMDL
