MODEL 1
REMARK VINA RESULT:      -7.0      0.000      0.000
REMARK  6 active torsions:
REMARK  status: ('A' for Active; 'I' for Inactive)
REMARK    1  A    between atoms: C_2  and  C_3 
REMARK    2  A    between atoms: C_5  and  N_6 
REMARK       I    between atoms: N_6  and  C_7 
REMARK       I    between atoms: C_7  and  N_8 
REMARK    3  A    between atoms: N_8  and  C_9 
REMARK    4  A    between atoms: C_9  and  C_10 
REMARK    5  A    between atoms: C_10  and  N_11 
REMARK    6  A    between atoms: C_18  and  O_19 
ROOT
HETATM    1  N   UNL     1      -4.429   3.804 -33.205  1.00  0.00    -0.306 N 
HETATM    2  C   UNL     1      -4.792   4.837 -34.016  1.00  0.00     0.320 C 
HETATM    3  N   UNL     1      -3.756   5.558 -34.543  1.00  0.00    -0.341 N 
HETATM    4  O   UNL     1      -5.934   5.187 -34.297  1.00  0.00    -0.247 OA
HETATM    5  H   UNL     1      -3.528   3.879 -32.748  1.00  0.00     0.171 HD
HETATM    6  H   UNL     1      -4.128   6.282 -35.146  1.00  0.00     0.164 HD
ENDROOT
BRANCH   1   7
HETATM    7  C   UNL     1      -5.260   2.798 -32.665  1.00  0.00     0.070 A 
HETATM    8  C   UNL     1      -5.942   1.871 -33.462  1.00  0.00     0.040 A 
HETATM    9  C   UNL     1      -6.734   0.849 -32.898  1.00  0.00    -0.048 A 
HETATM   10  C   UNL     1      -6.819   0.799 -31.499  1.00  0.00     0.011 A 
HETATM   11  C   UNL     1      -6.137   1.720 -30.691  1.00  0.00     0.039 A 
HETATM   12  C   UNL     1      -5.350   2.717 -31.266  1.00  0.00     0.095 A 
BRANCH   9  13
HETATM   13  C   UNL     1      -7.443  -0.165 -33.814  1.00  0.00    -0.024 C 
HETATM   14  C   UNL     1      -7.385   0.338 -35.274  1.00  0.00     0.019 C 
HETATM   15  C   UNL     1      -8.920  -0.322 -33.389  1.00  0.00     0.019 C 
HETATM   16  C   UNL     1      -6.810  -1.574 -33.791  1.00  0.00     0.019 C 
ENDBRANCH   9  13
BRANCH  12  17
HETATM   17  O   UNL     1      -4.635   3.662 -30.567  1.00  0.00    -0.354 OA
HETATM   18  C   UNL     1      -5.381   4.677 -29.907  1.00  0.00     0.210 C 
ENDBRANCH  12  17
ENDBRANCH   1   7
BRANCH   3  19
HETATM   19  C   UNL     1      -2.444   5.031 -34.903  1.00  0.00     0.146 C 
BRANCH  19  20
HETATM   20  C   UNL     1      -1.315   5.953 -34.457  1.00  0.00     0.170 C 
BRANCH  20  21
HETATM   21  N   UNL     1      -1.118   5.908 -33.021  1.00  0.00    -0.278 N 
HETATM   22  N   UNL     1      -1.547   4.840 -32.318  1.00  0.00    -0.184 NA
HETATM   23  C   UNL     1      -1.174   5.121 -31.065  1.00  0.00     0.164 A 
HETATM   24  C   UNL     1      -0.524   6.364 -30.969  1.00  0.00     0.070 A 
HETATM   25 CL   UNL     1       0.094   7.076 -29.566  1.00  0.00    -0.081 Cl
HETATM   26  C   UNL     1      -0.504   6.854 -32.251  1.00  0.00     0.137 A 
ENDBRANCH  20  21
ENDBRANCH  19  20
ENDBRANCH   3  19
TORSDOF 6
ENDMDL
MODEL 2
REMARK VINA RESULT:      -6.9      2.198      3.283
REMARK  6 active torsions:
REMARK  status: ('A' for Active; 'I' for Inactive)
REMARK    1  A    between atoms: C_2  and  C_3 
REMARK    2  A    between atoms: C_5  and  N_6 
REMARK       I    between atoms: N_6  and  C_7 
REMARK       I    between atoms: C_7  and  N_8 
REMARK    3  A    between atoms: N_8  and  C_9 
REMARK    4  A    between atoms: C_9  and  C_10 
REMARK    5  A    between atoms: C_10  and  N_11 
REMARK    6  A    between atoms: C_18  and  O_19 
ROOT
HETATM    1  N   UNL     1      -4.237   1.727 -32.303  1.00  0.00    -0.306 N 
HETATM    2  C   UNL     1      -4.119   2.491 -31.180  1.00  0.00     0.320 C 
HETATM    3  N   UNL     1      -3.057   3.352 -31.168  1.00  0.00    -0.341 N 
HETATM    4  O   UNL     1      -4.848   2.465 -30.193  1.00  0.00    -0.247 OA
HETATM    5  H   UNL     1      -3.387   1.554 -32.827  1.00  0.00     0.171 HD
HETATM    6  H   UNL     1      -3.073   3.887 -30.307  1.00  0.00     0.164 HD
ENDROOT
BRANCH   1   7
HETATM    7  C   UNL     1      -5.312   0.887 -32.666  1.00  0.00     0.070 A 
HETATM    8  C   UNL     1      -6.647   1.304 -32.626  1.00  0.00     0.040 A 
HETATM    9  C   UNL     1      -7.701   0.460 -33.032  1.00  0.00    -0.048 A 
HETATM   10  C   UNL     1      -7.360  -0.826 -33.476  1.00  0.00     0.011 A 
HETATM   11  C   UNL     1      -6.026  -1.254 -33.525  1.00  0.00     0.039 A 
HETATM   12  C   UNL     1      -4.996  -0.402 -33.128  1.00  0.00     0.095 A 
BRANCH   9  13
HETATM   13  C   UNL     1      -9.152   0.974 -32.997  1.00  0.00    -0.024 C 
HETATM   14  C   UNL     1      -9.308   1.985 -31.840  1.00  0.00     0.019 C 
HETATM   15  C   UNL     1     -10.126  -0.205 -32.776  1.00  0.00     0.019 C 
HETATM   16  C   UNL     1      -9.591   1.690 -34.293  1.00  0.00     0.019 C 
ENDBRANCH   9  13
BRANCH  12  17
HETATM   17  O   UNL     1      -3.657  -0.717 -33.145  1.00  0.00    -0.354 OA
HETATM   18  C   UNL     1      -3.186  -1.582 -32.118  1.00  0.00     0.210 C 
ENDBRANCH  12  17
ENDBRANCH   1   7
BRANCH   3  19
HETATM   19  C   UNL     1      -2.486   4.022 -32.332  1.00  0.00     0.146 C 
BRANCH  19  20
HETATM   20  C   UNL     1      -2.221   5.500 -32.068  1.00  0.00     0.170 C 
BRANCH  20  21
HETATM   21  N   UNL     1      -1.205   5.692 -31.052  1.00  0.00    -0.278 N 
HETATM   22  N   UNL     1      -0.390   4.672 -30.717  1.00  0.00    -0.184 NA
HETATM   23  C   UNL     1       0.421   5.210 -29.798  1.00  0.00     0.164 A 
HETATM   24  C   UNL     1       0.116   6.557 -29.542  1.00  0.00     0.070 A 
HETATM   25 CL   UNL     1       0.902   7.583 -28.452  1.00  0.00    -0.081 Cl
HETATM   26  C   UNL     1      -0.945   6.844 -30.365  1.00  0.00     0.137 A 
ENDBRANCH  20  21
ENDBRANCH  19  20
ENDBRANCH   3  19
TORSDOF 6
ENDMDL
MODEL 3
REMARK VINA RESULT:      -6.7      3.588      7.222
REMARK  6 active torsions:
REMARK  status: ('A' for Active; 'I' for Inactive)
REMARK    1  A    between atoms: C_2  and  C_3 
REMARK    2  A    between atoms: C_5  and  N_6 
REMARK       I    between atoms: N_6  and  C_7 
REMARK       I    between atoms: C_7  and  N_8 
REMARK    3  A    between atoms: N_8  and  C_9 
REMARK    4  A    between atoms: C_9  and  C_10 
REMARK    5  A    between atoms: C_10  and  N_11 
REMARK    6  A    between atoms: C_18  and  O_19 
ROOT
HETATM    1  N   UNL     1      -4.097   1.341 -32.152  1.00  0.00    -0.306 N 
HETATM    2  C   UNL     1      -3.322   0.301 -31.733  1.00  0.00     0.320 C 
HETATM    3  N   UNL     1      -3.597  -0.905 -32.317  1.00  0.00    -0.341 N 
HETATM    4  O   UNL     1      -2.435   0.340 -30.887  1.00  0.00    -0.247 OA
HETATM    5  H   UNL     1      -5.012   1.108 -32.520  1.00  0.00     0.171 HD
HETATM    6  H   UNL     1      -2.955  -1.601 -31.957  1.00  0.00     0.164 HD
ENDROOT
BRANCH   1   7
HETATM    7  C   UNL     1      -3.933   2.713 -31.859  1.00  0.00     0.070 A 
HETATM    8  C   UNL     1      -2.950   3.505 -32.463  1.00  0.00     0.040 A 
HETATM    9  C   UNL     1      -2.832   4.882 -32.184  1.00  0.00    -0.048 A 
HETATM   10  C   UNL     1      -3.739   5.432 -31.267  1.00  0.00     0.011 A 
HETATM   11  C   UNL     1      -4.731   4.650 -30.659  1.00  0.00     0.039 A 
HETATM   12  C   UNL     1      -4.839   3.292 -30.954  1.00  0.00     0.095 A 
BRANCH   9  13
HETATM   13  C   UNL     1      -1.752   5.719 -32.895  1.00  0.00    -0.024 C 
HETATM   14  C   UNL     1      -1.553   5.182 -34.330  1.00  0.00     0.019 C 
HETATM   15  C   UNL     1      -0.416   5.622 -32.126  1.00  0.00     0.019 C 
HETATM   16  C   UNL     1      -2.103   7.218 -33.012  1.00  0.00     0.019 C 
ENDBRANCH   9  13
BRANCH  12  17
HETATM   17  O   UNL     1      -5.777   2.438 -30.422  1.00  0.00    -0.354 OA
HETATM   18  C   UNL     1      -6.992   3.020 -29.963  1.00  0.00     0.210 C 
ENDBRANCH  12  17
ENDBRANCH   1   7
BRANCH   3  19
HETATM   19  C   UNL     1      -4.066  -1.106 -33.684  1.00  0.00     0.146 C 
BRANCH  19  20
HETATM   20  C   UNL     1      -5.388  -1.864 -33.728  1.00  0.00     0.170 C 
BRANCH  20  21
HETATM   21  N   UNL     1      -6.519  -0.992 -33.484  1.00  0.00    -0.278 N 
HETATM   22  N   UNL     1      -6.696  -0.448 -32.263  1.00  0.00    -0.184 NA
HETATM   23  C   UNL     1      -7.791   0.307 -32.414  1.00  0.00     0.164 A 
HETATM   24  C   UNL     1      -8.313   0.234 -33.716  1.00  0.00     0.070 A 
HETATM   25 CL   UNL     1      -9.681   1.034 -34.304  1.00  0.00    -0.081 Cl
HETATM   26  C   UNL     1      -7.471  -0.618 -34.389  1.00  0.00     0.137 A 
ENDBRANCH  20  21
ENDBRANCH  19  20
ENDBRANCH   3  19
TORSDOF 6
ENDMDL
MODEL 4
REMARK VINA RESULT:      -6.7      2.234      3.401
REMARK  6 active torsions:
REMARK  status: ('A' for Active; 'I' for Inactive)
REMARK    1  A    between atoms: C_2  and  C_3 
REMARK    2  A    between atoms: C_5  and  N_6 
REMARK       I    between atoms: N_6  and  C_7 
REMARK       I    between atoms: C_7  and  N_8 
REMARK    3  A    between atoms: N_8  and  C_9 
REMARK    4  A    between atoms: C_9  and  C_10 
REMARK    5  A    between atoms: C_10  and  N_11 
REMARK    6  A    between atoms: C_18  and  O_19 
ROOT
HETATM    1  N   UNL     1      -4.555   1.484 -32.587  1.00  0.00    -0.306 N 
HETATM    2  C   UNL     1      -3.739   1.429 -31.497  1.00  0.00     0.320 C 
HETATM    3  N   UNL     1      -3.126   2.606 -31.165  1.00  0.00    -0.341 N 
HETATM    4  O   UNL     1      -3.491   0.441 -30.813  1.00  0.00    -0.247 OA
HETATM    5  H   UNL     1      -4.357   2.208 -33.268  1.00  0.00     0.171 HD
HETATM    6  H   UNL     1      -2.565   2.465 -30.334  1.00  0.00     0.164 HD
ENDROOT
BRANCH   1   7
HETATM    7  C   UNL     1      -5.437   0.486 -33.056  1.00  0.00     0.070 A 
HETATM    8  C   UNL     1      -4.993  -0.731 -33.584  1.00  0.00     0.040 A 
HETATM    9  C   UNL     1      -5.895  -1.729 -34.009  1.00  0.00    -0.048 A 
HETATM   10  C   UNL     1      -7.264  -1.452 -33.887  1.00  0.00     0.011 A 
HETATM   11  C   UNL     1      -7.721  -0.238 -33.355  1.00  0.00     0.039 A 
HETATM   12  C   UNL     1      -6.815   0.733 -32.931  1.00  0.00     0.095 A 
BRANCH   9  13
HETATM   13  C   UNL     1      -5.358  -3.064 -34.557  1.00  0.00    -0.024 C 
HETATM   14  C   UNL     1      -4.783  -2.841 -35.973  1.00  0.00     0.019 C 
HETATM   15  C   UNL     1      -6.498  -4.104 -34.629  1.00  0.00     0.019 C 
HETATM   16  C   UNL     1      -4.232  -3.682 -33.698  1.00  0.00     0.019 C 
ENDBRANCH   9  13
BRANCH  12  17
HETATM   17  O   UNL     1      -7.156   1.950 -32.389  1.00  0.00    -0.354 OA
HETATM   18  C   UNL     1      -7.903   2.837 -33.213  1.00  0.00     0.210 C 
ENDBRANCH  12  17
ENDBRANCH   1   7
BRANCH   3  19
HETATM   19  C   UNL     1      -3.686   3.941 -31.347  1.00  0.00     0.146 C 
BRANCH  19  20
HETATM   20  C   UNL     1      -2.716   4.875 -32.062  1.00  0.00     0.170 C 
BRANCH  20  21
HETATM   21  N   UNL     1      -1.635   5.298 -31.193  1.00  0.00    -0.278 N 
HETATM   22  N   UNL     1      -0.628   4.446 -30.911  1.00  0.00    -0.184 NA
HETATM   23  C   UNL     1       0.183   5.170 -30.131  1.00  0.00     0.164 A 
HETATM   24  C   UNL     1      -0.310   6.467 -29.908  1.00  0.00     0.070 A 
HETATM   25 CL   UNL     1       0.416   7.679 -28.981  1.00  0.00    -0.081 Cl
HETATM   26  C   UNL     1      -1.492   6.523 -30.606  1.00  0.00     0.137 A 
ENDBRANCH  20  21
ENDBRANCH  19  20
ENDBRANCH   3  19
TORSDOF 6
ENDMDL
MODEL 5
REMARK VINA RESULT:      -6.5      3.238      8.053
REMARK  6 active torsions:
REMARK  status: ('A' for Active; 'I' for Inactive)
REMARK    1  A    between atoms: C_2  and  C_3 
REMARK    2  A    between atoms: C_5  and  N_6 
REMARK       I    between atoms: N_6  and  C_7 
REMARK       I    between atoms: C_7  and  N_8 
REMARK    3  A    between atoms: N_8  and  C_9 
REMARK    4  A    between atoms: C_9  and  C_10 
REMARK    5  A    between atoms: C_10  and  N_11 
REMARK    6  A    between atoms: C_18  and  O_19 
ROOT
HETATM    1  N   UNL     1      -3.183   5.409 -30.674  1.00  0.00    -0.306 N 
HETATM    2  C   UNL     1      -4.353   6.011 -31.030  1.00  0.00     0.320 C 
HETATM    3  N   UNL     1      -5.468   5.226 -30.933  1.00  0.00    -0.341 N 
HETATM    4  O   UNL     1      -4.494   7.160 -31.439  1.00  0.00    -0.247 OA
HETATM    5  H   UNL     1      -3.149   4.400 -30.752  1.00  0.00     0.171 HD
HETATM    6  H   UNL     1      -6.281   5.770 -31.195  1.00  0.00     0.164 HD
ENDROOT
BRANCH   1   7
HETATM    7  C   UNL     1      -1.917   6.012 -30.511  1.00  0.00     0.070 A 
HETATM    8  C   UNL     1      -1.580   6.776 -29.388  1.00  0.00     0.040 A 
HETATM    9  C   UNL     1      -0.294   7.335 -29.229  1.00  0.00    -0.048 A 
HETATM   10  C   UNL     1       0.639   7.100 -30.249  1.00  0.00     0.011 A 
HETATM   11  C   UNL     1       0.315   6.333 -31.376  1.00  0.00     0.039 A 
HETATM   12  C   UNL     1      -0.958   5.780 -31.512  1.00  0.00     0.095 A 
BRANCH   9  13
HETATM   13  C   UNL     1       0.038   8.145 -27.962  1.00  0.00    -0.024 C 
HETATM   14  C   UNL     1      -0.225   7.272 -26.715  1.00  0.00     0.019 C 
HETATM   15  C   UNL     1      -0.847   9.409 -27.894  1.00  0.00     0.019 C 
HETATM   16  C   UNL     1       1.508   8.614 -27.891  1.00  0.00     0.019 C 
ENDBRANCH   9  13
BRANCH  12  17
HETATM   17  O   UNL     1      -1.376   5.007 -32.570  1.00  0.00    -0.354 OA
HETATM   18  C   UNL     1      -1.446   5.639 -33.842  1.00  0.00     0.210 C 
ENDBRANCH  12  17
ENDBRANCH   1   7
BRANCH   3  19
HETATM   19  C   UNL     1      -5.688   4.172 -29.947  1.00  0.00     0.146 C 
BRANCH  19  20
HETATM   20  C   UNL     1      -6.311   2.929 -30.571  1.00  0.00     0.170 C 
BRANCH  20  21
HETATM   21  N   UNL     1      -5.327   2.122 -31.265  1.00  0.00    -0.278 N 
HETATM   22  N   UNL     1      -4.017   2.425 -31.160  1.00  0.00    -0.184 NA
HETATM   23  C   UNL     1      -3.418   1.472 -31.885  1.00  0.00     0.164 A 
HETATM   24  C   UNL     1      -4.340   0.579 -32.456  1.00  0.00     0.070 A 
HETATM   25 CL   UNL     1      -3.985  -0.752 -33.435  1.00  0.00    -0.081 Cl
HETATM   26  C   UNL     1      -5.571   1.025 -32.041  1.00  0.00     0.137 A 
ENDBRANCH  20  21
ENDBRANCH  19  20
ENDBRANCH   3  19
TORSDOF 6
ENDMDL
MODEL 6
REMARK VINA RESULT:      -6.4      3.549      8.180
REMARK  6 active torsions:
REMARK  status: ('A' for Active; 'I' for Inactive)
REMARK    1  A    between atoms: C_2  and  C_3 
REMARK    2  A    between atoms: C_5  and  N_6 
REMARK       I    between atoms: N_6  and  C_7 
REMARK       I    between atoms: C_7  and  N_8 
REMARK    3  A    between atoms: N_8  and  C_9 
REMARK    4  A    between atoms: C_9  and  C_10 
REMARK    5  A    between atoms: C_10  and  N_11 
REMARK    6  A    between atoms: C_18  and  O_19 
ROOT
HETATM    1  N   UNL     1      -3.710   3.755 -32.000  1.00  0.00    -0.306 N 
HETATM    2  C   UNL     1      -3.679   2.440 -31.645  1.00  0.00     0.320 C 
HETATM    3  N   UNL     1      -4.821   1.736 -31.909  1.00  0.00    -0.341 N 
HETATM    4  O   UNL     1      -2.751   1.845 -31.104  1.00  0.00    -0.247 OA
HETATM    5  H   UNL     1      -4.622   4.193 -32.046  1.00  0.00     0.171 HD
HETATM    6  H   UNL     1      -4.688   0.771 -31.631  1.00  0.00     0.164 HD
ENDROOT
BRANCH   1   7
HETATM    7  C   UNL     1      -2.636   4.673 -32.006  1.00  0.00     0.070 A 
HETATM    8  C   UNL     1      -2.051   5.163 -30.833  1.00  0.00     0.040 A 
HETATM    9  C   UNL     1      -0.953   6.048 -30.864  1.00  0.00    -0.048 A 
HETATM   10  C   UNL     1      -0.469   6.426 -32.125  1.00  0.00     0.011 A 
HETATM   11  C   UNL     1      -1.044   5.938 -33.307  1.00  0.00     0.039 A 
HETATM   12  C   UNL     1      -2.123   5.057 -33.256  1.00  0.00     0.095 A 
BRANCH   9  13
HETATM   13  C   UNL     1      -0.324   6.537 -29.547  1.00  0.00    -0.024 C 
HETATM   14  C   UNL     1      -1.445   6.985 -28.582  1.00  0.00     0.019 C 
HETATM   15  C   UNL     1       0.618   7.730 -29.821  1.00  0.00     0.019 C 
HETATM   16  C   UNL     1       0.506   5.460 -28.815  1.00  0.00     0.019 C 
ENDBRANCH   9  13
BRANCH  12  17
HETATM   17  O   UNL     1      -2.753   4.514 -34.351  1.00  0.00    -0.354 OA
HETATM   18  C   UNL     1      -3.556   5.390 -35.134  1.00  0.00     0.210 C 
ENDBRANCH  12  17
ENDBRANCH   1   7
BRANCH   3  19
HETATM   19  C   UNL     1      -5.726   1.966 -33.030  1.00  0.00     0.146 C 
BRANCH  19  20
HETATM   20  C   UNL     1      -6.868   0.956 -33.059  1.00  0.00     0.170 C 
BRANCH  20  21
HETATM   21  N   UNL     1      -6.440  -0.328 -33.577  1.00  0.00    -0.278 N 
HETATM   22  N   UNL     1      -5.124  -0.611 -33.664  1.00  0.00    -0.184 NA
HETATM   23  C   UNL     1      -5.105  -1.862 -34.139  1.00  0.00     0.164 A 
HETATM   24  C   UNL     1      -6.397  -2.365 -34.365  1.00  0.00     0.070 A 
HETATM   25 CL   UNL     1      -6.796  -3.895 -34.961  1.00  0.00    -0.081 Cl
HETATM   26  C   UNL     1      -7.244  -1.349 -33.995  1.00  0.00     0.137 A 
ENDBRANCH  20  21
ENDBRANCH  19  20
ENDBRANCH   3  19
TORSDOF 6
ENDMDL
MODEL 7
REMARK VINA RESULT:      -6.4      2.914      4.319
REMARK  6 active torsions:
REMARK  status: ('A' for Active; 'I' for Inactive)
REMARK    1  A    between atoms: C_2  and  C_3 
REMARK    2  A    between atoms: C_5  and  N_6 
REMARK       I    between atoms: N_6  and  C_7 
REMARK       I    between atoms: C_7  and  N_8 
REMARK    3  A    between atoms: N_8  and  C_9 
REMARK    4  A    between atoms: C_9  and  C_10 
REMARK    5  A    between atoms: C_10  and  N_11 
REMARK    6  A    between atoms: C_18  and  O_19 
ROOT
HETATM    1  N   UNL     1      -4.182   1.865 -32.391  1.00  0.00    -0.306 N 
HETATM    2  C   UNL     1      -4.046   2.668 -31.298  1.00  0.00     0.320 C 
HETATM    3  N   UNL     1      -2.997   3.543 -31.343  1.00  0.00    -0.341 N 
HETATM    4  O   UNL     1      -4.748   2.665 -30.292  1.00  0.00    -0.247 OA
HETATM    5  H   UNL     1      -3.344   1.687 -32.932  1.00  0.00     0.171 HD
HETATM    6  H   UNL     1      -2.997   4.106 -30.500  1.00  0.00     0.164 HD
ENDROOT
BRANCH   1   7
HETATM    7  C   UNL     1      -5.254   0.999 -32.698  1.00  0.00     0.070 A 
HETATM    8  C   UNL     1      -6.591   1.412 -32.682  1.00  0.00     0.040 A 
HETATM    9  C   UNL     1      -7.642   0.539 -33.031  1.00  0.00    -0.048 A 
HETATM   10  C   UNL     1      -7.296  -0.771 -33.393  1.00  0.00     0.011 A 
HETATM   11  C   UNL     1      -5.960  -1.195 -33.417  1.00  0.00     0.039 A 
HETATM   12  C   UNL     1      -4.933  -0.315 -33.078  1.00  0.00     0.095 A 
BRANCH   9  13
HETATM   13  C   UNL     1      -9.095   1.048 -33.025  1.00  0.00    -0.024 C 
HETATM   14  C   UNL     1     -10.051  -0.137 -32.761  1.00  0.00     0.019 C 
HETATM   15  C   UNL     1      -9.439   1.683 -34.391  1.00  0.00     0.019 C 
HETATM   16  C   UNL     1      -9.378   2.113 -31.943  1.00  0.00     0.019 C 
ENDBRANCH   9  13
BRANCH  12  17
HETATM   17  O   UNL     1      -3.593  -0.625 -33.077  1.00  0.00    -0.354 OA
HETATM   18  C   UNL     1      -3.142  -1.533 -32.079  1.00  0.00     0.210 C 
ENDBRANCH  12  17
ENDBRANCH   1   7
BRANCH   3  19
HETATM   19  C   UNL     1      -2.466   4.182 -32.543  1.00  0.00     0.146 C 
BRANCH  19  20
HETATM   20  C   UNL     1      -3.054   5.571 -32.758  1.00  0.00     0.170 C 
BRANCH  20  21
HETATM   21  N   UNL     1      -4.503   5.558 -32.706  1.00  0.00    -0.278 N 
HETATM   22  N   UNL     1      -5.138   6.004 -31.603  1.00  0.00    -0.184 NA
HETATM   23  C   UNL     1      -6.433   5.879 -31.917  1.00  0.00     0.164 A 
HETATM   24  C   UNL     1      -6.620   5.346 -33.204  1.00  0.00     0.070 A 
HETATM   25 CL   UNL     1      -8.096   5.035 -33.965  1.00  0.00    -0.081 Cl
HETATM   26  C   UNL     1      -5.352   5.144 -33.693  1.00  0.00     0.137 A 
ENDBRANCH  20  21
ENDBRANCH  19  20
ENDBRANCH   3  19
TORSDOF 6
ENDMDL
MODEL 8
REMARK VINA RESULT:      -6.4      1.806      2.303
REMARK  6 active torsions:
REMARK  status: ('A' for Active; 'I' for Inactive)
REMARK    1  A    between atoms: C_2  and  C_3 
REMARK    2  A    between atoms: C_5  and  N_6 
REMARK       I    between atoms: N_6  and  C_7 
REMARK       I    between atoms: C_7  and  N_8 
REMARK    3  A    between atoms: N_8  and  C_9 
REMARK    4  A    between atoms: C_9  and  C_10 
REMARK    5  A    between atoms: C_10  and  N_11 
REMARK    6  A    between atoms: C_18  and  O_19 
ROOT
HETATM    1  N   UNL     1      -3.684   5.019 -32.882  1.00  0.00    -0.306 N 
HETATM    2  C   UNL     1      -3.810   5.416 -34.180  1.00  0.00     0.320 C 
HETATM    3  N   UNL     1      -2.760   6.139 -34.675  1.00  0.00    -0.341 N 
HETATM    4  O   UNL     1      -4.763   5.208 -34.924  1.00  0.00    -0.247 OA
HETATM    5  H   UNL     1      -3.079   5.578 -32.292  1.00  0.00     0.171 HD
HETATM    6  H   UNL     1      -2.939   6.363 -35.646  1.00  0.00     0.164 HD
ENDROOT
BRANCH   1   7
HETATM    7  C   UNL     1      -4.517   4.131 -32.167  1.00  0.00     0.070 A 
HETATM    8  C   UNL     1      -4.436   2.740 -32.304  1.00  0.00     0.040 A 
HETATM    9  C   UNL     1      -5.251   1.871 -31.549  1.00  0.00    -0.048 A 
HETATM   10  C   UNL     1      -6.156   2.457 -30.652  1.00  0.00     0.011 A 
HETATM   11  C   UNL     1      -6.242   3.848 -30.502  1.00  0.00     0.039 A 
HETATM   12  C   UNL     1      -5.422   4.691 -31.250  1.00  0.00     0.095 A 
BRANCH   9  13
HETATM   13  C   UNL     1      -5.106   0.347 -31.714  1.00  0.00    -0.024 C 
HETATM   14  C   UNL     1      -3.811  -0.122 -31.014  1.00  0.00     0.019 C 
HETATM   15  C   UNL     1      -5.034  -0.018 -33.214  1.00  0.00     0.019 C 
HETATM   16  C   UNL     1      -6.273  -0.459 -31.105  1.00  0.00     0.019 C 
ENDBRANCH   9  13
BRANCH  12  17
HETATM   17  O   UNL     1      -5.420   6.064 -31.175  1.00  0.00    -0.354 OA
HETATM   18  C   UNL     1      -5.450   6.639 -29.874  1.00  0.00     0.210 C 
ENDBRANCH  12  17
ENDBRANCH   1   7
BRANCH   3  19
HETATM   19  C   UNL     1      -1.359   5.977 -34.299  1.00  0.00     0.146 C 
BRANCH  19  20
HETATM   20  C   UNL     1      -0.851   7.151 -33.469  1.00  0.00     0.170 C 
BRANCH  20  21
HETATM   21  N   UNL     1      -0.867   6.854 -32.050  1.00  0.00    -0.278 N 
HETATM   22  N   UNL     1      -2.033   6.872 -31.373  1.00  0.00    -0.184 NA
HETATM   23  C   UNL     1      -1.678   6.526 -30.130  1.00  0.00     0.164 A 
HETATM   24  C   UNL     1      -0.296   6.303 -30.014  1.00  0.00     0.070 A 
HETATM   25 CL   UNL     1       0.542   5.853 -28.617  1.00  0.00    -0.081 Cl
HETATM   26  C   UNL     1       0.208   6.525 -31.273  1.00  0.00     0.137 A 
ENDBRANCH  20  21
ENDBRANCH  19  20
ENDBRANCH   3  19
TORSDOF 6
ENDMDL
MODEL 9
REMARK VINA RESULT:      -6.4      3.488      8.326
REMARK  6 active torsions:
REMARK  status: ('A' for Active; 'I' for Inactive)
REMARK    1  A    between atoms: C_2  and  C_3 
REMARK    2  A    between atoms: C_5  and  N_6 
REMARK       I    between atoms: N_6  and  C_7 
REMARK       I    between atoms: C_7  and  N_8 
REMARK    3  A    between atoms: N_8  and  C_9 
REMARK    4  A    between atoms: C_9  and  C_10 
REMARK    5  A    between atoms: C_10  and  N_11 
REMARK    6  A    between atoms: C_18  and  O_19 
ROOT
HETATM    1  N   UNL     1      -2.606   4.413 -31.272  1.00  0.00    -0.306 N 
HETATM    2  C   UNL     1      -3.925   4.635 -31.536  1.00  0.00     0.320 C 
HETATM    3  N   UNL     1      -4.720   3.523 -31.523  1.00  0.00    -0.341 N 
HETATM    4  O   UNL     1      -4.451   5.713 -31.797  1.00  0.00    -0.247 OA
HETATM    5  H   UNL     1      -2.252   3.486 -31.476  1.00  0.00     0.171 HD
HETATM    6  H   UNL     1      -5.678   3.797 -31.705  1.00  0.00     0.164 HD
ENDROOT
BRANCH   1   7
HETATM    7  C   UNL     1      -1.596   5.374 -31.052  1.00  0.00     0.070 A 
HETATM    8  C   UNL     1      -1.383   5.979 -29.807  1.00  0.00     0.040 A 
HETATM    9  C   UNL     1      -0.341   6.907 -29.602  1.00  0.00    -0.048 A 
HETATM   10  C   UNL     1       0.477   7.208 -30.700  1.00  0.00     0.011 A 
HETATM   11  C   UNL     1       0.277   6.605 -31.950  1.00  0.00     0.039 A 
HETATM   12  C   UNL     1      -0.752   5.683 -32.132  1.00  0.00     0.095 A 
BRANCH   9  13
HETATM   13  C   UNL     1      -0.129   7.524 -28.207  1.00  0.00    -0.024 C 
HETATM   14  C   UNL     1      -1.256   8.542 -27.923  1.00  0.00     0.019 C 
HETATM   15  C   UNL     1       1.235   8.246 -28.150  1.00  0.00     0.019 C 
HETATM   16  C   UNL     1      -0.146   6.491 -27.060  1.00  0.00     0.019 C 
ENDBRANCH   9  13
BRANCH  12  17
HETATM   17  O   UNL     1      -1.029   5.029 -33.310  1.00  0.00    -0.354 OA
HETATM   18  C   UNL     1      -1.431   5.831 -34.414  1.00  0.00     0.210 C 
ENDBRANCH  12  17
ENDBRANCH   1   7
BRANCH   3  19
HETATM   19  C   UNL     1      -4.535   2.350 -30.674  1.00  0.00     0.146 C 
BRANCH  19  20
HETATM   20  C   UNL     1      -5.737   1.414 -30.725  1.00  0.00     0.170 C 
BRANCH  20  21
HETATM   21  N   UNL     1      -5.687   0.535 -31.877  1.00  0.00    -0.278 N 
HETATM   22  N   UNL     1      -4.548   0.429 -32.591  1.00  0.00    -0.184 NA
HETATM   23  C   UNL     1      -4.854  -0.472 -33.532  1.00  0.00     0.164 A 
HETATM   24  C   UNL     1      -6.179  -0.925 -33.425  1.00  0.00     0.070 A 
HETATM   25 CL   UNL     1      -6.944  -2.057 -34.421  1.00  0.00    -0.081 Cl
HETATM   26  C   UNL     1      -6.699  -0.254 -32.345  1.00  0.00     0.137 A 
ENDBRANCH  20  21
ENDBRANCH  19  20
ENDBRANCH   3  19
TORSDOF 6
ENDMDL
MODEL 10
REMARK VINA RESULT:      -6.3      2.521      4.539
REMARK  6 active torsions:
REMARK  status: ('A' for Active; 'I' for Inactive)
REMARK    1  A    between atoms: C_2  and  C_3 
REMARK    2  A    between atoms: C_5  and  N_6 
REMARK       I    between atoms: N_6  and  C_7 
REMARK       I    between atoms: C_7  and  N_8 
REMARK    3  A    between atoms: N_8  and  C_9 
REMARK    4  A    between atoms: C_9  and  C_10 
REMARK    5  A    between atoms: C_10  and  N_11 
REMARK    6  A    between atoms: C_18  and  O_19 
ROOT
HETATM    1  N   UNL     1      -6.215   1.584 -31.823  1.00  0.00    -0.306 N 
HETATM    2  C   UNL     1      -6.227   1.259 -30.499  1.00  0.00     0.320 C 
HETATM    3  N   UNL     1      -6.014   2.300 -29.639  1.00  0.00    -0.341 N 
HETATM    4  O   UNL     1      -6.388   0.141 -30.018  1.00  0.00    -0.247 OA
HETATM    5  H   UNL     1      -5.688   2.409 -32.083  1.00  0.00     0.171 HD
HETATM    6  H   UNL     1      -6.066   1.960 -28.686  1.00  0.00     0.164 HD
ENDROOT
BRANCH   1   7
HETATM    7  C   UNL     1      -6.570   0.765 -32.916  1.00  0.00     0.070 A 
HETATM    8  C   UNL     1      -5.940  -0.456 -33.184  1.00  0.00     0.040 A 
HETATM    9  C   UNL     1      -6.339  -1.277 -34.260  1.00  0.00    -0.048 A 
HETATM   10  C   UNL     1      -7.396  -0.819 -35.060  1.00  0.00     0.011 A 
HETATM   11  C   UNL     1      -8.038   0.400 -34.798  1.00  0.00     0.039 A 
HETATM   12  C   UNL     1      -7.636   1.194 -33.725  1.00  0.00     0.095 A 
BRANCH   9  13
HETATM   13  C   UNL     1      -5.634  -2.625 -34.498  1.00  0.00    -0.024 C 
HETATM   14  C   UNL     1      -6.671  -3.766 -34.408  1.00  0.00     0.019 C 
HETATM   15  C   UNL     1      -4.540  -2.846 -33.431  1.00  0.00     0.019 C 
HETATM   16  C   UNL     1      -4.952  -2.735 -35.879  1.00  0.00     0.019 C 
ENDBRANCH   9  13
BRANCH  12  17
HETATM   17  O   UNL     1      -8.201   2.398 -33.376  1.00  0.00    -0.354 OA
HETATM   18  C   UNL     1      -9.324   2.828 -34.137  1.00  0.00     0.210 C 
ENDBRANCH  12  17
ENDBRANCH   1   7
BRANCH   3  19
HETATM   19  C   UNL     1      -6.427   3.683 -29.852  1.00  0.00     0.146 C 
BRANCH  19  20
HETATM   20  C   UNL     1      -5.234   4.627 -29.949  1.00  0.00     0.170 C 
BRANCH  20  21
HETATM   21  N   UNL     1      -4.611   4.578 -31.256  1.00  0.00    -0.278 N 
HETATM   22  N   UNL     1      -5.361   4.319 -32.347  1.00  0.00    -0.184 NA
HETATM   23  C   UNL     1      -4.480   4.385 -33.353  1.00  0.00     0.164 A 
HETATM   24  C   UNL     1      -3.179   4.670 -32.904  1.00  0.00     0.070 A 
HETATM   25 CL   UNL     1      -1.794   4.833 -33.858  1.00  0.00    -0.081 Cl
HETATM   26  C   UNL     1      -3.291   4.787 -31.540  1.00  0.00     0.137 A 
ENDBRANCH  20  21
ENDBRANCH  19  20
ENDBRANCH   3  19
TORSDOF 6
ENDMDL
