MODEL 1
REMARK VINA RESULT:      -8.1      0.000      0.000
REMARK  9 active torsions:
REMARK  status: ('A' for Active; 'I' for Inactive)
REMARK    1  A    between atoms: C_2  and  N_3 
REMARK    2  A    between atoms: C_2  and  C_23 
REMARK       I    between atoms: N_3  and  C_4 
REMARK       I    between atoms: C_4  and  N_5 
REMARK    3  A    between atoms: N_5  and  C_6 
REMARK    4  A    between atoms: C_6  and  C_7 
REMARK    5  A    between atoms: C_7  and  N_8 
REMARK    6  A    between atoms: C_7  and  C_14 
REMARK    7  A    between atoms: C_15  and  O_16 
REMARK    8  A    between atoms: C_23  and  C_24 
REMARK    9  A    between atoms: C_27  and  O_28 
ROOT
HETATM    1  N   UNL     1      -5.129  -0.084 -31.316  1.00  0.00    -0.339 N 
HETATM    2  C   UNL     1      -6.462   0.029 -31.147  1.00  0.00     0.316 C 
HETATM    3  N   UNL     1      -7.183   0.400 -32.239  1.00  0.00    -0.341 N 
HETATM    4  O   UNL     1      -7.005  -0.268 -30.085  1.00  0.00    -0.248 OA
HETATM    5  H   UNL     1      -4.634  -0.323 -30.463  1.00  0.00     0.164 HD
HETATM    6  H   UNL     1      -6.684   1.033 -32.853  1.00  0.00     0.164 HD
ENDROOT
BRANCH   3   7
HETATM    7  C   UNL     1      -8.614   0.639 -32.123  1.00  0.00     0.162 C 
BRANCH   7   8
HETATM    8  C   UNL     1      -9.191   1.887 -32.879  1.00  0.00     0.241 C 
BRANCH   8   9
HETATM    9  N   UNL     1      -9.109   3.166 -32.032  1.00  0.00    -0.061 N 
HETATM   10  H   UNL     1      -9.949   3.716 -32.302  1.00  0.00     0.280 HD
HETATM   11  C   UNL     1      -7.950   4.107 -32.253  1.00  0.00     0.236 C 
HETATM   12  C   UNL     1      -6.974   3.755 -31.154  1.00  0.00     0.029 C 
HETATM   13  C   UNL     1      -7.872   3.473 -29.966  1.00  0.00     0.029 C 
HETATM   14  C   UNL     1      -9.170   2.926 -30.542  1.00  0.00     0.236 C 
ENDBRANCH   8   9
BRANCH   8  15
HETATM   15  C   UNL     1     -10.533   1.621 -33.551  1.00  0.00     0.007 A 
HETATM   16  C   UNL     1     -11.010   2.478 -34.566  1.00  0.00     0.076 A 
HETATM   17  C   UNL     1     -12.257   2.241 -35.156  1.00  0.00     0.037 A 
HETATM   18  C   UNL     1     -13.024   1.142 -34.773  1.00  0.00     0.003 A 
HETATM   19  C   UNL     1     -12.553   0.273 -33.797  1.00  0.00     0.001 A 
HETATM   20  C   UNL     1     -11.318   0.507 -33.194  1.00  0.00     0.012 A 
BRANCH  16  21
HETATM   21  O   UNL     1     -10.204   3.535 -34.902  1.00  0.00    -0.355 OA
HETATM   22  C   UNL     1     -10.842   4.806 -35.028  1.00  0.00     0.210 C 
ENDBRANCH  16  21
ENDBRANCH   8  15
ENDBRANCH   7   8
ENDBRANCH   3   7
BRANCH   1  23
HETATM   23  C   UNL     1      -4.349  -0.056 -32.559  1.00  0.00     0.086 C 
HETATM   24  C   UNL     1      -3.392   1.132 -32.538  1.00  0.00     0.032 C 
BRANCH  23  25
HETATM   25  C   UNL     1      -3.581  -1.378 -32.763  1.00  0.00     0.063 C 
BRANCH  25  26
HETATM   26  C   UNL     1      -4.391  -2.395 -33.539  1.00  0.00    -0.056 A 
HETATM   27  C   UNL     1      -5.596  -2.027 -34.155  1.00  0.00     0.010 A 
HETATM   28  C   UNL     1      -6.356  -2.974 -34.848  1.00  0.00     0.037 A 
HETATM   29  C   UNL     1      -5.912  -4.289 -34.915  1.00  0.00     0.065 A 
HETATM   30  C   UNL     1      -4.723  -4.674 -34.310  1.00  0.00     0.037 A 
HETATM   31  C   UNL     1      -3.958  -3.727 -33.627  1.00  0.00     0.010 A 
BRANCH  29  32
HETATM   32  O   UNL     1      -6.630  -5.246 -35.566  1.00  0.00    -0.361 OA
HETATM   33  H   UNL     1      -6.053  -6.013 -35.724  1.00  0.00     0.217 HD
ENDBRANCH  29  32
ENDBRANCH  25  26
ENDBRANCH  23  25
ENDBRANCH   1  23
TORSDOF 9
ENDMDL
MODEL 2
REMARK VINA RESULT:      -8.0      3.367      6.186
REMARK  9 active torsions:
REMARK  status: ('A' for Active; 'I' for Inactive)
REMARK    1  A    between atoms: C_2  and  N_3 
REMARK    2  A    between atoms: C_2  and  C_23 
REMARK       I    between atoms: N_3  and  C_4 
REMARK       I    between atoms: C_4  and  N_5 
REMARK    3  A    between atoms: N_5  and  C_6 
REMARK    4  A    between atoms: C_6  and  C_7 
REMARK    5  A    between atoms: C_7  and  N_8 
REMARK    6  A    between atoms: C_7  and  C_14 
REMARK    7  A    between atoms: C_15  and  O_16 
REMARK    8  A    between atoms: C_23  and  C_24 
REMARK    9  A    between atoms: C_27  and  O_28 
ROOT
HETATM    1  N   UNL     1      -7.367   1.481 -33.939  1.00  0.00    -0.339 N 
HETATM    2  C   UNL     1      -7.131   2.696 -33.403  1.00  0.00     0.316 C 
HETATM    3  N   UNL     1      -6.176   2.758 -32.438  1.00  0.00    -0.341 N 
HETATM    4  O   UNL     1      -7.692   3.706 -33.824  1.00  0.00    -0.248 OA
HETATM    5  H   UNL     1      -8.116   1.481 -34.624  1.00  0.00     0.164 HD
HETATM    6  H   UNL     1      -6.128   1.923 -31.866  1.00  0.00     0.164 HD
ENDROOT
BRANCH   3   7
HETATM    7  C   UNL     1      -5.924   4.010 -31.739  1.00  0.00     0.162 C 
BRANCH   7   8
HETATM    8  C   UNL     1      -4.431   4.345 -31.395  1.00  0.00     0.241 C 
BRANCH   8   9
HETATM    9  N   UNL     1      -4.312   5.318 -30.212  1.00  0.00    -0.061 N 
HETATM   10  H   UNL     1      -3.501   4.969 -29.663  1.00  0.00     0.280 HD
HETATM   11  C   UNL     1      -5.445   5.388 -29.218  1.00  0.00     0.236 C 
HETATM   12  C   UNL     1      -6.246   6.593 -29.655  1.00  0.00     0.029 C 
HETATM   13  C   UNL     1      -5.183   7.581 -30.090  1.00  0.00     0.029 C 
HETATM   14  C   UNL     1      -4.022   6.745 -30.613  1.00  0.00     0.236 C 
ENDBRANCH   8   9
BRANCH   8  15
HETATM   15  C   UNL     1      -3.589   4.685 -32.620  1.00  0.00     0.007 A 
HETATM   16  C   UNL     1      -2.180   4.618 -32.565  1.00  0.00     0.076 A 
HETATM   17  C   UNL     1      -1.416   4.960 -33.686  1.00  0.00     0.037 A 
HETATM   18  C   UNL     1      -2.036   5.339 -34.876  1.00  0.00     0.003 A 
HETATM   19  C   UNL     1      -3.422   5.379 -34.955  1.00  0.00     0.001 A 
HETATM   20  C   UNL     1      -4.192   5.053 -33.839  1.00  0.00     0.012 A 
BRANCH  16  21
HETATM   21  O   UNL     1      -1.634   4.231 -31.369  1.00  0.00    -0.355 OA
HETATM   22  C   UNL     1      -0.629   5.086 -30.823  1.00  0.00     0.210 C 
ENDBRANCH  16  21
ENDBRANCH   8  15
ENDBRANCH   7   8
ENDBRANCH   3   7
BRANCH   1  23
HETATM   23  C   UNL     1      -6.609   0.235 -33.775  1.00  0.00     0.086 C 
HETATM   24  C   UNL     1      -7.048  -0.469 -32.496  1.00  0.00     0.032 C 
BRANCH  23  25
HETATM   25  C   UNL     1      -6.785  -0.687 -34.999  1.00  0.00     0.063 C 
BRANCH  25  26
HETATM   26  C   UNL     1      -6.165  -2.051 -34.781  1.00  0.00    -0.056 A 
HETATM   27  C   UNL     1      -4.804  -2.174 -34.467  1.00  0.00     0.010 A 
HETATM   28  C   UNL     1      -4.228  -3.435 -34.292  1.00  0.00     0.037 A 
HETATM   29  C   UNL     1      -5.013  -4.572 -34.442  1.00  0.00     0.065 A 
HETATM   30  C   UNL     1      -6.362  -4.471 -34.756  1.00  0.00     0.037 A 
HETATM   31  C   UNL     1      -6.941  -3.212 -34.919  1.00  0.00     0.010 A 
BRANCH  29  32
HETATM   32  O   UNL     1      -4.488  -5.820 -34.297  1.00  0.00    -0.361 OA
HETATM   33  H   UNL     1      -5.213  -6.467 -34.332  1.00  0.00     0.217 HD
ENDBRANCH  29  32
ENDBRANCH  25  26
ENDBRANCH  23  25
ENDBRANCH   1  23
TORSDOF 9
ENDMDL
MODEL 3
REMARK VINA RESULT:      -7.9      3.238      6.168
REMARK  9 active torsions:
REMARK  status: ('A' for Active; 'I' for Inactive)
REMARK    1  A    between atoms: C_2  and  N_3 
REMARK    2  A    between atoms: C_2  and  C_23 
REMARK       I    between atoms: N_3  and  C_4 
REMARK       I    between atoms: C_4  and  N_5 
REMARK    3  A    between atoms: N_5  and  C_6 
REMARK    4  A    between atoms: C_6  and  C_7 
REMARK    5  A    between atoms: C_7  and  N_8 
REMARK    6  A    between atoms: C_7  and  C_14 
REMARK    7  A    between atoms: C_15  and  O_16 
REMARK    8  A    between atoms: C_23  and  C_24 
REMARK    9  A    between atoms: C_27  and  O_28 
ROOT
HETATM    1  N   UNL     1      -6.166  -0.347 -31.750  1.00  0.00    -0.339 N 
HETATM    2  C   UNL     1      -5.068   0.346 -31.384  1.00  0.00     0.316 C 
HETATM    3  N   UNL     1      -4.589   1.244 -32.285  1.00  0.00    -0.341 N 
HETATM    4  O   UNL     1      -4.578   0.230 -30.262  1.00  0.00    -0.248 OA
HETATM    5  H   UNL     1      -6.459  -1.031 -31.061  1.00  0.00     0.164 HD
HETATM    6  H   UNL     1      -4.721   0.957 -33.247  1.00  0.00     0.164 HD
ENDROOT
BRANCH   3   7
HETATM    7  C   UNL     1      -3.354   1.965 -32.011  1.00  0.00     0.162 C 
BRANCH   7   8
HETATM    8  C   UNL     1      -3.482   3.489 -31.661  1.00  0.00     0.241 C 
BRANCH   8   9
HETATM    9  N   UNL     1      -4.941   3.912 -31.436  1.00  0.00    -0.061 N 
HETATM   10  H   UNL     1      -5.501   3.234 -31.992  1.00  0.00     0.280 HD
HETATM   11  C   UNL     1      -5.385   5.268 -31.928  1.00  0.00     0.236 C 
HETATM   12  C   UNL     1      -5.326   6.143 -30.697  1.00  0.00     0.029 C 
HETATM   13  C   UNL     1      -5.812   5.228 -29.592  1.00  0.00     0.029 C 
HETATM   14  C   UNL     1      -5.396   3.821 -29.998  1.00  0.00     0.236 C 
ENDBRANCH   8   9
BRANCH   8  15
HETATM   15  C   UNL     1      -2.663   4.391 -32.577  1.00  0.00     0.007 A 
HETATM   16  C   UNL     1      -1.800   5.370 -32.037  1.00  0.00     0.076 A 
HETATM   17  C   UNL     1      -1.075   6.213 -32.887  1.00  0.00     0.037 A 
HETATM   18  C   UNL     1      -1.171   6.075 -34.271  1.00  0.00     0.003 A 
HETATM   19  C   UNL     1      -1.992   5.096 -34.816  1.00  0.00     0.001 A 
HETATM   20  C   UNL     1      -2.729   4.259 -33.978  1.00  0.00     0.012 A 
BRANCH  16  21
HETATM   21  O   UNL     1      -1.746   5.449 -30.670  1.00  0.00    -0.355 OA
HETATM   22  C   UNL     1      -1.715   6.761 -30.109  1.00  0.00     0.210 C 
ENDBRANCH  16  21
ENDBRANCH   8  15
ENDBRANCH   7   8
ENDBRANCH   3   7
BRANCH   1  23
HETATM   23  C   UNL     1      -7.045  -0.140 -32.907  1.00  0.00     0.086 C 
HETATM   24  C   UNL     1      -7.603   1.279 -32.882  1.00  0.00     0.032 C 
BRANCH  23  25
HETATM   25  C   UNL     1      -6.297  -0.414 -34.228  1.00  0.00     0.063 C 
BRANCH  25  26
HETATM   26  C   UNL     1      -5.900  -1.869 -34.368  1.00  0.00    -0.056 A 
HETATM   27  C   UNL     1      -6.856  -2.841 -34.695  1.00  0.00     0.010 A 
HETATM   28  C   UNL     1      -6.492  -4.187 -34.797  1.00  0.00     0.037 A 
HETATM   29  C   UNL     1      -5.173  -4.557 -34.563  1.00  0.00     0.065 A 
HETATM   30  C   UNL     1      -4.212  -3.610 -34.236  1.00  0.00     0.037 A 
HETATM   31  C   UNL     1      -4.572  -2.265 -34.145  1.00  0.00     0.010 A 
BRANCH  29  32
HETATM   32  O   UNL     1      -4.780  -5.860 -34.636  1.00  0.00    -0.361 OA
HETATM   33  H   UNL     1      -3.892  -5.893 -35.031  1.00  0.00     0.217 HD
ENDBRANCH  29  32
ENDBRANCH  25  26
ENDBRANCH  23  25
ENDBRANCH   1  23
TORSDOF 9
ENDMDL
MODEL 4
REMARK VINA RESULT:      -7.8      3.174      5.738
REMARK  9 active torsions:
REMARK  status: ('A' for Active; 'I' for Inactive)
REMARK    1  A    between atoms: C_2  and  N_3 
REMARK    2  A    between atoms: C_2  and  C_23 
REMARK       I    between atoms: N_3  and  C_4 
REMARK       I    between atoms: C_4  and  N_5 
REMARK    3  A    between atoms: N_5  and  C_6 
REMARK    4  A    between atoms: C_6  and  C_7 
REMARK    5  A    between atoms: C_7  and  N_8 
REMARK    6  A    between atoms: C_7  and  C_14 
REMARK    7  A    between atoms: C_15  and  O_16 
REMARK    8  A    between atoms: C_23  and  C_24 
REMARK    9  A    between atoms: C_27  and  O_28 
ROOT
HETATM    1  N   UNL     1      -7.276   1.662 -33.511  1.00  0.00    -0.339 N 
HETATM    2  C   UNL     1      -6.924   2.928 -33.817  1.00  0.00     0.316 C 
HETATM    3  N   UNL     1      -5.595   3.164 -33.982  1.00  0.00    -0.341 N 
HETATM    4  O   UNL     1      -7.766   3.800 -34.017  1.00  0.00    -0.248 OA
HETATM    5  H   UNL     1      -8.272   1.547 -33.359  1.00  0.00     0.164 HD
HETATM    6  H   UNL     1      -5.008   2.595 -33.384  1.00  0.00     0.164 HD
ENDROOT
BRANCH   3   7
HETATM    7  C   UNL     1      -5.118   4.519 -34.219  1.00  0.00     0.162 C 
BRANCH   7   8
HETATM    8  C   UNL     1      -4.594   5.317 -32.974  1.00  0.00     0.241 C 
BRANCH   8   9
HETATM    9  N   UNL     1      -3.064   5.263 -32.853  1.00  0.00    -0.061 N 
HETATM   10  H   UNL     1      -2.884   4.593 -32.079  1.00  0.00     0.280 HD
HETATM   11  C   UNL     1      -2.326   6.517 -32.452  1.00  0.00     0.236 C 
HETATM   12  C   UNL     1      -1.836   7.091 -33.762  1.00  0.00     0.029 C 
HETATM   13  C   UNL     1      -1.442   5.862 -34.558  1.00  0.00     0.029 C 
HETATM   14  C   UNL     1      -2.364   4.745 -34.088  1.00  0.00     0.236 C 
ENDBRANCH   8   9
BRANCH   8  15
HETATM   15  C   UNL     1      -5.372   5.023 -31.696  1.00  0.00     0.007 A 
HETATM   16  C   UNL     1      -4.969   3.979 -30.835  1.00  0.00     0.076 A 
HETATM   17  C   UNL     1      -5.707   3.698 -29.679  1.00  0.00     0.037 A 
HETATM   18  C   UNL     1      -6.825   4.464 -29.350  1.00  0.00     0.003 A 
HETATM   19  C   UNL     1      -7.214   5.514 -30.171  1.00  0.00     0.001 A 
HETATM   20  C   UNL     1      -6.493   5.794 -31.332  1.00  0.00     0.012 A 
BRANCH  16  21
HETATM   21  O   UNL     1      -3.859   3.270 -31.212  1.00  0.00    -0.355 OA
HETATM   22  C   UNL     1      -3.949   1.848 -31.116  1.00  0.00     0.210 C 
ENDBRANCH  16  21
ENDBRANCH   8  15
ENDBRANCH   7   8
ENDBRANCH   3   7
BRANCH   1  23
HETATM   23  C   UNL     1      -6.453   0.446 -33.518  1.00  0.00     0.086 C 
HETATM   24  C   UNL     1      -6.698  -0.346 -32.238  1.00  0.00     0.032 C 
BRANCH  23  25
HETATM   25  C   UNL     1      -6.748  -0.415 -34.764  1.00  0.00     0.063 C 
BRANCH  25  26
HETATM   26  C   UNL     1      -6.172  -1.811 -34.642  1.00  0.00    -0.056 A 
HETATM   27  C   UNL     1      -4.808  -1.999 -34.375  1.00  0.00     0.010 A 
HETATM   28  C   UNL     1      -4.274  -3.288 -34.291  1.00  0.00     0.037 A 
HETATM   29  C   UNL     1      -5.104  -4.385 -34.482  1.00  0.00     0.065 A 
HETATM   30  C   UNL     1      -6.457  -4.220 -34.749  1.00  0.00     0.037 A 
HETATM   31  C   UNL     1      -6.994  -2.934 -34.823  1.00  0.00     0.010 A 
BRANCH  29  32
HETATM   32  O   UNL     1      -4.621  -5.657 -34.424  1.00  0.00    -0.361 OA
HETATM   33  H   UNL     1      -5.367  -6.276 -34.507  1.00  0.00     0.217 HD
ENDBRANCH  29  32
ENDBRANCH  25  26
ENDBRANCH  23  25
ENDBRANCH   1  23
TORSDOF 9
ENDMDL
MODEL 5
REMARK VINA RESULT:      -7.7      2.782      5.576
REMARK  9 active torsions:
REMARK  status: ('A' for Active; 'I' for Inactive)
REMARK    1  A    between atoms: C_2  and  N_3 
REMARK    2  A    between atoms: C_2  and  C_23 
REMARK       I    between atoms: N_3  and  C_4 
REMARK       I    between atoms: C_4  and  N_5 
REMARK    3  A    between atoms: N_5  and  C_6 
REMARK    4  A    between atoms: C_6  and  C_7 
REMARK    5  A    between atoms: C_7  and  N_8 
REMARK    6  A    between atoms: C_7  and  C_14 
REMARK    7  A    between atoms: C_15  and  O_16 
REMARK    8  A    between atoms: C_23  and  C_24 
REMARK    9  A    between atoms: C_27  and  O_28 
ROOT
HETATM    1  N   UNL     1      -8.314   1.412 -33.925  1.00  0.00    -0.339 N 
HETATM    2  C   UNL     1      -7.684   2.601 -33.839  1.00  0.00     0.316 C 
HETATM    3  N   UNL     1      -6.342   2.594 -34.058  1.00  0.00    -0.341 N 
HETATM    4  O   UNL     1      -8.304   3.647 -33.655  1.00  0.00    -0.248 OA
HETATM    5  H   UNL     1      -9.304   1.464 -33.714  1.00  0.00     0.164 HD
HETATM    6  H   UNL     1      -5.888   1.745 -33.742  1.00  0.00     0.164 HD
ENDROOT
BRANCH   3   7
HETATM    7  C   UNL     1      -5.568   3.816 -33.891  1.00  0.00     0.162 C 
BRANCH   7   8
HETATM    8  C   UNL     1      -4.389   3.777 -32.857  1.00  0.00     0.241 C 
BRANCH   8   9
HETATM    9  N   UNL     1      -3.062   4.247 -33.472  1.00  0.00    -0.061 N 
HETATM   10  H   UNL     1      -2.645   3.389 -33.885  1.00  0.00     0.280 HD
HETATM   11  C   UNL     1      -1.993   4.789 -32.556  1.00  0.00     0.236 C 
HETATM   12  C   UNL     1      -2.148   6.289 -32.656  1.00  0.00     0.029 C 
HETATM   13  C   UNL     1      -2.474   6.511 -34.119  1.00  0.00     0.029 C 
HETATM   14  C   UNL     1      -3.220   5.265 -34.576  1.00  0.00     0.236 C 
ENDBRANCH   8   9
BRANCH   8  15
HETATM   15  C   UNL     1      -4.328   2.480 -32.058  1.00  0.00     0.007 A 
HETATM   16  C   UNL     1      -5.226   2.250 -30.992  1.00  0.00     0.076 A 
HETATM   17  C   UNL     1      -5.142   1.068 -30.247  1.00  0.00     0.037 A 
HETATM   18  C   UNL     1      -4.197   0.095 -30.567  1.00  0.00     0.003 A 
HETATM   19  C   UNL     1      -3.328   0.293 -31.633  1.00  0.00     0.001 A 
HETATM   20  C   UNL     1      -3.395   1.473 -32.373  1.00  0.00     0.012 A 
BRANCH  16  21
HETATM   21  O   UNL     1      -6.135   3.242 -30.734  1.00  0.00    -0.355 OA
HETATM   22  C   UNL     1      -7.359   2.840 -30.119  1.00  0.00     0.210 C 
ENDBRANCH  16  21
ENDBRANCH   8  15
ENDBRANCH   7   8
ENDBRANCH   3   7
BRANCH   1  23
HETATM   23  C   UNL     1      -7.799   0.127 -34.413  1.00  0.00     0.086 C 
HETATM   24  C   UNL     1      -7.107   0.327 -35.758  1.00  0.00     0.032 C 
BRANCH  23  25
HETATM   25  C   UNL     1      -6.836  -0.510 -33.389  1.00  0.00     0.063 C 
BRANCH  25  26
HETATM   26  C   UNL     1      -6.317  -1.855 -33.852  1.00  0.00    -0.056 A 
HETATM   27  C   UNL     1      -7.204  -2.847 -34.296  1.00  0.00     0.010 A 
HETATM   28  C   UNL     1      -6.724  -4.097 -34.697  1.00  0.00     0.037 A 
HETATM   29  C   UNL     1      -5.360  -4.355 -34.645  1.00  0.00     0.065 A 
HETATM   30  C   UNL     1      -4.467  -3.386 -34.206  1.00  0.00     0.037 A 
HETATM   31  C   UNL     1      -4.942  -2.135 -33.816  1.00  0.00     0.010 A 
BRANCH  29  32
HETATM   32  O   UNL     1      -4.854  -5.565 -35.011  1.00  0.00    -0.361 OA
HETATM   33  H   UNL     1      -4.698  -6.092 -34.208  1.00  0.00     0.217 HD
ENDBRANCH  29  32
ENDBRANCH  25  26
ENDBRANCH  23  25
ENDBRANCH   1  23
TORSDOF 9
ENDMDL
MODEL 6
REMARK VINA RESULT:      -7.7      2.867      6.666
REMARK  9 active torsions:
REMARK  status: ('A' for Active; 'I' for Inactive)
REMARK    1  A    between atoms: C_2  and  N_3 
REMARK    2  A    between atoms: C_2  and  C_23 
REMARK       I    between atoms: N_3  and  C_4 
REMARK       I    between atoms: C_4  and  N_5 
REMARK    3  A    between atoms: N_5  and  C_6 
REMARK    4  A    between atoms: C_6  and  C_7 
REMARK    5  A    between atoms: C_7  and  N_8 
REMARK    6  A    between atoms: C_7  and  C_14 
REMARK    7  A    between atoms: C_15  and  O_16 
REMARK    8  A    between atoms: C_23  and  C_24 
REMARK    9  A    between atoms: C_27  and  O_28 
ROOT
HETATM    1  N   UNL     1      -5.868   2.865 -29.836  1.00  0.00    -0.339 N 
HETATM    2  C   UNL     1      -6.042   1.576 -30.193  1.00  0.00     0.316 C 
HETATM    3  N   UNL     1      -6.520   1.352 -31.446  1.00  0.00    -0.341 N 
HETATM    4  O   UNL     1      -5.707   0.653 -29.453  1.00  0.00    -0.248 OA
HETATM    5  H   UNL     1      -5.549   2.980 -28.880  1.00  0.00     0.164 HD
HETATM    6  H   UNL     1      -7.164   2.067 -31.764  1.00  0.00     0.164 HD
ENDROOT
BRANCH   3   7
HETATM    7  C   UNL     1      -6.828  -0.004 -31.878  1.00  0.00     0.162 C 
BRANCH   7   8
HETATM    8  C   UNL     1      -6.971  -0.243 -33.422  1.00  0.00     0.241 C 
BRANCH   8   9
HETATM    9  N   UNL     1      -8.395   0.043 -33.923  1.00  0.00    -0.061 N 
HETATM   10  H   UNL     1      -8.601  -0.729 -34.588  1.00  0.00     0.280 HD
HETATM   11  C   UNL     1      -8.643   1.304 -34.715  1.00  0.00     0.236 C 
HETATM   12  C   UNL     1      -9.200   2.274 -33.698  1.00  0.00     0.029 C 
HETATM   13  C   UNL     1     -10.083   1.402 -32.829  1.00  0.00     0.029 C 
HETATM   14  C   UNL     1      -9.448   0.018 -32.841  1.00  0.00     0.236 C 
ENDBRANCH   8   9
BRANCH   8  15
HETATM   15  C   UNL     1      -6.354  -1.556 -33.890  1.00  0.00     0.007 A 
HETATM   16  C   UNL     1      -4.952  -1.730 -33.892  1.00  0.00     0.076 A 
HETATM   17  C   UNL     1      -4.394  -2.928 -34.352  1.00  0.00     0.037 A 
HETATM   18  C   UNL     1      -5.213  -3.971 -34.781  1.00  0.00     0.003 A 
HETATM   19  C   UNL     1      -6.595  -3.826 -34.755  1.00  0.00     0.001 A 
HETATM   20  C   UNL     1      -7.160  -2.631 -34.312  1.00  0.00     0.012 A 
BRANCH  16  21
HETATM   21  O   UNL     1      -4.205  -0.669 -33.451  1.00  0.00    -0.355 OA
HETATM   22  C   UNL     1      -3.298  -0.932 -32.380  1.00  0.00     0.210 C 
ENDBRANCH  16  21
ENDBRANCH   8  15
ENDBRANCH   7   8
ENDBRANCH   3   7
BRANCH   1  23
HETATM   23  C   UNL     1      -5.935   4.072 -30.670  1.00  0.00     0.086 C 
HETATM   24  C   UNL     1      -7.153   4.901 -30.277  1.00  0.00     0.032 C 
BRANCH  23  25
HETATM   25  C   UNL     1      -4.641   4.902 -30.548  1.00  0.00     0.063 C 
BRANCH  25  26
HETATM   26  C   UNL     1      -3.867   4.949 -31.849  1.00  0.00    -0.056 A 
HETATM   27  C   UNL     1      -4.526   5.203 -33.061  1.00  0.00     0.010 A 
HETATM   28  C   UNL     1      -3.814   5.219 -34.264  1.00  0.00     0.037 A 
HETATM   29  C   UNL     1      -2.446   4.972 -34.252  1.00  0.00     0.065 A 
HETATM   30  C   UNL     1      -1.777   4.716 -33.063  1.00  0.00     0.037 A 
HETATM   31  C   UNL     1      -2.484   4.711 -31.860  1.00  0.00     0.010 A 
BRANCH  29  32
HETATM   32  O   UNL     1      -1.719   4.962 -35.403  1.00  0.00    -0.361 OA
HETATM   33  H   UNL     1      -0.775   5.026 -35.174  1.00  0.00     0.217 HD
ENDBRANCH  29  32
ENDBRANCH  25  26
ENDBRANCH  23  25
ENDBRANCH   1  23
TORSDOF 9
ENDMDL
MODEL 7
REMARK VINA RESULT:      -7.7      3.323      6.535
REMARK  9 active torsions:
REMARK  status: ('A' for Active; 'I' for Inactive)
REMARK    1  A    between atoms: C_2  and  N_3 
REMARK    2  A    between atoms: C_2  and  C_23 
REMARK       I    between atoms: N_3  and  C_4 
REMARK       I    between atoms: C_4  and  N_5 
REMARK    3  A    between atoms: N_5  and  C_6 
REMARK    4  A    between atoms: C_6  and  C_7 
REMARK    5  A    between atoms: C_7  and  N_8 
REMARK    6  A    between atoms: C_7  and  C_14 
REMARK    7  A    between atoms: C_15  and  O_16 
REMARK    8  A    between atoms: C_23  and  C_24 
REMARK    9  A    between atoms: C_27  and  O_28 
ROOT
HETATM    1  N   UNL     1      -8.475   2.364 -33.925  1.00  0.00    -0.339 N 
HETATM    2  C   UNL     1      -7.598   3.378 -33.775  1.00  0.00     0.316 C 
HETATM    3  N   UNL     1      -6.432   3.081 -33.142  1.00  0.00    -0.341 N 
HETATM    4  O   UNL     1      -7.807   4.488 -34.258  1.00  0.00    -0.248 OA
HETATM    5  H   UNL     1      -9.344   2.646 -34.366  1.00  0.00     0.164 HD
HETATM    6  H   UNL     1      -6.533   2.375 -32.422  1.00  0.00     0.164 HD
ENDROOT
BRANCH   3   7
HETATM    7  C   UNL     1      -5.470   4.135 -32.852  1.00  0.00     0.162 C 
BRANCH   7   8
HETATM    8  C   UNL     1      -3.994   3.691 -32.557  1.00  0.00     0.241 C 
BRANCH   8   9
HETATM    9  N   UNL     1      -3.842   3.075 -31.158  1.00  0.00    -0.061 N 
HETATM   10  H   UNL     1      -3.098   3.639 -30.701  1.00  0.00     0.280 HD
HETATM   11  C   UNL     1      -3.364   1.648 -31.045  1.00  0.00     0.236 C 
HETATM   12  C   UNL     1      -4.633   0.848 -30.859  1.00  0.00     0.029 C 
HETATM   13  C   UNL     1      -5.479   1.735 -29.968  1.00  0.00     0.029 C 
HETATM   14  C   UNL     1      -5.085   3.166 -30.305  1.00  0.00     0.236 C 
ENDBRANCH   8   9
BRANCH   8  15
HETATM   15  C   UNL     1      -2.959   4.745 -32.935  1.00  0.00     0.007 A 
HETATM   16  C   UNL     1      -2.655   5.802 -32.049  1.00  0.00     0.076 A 
HETATM   17  C   UNL     1      -1.724   6.780 -32.418  1.00  0.00     0.037 A 
HETATM   18  C   UNL     1      -1.066   6.705 -33.645  1.00  0.00     0.003 A 
HETATM   19  C   UNL     1      -1.332   5.653 -34.512  1.00  0.00     0.001 A 
HETATM   20  C   UNL     1      -2.267   4.680 -34.160  1.00  0.00     0.012 A 
BRANCH  16  21
HETATM   21  O   UNL     1      -3.331   5.814 -30.857  1.00  0.00    -0.355 OA
HETATM   22  C   UNL     1      -4.195   6.927 -30.628  1.00  0.00     0.210 C 
ENDBRANCH  16  21
ENDBRANCH   8  15
ENDBRANCH   7   8
ENDBRANCH   3   7
BRANCH   1  23
HETATM   23  C   UNL     1      -8.282   0.930 -33.678  1.00  0.00     0.086 C 
HETATM   24  C   UNL     1      -9.588   0.312 -33.190  1.00  0.00     0.032 C 
BRANCH  23  25
HETATM   25  C   UNL     1      -7.774   0.213 -34.946  1.00  0.00     0.063 C 
BRANCH  25  26
HETATM   26  C   UNL     1      -6.729  -0.836 -34.630  1.00  0.00    -0.056 A 
HETATM   27  C   UNL     1      -5.520  -0.475 -34.015  1.00  0.00     0.010 A 
HETATM   28  C   UNL     1      -4.546  -1.441 -33.748  1.00  0.00     0.037 A 
HETATM   29  C   UNL     1      -4.778  -2.764 -34.105  1.00  0.00     0.065 A 
HETATM   30  C   UNL     1      -5.967  -3.140 -34.717  1.00  0.00     0.037 A 
HETATM   31  C   UNL     1      -6.945  -2.179 -34.974  1.00  0.00     0.010 A 
BRANCH  29  32
HETATM   32  O   UNL     1      -3.848  -3.732 -33.878  1.00  0.00    -0.361 OA
HETATM   33  H   UNL     1      -3.934  -4.412 -34.568  1.00  0.00     0.217 HD
ENDBRANCH  29  32
ENDBRANCH  25  26
ENDBRANCH  23  25
ENDBRANCH   1  23
TORSDOF 9
ENDMDL
MODEL 8
REMARK VINA RESULT:      -7.6      4.550      8.065
REMARK  9 active torsions:
REMARK  status: ('A' for Active; 'I' for Inactive)
REMARK    1  A    between atoms: C_2  and  N_3 
REMARK    2  A    between atoms: C_2  and  C_23 
REMARK       I    between atoms: N_3  and  C_4 
REMARK       I    between atoms: C_4  and  N_5 
REMARK    3  A    between atoms: N_5  and  C_6 
REMARK    4  A    between atoms: C_6  and  C_7 
REMARK    5  A    between atoms: C_7  and  N_8 
REMARK    6  A    between atoms: C_7  and  C_14 
REMARK    7  A    between atoms: C_15  and  O_16 
REMARK    8  A    between atoms: C_23  and  C_24 
REMARK    9  A    between atoms: C_27  and  O_28 
ROOT
HETATM    1  N   UNL     1      -3.021   5.349 -32.568  1.00  0.00    -0.339 N 
HETATM    2  C   UNL     1      -3.702   4.458 -31.818  1.00  0.00     0.316 C 
HETATM    3  N   UNL     1      -3.337   3.154 -31.946  1.00  0.00    -0.341 N 
HETATM    4  O   UNL     1      -4.549   4.816 -31.004  1.00  0.00    -0.248 OA
HETATM    5  H   UNL     1      -3.357   6.300 -32.467  1.00  0.00     0.164 HD
HETATM    6  H   UNL     1      -3.027   2.913 -32.880  1.00  0.00     0.164 HD
ENDROOT
BRANCH   3   7
HETATM    7  C   UNL     1      -4.083   2.116 -31.248  1.00  0.00     0.162 C 
BRANCH   7   8
HETATM    8  C   UNL     1      -5.134   1.309 -32.086  1.00  0.00     0.241 C 
BRANCH   8   9
HETATM    9  N   UNL     1      -6.544   1.391 -31.481  1.00  0.00    -0.061 N 
HETATM   10  H   UNL     1      -6.896   0.412 -31.498  1.00  0.00     0.280 HD
HETATM   11  C   UNL     1      -7.598   2.187 -32.211  1.00  0.00     0.236 C 
HETATM   12  C   UNL     1      -7.612   3.520 -31.497  1.00  0.00     0.029 C 
HETATM   13  C   UNL     1      -7.416   3.141 -30.043  1.00  0.00     0.029 C 
HETATM   14  C   UNL     1      -6.575   1.872 -30.050  1.00  0.00     0.236 C 
ENDBRANCH   8   9
BRANCH   8  15
HETATM   15  C   UNL     1      -4.657  -0.087 -32.471  1.00  0.00     0.007 A 
HETATM   16  C   UNL     1      -5.126  -0.706 -33.651  1.00  0.00     0.076 A 
HETATM   17  C   UNL     1      -4.705  -1.999 -33.981  1.00  0.00     0.037 A 
HETATM   18  C   UNL     1      -3.797  -2.677 -33.168  1.00  0.00     0.003 A 
HETATM   19  C   UNL     1      -3.303  -2.068 -32.021  1.00  0.00     0.001 A 
HETATM   20  C   UNL     1      -3.727  -0.785 -31.676  1.00  0.00     0.012 A 
BRANCH  16  21
HETATM   21  O   UNL     1      -6.011   0.016 -34.409  1.00  0.00    -0.355 OA
HETATM   22  C   UNL     1      -7.153  -0.688 -34.896  1.00  0.00     0.210 C 
ENDBRANCH  16  21
ENDBRANCH   8  15
ENDBRANCH   7   8
ENDBRANCH   3   7
BRANCH   1  23
HETATM   23  C   UNL     1      -1.804   5.147 -33.365  1.00  0.00     0.086 C 
HETATM   24  C   UNL     1      -2.159   5.130 -34.848  1.00  0.00     0.032 C 
BRANCH  23  25
HETATM   25  C   UNL     1      -0.756   6.239 -33.062  1.00  0.00     0.063 C 
BRANCH  25  26
HETATM   26  C   UNL     1      -0.369   6.268 -31.598  1.00  0.00    -0.056 A 
HETATM   27  C   UNL     1      -0.611   7.409 -30.819  1.00  0.00     0.010 A 
HETATM   28  C   UNL     1      -0.228   7.444 -29.476  1.00  0.00     0.037 A 
HETATM   29  C   UNL     1       0.405   6.340 -28.917  1.00  0.00     0.065 A 
HETATM   30  C   UNL     1       0.656   5.202 -29.672  1.00  0.00     0.037 A 
HETATM   31  C   UNL     1       0.264   5.162 -31.011  1.00  0.00     0.010 A 
BRANCH  29  32
HETATM   32  O   UNL     1       0.809   6.339 -27.616  1.00  0.00    -0.361 OA
HETATM   33  H   UNL     1       1.041   5.429 -27.364  1.00  0.00     0.217 HD
ENDBRANCH  29  32
ENDBRANCH  25  26
ENDBRANCH  23  25
ENDBRANCH   1  23
TORSDOF 9
ENDMDL
MODEL 9
REMARK VINA RESULT:      -7.5      2.331      7.239
REMARK  9 active torsions:
REMARK  status: ('A' for Active; 'I' for Inactive)
REMARK    1  A    between atoms: C_2  and  N_3 
REMARK    2  A    between atoms: C_2  and  C_23 
REMARK       I    between atoms: N_3  and  C_4 
REMARK       I    between atoms: C_4  and  N_5 
REMARK    3  A    between atoms: N_5  and  C_6 
REMARK    4  A    between atoms: C_6  and  C_7 
REMARK    5  A    between atoms: C_7  and  N_8 
REMARK    6  A    between atoms: C_7  and  C_14 
REMARK    7  A    between atoms: C_15  and  O_16 
REMARK    8  A    between atoms: C_23  and  C_24 
REMARK    9  A    between atoms: C_27  and  O_28 
ROOT
HETATM    1  N   UNL     1      -9.853   1.783 -32.002  1.00  0.00    -0.339 N 
HETATM    2  C   UNL     1      -8.771   2.005 -31.228  1.00  0.00     0.316 C 
HETATM    3  N   UNL     1      -7.690   1.211 -31.454  1.00  0.00    -0.341 N 
HETATM    4  O   UNL     1      -8.736   2.930 -30.419  1.00  0.00    -0.248 OA
HETATM    5  H   UNL     1     -10.644   2.372 -31.767  1.00  0.00     0.164 HD
HETATM    6  H   UNL     1      -7.935   0.271 -31.741  1.00  0.00     0.164 HD
ENDROOT
BRANCH   3   7
HETATM    7  C   UNL     1      -6.515   1.318 -30.601  1.00  0.00     0.162 C 
BRANCH   7   8
HETATM    8  C   UNL     1      -5.119   1.363 -31.315  1.00  0.00     0.241 C 
BRANCH   8   9
HETATM    9  N   UNL     1      -4.902   2.678 -32.079  1.00  0.00    -0.061 N 
HETATM   10  H   UNL     1      -5.515   2.601 -32.915  1.00  0.00     0.280 HD
HETATM   11  C   UNL     1      -3.531   2.971 -32.637  1.00  0.00     0.236 C 
HETATM   12  C   UNL     1      -2.904   3.889 -31.614  1.00  0.00     0.029 C 
HETATM   13  C   UNL     1      -4.059   4.768 -31.178  1.00  0.00     0.029 C 
HETATM   14  C   UNL     1      -5.312   3.913 -31.313  1.00  0.00     0.236 C 
ENDBRANCH   8   9
BRANCH   8  15
HETATM   15  C   UNL     1      -4.790   0.087 -32.081  1.00  0.00     0.007 A 
HETATM   16  C   UNL     1      -5.349  -0.149 -33.356  1.00  0.00     0.076 A 
HETATM   17  C   UNL     1      -5.063  -1.337 -34.038  1.00  0.00     0.037 A 
HETATM   18  C   UNL     1      -4.201  -2.283 -33.484  1.00  0.00     0.003 A 
HETATM   19  C   UNL     1      -3.619  -2.050 -32.244  1.00  0.00     0.001 A 
HETATM   20  C   UNL     1      -3.908  -0.875 -31.550  1.00  0.00     0.012 A 
BRANCH  16  21
HETATM   21  O   UNL     1      -6.181   0.822 -33.848  1.00  0.00    -0.355 OA
HETATM   22  C   UNL     1      -6.862   0.519 -35.065  1.00  0.00     0.210 C 
ENDBRANCH  16  21
ENDBRANCH   8  15
ENDBRANCH   7   8
ENDBRANCH   3   7
BRANCH   1  23
HETATM   23  C   UNL     1      -9.978   0.935 -33.194  1.00  0.00     0.086 C 
HETATM   24  C   UNL     1     -10.598  -0.404 -32.808  1.00  0.00     0.032 C 
BRANCH  23  25
HETATM   25  C   UNL     1     -10.814   1.634 -34.286  1.00  0.00     0.063 C 
BRANCH  25  26
HETATM   26  C   UNL     1     -12.291   1.650 -33.952  1.00  0.00    -0.056 A 
HETATM   27  C   UNL     1     -13.167   0.732 -34.549  1.00  0.00     0.010 A 
HETATM   28  C   UNL     1     -14.534   0.766 -34.261  1.00  0.00     0.037 A 
HETATM   29  C   UNL     1     -15.023   1.725 -33.382  1.00  0.00     0.065 A 
HETATM   30  C   UNL     1     -14.172   2.644 -32.782  1.00  0.00     0.037 A 
HETATM   31  C   UNL     1     -12.806   2.604 -33.061  1.00  0.00     0.010 A 
BRANCH  29  32
HETATM   32  O   UNL     1     -16.350   1.803 -33.086  1.00  0.00    -0.361 OA
HETATM   33  H   UNL     1     -16.816   2.184 -33.850  1.00  0.00     0.217 HD
ENDBRANCH  29  32
ENDBRANCH  25  26
ENDBRANCH  23  25
ENDBRANCH   1  23
TORSDOF 9
ENDMDL
MODEL 10
REMARK VINA RESULT:      -7.5      3.236      6.163
REMARK  9 active torsions:
REMARK  status: ('A' for Active; 'I' for Inactive)
REMARK    1  A    between atoms: C_2  and  N_3 
REMARK    2  A    between atoms: C_2  and  C_23 
REMARK       I    between atoms: N_3  and  C_4 
REMARK       I    between atoms: C_4  and  N_5 
REMARK    3  A    between atoms: N_5  and  C_6 
REMARK    4  A    between atoms: C_6  and  C_7 
REMARK    5  A    between atoms: C_7  and  N_8 
REMARK    6  A    between atoms: C_7  and  C_14 
REMARK    7  A    between atoms: C_15  and  O_16 
REMARK    8  A    between atoms: C_23  and  C_24 
REMARK    9  A    between atoms: C_27  and  O_28 
ROOT
HETATM    1  N   UNL     1      -8.007   2.750 -33.371  1.00  0.00    -0.339 N 
HETATM    2  C   UNL     1      -7.329   3.828 -33.816  1.00  0.00     0.316 C 
HETATM    3  N   UNL     1      -5.974   3.718 -33.857  1.00  0.00    -0.341 N 
HETATM    4  O   UNL     1      -7.911   4.824 -34.240  1.00  0.00    -0.248 OA
HETATM    5  H   UNL     1      -9.009   2.896 -33.322  1.00  0.00     0.164 HD
HETATM    6  H   UNL     1      -5.596   3.140 -33.116  1.00  0.00     0.164 HD
ENDROOT
BRANCH   3   7
HETATM    7  C   UNL     1      -5.160   4.865 -34.232  1.00  0.00     0.162 C 
BRANCH   7   8
HETATM    8  C   UNL     1      -4.359   5.576 -33.086  1.00  0.00     0.241 C 
BRANCH   8   9
HETATM    9  N   UNL     1      -2.880   5.162 -33.069  1.00  0.00    -0.061 N 
HETATM   10  H   UNL     1      -2.861   4.268 -32.540  1.00  0.00     0.280 HD
HETATM   11  C   UNL     1      -1.889   6.049 -32.356  1.00  0.00     0.236 C 
HETATM   12  C   UNL     1      -1.268   6.872 -33.461  1.00  0.00     0.029 C 
HETATM   13  C   UNL     1      -1.145   5.886 -34.605  1.00  0.00     0.029 C 
HETATM   14  C   UNL     1      -2.296   4.904 -34.438  1.00  0.00     0.236 C 
ENDBRANCH   8   9
BRANCH   8  15
HETATM   15  C   UNL     1      -5.073   5.542 -31.739  1.00  0.00     0.007 A 
HETATM   16  C   UNL     1      -4.966   4.412 -30.898  1.00  0.00     0.076 A 
HETATM   17  C   UNL     1      -5.649   4.379 -29.677  1.00  0.00     0.037 A 
HETATM   18  C   UNL     1      -6.413   5.469 -29.263  1.00  0.00     0.003 A 
HETATM   19  C   UNL     1      -6.501   6.600 -30.065  1.00  0.00     0.001 A 
HETATM   20  C   UNL     1      -5.836   6.638 -31.290  1.00  0.00     0.012 A 
BRANCH  16  21
HETATM   21  O   UNL     1      -4.194   3.378 -31.359  1.00  0.00    -0.355 OA
HETATM   22  C   UNL     1      -4.553   2.069 -30.915  1.00  0.00     0.210 C 
ENDBRANCH  16  21
ENDBRANCH   8  15
ENDBRANCH   7   8
ENDBRANCH   3   7
BRANCH   1  23
HETATM   23  C   UNL     1      -7.513   1.394 -33.102  1.00  0.00     0.086 C 
HETATM   24  C   UNL     1      -8.331   0.762 -31.981  1.00  0.00     0.032 C 
BRANCH  23  25
HETATM   25  C   UNL     1      -7.560   0.524 -34.376  1.00  0.00     0.063 C 
BRANCH  25  26
HETATM   26  C   UNL     1      -6.574  -0.624 -34.321  1.00  0.00    -0.056 A 
HETATM   27  C   UNL     1      -6.932  -1.896 -34.791  1.00  0.00     0.010 A 
HETATM   28  C   UNL     1      -6.029  -2.960 -34.714  1.00  0.00     0.037 A 
HETATM   29  C   UNL     1      -4.773  -2.751 -34.159  1.00  0.00     0.065 A 
HETATM   30  C   UNL     1      -4.400  -1.500 -33.686  1.00  0.00     0.037 A 
HETATM   31  C   UNL     1      -5.296  -0.434 -33.772  1.00  0.00     0.010 A 
BRANCH  29  32
HETATM   32  O   UNL     1      -3.869  -3.764 -34.050  1.00  0.00    -0.361 OA
HETATM   33  H   UNL     1      -3.759  -4.176 -34.925  1.00  0.00     0.217 HD
ENDBRANCH  29  32
ENDBRANCH  25  26
ENDBRANCH  23  25
ENDBRANCH   1  23
TORSDOF 9
ENDMDL
