MODEL 1
REMARK VINA RESULT:      -9.1      0.000      0.000
REMARK  5 active torsions:
REMARK  status: ('A' for Active; 'I' for Inactive)
REMARK    1  A    between atoms: C_6  and  N_7 
REMARK       I    between atoms: N_7  and  C_8 
REMARK       I    between atoms: C_8  and  N_9 
REMARK    2  A    between atoms: N_9  and  C_10 
REMARK    3  A    between atoms: C_10  and  C_11 
REMARK    4  A    between atoms: C_14  and  N_15 
REMARK       I    between atoms: N_15  and  C_16 
REMARK    5  A    between atoms: C_16  and  C_17 
ROOT
HETATM    1  C   UNL     1      -3.579   4.405 -32.309  1.00  0.00    -0.040 A 
HETATM    2  C   UNL     1      -2.209   4.381 -32.592  1.00  0.00     0.011 A 
HETATM    3  C   UNL     1      -1.302   5.089 -31.796  1.00  0.00     0.030 A 
HETATM    4  C   UNL     1      -1.745   5.821 -30.695  1.00  0.00     0.035 A 
HETATM    5  C   UNL     1      -3.116   5.850 -30.413  1.00  0.00     0.030 A 
HETATM    6  C   UNL     1      -4.026   5.148 -31.210  1.00  0.00     0.011 A 
ENDROOT
BRANCH   1   7
HETATM    7  C   UNL     1      -4.542   3.584 -33.125  1.00  0.00     0.162 C 
BRANCH   7   8
HETATM    8  N   UNL     1      -5.365   2.763 -32.265  1.00  0.00    -0.339 N 
HETATM    9  C   UNL     1      -5.790   1.481 -32.444  1.00  0.00     0.320 C 
HETATM   10  N   UNL     1      -5.141   0.767 -33.412  1.00  0.00    -0.309 N 
HETATM   11  O   UNL     1      -6.701   1.082 -31.728  1.00  0.00    -0.247 OA
HETATM   12  H   UNL     1      -4.287   1.168 -33.762  1.00  0.00     0.170 HD
HETATM   13  H   UNL     1      -5.918   3.239 -31.563  1.00  0.00     0.164 HD
BRANCH  10  14
HETATM   14  C   UNL     1      -5.411  -0.555 -33.828  1.00  0.00     0.037 A 
HETATM   15  C   UNL     1      -4.555  -1.635 -33.601  1.00  0.00     0.049 A 
HETATM   16  C   UNL     1      -4.894  -2.917 -34.054  1.00  0.00     0.019 A 
HETATM   17  C   UNL     1      -6.095  -3.146 -34.741  1.00  0.00    -0.044 A 
HETATM   18 BR   UNL     1      -3.666  -4.325 -33.696  1.00  0.00    -0.051 Br
HETATM   19  C   UNL     1      -6.489  -4.504 -35.250  1.00  0.00     0.049 C 
HETATM   20  C   UNL     1      -6.954  -2.060 -34.952  1.00  0.00     0.010 A 
HETATM   21  C   UNL     1      -6.618  -0.782 -34.497  1.00  0.00     0.030 A 
ENDBRANCH  10  14
ENDBRANCH   7   8
ENDBRANCH   1   7
BRANCH   4  22
HETATM   22  N   UNL     1      -0.893   6.517 -29.819  1.00  0.00    -0.321 N 
HETATM   23  C   UNL     1       0.183   6.030 -29.096  1.00  0.00     0.279 C 
HETATM   24  O   UNL     1       0.627   4.888 -29.161  1.00  0.00    -0.265 OA
HETATM   25  H   UNL     1      -1.094   7.499 -29.662  1.00  0.00     0.169 HD
BRANCH  23  26
HETATM   26  C   UNL     1       0.762   7.031 -28.217  1.00  0.00     0.142 A 
HETATM   27  O   UNL     1       0.947   6.739 -26.888  1.00  0.00    -0.317 OA
HETATM   28  C   UNL     1       1.516   7.831 -26.315  1.00  0.00     0.143 A 
HETATM   29  C   UNL     1       1.699   8.827 -27.246  1.00  0.00     0.027 A 
HETATM   30  C   UNL     1       1.212   8.313 -28.471  1.00  0.00     0.045 A 
ENDBRANCH  23  26
ENDBRANCH   4  22
TORSDOF 5
ENDMDL
MODEL 2
REMARK VINA RESULT:      -9.1      1.419      2.060
REMARK  5 active torsions:
REMARK  status: ('A' for Active; 'I' for Inactive)
REMARK    1  A    between atoms: C_6  and  N_7 
REMARK       I    between atoms: N_7  and  C_8 
REMARK       I    between atoms: C_8  and  N_9 
REMARK    2  A    between atoms: N_9  and  C_10 
REMARK    3  A    between atoms: C_10  and  C_11 
REMARK    4  A    between atoms: C_14  and  N_15 
REMARK       I    between atoms: N_15  and  C_16 
REMARK    5  A    between atoms: C_16  and  C_17 
ROOT
HETATM    1  C   UNL     1      -5.247   4.031 -33.036  1.00  0.00    -0.040 A 
HETATM    2  C   UNL     1      -4.157   4.624 -33.683  1.00  0.00     0.011 A 
HETATM    3  C   UNL     1      -3.150   5.261 -32.950  1.00  0.00     0.030 A 
HETATM    4  C   UNL     1      -3.206   5.304 -31.557  1.00  0.00     0.035 A 
HETATM    5  C   UNL     1      -4.298   4.715 -30.909  1.00  0.00     0.030 A 
HETATM    6  C   UNL     1      -5.310   4.083 -31.639  1.00  0.00     0.011 A 
ENDROOT
BRANCH   1   7
HETATM    7  C   UNL     1      -6.290   3.286 -33.826  1.00  0.00     0.162 C 
BRANCH   7   8
HETATM    8  N   UNL     1      -6.960   2.314 -32.990  1.00  0.00    -0.339 N 
HETATM    9  C   UNL     1      -6.769   0.967 -32.910  1.00  0.00     0.320 C 
HETATM   10  N   UNL     1      -5.616   0.493 -33.471  1.00  0.00    -0.309 N 
HETATM   11  O   UNL     1      -7.632   0.305 -32.344  1.00  0.00    -0.247 OA
HETATM   12  H   UNL     1      -4.922   1.182 -33.709  1.00  0.00     0.170 HD
HETATM   13  H   UNL     1      -7.851   2.583 -32.591  1.00  0.00     0.164 HD
BRANCH  10  14
HETATM   14  C   UNL     1      -5.198  -0.852 -33.565  1.00  0.00     0.037 A 
HETATM   15  C   UNL     1      -5.848  -1.820 -34.333  1.00  0.00     0.049 A 
HETATM   16  C   UNL     1      -5.372  -3.138 -34.367  1.00  0.00     0.019 A 
HETATM   17  C   UNL     1      -4.237  -3.515 -33.634  1.00  0.00    -0.044 A 
HETATM   18 BR   UNL     1      -6.324  -4.385 -35.443  1.00  0.00    -0.051 Br
HETATM   19  C   UNL     1      -3.702  -4.918 -33.638  1.00  0.00     0.049 C 
HETATM   20  C   UNL     1      -3.582  -2.534 -32.878  1.00  0.00     0.010 A 
HETATM   21  C   UNL     1      -4.055  -1.219 -32.847  1.00  0.00     0.030 A 
ENDBRANCH  10  14
ENDBRANCH   7   8
ENDBRANCH   1   7
BRANCH   4  22
HETATM   22  N   UNL     1      -2.211   5.880 -30.748  1.00  0.00    -0.321 N 
HETATM   23  C   UNL     1      -0.919   5.435 -30.523  1.00  0.00     0.279 C 
HETATM   24  O   UNL     1      -0.392   4.473 -31.070  1.00  0.00    -0.265 OA
HETATM   25  H   UNL     1      -2.463   6.716 -30.230  1.00  0.00     0.169 HD
BRANCH  23  26
HETATM   26  C   UNL     1      -0.216   6.242 -29.541  1.00  0.00     0.142 A 
HETATM   27  O   UNL     1       0.150   5.681 -28.342  1.00  0.00    -0.317 OA
HETATM   28  C   UNL     1       0.803   6.640 -27.636  1.00  0.00     0.143 A 
HETATM   29  C   UNL     1       0.862   7.813 -28.351  1.00  0.00     0.027 A 
HETATM   30  C   UNL     1       0.205   7.558 -29.578  1.00  0.00     0.045 A 
ENDBRANCH  23  26
ENDBRANCH   4  22
TORSDOF 5
ENDMDL
MODEL 3
REMARK VINA RESULT:      -8.9      4.611      8.732
REMARK  5 active torsions:
REMARK  status: ('A' for Active; 'I' for Inactive)
REMARK    1  A    between atoms: C_6  and  N_7 
REMARK       I    between atoms: N_7  and  C_8 
REMARK       I    between atoms: C_8  and  N_9 
REMARK    2  A    between atoms: N_9  and  C_10 
REMARK    3  A    between atoms: C_10  and  C_11 
REMARK    4  A    between atoms: C_14  and  N_15 
REMARK       I    between atoms: N_15  and  C_16 
REMARK    5  A    between atoms: C_16  and  C_17 
ROOT
HETATM    1  C   UNL     1      -5.570   2.886 -32.263  1.00  0.00    -0.040 A 
HETATM    2  C   UNL     1      -6.477   2.685 -31.216  1.00  0.00     0.011 A 
HETATM    3  C   UNL     1      -7.835   2.476 -31.477  1.00  0.00     0.030 A 
HETATM    4  C   UNL     1      -8.309   2.448 -32.788  1.00  0.00     0.035 A 
HETATM    5  C   UNL     1      -7.405   2.654 -33.836  1.00  0.00     0.030 A 
HETATM    6  C   UNL     1      -6.047   2.870 -33.578  1.00  0.00     0.011 A 
ENDROOT
BRANCH   1   7
HETATM    7  C   UNL     1      -4.099   3.041 -31.979  1.00  0.00     0.162 C 
BRANCH   7   8
HETATM    8  N   UNL     1      -3.565   1.829 -31.398  1.00  0.00    -0.339 N 
HETATM    9  C   UNL     1      -3.817   0.530 -31.726  1.00  0.00     0.320 C 
HETATM   10  N   UNL     1      -4.427   0.327 -32.932  1.00  0.00    -0.309 N 
HETATM   11  O   UNL     1      -3.474  -0.333 -30.925  1.00  0.00    -0.247 OA
HETATM   12  H   UNL     1      -4.453   1.116 -33.555  1.00  0.00     0.170 HD
HETATM   13  H   UNL     1      -3.151   1.902 -30.476  1.00  0.00     0.164 HD
BRANCH  10  14
HETATM   14  C   UNL     1      -4.837  -0.905 -33.488  1.00  0.00     0.037 A 
HETATM   15  C   UNL     1      -4.092  -2.083 -33.411  1.00  0.00     0.049 A 
HETATM   16  C   UNL     1      -4.568  -3.263 -33.998  1.00  0.00     0.019 A 
HETATM   17  C   UNL     1      -5.797  -3.291 -34.673  1.00  0.00    -0.044 A 
HETATM   18 BR   UNL     1      -3.483  -4.818 -33.838  1.00  0.00    -0.051 Br
HETATM   19  C   UNL     1      -6.336  -4.534 -35.321  1.00  0.00     0.049 C 
HETATM   20  C   UNL     1      -6.545  -2.107 -34.733  1.00  0.00     0.010 A 
HETATM   21  C   UNL     1      -6.072  -0.930 -34.145  1.00  0.00     0.030 A 
ENDBRANCH  10  14
ENDBRANCH   7   8
ENDBRANCH   1   7
BRANCH   4  22
HETATM   22  N   UNL     1      -9.649   2.195 -33.134  1.00  0.00    -0.321 N 
HETATM   23  C   UNL     1     -10.316   0.982 -33.161  1.00  0.00     0.279 C 
HETATM   24  O   UNL     1      -9.851  -0.096 -32.804  1.00  0.00    -0.265 OA
HETATM   25  H   UNL     1     -10.207   2.987 -33.434  1.00  0.00     0.169 HD
BRANCH  23  26
HETATM   26  C   UNL     1     -11.671   1.103 -33.671  1.00  0.00     0.142 A 
HETATM   27  O   UNL     1     -12.556   0.068 -33.492  1.00  0.00    -0.317 OA
HETATM   28  C   UNL     1     -13.737   0.455 -34.040  1.00  0.00     0.143 A 
HETATM   29  C   UNL     1     -13.633   1.717 -34.575  1.00  0.00     0.027 A 
HETATM   30  C   UNL     1     -12.302   2.135 -34.338  1.00  0.00     0.045 A 
ENDBRANCH  23  26
ENDBRANCH   4  22
TORSDOF 5
ENDMDL
MODEL 4
REMARK VINA RESULT:      -8.0      4.442     11.158
REMARK  5 active torsions:
REMARK  status: ('A' for Active; 'I' for Inactive)
REMARK    1  A    between atoms: C_6  and  N_7 
REMARK       I    between atoms: N_7  and  C_8 
REMARK       I    between atoms: C_8  and  N_9 
REMARK    2  A    between atoms: N_9  and  C_10 
REMARK    3  A    between atoms: C_10  and  C_11 
REMARK    4  A    between atoms: C_14  and  N_15 
REMARK       I    between atoms: N_15  and  C_16 
REMARK    5  A    between atoms: C_16  and  C_17 
ROOT
HETATM    1  C   UNL     1      -5.354   2.303 -32.377  1.00  0.00    -0.040 A 
HETATM    2  C   UNL     1      -6.327   2.840 -31.526  1.00  0.00     0.011 A 
HETATM    3  C   UNL     1      -7.688   2.711 -31.823  1.00  0.00     0.030 A 
HETATM    4  C   UNL     1      -8.102   2.030 -32.967  1.00  0.00     0.035 A 
HETATM    5  C   UNL     1      -7.131   1.496 -33.822  1.00  0.00     0.030 A 
HETATM    6  C   UNL     1      -5.769   1.630 -33.531  1.00  0.00     0.011 A 
ENDROOT
BRANCH   1   7
HETATM    7  C   UNL     1      -3.895   2.384 -32.016  1.00  0.00     0.162 C 
BRANCH   7   8
HETATM    8  N   UNL     1      -3.230   3.389 -32.815  1.00  0.00    -0.339 N 
HETATM    9  C   UNL     1      -2.485   4.457 -32.414  1.00  0.00     0.320 C 
HETATM   10  N   UNL     1      -2.065   4.438 -31.113  1.00  0.00    -0.309 N 
HETATM   11  O   UNL     1      -2.253   5.330 -33.244  1.00  0.00    -0.247 OA
HETATM   12  H   UNL     1      -2.162   3.561 -30.629  1.00  0.00     0.170 HD
HETATM   13  H   UNL     1      -3.537   3.495 -33.774  1.00  0.00     0.164 HD
BRANCH  10  14
HETATM   14  C   UNL     1      -1.324   5.431 -30.436  1.00  0.00     0.037 A 
HETATM   15  C   UNL     1      -1.826   6.691 -30.109  1.00  0.00     0.049 A 
HETATM   16  C   UNL     1      -1.022   7.625 -29.441  1.00  0.00     0.019 A 
HETATM   17  C   UNL     1       0.300   7.317 -29.086  1.00  0.00    -0.044 A 
HETATM   18 BR   UNL     1      -1.794   9.316 -29.036  1.00  0.00    -0.051 Br
HETATM   19  C   UNL     1       1.195   8.293 -28.378  1.00  0.00     0.049 C 
HETATM   20  C   UNL     1       0.791   6.044 -29.405  1.00  0.00     0.010 A 
HETATM   21  C   UNL     1      -0.013   5.112 -30.068  1.00  0.00     0.030 A 
ENDBRANCH  10  14
ENDBRANCH   7   8
ENDBRANCH   1   7
BRANCH   4  22
HETATM   22  N   UNL     1      -9.449   1.815 -33.310  1.00  0.00    -0.321 N 
HETATM   23  C   UNL     1     -10.215   0.678 -33.116  1.00  0.00     0.279 C 
HETATM   24  O   UNL     1      -9.852  -0.335 -32.528  1.00  0.00    -0.265 OA
HETATM   25  H   UNL     1      -9.931   2.569 -33.787  1.00  0.00     0.169 HD
BRANCH  23  26
HETATM   26  C   UNL     1     -11.542   0.796 -33.695  1.00  0.00     0.142 A 
HETATM   27  O   UNL     1     -12.497  -0.145 -33.395  1.00  0.00    -0.317 OA
HETATM   28  C   UNL     1     -13.633   0.218 -34.046  1.00  0.00     0.143 A 
HETATM   29  C   UNL     1     -13.431   1.372 -34.766  1.00  0.00     0.027 A 
HETATM   30  C   UNL     1     -12.084   1.744 -34.542  1.00  0.00     0.045 A 
ENDBRANCH  23  26
ENDBRANCH   4  22
TORSDOF 5
ENDMDL
MODEL 5
REMARK VINA RESULT:      -7.9      6.411      9.851
REMARK  5 active torsions:
REMARK  status: ('A' for Active; 'I' for Inactive)
REMARK    1  A    between atoms: C_6  and  N_7 
REMARK       I    between atoms: N_7  and  C_8 
REMARK       I    between atoms: C_8  and  N_9 
REMARK    2  A    between atoms: N_9  and  C_10 
REMARK    3  A    between atoms: C_10  and  C_11 
REMARK    4  A    between atoms: C_14  and  N_15 
REMARK       I    between atoms: N_15  and  C_16 
REMARK    5  A    between atoms: C_16  and  C_17 
ROOT
HETATM    1  C   UNL     1      -7.368   3.167 -32.113  1.00  0.00    -0.040 A 
HETATM    2  C   UNL     1      -7.483   2.131 -31.179  1.00  0.00     0.011 A 
HETATM    3  C   UNL     1      -7.277   0.800 -31.558  1.00  0.00     0.030 A 
HETATM    4  C   UNL     1      -6.937   0.482 -32.872  1.00  0.00     0.035 A 
HETATM    5  C   UNL     1      -6.827   1.516 -33.809  1.00  0.00     0.030 A 
HETATM    6  C   UNL     1      -7.039   2.846 -33.435  1.00  0.00     0.011 A 
ENDROOT
BRANCH   1   7
HETATM    7  C   UNL     1      -7.521   4.602 -31.684  1.00  0.00     0.162 C 
BRANCH   7   8
HETATM    8  N   UNL     1      -8.436   5.298 -32.562  1.00  0.00    -0.339 N 
HETATM    9  C   UNL     1      -9.740   5.023 -32.844  1.00  0.00     0.320 C 
HETATM   10  N   UNL     1     -10.365   4.157 -31.991  1.00  0.00    -0.309 N 
HETATM   11  O   UNL     1     -10.236   5.572 -33.821  1.00  0.00    -0.247 OA
HETATM   12  H   UNL     1      -9.886   3.959 -31.129  1.00  0.00     0.170 HD
HETATM   13  H   UNL     1      -8.031   5.912 -33.258  1.00  0.00     0.164 HD
BRANCH  10  14
HETATM   14  C   UNL     1     -11.689   3.672 -32.079  1.00  0.00     0.037 A 
HETATM   15  C   UNL     1     -12.111   2.721 -33.008  1.00  0.00     0.049 A 
HETATM   16  C   UNL     1     -13.448   2.297 -33.034  1.00  0.00     0.019 A 
HETATM   17  C   UNL     1     -14.387   2.815 -32.130  1.00  0.00    -0.044 A 
HETATM   18 BR   UNL     1     -13.928   0.996 -34.336  1.00  0.00    -0.051 Br
HETATM   19  C   UNL     1     -15.828   2.393 -32.132  1.00  0.00     0.049 C 
HETATM   20  C   UNL     1     -13.951   3.759 -31.191  1.00  0.00     0.010 A 
HETATM   21  C   UNL     1     -12.617   4.179 -31.164  1.00  0.00     0.030 A 
ENDBRANCH  10  14
ENDBRANCH   7   8
ENDBRANCH   1   7
BRANCH   4  22
HETATM   22  N   UNL     1      -6.666  -0.824 -33.319  1.00  0.00    -0.321 N 
HETATM   23  C   UNL     1      -5.460  -1.354 -33.746  1.00  0.00     0.279 C 
HETATM   24  O   UNL     1      -4.381  -0.772 -33.733  1.00  0.00    -0.265 OA
HETATM   25  H   UNL     1      -7.449  -1.467 -33.370  1.00  0.00     0.169 HD
BRANCH  23  26
HETATM   26  C   UNL     1      -5.593  -2.718 -34.231  1.00  0.00     0.142 A 
HETATM   27  O   UNL     1      -4.565  -3.608 -34.035  1.00  0.00    -0.317 OA
HETATM   28  C   UNL     1      -4.961  -4.796 -34.562  1.00  0.00     0.143 A 
HETATM   29  C   UNL     1      -6.222  -4.691 -35.100  1.00  0.00     0.027 A 
HETATM   30  C   UNL     1      -6.629  -3.352 -34.888  1.00  0.00     0.045 A 
ENDBRANCH  23  26
ENDBRANCH   4  22
TORSDOF 5
ENDMDL
MODEL 6
REMARK VINA RESULT:      -7.9      4.422      9.469
REMARK  5 active torsions:
REMARK  status: ('A' for Active; 'I' for Inactive)
REMARK    1  A    between atoms: C_6  and  N_7 
REMARK       I    between atoms: N_7  and  C_8 
REMARK       I    between atoms: C_8  and  N_9 
REMARK    2  A    between atoms: N_9  and  C_10 
REMARK    3  A    between atoms: C_10  and  C_11 
REMARK    4  A    between atoms: C_14  and  N_15 
REMARK       I    between atoms: N_15  and  C_16 
REMARK    5  A    between atoms: C_16  and  C_17 
ROOT
HETATM    1  C   UNL     1      -7.349   2.395 -30.629  1.00  0.00    -0.040 A 
HETATM    2  C   UNL     1      -8.144   2.098 -31.742  1.00  0.00     0.011 A 
HETATM    3  C   UNL     1      -7.918   0.941 -32.495  1.00  0.00     0.030 A 
HETATM    4  C   UNL     1      -6.904   0.052 -32.141  1.00  0.00     0.035 A 
HETATM    5  C   UNL     1      -6.105   0.349 -31.031  1.00  0.00     0.030 A 
HETATM    6  C   UNL     1      -6.324   1.508 -30.281  1.00  0.00     0.011 A 
ENDROOT
BRANCH   1   7
HETATM    7  C   UNL     1      -7.642   3.604 -29.782  1.00  0.00     0.162 C 
BRANCH   7   8
HETATM    8  N   UNL     1      -7.630   4.804 -30.590  1.00  0.00    -0.339 N 
HETATM    9  C   UNL     1      -6.625   5.321 -31.351  1.00  0.00     0.320 C 
HETATM   10  N   UNL     1      -5.588   4.475 -31.627  1.00  0.00    -0.309 N 
HETATM   11  O   UNL     1      -6.738   6.484 -31.724  1.00  0.00    -0.247 OA
HETATM   12  H   UNL     1      -5.744   3.501 -31.425  1.00  0.00     0.170 HD
HETATM   13  H   UNL     1      -8.339   5.500 -30.395  1.00  0.00     0.164 HD
BRANCH  10  14
HETATM   14  C   UNL     1      -4.411   4.767 -32.350  1.00  0.00     0.037 A 
HETATM   15  C   UNL     1      -3.155   4.932 -31.763  1.00  0.00     0.049 A 
HETATM   16  C   UNL     1      -2.036   5.229 -32.552  1.00  0.00     0.019 A 
HETATM   17  C   UNL     1      -2.148   5.366 -33.943  1.00  0.00    -0.044 A 
HETATM   18 BR   UNL     1      -0.367   5.434 -31.662  1.00  0.00    -0.051 Br
HETATM   19  C   UNL     1      -0.974   5.692 -34.821  1.00  0.00     0.049 C 
HETATM   20  C   UNL     1      -3.409   5.184 -34.526  1.00  0.00     0.010 A 
HETATM   21  C   UNL     1      -4.526   4.885 -33.739  1.00  0.00     0.030 A 
ENDBRANCH  10  14
ENDBRANCH   7   8
ENDBRANCH   1   7
BRANCH   4  22
HETATM   22  N   UNL     1      -6.646  -1.155 -32.815  1.00  0.00    -0.321 N 
HETATM   23  C   UNL     1      -5.587  -1.464 -33.652  1.00  0.00     0.279 C 
HETATM   24  O   UNL     1      -4.630  -0.734 -33.890  1.00  0.00    -0.265 OA
HETATM   25  H   UNL     1      -7.328  -1.899 -32.711  1.00  0.00     0.169 HD
BRANCH  23  26
HETATM   26  C   UNL     1      -5.714  -2.783 -34.247  1.00  0.00     0.142 A 
HETATM   27  O   UNL     1      -4.700  -3.696 -34.092  1.00  0.00    -0.317 OA
HETATM   28  C   UNL     1      -5.088  -4.834 -34.723  1.00  0.00     0.143 A 
HETATM   29  C   UNL     1      -6.331  -4.675 -35.288  1.00  0.00     0.027 A 
HETATM   30  C   UNL     1      -6.735  -3.354 -34.983  1.00  0.00     0.045 A 
ENDBRANCH  23  26
ENDBRANCH   4  22
TORSDOF 5
ENDMDL
MODEL 7
REMARK VINA RESULT:      -7.7      4.203      9.701
REMARK  5 active torsions:
REMARK  status: ('A' for Active; 'I' for Inactive)
REMARK    1  A    between atoms: C_6  and  N_7 
REMARK       I    between atoms: N_7  and  C_8 
REMARK       I    between atoms: C_8  and  N_9 
REMARK    2  A    between atoms: N_9  and  C_10 
REMARK    3  A    between atoms: C_10  and  C_11 
REMARK    4  A    between atoms: C_14  and  N_15 
REMARK       I    between atoms: N_15  and  C_16 
REMARK    5  A    between atoms: C_16  and  C_17 
ROOT
HETATM    1  C   UNL     1      -6.785   2.535 -31.135  1.00  0.00    -0.040 A 
HETATM    2  C   UNL     1      -6.880   2.187 -32.487  1.00  0.00     0.011 A 
HETATM    3  C   UNL     1      -6.411   0.950 -32.942  1.00  0.00     0.030 A 
HETATM    4  C   UNL     1      -5.852   0.033 -32.052  1.00  0.00     0.035 A 
HETATM    5  C   UNL     1      -5.752   0.381 -30.700  1.00  0.00     0.030 A 
HETATM    6  C   UNL     1      -6.214   1.619 -30.244  1.00  0.00     0.011 A 
ENDROOT
BRANCH   1   7
HETATM    7  C   UNL     1      -7.355   3.837 -30.640  1.00  0.00     0.162 C 
BRANCH   7   8
HETATM    8  N   UNL     1      -7.010   4.916 -31.539  1.00  0.00    -0.339 N 
HETATM    9  C   UNL     1      -5.829   5.580 -31.677  1.00  0.00     0.320 C 
HETATM   10  N   UNL     1      -4.739   4.985 -31.105  1.00  0.00    -0.309 N 
HETATM   11  O   UNL     1      -5.843   6.637 -32.298  1.00  0.00    -0.247 OA
HETATM   12  H   UNL     1      -4.857   4.029 -30.815  1.00  0.00     0.170 HD
HETATM   13  H   UNL     1      -7.775   5.437 -31.951  1.00  0.00     0.164 HD
BRANCH  10  14
HETATM   14  C   UNL     1      -3.417   5.478 -31.063  1.00  0.00     0.037 A 
HETATM   15  C   UNL     1      -2.992   6.502 -30.215  1.00  0.00     0.049 A 
HETATM   16  C   UNL     1      -1.660   6.939 -30.239  1.00  0.00     0.019 A 
HETATM   17  C   UNL     1      -0.727   6.361 -31.112  1.00  0.00    -0.044 A 
HETATM   18 BR   UNL     1      -1.176   8.338 -29.045  1.00  0.00    -0.051 Br
HETATM   19  C   UNL     1       0.706   6.807 -31.174  1.00  0.00     0.049 C 
HETATM   20  C   UNL     1      -1.158   5.324 -31.950  1.00  0.00     0.010 A 
HETATM   21  C   UNL     1      -2.485   4.886 -31.922  1.00  0.00     0.030 A 
ENDBRANCH  10  14
ENDBRANCH   7   8
ENDBRANCH   1   7
BRANCH   4  22
HETATM   22  N   UNL     1      -5.403  -1.248 -32.422  1.00  0.00    -0.321 N 
HETATM   23  C   UNL     1      -4.335  -1.584 -33.237  1.00  0.00     0.279 C 
HETATM   24  O   UNL     1      -3.535  -0.793 -33.725  1.00  0.00    -0.265 OA
HETATM   25  H   UNL     1      -5.936  -2.041 -32.081  1.00  0.00     0.169 HD
BRANCH  23  26
HETATM   26  C   UNL     1      -4.243  -3.014 -33.471  1.00  0.00     0.142 A 
HETATM   27  O   UNL     1      -5.037  -3.595 -34.429  1.00  0.00    -0.317 OA
HETATM   28  C   UNL     1      -4.733  -4.919 -34.451  1.00  0.00     0.143 A 
HETATM   29  C   UNL     1      -3.760  -5.208 -33.523  1.00  0.00     0.027 A 
HETATM   30  C   UNL     1      -3.445  -3.982 -32.890  1.00  0.00     0.045 A 
ENDBRANCH  23  26
ENDBRANCH   4  22
TORSDOF 5
ENDMDL
MODEL 8
REMARK VINA RESULT:      -7.7     17.556     21.584
REMARK  5 active torsions:
REMARK  status: ('A' for Active; 'I' for Inactive)
REMARK    1  A    between atoms: C_6  and  N_7 
REMARK       I    between atoms: N_7  and  C_8 
REMARK       I    between atoms: C_8  and  N_9 
REMARK    2  A    between atoms: N_9  and  C_10 
REMARK    3  A    between atoms: C_10  and  C_11 
REMARK    4  A    between atoms: C_14  and  N_15 
REMARK       I    between atoms: N_15  and  C_16 
REMARK    5  A    between atoms: C_16  and  C_17 
ROOT
HETATM    1  C   UNL     1      -6.955 -13.786 -37.873  1.00  0.00    -0.040 A 
HETATM    2  C   UNL     1      -7.684 -14.950 -37.603  1.00  0.00     0.011 A 
HETATM    3  C   UNL     1      -8.660 -15.406 -38.496  1.00  0.00     0.030 A 
HETATM    4  C   UNL     1      -8.914 -14.717 -39.681  1.00  0.00     0.035 A 
HETATM    5  C   UNL     1      -8.190 -13.550 -39.950  1.00  0.00     0.030 A 
HETATM    6  C   UNL     1      -7.218 -13.088 -39.057  1.00  0.00     0.011 A 
ENDROOT
BRANCH   1   7
HETATM    7  C   UNL     1      -5.858 -13.340 -36.943  1.00  0.00     0.162 C 
BRANCH   7   8
HETATM    8  N   UNL     1      -4.984 -12.398 -37.607  1.00  0.00    -0.339 N 
HETATM    9  C   UNL     1      -3.678 -12.540 -37.970  1.00  0.00     0.320 C 
HETATM   10  N   UNL     1      -3.195 -13.818 -37.973  1.00  0.00    -0.309 N 
HETATM   11  O   UNL     1      -3.059 -11.523 -38.264  1.00  0.00    -0.247 OA
HETATM   12  H   UNL     1      -3.881 -14.552 -37.909  1.00  0.00     0.170 HD
HETATM   13  H   UNL     1      -5.257 -11.422 -37.588  1.00  0.00     0.164 HD
BRANCH  10  14
HETATM   14  C   UNL     1      -1.878 -14.237 -38.264  1.00  0.00     0.037 A 
HETATM   15  C   UNL     1      -1.063 -14.929 -37.367  1.00  0.00     0.049 A 
HETATM   16  C   UNL     1       0.237 -15.303 -37.732  1.00  0.00     0.019 A 
HETATM   17  C   UNL     1       0.749 -14.992 -39.000  1.00  0.00    -0.044 A 
HETATM   18 BR   UNL     1       1.272 -16.245 -36.443  1.00  0.00    -0.051 Br
HETATM   19  C   UNL     1       2.140 -15.367 -39.425  1.00  0.00     0.049 C 
HETATM   20  C   UNL     1      -0.080 -14.310 -39.900  1.00  0.00     0.010 A 
HETATM   21  C   UNL     1      -1.379 -13.940 -39.537  1.00  0.00     0.030 A 
ENDBRANCH  10  14
ENDBRANCH   7   8
ENDBRANCH   1   7
BRANCH   4  22
HETATM   22  N   UNL     1      -9.842 -15.137 -40.651  1.00  0.00    -0.321 N 
HETATM   23  C   UNL     1     -11.092 -14.610 -40.931  1.00  0.00     0.279 C 
HETATM   24  O   UNL     1     -11.578 -13.612 -40.410  1.00  0.00    -0.265 OA
HETATM   25  H   UNL     1      -9.594 -15.947 -41.208  1.00  0.00     0.169 HD
BRANCH  23  26
HETATM   26  C   UNL     1     -11.805 -15.377 -41.938  1.00  0.00     0.142 A 
HETATM   27  O   UNL     1     -13.179 -15.382 -41.936  1.00  0.00    -0.317 OA
HETATM   28  C   UNL     1     -13.576 -16.151 -42.984  1.00  0.00     0.143 A 
HETATM   29  C   UNL     1     -12.486 -16.648 -43.660  1.00  0.00     0.027 A 
HETATM   30  C   UNL     1     -11.346 -16.151 -42.986  1.00  0.00     0.045 A 
ENDBRANCH  23  26
ENDBRANCH   4  22
TORSDOF 5
ENDMDL
MODEL 9
REMARK VINA RESULT:      -7.6      7.763     10.727
REMARK  5 active torsions:
REMARK  status: ('A' for Active; 'I' for Inactive)
REMARK    1  A    between atoms: C_6  and  N_7 
REMARK       I    between atoms: N_7  and  C_8 
REMARK       I    between atoms: C_8  and  N_9 
REMARK    2  A    between atoms: N_9  and  C_10 
REMARK    3  A    between atoms: C_10  and  C_11 
REMARK    4  A    between atoms: C_14  and  N_15 
REMARK       I    between atoms: N_15  and  C_16 
REMARK    5  A    between atoms: C_16  and  C_17 
ROOT
HETATM    1  C   UNL     1     -10.991   2.139 -33.925  1.00  0.00    -0.040 A 
HETATM    2  C   UNL     1     -11.818   2.048 -35.051  1.00  0.00     0.011 A 
HETATM    3  C   UNL     1     -12.769   3.037 -35.321  1.00  0.00     0.030 A 
HETATM    4  C   UNL     1     -12.902   4.142 -34.481  1.00  0.00     0.035 A 
HETATM    5  C   UNL     1     -12.079   4.233 -33.352  1.00  0.00     0.030 A 
HETATM    6  C   UNL     1     -11.131   3.242 -33.075  1.00  0.00     0.011 A 
ENDROOT
BRANCH   1   7
HETATM    7  C   UNL     1      -9.922   1.108 -33.679  1.00  0.00     0.162 C 
BRANCH   7   8
HETATM    8  N   UNL     1      -8.997   1.061 -34.790  1.00  0.00    -0.339 N 
HETATM    9  C   UNL     1      -7.867   0.316 -34.941  1.00  0.00     0.320 C 
HETATM   10  N   UNL     1      -7.720  -0.730 -34.073  1.00  0.00    -0.309 N 
HETATM   11  O   UNL     1      -7.091   0.639 -35.834  1.00  0.00    -0.247 OA
HETATM   12  H   UNL     1      -8.536  -0.983 -33.542  1.00  0.00     0.170 HD
HETATM   13  H   UNL     1      -9.015   1.839 -35.439  1.00  0.00     0.164 HD
BRANCH  10  14
HETATM   14  C   UNL     1      -6.631  -1.624 -33.984  1.00  0.00     0.037 A 
HETATM   15  C   UNL     1      -5.515  -1.417 -33.173  1.00  0.00     0.049 A 
HETATM   16  C   UNL     1      -4.471  -2.352 -33.147  1.00  0.00     0.019 A 
HETATM   17  C   UNL     1      -4.524  -3.514 -33.932  1.00  0.00    -0.044 A 
HETATM   18 BR   UNL     1      -2.993  -1.983 -32.009  1.00  0.00    -0.051 Br
HETATM   19  C   UNL     1      -3.422  -4.535 -33.938  1.00  0.00     0.049 C 
HETATM   20  C   UNL     1      -5.654  -3.721 -34.732  1.00  0.00     0.010 A 
HETATM   21  C   UNL     1      -6.697  -2.790 -34.755  1.00  0.00     0.030 A 
ENDBRANCH  10  14
ENDBRANCH   7   8
ENDBRANCH   1   7
BRANCH   4  22
HETATM   22  N   UNL     1     -13.798   5.202 -34.710  1.00  0.00    -0.321 N 
HETATM   23  C   UNL     1     -13.575   6.385 -35.393  1.00  0.00     0.279 C 
HETATM   24  O   UNL     1     -12.546   6.680 -35.991  1.00  0.00    -0.265 OA
HETATM   25  H   UNL     1     -14.725   5.119 -34.306  1.00  0.00     0.169 HD
BRANCH  23  26
HETATM   26  C   UNL     1     -14.714   7.285 -35.334  1.00  0.00     0.142 A 
HETATM   27  O   UNL     1     -14.790   8.216 -34.327  1.00  0.00    -0.317 OA
HETATM   28  C   UNL     1     -15.930   8.926 -34.525  1.00  0.00     0.143 A 
HETATM   29  C   UNL     1     -16.598   8.470 -35.637  1.00  0.00     0.027 A 
HETATM   30  C   UNL     1     -15.816   7.412 -36.158  1.00  0.00     0.045 A 
ENDBRANCH  23  26
ENDBRANCH   4  22
TORSDOF 5
ENDMDL
MODEL 10
REMARK VINA RESULT:      -7.6      4.623      7.824
REMARK  5 active torsions:
REMARK  status: ('A' for Active; 'I' for Inactive)
REMARK    1  A    between atoms: C_6  and  N_7 
REMARK       I    between atoms: N_7  and  C_8 
REMARK       I    between atoms: C_8  and  N_9 
REMARK    2  A    between atoms: N_9  and  C_10 
REMARK    3  A    between atoms: C_10  and  C_11 
REMARK    4  A    between atoms: C_14  and  N_15 
REMARK       I    between atoms: N_15  and  C_16 
REMARK    5  A    between atoms: C_16  and  C_17 
ROOT
HETATM    1  C   UNL     1      -5.432   3.524 -32.500  1.00  0.00    -0.040 A 
HETATM    2  C   UNL     1      -6.134   3.103 -33.636  1.00  0.00     0.011 A 
HETATM    3  C   UNL     1      -7.458   3.499 -33.846  1.00  0.00     0.030 A 
HETATM    4  C   UNL     1      -8.101   4.336 -32.934  1.00  0.00     0.035 A 
HETATM    5  C   UNL     1      -7.403   4.755 -31.796  1.00  0.00     0.030 A 
HETATM    6  C   UNL     1      -6.081   4.355 -31.580  1.00  0.00     0.011 A 
ENDROOT
BRANCH   1   7
HETATM    7  C   UNL     1      -3.985   3.152 -32.316  1.00  0.00     0.162 C 
BRANCH   7   8
HETATM    8  N   UNL     1      -3.865   1.988 -31.466  1.00  0.00    -0.339 N 
HETATM    9  C   UNL     1      -4.231   0.699 -31.713  1.00  0.00     0.320 C 
HETATM   10  N   UNL     1      -4.484   0.389 -33.020  1.00  0.00    -0.309 N 
HETATM   11  O   UNL     1      -4.295  -0.065 -30.755  1.00  0.00    -0.247 OA
HETATM   12  H   UNL     1      -4.187   1.067 -33.702  1.00  0.00     0.170 HD
HETATM   13  H   UNL     1      -3.735   2.150 -30.475  1.00  0.00     0.164 HD
BRANCH  10  14
HETATM   14  C   UNL     1      -4.919  -0.850 -33.539  1.00  0.00     0.037 A 
HETATM   15  C   UNL     1      -4.168  -2.026 -33.484  1.00  0.00     0.049 A 
HETATM   16  C   UNL     1      -4.670  -3.215 -34.031  1.00  0.00     0.019 A 
HETATM   17  C   UNL     1      -5.932  -3.252 -34.642  1.00  0.00    -0.044 A 
HETATM   18 BR   UNL     1      -3.576  -4.766 -33.907  1.00  0.00    -0.051 Br
HETATM   19  C   UNL     1      -6.500  -4.505 -35.247  1.00  0.00     0.049 C 
HETATM   20  C   UNL     1      -6.684  -2.071 -34.680  1.00  0.00     0.010 A 
HETATM   21  C   UNL     1      -6.185  -0.886 -34.131  1.00  0.00     0.030 A 
ENDBRANCH  10  14
ENDBRANCH   7   8
ENDBRANCH   1   7
BRANCH   4  22
HETATM   22  N   UNL     1      -9.413   4.818 -33.099  1.00  0.00    -0.321 N 
HETATM   23  C   UNL     1      -9.958   5.473 -34.190  1.00  0.00     0.279 C 
HETATM   24  O   UNL     1      -9.387   5.680 -35.255  1.00  0.00    -0.265 OA
HETATM   25  H   UNL     1     -10.048   4.706 -32.316  1.00  0.00     0.169 HD
BRANCH  23  26
HETATM   26  C   UNL     1     -11.323   5.910 -33.951  1.00  0.00     0.142 A 
HETATM   27  O   UNL     1     -11.697   6.298 -32.688  1.00  0.00    -0.317 OA
HETATM   28  C   UNL     1     -13.001   6.673 -32.756  1.00  0.00     0.143 A 
HETATM   29  C   UNL     1     -13.480   6.531 -34.037  1.00  0.00     0.027 A 
HETATM   30  C   UNL     1     -12.400   6.038 -34.807  1.00  0.00     0.045 A 
ENDBRANCH  23  26
ENDBRANCH   4  22
TORSDOF 5
ENDMDL
