MODEL 1
REMARK VINA RESULT:      -7.2      0.000      0.000
REMARK  3 active torsions:
REMARK  status: ('A' for Active; 'I' for Inactive)
REMARK       I    between atoms: C_2  and  N_3 
REMARK    1  A    between atoms: N_3  and  C_4 
REMARK    2  A    between atoms: C_7  and  N_8 
REMARK       I    between atoms: N_8  and  C_9 
REMARK    3  A    between atoms: C_9  and  C_10 
ROOT
HETATM    1  C   UNL     1      -3.270   4.947 -31.285  1.00  0.00     0.052 A 
HETATM    2  C   UNL     1      -2.500   3.996 -31.943  1.00  0.00     0.148 A 
HETATM    3  N   UNL     1      -2.984   2.820 -32.425  1.00  0.00    -0.241 NA
HETATM    4  C   UNL     1      -4.296   2.564 -32.248  1.00  0.00     0.130 A 
HETATM    5  C   UNL     1      -5.142   3.446 -31.594  1.00  0.00     0.053 A 
HETATM    6  C   UNL     1      -4.620   4.649 -31.111  1.00  0.00     0.035 A 
ENDROOT
BRANCH   4   7
HETATM    7  N   UNL     1      -4.694   1.343 -32.794  1.00  0.00    -0.307 N 
HETATM    8  C   UNL     1      -4.527   0.084 -32.272  1.00  0.00     0.257 C 
HETATM    9  O   UNL     1      -3.991  -0.190 -31.203  1.00  0.00    -0.267 OA
HETATM   10  H   UNL     1      -5.222   1.482 -33.644  1.00  0.00     0.170 HD
BRANCH   8  11
HETATM   11  C   UNL     1      -5.087  -1.034 -33.090  1.00  0.00     0.032 A 
HETATM   12  C   UNL     1      -4.216  -2.057 -33.496  1.00  0.00     0.018 A 
HETATM   13  C   UNL     1      -4.688  -3.129 -34.258  1.00  0.00     0.025 A 
HETATM   14  C   UNL     1      -6.031  -3.178 -34.623  1.00  0.00     0.034 A 
HETATM   15 CL   UNL     1      -6.615  -4.498 -35.558  1.00  0.00    -0.084 Cl
HETATM   16  C   UNL     1      -6.904  -2.160 -34.241  1.00  0.00     0.025 A 
HETATM   17  C   UNL     1      -6.434  -1.084 -33.480  1.00  0.00     0.018 A 
ENDBRANCH   8  11
ENDBRANCH   4   7
BRANCH   1  18
HETATM   18  N   UNL     1      -2.800   6.181 -30.791  1.00  0.00    -0.326 N 
HETATM   19  C   UNL     1      -2.517   7.312 -31.534  1.00  0.00     0.218 C 
HETATM   20  C   UNL     1      -2.068   8.462 -30.670  1.00  0.00     0.117 C 
HETATM   21  O   UNL     1      -2.613   7.427 -32.750  1.00  0.00    -0.274 OA
HETATM   22  H   UNL     1      -2.667   6.244 -29.790  1.00  0.00     0.169 HD
ENDBRANCH   1  18
TORSDOF 3
ENDMDL
MODEL 2
REMARK VINA RESULT:      -7.2      5.586      8.155
REMARK  3 active torsions:
REMARK  status: ('A' for Active; 'I' for Inactive)
REMARK       I    between atoms: C_2  and  N_3 
REMARK    1  A    between atoms: N_3  and  C_4 
REMARK    2  A    between atoms: C_7  and  N_8 
REMARK       I    between atoms: N_8  and  C_9 
REMARK    3  A    between atoms: C_9  and  C_10 
ROOT
HETATM    1  C   UNL     1       1.373   7.762 -26.269  1.00  0.00     0.052 A 
HETATM    2  C   UNL     1       0.379   6.802 -26.411  1.00  0.00     0.148 A 
HETATM    3  N   UNL     1      -0.228   6.499 -27.589  1.00  0.00    -0.241 NA
HETATM    4  C   UNL     1       0.161   7.178 -28.687  1.00  0.00     0.130 A 
HETATM    5  C   UNL     1       1.135   8.162 -28.643  1.00  0.00     0.053 A 
HETATM    6  C   UNL     1       1.746   8.453 -27.420  1.00  0.00     0.035 A 
ENDROOT
BRANCH   4   7
HETATM    7  N   UNL     1      -0.509   6.779 -29.844  1.00  0.00    -0.307 N 
HETATM    8  C   UNL     1      -0.297   5.656 -30.605  1.00  0.00     0.257 C 
HETATM    9  O   UNL     1       0.535   4.782 -30.387  1.00  0.00    -0.267 OA
HETATM   10  H   UNL     1      -1.273   7.405 -30.053  1.00  0.00     0.170 HD
BRANCH   8  11
HETATM   11  C   UNL     1      -1.200   5.495 -31.785  1.00  0.00     0.032 A 
HETATM   12  C   UNL     1      -1.122   6.450 -32.811  1.00  0.00     0.018 A 
HETATM   13  C   UNL     1      -1.939   6.345 -33.940  1.00  0.00     0.025 A 
HETATM   14  C   UNL     1      -2.841   5.289 -34.043  1.00  0.00     0.034 A 
HETATM   15 CL   UNL     1      -3.846   5.156 -35.433  1.00  0.00    -0.084 Cl
HETATM   16  C   UNL     1      -2.941   4.344 -33.024  1.00  0.00     0.025 A 
HETATM   17  C   UNL     1      -2.126   4.447 -31.891  1.00  0.00     0.018 A 
ENDBRANCH   8  11
ENDBRANCH   4   7
BRANCH   1  18
HETATM   18  N   UNL     1       2.031   8.085 -25.065  1.00  0.00    -0.326 N 
HETATM   19  C   UNL     1       1.771   9.170 -24.249  1.00  0.00     0.218 C 
HETATM   20  C   UNL     1       2.647   9.181 -23.022  1.00  0.00     0.117 C 
HETATM   21  O   UNL     1       0.933  10.043 -24.442  1.00  0.00    -0.274 OA
HETATM   22  H   UNL     1       2.761   7.451 -24.767  1.00  0.00     0.169 HD
ENDBRANCH   1  18
TORSDOF 3
ENDMDL
MODEL 3
REMARK VINA RESULT:      -7.1      5.270      6.549
REMARK  3 active torsions:
REMARK  status: ('A' for Active; 'I' for Inactive)
REMARK       I    between atoms: C_2  and  N_3 
REMARK    1  A    between atoms: N_3  and  C_4 
REMARK    2  A    between atoms: C_7  and  N_8 
REMARK       I    between atoms: N_8  and  C_9 
REMARK    3  A    between atoms: C_9  and  C_10 
ROOT
HETATM    1  C   UNL     1     -10.930   3.028 -33.433  1.00  0.00     0.052 A 
HETATM    2  C   UNL     1      -9.554   3.209 -33.499  1.00  0.00     0.148 A 
HETATM    3  N   UNL     1      -8.652   2.193 -33.554  1.00  0.00    -0.241 NA
HETATM    4  C   UNL     1      -9.126   0.931 -33.541  1.00  0.00     0.130 A 
HETATM    5  C   UNL     1     -10.481   0.651 -33.465  1.00  0.00     0.053 A 
HETATM    6  C   UNL     1     -11.389   1.712 -33.413  1.00  0.00     0.035 A 
ENDROOT
BRANCH   4   7
HETATM    7  N   UNL     1      -8.122  -0.033 -33.619  1.00  0.00    -0.307 N 
HETATM    8  C   UNL     1      -7.261  -0.282 -34.661  1.00  0.00     0.257 C 
HETATM    9  O   UNL     1      -7.222   0.324 -35.726  1.00  0.00    -0.267 OA
HETATM   10  H   UNL     1      -8.028  -0.529 -32.745  1.00  0.00     0.170 HD
BRANCH   8  11
HETATM   11  C   UNL     1      -6.272  -1.378 -34.432  1.00  0.00     0.032 A 
HETATM   12  C   UNL     1      -6.590  -2.663 -34.900  1.00  0.00     0.018 A 
HETATM   13  C   UNL     1      -5.699  -3.724 -34.719  1.00  0.00     0.025 A 
HETATM   14  C   UNL     1      -4.490  -3.505 -34.063  1.00  0.00     0.034 A 
HETATM   15 CL   UNL     1      -3.390  -4.810 -33.841  1.00  0.00    -0.084 Cl
HETATM   16  C   UNL     1      -4.169  -2.239 -33.577  1.00  0.00     0.025 A 
HETATM   17  C   UNL     1      -5.061  -1.174 -33.756  1.00  0.00     0.018 A 
ENDBRANCH   8  11
ENDBRANCH   4   7
BRANCH   1  18
HETATM   18  N   UNL     1     -11.890   4.060 -33.393  1.00  0.00    -0.326 N 
HETATM   19  C   UNL     1     -12.593   4.573 -34.467  1.00  0.00     0.218 C 
HETATM   20  C   UNL     1     -13.565   5.647 -34.049  1.00  0.00     0.117 C 
HETATM   21  O   UNL     1     -12.489   4.228 -35.638  1.00  0.00    -0.274 OA
HETATM   22  H   UNL     1     -12.088   4.455 -32.483  1.00  0.00     0.169 HD
ENDBRANCH   1  18
TORSDOF 3
ENDMDL
MODEL 4
REMARK VINA RESULT:      -7.1      4.275      8.680
REMARK  3 active torsions:
REMARK  status: ('A' for Active; 'I' for Inactive)
REMARK       I    between atoms: C_2  and  N_3 
REMARK    1  A    between atoms: N_3  and  C_4 
REMARK    2  A    between atoms: C_7  and  N_8 
REMARK       I    between atoms: N_8  and  C_9 
REMARK    3  A    between atoms: C_9  and  C_10 
ROOT
HETATM    1  C   UNL     1      -5.030   0.723 -32.665  1.00  0.00     0.052 A 
HETATM    2  C   UNL     1      -3.890   0.539 -31.893  1.00  0.00     0.148 A 
HETATM    3  N   UNL     1      -3.132   1.552 -31.394  1.00  0.00    -0.241 NA
HETATM    4  C   UNL     1      -3.514   2.815 -31.673  1.00  0.00     0.130 A 
HETATM    5  C   UNL     1      -4.629   3.099 -32.445  1.00  0.00     0.053 A 
HETATM    6  C   UNL     1      -5.393   2.040 -32.943  1.00  0.00     0.035 A 
ENDROOT
BRANCH   4   7
HETATM    7  N   UNL     1      -2.681   3.778 -31.101  1.00  0.00    -0.307 N 
HETATM    8  C   UNL     1      -1.803   4.625 -31.732  1.00  0.00     0.257 C 
HETATM    9  O   UNL     1      -1.601   4.688 -32.940  1.00  0.00    -0.267 OA
HETATM   10  H   UNL     1      -2.844   3.852 -30.107  1.00  0.00     0.170 HD
BRANCH   8  11
HETATM   11  C   UNL     1      -1.062   5.567 -30.839  1.00  0.00     0.032 A 
HETATM   12  C   UNL     1      -0.027   5.049 -30.046  1.00  0.00     0.018 A 
HETATM   13  C   UNL     1       0.703   5.886 -29.198  1.00  0.00     0.025 A 
HETATM   14  C   UNL     1       0.395   7.243 -29.135  1.00  0.00     0.034 A 
HETATM   15 CL   UNL     1       1.294   8.276 -28.093  1.00  0.00    -0.084 Cl
HETATM   16  C   UNL     1      -0.642   7.768 -29.904  1.00  0.00     0.025 A 
HETATM   17  C   UNL     1      -1.377   6.931 -30.753  1.00  0.00     0.018 A 
ENDBRANCH   8  11
ENDBRANCH   4   7
BRANCH   1  18
HETATM   18  N   UNL     1      -5.844  -0.306 -33.180  1.00  0.00    -0.326 N 
HETATM   19  C   UNL     1      -5.420  -1.424 -33.873  1.00  0.00     0.218 C 
HETATM   20  C   UNL     1      -6.564  -2.333 -34.242  1.00  0.00     0.117 C 
HETATM   21  O   UNL     1      -4.264  -1.701 -34.170  1.00  0.00    -0.274 OA
HETATM   22  H   UNL     1      -6.839  -0.218 -33.015  1.00  0.00     0.169 HD
ENDBRANCH   1  18
TORSDOF 3
ENDMDL
MODEL 5
REMARK VINA RESULT:      -7.1      5.543      8.471
REMARK  3 active torsions:
REMARK  status: ('A' for Active; 'I' for Inactive)
REMARK       I    between atoms: C_2  and  N_3 
REMARK    1  A    between atoms: N_3  and  C_4 
REMARK    2  A    between atoms: C_7  and  N_8 
REMARK       I    between atoms: N_8  and  C_9 
REMARK    3  A    between atoms: C_9  and  C_10 
ROOT
HETATM    1  C   UNL     1     -11.018   1.666 -33.502  1.00  0.00     0.052 A 
HETATM    2  C   UNL     1     -10.635   2.995 -33.628  1.00  0.00     0.148 A 
HETATM    3  N   UNL     1      -9.345   3.413 -33.735  1.00  0.00    -0.241 NA
HETATM    4  C   UNL     1      -8.379   2.472 -33.714  1.00  0.00     0.130 A 
HETATM    5  C   UNL     1      -8.662   1.122 -33.580  1.00  0.00     0.053 A 
HETATM    6  C   UNL     1      -9.996   0.719 -33.475  1.00  0.00     0.035 A 
ENDROOT
BRANCH   4   7
HETATM    7  N   UNL     1      -7.095   3.002 -33.848  1.00  0.00    -0.307 N 
HETATM    8  C   UNL     1      -6.247   3.435 -32.859  1.00  0.00     0.257 C 
HETATM    9  O   UNL     1      -6.475   3.421 -31.654  1.00  0.00    -0.267 OA
HETATM   10  H   UNL     1      -6.792   2.974 -34.811  1.00  0.00     0.170 HD
BRANCH   8  11
HETATM   11  C   UNL     1      -4.917   3.935 -33.322  1.00  0.00     0.032 A 
HETATM   12  C   UNL     1      -4.881   4.765 -34.454  1.00  0.00     0.018 A 
HETATM   13  C   UNL     1      -3.665   5.265 -34.927  1.00  0.00     0.025 A 
HETATM   14  C   UNL     1      -2.480   4.932 -34.274  1.00  0.00     0.034 A 
HETATM   15 CL   UNL     1      -0.983   5.549 -34.854  1.00  0.00    -0.084 Cl
HETATM   16  C   UNL     1      -2.500   4.094 -33.160  1.00  0.00     0.025 A 
HETATM   17  C   UNL     1      -3.716   3.590 -32.685  1.00  0.00     0.018 A 
ENDBRANCH   8  11
ENDBRANCH   4   7
BRANCH   1  18
HETATM   18  N   UNL     1     -12.346   1.203 -33.407  1.00  0.00    -0.326 N 
HETATM   19  C   UNL     1     -13.287   1.187 -34.419  1.00  0.00     0.218 C 
HETATM   20  C   UNL     1     -14.596   0.588 -33.969  1.00  0.00     0.117 C 
HETATM   21  O   UNL     1     -13.131   1.589 -35.566  1.00  0.00    -0.274 OA
HETATM   22  H   UNL     1     -12.632   0.836 -32.508  1.00  0.00     0.169 HD
ENDBRANCH   1  18
TORSDOF 3
ENDMDL
MODEL 6
REMARK VINA RESULT:      -6.8     16.514     17.662
REMARK  3 active torsions:
REMARK  status: ('A' for Active; 'I' for Inactive)
REMARK       I    between atoms: C_2  and  N_3 
REMARK    1  A    between atoms: N_3  and  C_4 
REMARK    2  A    between atoms: C_7  and  N_8 
REMARK       I    between atoms: N_8  and  C_9 
REMARK    3  A    between atoms: C_9  and  C_10 
ROOT
HETATM    1  C   UNL     1      -7.660 -12.254 -40.010  1.00  0.00     0.052 A 
HETATM    2  C   UNL     1      -7.251 -12.577 -38.722  1.00  0.00     0.148 A 
HETATM    3  N   UNL     1      -6.018 -13.058 -38.410  1.00  0.00    -0.241 NA
HETATM    4  C   UNL     1      -5.140 -13.234 -39.418  1.00  0.00     0.130 A 
HETATM    5  C   UNL     1      -5.460 -12.951 -40.737  1.00  0.00     0.053 A 
HETATM    6  C   UNL     1      -6.733 -12.455 -41.031  1.00  0.00     0.035 A 
ENDROOT
BRANCH   4   7
HETATM    7  N   UNL     1      -3.902 -13.712 -38.990  1.00  0.00    -0.307 N 
HETATM    8  C   UNL     1      -2.848 -13.000 -38.470  1.00  0.00     0.257 C 
HETATM    9  O   UNL     1      -2.819 -11.789 -38.279  1.00  0.00    -0.267 OA
HETATM   10  H   UNL     1      -3.868 -14.720 -39.035  1.00  0.00     0.170 HD
BRANCH   8  11
HETATM   11  C   UNL     1      -1.653 -13.808 -38.081  1.00  0.00     0.032 A 
HETATM   12  C   UNL     1      -0.527 -13.767 -38.918  1.00  0.00     0.018 A 
HETATM   13  C   UNL     1       0.620 -14.498 -38.599  1.00  0.00     0.025 A 
HETATM   14  C   UNL     1       0.643 -15.278 -37.445  1.00  0.00     0.034 A 
HETATM   15 CL   UNL     1       2.055 -16.177 -37.048  1.00  0.00    -0.084 Cl
HETATM   16  C   UNL     1      -0.474 -15.341 -36.613  1.00  0.00     0.025 A 
HETATM   17  C   UNL     1      -1.626 -14.612 -36.931  1.00  0.00     0.018 A 
ENDBRANCH   8  11
ENDBRANCH   4   7
BRANCH   1  18
HETATM   18  N   UNL     1      -8.924 -11.738 -40.361  1.00  0.00    -0.326 N 
HETATM   19  C   UNL     1     -10.152 -12.312 -40.091  1.00  0.00     0.218 C 
HETATM   20  C   UNL     1     -11.296 -11.463 -40.583  1.00  0.00     0.117 C 
HETATM   21  O   UNL     1     -10.348 -13.376 -39.515  1.00  0.00    -0.274 OA
HETATM   22  H   UNL     1      -8.929 -10.852 -40.850  1.00  0.00     0.169 HD
ENDBRANCH   1  18
TORSDOF 3
ENDMDL
MODEL 7
REMARK VINA RESULT:      -6.7      8.826     13.338
REMARK  3 active torsions:
REMARK  status: ('A' for Active; 'I' for Inactive)
REMARK       I    between atoms: C_2  and  N_3 
REMARK    1  A    between atoms: N_3  and  C_4 
REMARK    2  A    between atoms: C_7  and  N_8 
REMARK       I    between atoms: N_8  and  C_9 
REMARK    3  A    between atoms: C_9  and  C_10 
ROOT
HETATM    1  C   UNL     1      -0.444   6.825 -28.580  1.00  0.00     0.052 A 
HETATM    2  C   UNL     1      -0.441   6.303 -27.293  1.00  0.00     0.148 A 
HETATM    3  N   UNL     1       0.433   6.674 -26.320  1.00  0.00    -0.241 NA
HETATM    4  C   UNL     1       1.357   7.607 -26.629  1.00  0.00     0.130 A 
HETATM    5  C   UNL     1       1.440   8.176 -27.890  1.00  0.00     0.053 A 
HETATM    6  C   UNL     1       0.528   7.780 -28.872  1.00  0.00     0.035 A 
ENDROOT
BRANCH   4   7
HETATM    7  N   UNL     1       2.191   7.929 -25.559  1.00  0.00    -0.307 N 
HETATM    8  C   UNL     1       2.175   9.059 -24.778  1.00  0.00     0.257 C 
HETATM    9  O   UNL     1       1.396  10.000 -24.886  1.00  0.00    -0.267 OA
HETATM   10  H   UNL     1       2.817   7.165 -25.346  1.00  0.00     0.170 HD
BRANCH   8  11
HETATM   11  C   UNL     1       3.192   9.102 -23.684  1.00  0.00     0.032 A 
HETATM   12  C   UNL     1       4.327   9.907 -23.870  1.00  0.00     0.018 A 
HETATM   13  C   UNL     1       5.306   9.990 -22.877  1.00  0.00     0.025 A 
HETATM   14  C   UNL     1       5.158   9.262 -21.698  1.00  0.00     0.034 A 
HETATM   15 CL   UNL     1       6.362   9.364 -20.473  1.00  0.00    -0.084 Cl
HETATM   16  C   UNL     1       4.044   8.445 -21.508  1.00  0.00     0.025 A 
HETATM   17  C   UNL     1       3.062   8.359 -22.502  1.00  0.00     0.018 A 
ENDBRANCH   8  11
ENDBRANCH   4   7
BRANCH   1  18
HETATM   18  N   UNL     1      -1.348   6.473 -29.603  1.00  0.00    -0.326 N 
HETATM   19  C   UNL     1      -1.186   5.466 -30.536  1.00  0.00     0.218 C 
HETATM   20  C   UNL     1      -2.371   5.350 -31.459  1.00  0.00     0.117 C 
HETATM   21  O   UNL     1      -0.219   4.720 -30.641  1.00  0.00    -0.274 OA
HETATM   22  H   UNL     1      -2.207   7.007 -29.649  1.00  0.00     0.169 HD
ENDBRANCH   1  18
TORSDOF 3
ENDMDL
MODEL 8
REMARK VINA RESULT:      -6.7      4.438      8.913
REMARK  3 active torsions:
REMARK  status: ('A' for Active; 'I' for Inactive)
REMARK       I    between atoms: C_2  and  N_3 
REMARK    1  A    between atoms: N_3  and  C_4 
REMARK    2  A    between atoms: C_7  and  N_8 
REMARK       I    between atoms: N_8  and  C_9 
REMARK    3  A    between atoms: C_9  and  C_10 
ROOT
HETATM    1  C   UNL     1      -4.749   1.386 -32.732  1.00  0.00     0.052 A 
HETATM    2  C   UNL     1      -3.671   1.208 -31.874  1.00  0.00     0.148 A 
HETATM    3  N   UNL     1      -2.999   2.223 -31.268  1.00  0.00    -0.241 NA
HETATM    4  C   UNL     1      -3.407   3.483 -31.521  1.00  0.00     0.130 A 
HETATM    5  C   UNL     1      -4.465   3.762 -32.372  1.00  0.00     0.053 A 
HETATM    6  C   UNL     1      -5.141   2.700 -32.980  1.00  0.00     0.035 A 
ENDROOT
BRANCH   4   7
HETATM    7  N   UNL     1      -2.666   4.448 -30.839  1.00  0.00    -0.307 N 
HETATM    8  C   UNL     1      -1.463   5.007 -31.197  1.00  0.00     0.257 C 
HETATM    9  O   UNL     1      -0.822   4.753 -32.212  1.00  0.00    -0.267 OA
HETATM   10  H   UNL     1      -3.164   4.777 -30.025  1.00  0.00     0.170 HD
BRANCH   8  11
HETATM   11  C   UNL     1      -0.927   6.039 -30.260  1.00  0.00     0.032 A 
HETATM   12  C   UNL     1      -1.600   7.268 -30.175  1.00  0.00     0.018 A 
HETATM   13  C   UNL     1      -1.146   8.267 -29.311  1.00  0.00     0.025 A 
HETATM   14  C   UNL     1      -0.011   8.044 -28.534  1.00  0.00     0.034 A 
HETATM   15 CL   UNL     1       0.549   9.272 -27.467  1.00  0.00    -0.084 Cl
HETATM   16  C   UNL     1       0.677   6.835 -28.621  1.00  0.00     0.025 A 
HETATM   17  C   UNL     1       0.225   5.833 -29.487  1.00  0.00     0.018 A 
ENDBRANCH   8  11
ENDBRANCH   4   7
BRANCH   1  18
HETATM   18  N   UNL     1      -5.474   0.354 -33.359  1.00  0.00    -0.326 N 
HETATM   19  C   UNL     1      -6.633  -0.239 -32.894  1.00  0.00     0.218 C 
HETATM   20  C   UNL     1      -7.156  -1.287 -33.843  1.00  0.00     0.117 C 
HETATM   21  O   UNL     1      -7.216   0.023 -31.848  1.00  0.00    -0.274 OA
HETATM   22  H   UNL     1      -5.113   0.023 -34.244  1.00  0.00     0.169 HD
ENDBRANCH   1  18
TORSDOF 3
ENDMDL
MODEL 9
REMARK VINA RESULT:      -6.7      5.920      7.940
REMARK  3 active torsions:
REMARK  status: ('A' for Active; 'I' for Inactive)
REMARK       I    between atoms: C_2  and  N_3 
REMARK    1  A    between atoms: N_3  and  C_4 
REMARK    2  A    between atoms: C_7  and  N_8 
REMARK       I    between atoms: N_8  and  C_9 
REMARK    3  A    between atoms: C_9  and  C_10 
ROOT
HETATM    1  C   UNL     1      -6.289  -0.532 -32.276  1.00  0.00     0.052 A 
HETATM    2  C   UNL     1      -7.032   0.174 -31.338  1.00  0.00     0.148 A 
HETATM    3  N   UNL     1      -8.340   0.511 -31.494  1.00  0.00    -0.241 NA
HETATM    4  C   UNL     1      -8.951   0.135 -32.636  1.00  0.00     0.130 A 
HETATM    5  C   UNL     1      -8.290  -0.561 -33.635  1.00  0.00     0.053 A 
HETATM    6  C   UNL     1      -6.947  -0.897 -33.449  1.00  0.00     0.035 A 
ENDROOT
BRANCH   4   7
HETATM    7  N   UNL     1     -10.293   0.513 -32.689  1.00  0.00    -0.307 N 
HETATM    8  C   UNL     1     -10.892   1.404 -33.546  1.00  0.00     0.257 C 
HETATM    9  O   UNL     1     -10.336   2.031 -34.441  1.00  0.00    -0.267 OA
HETATM   10  H   UNL     1     -10.845  -0.022 -32.034  1.00  0.00     0.170 HD
BRANCH   8  11
HETATM   11  C   UNL     1     -12.365   1.581 -33.366  1.00  0.00     0.032 A 
HETATM   12  C   UNL     1     -12.817   2.748 -32.731  1.00  0.00     0.018 A 
HETATM   13  C   UNL     1     -14.184   2.968 -32.542  1.00  0.00     0.025 A 
HETATM   14  C   UNL     1     -15.103   2.018 -32.981  1.00  0.00     0.034 A 
HETATM   15 CL   UNL     1     -16.787   2.287 -32.752  1.00  0.00    -0.084 Cl
HETATM   16  C   UNL     1     -14.667   0.846 -33.597  1.00  0.00     0.025 A 
HETATM   17  C   UNL     1     -13.298   0.622 -33.786  1.00  0.00     0.018 A 
ENDBRANCH   8  11
ENDBRANCH   4   7
BRANCH   1  18
HETATM   18  N   UNL     1      -4.938  -0.909 -32.134  1.00  0.00    -0.326 N 
HETATM   19  C   UNL     1      -3.843  -0.067 -32.130  1.00  0.00     0.218 C 
HETATM   20  C   UNL     1      -2.551  -0.814 -31.920  1.00  0.00     0.117 C 
HETATM   21  O   UNL     1      -3.861   1.151 -32.267  1.00  0.00    -0.274 OA
HETATM   22  H   UNL     1      -4.758  -1.898 -32.012  1.00  0.00     0.169 HD
ENDBRANCH   1  18
TORSDOF 3
ENDMDL
MODEL 10
REMARK VINA RESULT:      -6.7      6.114      8.584
REMARK  3 active torsions:
REMARK  status: ('A' for Active; 'I' for Inactive)
REMARK       I    between atoms: C_2  and  N_3 
REMARK    1  A    between atoms: N_3  and  C_4 
REMARK    2  A    between atoms: C_7  and  N_8 
REMARK       I    between atoms: N_8  and  C_9 
REMARK    3  A    between atoms: C_9  and  C_10 
ROOT
HETATM    1  C   UNL     1      -5.610  -1.917 -33.998  1.00  0.00     0.052 A 
HETATM    2  C   UNL     1      -6.440  -1.837 -35.109  1.00  0.00     0.148 A 
HETATM    3  N   UNL     1      -7.420  -0.907 -35.266  1.00  0.00    -0.241 NA
HETATM    4  C   UNL     1      -7.595  -0.009 -34.276  1.00  0.00     0.130 A 
HETATM    5  C   UNL     1      -6.825  -0.016 -33.124  1.00  0.00     0.053 A 
HETATM    6  C   UNL     1      -5.822  -0.980 -32.988  1.00  0.00     0.035 A 
ENDROOT
BRANCH   4   7
HETATM    7  N   UNL     1      -8.611   0.910 -34.543  1.00  0.00    -0.307 N 
HETATM    8  C   UNL     1      -9.861   0.982 -33.979  1.00  0.00     0.257 C 
HETATM    9  O   UNL     1     -10.308   0.237 -33.114  1.00  0.00    -0.267 OA
HETATM   10  H   UNL     1      -8.297   1.618 -35.191  1.00  0.00     0.170 HD
BRANCH   8  11
HETATM   11  C   UNL     1     -10.723   2.103 -34.462  1.00  0.00     0.032 A 
HETATM   12  C   UNL     1     -10.199   3.405 -34.419  1.00  0.00     0.018 A 
HETATM   13  C   UNL     1     -10.959   4.490 -34.864  1.00  0.00     0.025 A 
HETATM   14  C   UNL     1     -12.249   4.277 -35.347  1.00  0.00     0.034 A 
HETATM   15 CL   UNL     1     -13.185   5.611 -35.897  1.00  0.00    -0.084 Cl
HETATM   16  C   UNL     1     -12.788   2.992 -35.379  1.00  0.00     0.025 A 
HETATM   17  C   UNL     1     -12.029   1.904 -34.932  1.00  0.00     0.018 A 
ENDBRANCH   8  11
ENDBRANCH   4   7
BRANCH   1  18
HETATM   18  N   UNL     1      -4.575  -2.857 -33.815  1.00  0.00    -0.326 N 
HETATM   19  C   UNL     1      -4.630  -4.208 -34.101  1.00  0.00     0.218 C 
HETATM   20  C   UNL     1      -3.324  -4.904 -33.813  1.00  0.00     0.117 C 
HETATM   21  O   UNL     1      -5.595  -4.820 -34.546  1.00  0.00    -0.274 OA
HETATM   22  H   UNL     1      -3.702  -2.501 -33.448  1.00  0.00     0.169 HD
ENDBRANCH   1  18
TORSDOF 3
ENDMDL
