MODEL 1
REMARK VINA RESULT:      -9.5      0.000      0.000
REMARK  6 active torsions:
REMARK  status: ('A' for Active; 'I' for Inactive)
REMARK    1  A    between atoms: C_2  and  O_3 
REMARK    2  A    between atoms: O_3  and  C_4 
REMARK    3  A    between atoms: C_5  and  O_6 
REMARK    4  A    between atoms: O_6  and  C_7 
REMARK    5  A    between atoms: C_7  and  C_8 
REMARK    6  A    between atoms: C_18  and  C_19 
ROOT
HETATM    1  C   UNL     1      -5.005   4.273 -33.418  1.00  0.00     0.103 A 
HETATM    2  C   UNL     1      -4.873   2.912 -33.105  1.00  0.00     0.112 A 
HETATM    3  C   UNL     1      -3.846   2.455 -32.281  1.00  0.00     0.041 A 
HETATM    4  C   UNL     1      -2.934   3.364 -31.754  1.00  0.00     0.014 A 
HETATM    5  C   UNL     1      -3.048   4.737 -32.031  1.00  0.00    -0.013 A 
HETATM    6  C   UNL     1      -4.085   5.179 -32.879  1.00  0.00     0.050 A 
ENDROOT
BRANCH   5   7
HETATM    7  C   UNL     1      -2.130   5.710 -31.329  1.00  0.00     0.219 C 
HETATM    8  N   UNL     1      -1.125   5.004 -30.577  1.00  0.00    -0.332 N 
HETATM    9  C   UNL     1      -0.296   5.661 -29.708  1.00  0.00     0.256 C 
HETATM   10  H   UNL     1      -0.737   4.162 -30.978  1.00  0.00     0.165 HD
HETATM   11  O   UNL     1       0.780   5.195 -29.350  1.00  0.00    -0.267 OA
HETATM   12  C   UNL     1      -0.800   6.940 -29.232  1.00  0.00     0.073 A 
HETATM   13  C   UNL     1      -2.068   7.333 -29.601  1.00  0.00     0.088 A 
HETATM   14  C   UNL     1      -0.162   7.906 -28.395  1.00  0.00    -0.023 A 
HETATM   15  S   UNL     1      -2.506   8.830 -28.925  1.00  0.00    -0.074 SA
HETATM   16  N   UNL     1      -2.849   6.593 -30.425  1.00  0.00    -0.358 N 
HETATM   17  C   UNL     1      -0.994   8.986 -28.156  1.00  0.00     0.018 A 
HETATM   18  C   UNL     1      -0.629  10.184 -27.349  1.00  0.00     0.281 C 
HETATM   19  N   UNL     1       0.622   9.935 -26.510  1.00  0.00    -0.070 N 
HETATM   20  C   UNL     1       1.697   9.196 -27.304  1.00  0.00     0.239 C 
HETATM   21  H   UNL     1       1.006  10.862 -26.293  1.00  0.00     0.279 HD
HETATM   22  C   UNL     1       0.313   9.292 -25.188  1.00  0.00     0.270 C 
HETATM   23  C   UNL     1       1.213   7.823 -27.802  1.00  0.00     0.068 C 
HETATM   24  H   UNL     1      -3.666   7.032 -30.844  1.00  0.00     0.162 HD
ENDBRANCH   5   7
BRANCH   1  25
HETATM   25  O   UNL     1      -6.068   4.602 -34.216  1.00  0.00    -0.349 OA
BRANCH  25  26
HETATM   26  C   UNL     1      -7.156   5.303 -33.621  1.00  0.00     0.171 C 
HETATM   27  C   UNL     1      -8.420   4.500 -33.873  1.00  0.00     0.034 C 
ENDBRANCH  25  26
ENDBRANCH   1  25
BRANCH   2  28
HETATM   28  O   UNL     1      -5.911   2.052 -33.540  1.00  0.00    -0.272 OA
BRANCH  28  29
HETATM   29  C   UNL     1      -6.517   1.133 -32.701  1.00  0.00     0.298 C 
HETATM   30  O   UNL     1      -7.154   1.367 -31.686  1.00  0.00    -0.259 OA
BRANCH  29  31
HETATM   31  C   UNL     1      -6.354  -0.227 -33.283  1.00  0.00     0.040 A 
HETATM   32  C   UNL     1      -7.494  -0.872 -33.784  1.00  0.00     0.019 A 
HETATM   33  C   UNL     1      -7.383  -2.128 -34.387  1.00  0.00     0.020 A 
HETATM   34  C   UNL     1      -6.135  -2.742 -34.481  1.00  0.00     0.011 A 
HETATM   35 BR   UNL     1      -5.983  -4.434 -35.310  1.00  0.00    -0.051 Br
HETATM   36  C   UNL     1      -4.997  -2.117 -33.973  1.00  0.00     0.020 A 
HETATM   37  C   UNL     1      -5.105  -0.859 -33.372  1.00  0.00     0.019 A 
ENDBRANCH  29  31
ENDBRANCH  28  29
ENDBRANCH   2  28
TORSDOF 6
ENDMDL
MODEL 2
REMARK VINA RESULT:      -9.1      1.403      1.740
REMARK  6 active torsions:
REMARK  status: ('A' for Active; 'I' for Inactive)
REMARK    1  A    between atoms: C_2  and  O_3 
REMARK    2  A    between atoms: O_3  and  C_4 
REMARK    3  A    between atoms: C_5  and  O_6 
REMARK    4  A    between atoms: O_6  and  C_7 
REMARK    5  A    between atoms: C_7  and  C_8 
REMARK    6  A    between atoms: C_18  and  C_19 
ROOT
HETATM    1  C   UNL     1      -5.358   3.779 -31.947  1.00  0.00     0.103 A 
HETATM    2  C   UNL     1      -4.573   2.700 -32.381  1.00  0.00     0.112 A 
HETATM    3  C   UNL     1      -3.181   2.742 -32.307  1.00  0.00     0.041 A 
HETATM    4  C   UNL     1      -2.556   3.873 -31.790  1.00  0.00     0.014 A 
HETATM    5  C   UNL     1      -3.312   4.963 -31.328  1.00  0.00    -0.013 A 
HETATM    6  C   UNL     1      -4.719   4.908 -31.424  1.00  0.00     0.050 A 
ENDROOT
BRANCH   5   7
HETATM    7  C   UNL     1      -2.609   6.111 -30.642  1.00  0.00     0.219 C 
HETATM    8  N   UNL     1      -1.303   5.706 -30.191  1.00  0.00    -0.332 N 
HETATM    9  C   UNL     1      -0.551   6.511 -29.378  1.00  0.00     0.256 C 
HETATM   10  H   UNL     1      -0.769   5.083 -30.779  1.00  0.00     0.165 HD
HETATM   11  O   UNL     1       0.665   6.394 -29.283  1.00  0.00    -0.267 OA
HETATM   12  C   UNL     1      -1.310   7.500 -28.626  1.00  0.00     0.073 A 
HETATM   13  C   UNL     1      -2.685   7.487 -28.712  1.00  0.00     0.088 A 
HETATM   14  C   UNL     1      -0.836   8.536 -27.764  1.00  0.00    -0.023 A 
HETATM   15  S   UNL     1      -3.407   8.682 -27.743  1.00  0.00    -0.074 SA
HETATM   16  N   UNL     1      -3.357   6.615 -29.502  1.00  0.00    -0.358 N 
HETATM   17  C   UNL     1      -1.888   9.252 -27.221  1.00  0.00     0.018 A 
HETATM   18  C   UNL     1      -1.746  10.419 -26.305  1.00  0.00     0.281 C 
HETATM   19  N   UNL     1      -0.332  10.516 -25.737  1.00  0.00    -0.070 N 
HETATM   20  C   UNL     1       0.726  10.254 -26.806  1.00  0.00     0.239 C 
HETATM   21  H   UNL     1      -0.213  11.492 -25.442  1.00  0.00     0.279 HD
HETATM   22  C   UNL     1      -0.148   9.681 -24.502  1.00  0.00     0.270 C 
HETATM   23  C   UNL     1       0.591   8.854 -27.430  1.00  0.00     0.068 C 
HETATM   24  H   UNL     1      -4.337   6.799 -29.704  1.00  0.00     0.162 HD
ENDBRANCH   5   7
BRANCH   1  25
HETATM   25  O   UNL     1      -6.713   3.609 -32.046  1.00  0.00    -0.349 OA
BRANCH  25  26
HETATM   26  C   UNL     1      -7.500   3.839 -30.881  1.00  0.00     0.171 C 
HETATM   27  C   UNL     1      -7.172   2.748 -29.876  1.00  0.00     0.034 C 
ENDBRANCH  25  26
ENDBRANCH   1  25
BRANCH   2  28
HETATM   28  O   UNL     1      -5.259   1.519 -32.754  1.00  0.00    -0.272 OA
BRANCH  28  29
HETATM   29  C   UNL     1      -5.152   0.340 -32.039  1.00  0.00     0.298 C 
HETATM   30  O   UNL     1      -4.915   0.217 -30.847  1.00  0.00    -0.259 OA
BRANCH  29  31
HETATM   31  C   UNL     1      -5.473  -0.799 -32.942  1.00  0.00     0.040 A 
HETATM   32  C   UNL     1      -4.434  -1.666 -33.309  1.00  0.00     0.019 A 
HETATM   33  C   UNL     1      -4.696  -2.778 -34.113  1.00  0.00     0.020 A 
HETATM   34  C   UNL     1      -5.995  -3.019 -34.557  1.00  0.00     0.011 A 
HETATM   35 BR   UNL     1      -6.353  -4.533 -35.631  1.00  0.00    -0.051 Br
HETATM   36  C   UNL     1      -7.034  -2.157 -34.211  1.00  0.00     0.020 A 
HETATM   37  C   UNL     1      -6.775  -1.045 -33.404  1.00  0.00     0.019 A 
ENDBRANCH  29  31
ENDBRANCH  28  29
ENDBRANCH   2  28
TORSDOF 6
ENDMDL
MODEL 3
REMARK VINA RESULT:      -9.1      5.280     10.900
REMARK  6 active torsions:
REMARK  status: ('A' for Active; 'I' for Inactive)
REMARK    1  A    between atoms: C_2  and  O_3 
REMARK    2  A    between atoms: O_3  and  C_4 
REMARK    3  A    between atoms: C_5  and  O_6 
REMARK    4  A    between atoms: O_6  and  C_7 
REMARK    5  A    between atoms: C_7  and  C_8 
REMARK    6  A    between atoms: C_18  and  C_19 
ROOT
HETATM    1  C   UNL     1      -3.674   2.295 -31.999  1.00  0.00     0.103 A 
HETATM    2  C   UNL     1      -3.239   3.624 -32.106  1.00  0.00     0.112 A 
HETATM    3  C   UNL     1      -3.994   4.581 -32.781  1.00  0.00     0.041 A 
HETATM    4  C   UNL     1      -5.206   4.215 -33.360  1.00  0.00     0.014 A 
HETATM    5  C   UNL     1      -5.682   2.897 -33.255  1.00  0.00    -0.013 A 
HETATM    6  C   UNL     1      -4.897   1.939 -32.580  1.00  0.00     0.050 A 
ENDROOT
BRANCH   5   7
HETATM    7  C   UNL     1      -7.065   2.569 -33.767  1.00  0.00     0.219 C 
HETATM    8  N   UNL     1      -7.851   3.767 -33.902  1.00  0.00    -0.332 N 
HETATM    9  C   UNL     1      -9.193   3.711 -34.169  1.00  0.00     0.256 C 
HETATM   10  H   UNL     1      -7.390   4.604 -34.230  1.00  0.00     0.165 HD
HETATM   11  O   UNL     1      -9.805   4.655 -34.654  1.00  0.00    -0.267 OA
HETATM   12  C   UNL     1      -9.833   2.452 -33.815  1.00  0.00     0.073 A 
HETATM   13  C   UNL     1      -9.089   1.486 -33.174  1.00  0.00     0.088 A 
HETATM   14  C   UNL     1     -11.181   2.034 -34.033  1.00  0.00    -0.023 A 
HETATM   15  S   UNL     1     -10.004   0.102 -32.804  1.00  0.00    -0.074 SA
HETATM   16  N   UNL     1      -7.772   1.646 -32.896  1.00  0.00    -0.358 N 
HETATM   17  C   UNL     1     -11.398   0.765 -33.525  1.00  0.00     0.018 A 
HETATM   18  C   UNL     1     -12.684   0.017 -33.611  1.00  0.00     0.281 C 
HETATM   19  N   UNL     1     -13.842   0.937 -33.992  1.00  0.00    -0.070 N 
HETATM   20  C   UNL     1     -13.451   1.908 -35.104  1.00  0.00     0.239 C 
HETATM   21  H   UNL     1     -14.570   0.327 -34.382  1.00  0.00     0.279 HD
HETATM   22  C   UNL     1     -14.458   1.614 -32.801  1.00  0.00     0.270 C 
HETATM   23  C   UNL     1     -12.275   2.815 -34.698  1.00  0.00     0.068 C 
HETATM   24  H   UNL     1      -7.228   0.826 -32.638  1.00  0.00     0.162 HD
ENDBRANCH   5   7
BRANCH   1  25
HETATM   25  O   UNL     1      -2.858   1.454 -31.290  1.00  0.00    -0.349 OA
BRANCH  25  26
HETATM   26  C   UNL     1      -3.350   0.153 -30.981  1.00  0.00     0.171 C 
HETATM   27  C   UNL     1      -2.577  -0.848 -31.822  1.00  0.00     0.034 C 
ENDBRANCH  25  26
ENDBRANCH   1  25
BRANCH   2  28
HETATM   28  O   UNL     1      -2.080   3.978 -31.374  1.00  0.00    -0.272 OA
BRANCH  28  29
HETATM   29  C   UNL     1      -1.150   4.887 -31.847  1.00  0.00     0.298 C 
HETATM   30  O   UNL     1      -0.913   5.163 -33.013  1.00  0.00    -0.259 OA
BRANCH  29  31
HETATM   31  C   UNL     1      -0.520   5.575 -30.688  1.00  0.00     0.040 A 
HETATM   32  C   UNL     1      -0.830   6.925 -30.470  1.00  0.00     0.019 A 
HETATM   33  C   UNL     1      -0.304   7.600 -29.366  1.00  0.00     0.020 A 
HETATM   34  C   UNL     1       0.539   6.927 -28.482  1.00  0.00     0.011 A 
HETATM   35 BR   UNL     1       1.238   7.834 -26.979  1.00  0.00    -0.051 Br
HETATM   36  C   UNL     1       0.867   5.589 -28.695  1.00  0.00     0.020 A 
HETATM   37  C   UNL     1       0.339   4.911 -29.798  1.00  0.00     0.019 A 
ENDBRANCH  29  31
ENDBRANCH  28  29
ENDBRANCH   2  28
TORSDOF 6
ENDMDL
MODEL 4
REMARK VINA RESULT:      -9.0      0.975      2.225
REMARK  6 active torsions:
REMARK  status: ('A' for Active; 'I' for Inactive)
REMARK    1  A    between atoms: C_2  and  O_3 
REMARK    2  A    between atoms: O_3  and  C_4 
REMARK    3  A    between atoms: C_5  and  O_6 
REMARK    4  A    between atoms: O_6  and  C_7 
REMARK    5  A    between atoms: C_7  and  C_8 
REMARK    6  A    between atoms: C_18  and  C_19 
ROOT
HETATM    1  C   UNL     1      -3.665   2.481 -32.195  1.00  0.00     0.103 A 
HETATM    2  C   UNL     1      -4.866   2.926 -32.768  1.00  0.00     0.112 A 
HETATM    3  C   UNL     1      -5.267   4.257 -32.666  1.00  0.00     0.041 A 
HETATM    4  C   UNL     1      -4.461   5.166 -31.985  1.00  0.00     0.014 A 
HETATM    5  C   UNL     1      -3.243   4.758 -31.416  1.00  0.00    -0.013 A 
HETATM    6  C   UNL     1      -2.861   3.404 -31.518  1.00  0.00     0.050 A 
ENDROOT
BRANCH   5   7
HETATM    7  C   UNL     1      -2.327   5.796 -30.812  1.00  0.00     0.219 C 
HETATM    8  N   UNL     1      -1.153   5.173 -30.258  1.00  0.00    -0.332 N 
HETATM    9  C   UNL     1      -0.267   5.882 -29.491  1.00  0.00     0.256 C 
HETATM   10  H   UNL     1      -0.751   4.391 -30.754  1.00  0.00     0.165 HD
HETATM   11  O   UNL     1       0.891   5.519 -29.324  1.00  0.00    -0.267 OA
HETATM   12  C   UNL     1      -0.814   7.085 -28.881  1.00  0.00     0.073 A 
HETATM   13  C   UNL     1      -2.156   7.357 -29.034  1.00  0.00     0.088 A 
HETATM   14  C   UNL     1      -0.151   8.082 -28.102  1.00  0.00    -0.023 A 
HETATM   15  S   UNL     1      -2.628   8.775 -28.226  1.00  0.00    -0.074 SA
HETATM   16  N   UNL     1      -2.979   6.568 -29.767  1.00  0.00    -0.358 N 
HETATM   17  C   UNL     1      -1.037   9.061 -27.687  1.00  0.00     0.018 A 
HETATM   18  C   UNL     1      -0.670  10.262 -26.884  1.00  0.00     0.281 C 
HETATM   19  N   UNL     1       0.714  10.115 -26.257  1.00  0.00    -0.070 N 
HETATM   20  C   UNL     1       1.720   9.521 -27.240  1.00  0.00     0.239 C 
HETATM   21  H   UNL     1       1.035  11.069 -26.055  1.00  0.00     0.279 HD
HETATM   22  C   UNL     1       0.678   9.398 -24.938  1.00  0.00     0.270 C 
HETATM   23  C   UNL     1       1.301   8.122 -27.729  1.00  0.00     0.068 C 
HETATM   24  H   UNL     1      -3.890   6.934 -30.036  1.00  0.00     0.162 HD
ENDBRANCH   5   7
BRANCH   1  25
HETATM   25  O   UNL     1      -3.368   1.158 -32.385  1.00  0.00    -0.349 OA
BRANCH  25  26
HETATM   26  C   UNL     1      -3.157   0.351 -31.229  1.00  0.00     0.171 C 
HETATM   27  C   UNL     1      -2.512  -0.948 -31.682  1.00  0.00     0.034 C 
ENDBRANCH  25  26
ENDBRANCH   1  25
BRANCH   2  28
HETATM   28  O   UNL     1      -5.570   2.001 -33.576  1.00  0.00    -0.272 OA
BRANCH  28  29
HETATM   29  C   UNL     1      -6.646   1.270 -33.104  1.00  0.00     0.298 C 
HETATM   30  O   UNL     1      -7.599   1.686 -32.464  1.00  0.00    -0.259 OA
BRANCH  29  31
HETATM   31  C   UNL     1      -6.520  -0.133 -33.586  1.00  0.00     0.040 A 
HETATM   32  C   UNL     1      -7.684  -0.911 -33.668  1.00  0.00     0.019 A 
HETATM   33  C   UNL     1      -7.624  -2.217 -34.163  1.00  0.00     0.020 A 
HETATM   34  C   UNL     1      -6.399  -2.747 -34.569  1.00  0.00     0.011 A 
HETATM   35 BR   UNL     1      -6.320  -4.506 -35.254  1.00  0.00    -0.051 Br
HETATM   36  C   UNL     1      -5.234  -1.987 -34.478  1.00  0.00     0.020 A 
HETATM   37  C   UNL     1      -5.292  -0.680 -33.986  1.00  0.00     0.019 A 
ENDBRANCH  29  31
ENDBRANCH  28  29
ENDBRANCH   2  28
TORSDOF 6
ENDMDL
MODEL 5
REMARK VINA RESULT:      -8.7      7.055     11.249
REMARK  6 active torsions:
REMARK  status: ('A' for Active; 'I' for Inactive)
REMARK    1  A    between atoms: C_2  and  O_3 
REMARK    2  A    between atoms: O_3  and  C_4 
REMARK    3  A    between atoms: C_5  and  O_6 
REMARK    4  A    between atoms: O_6  and  C_7 
REMARK    5  A    between atoms: C_7  and  C_8 
REMARK    6  A    between atoms: C_18  and  C_19 
ROOT
HETATM    1  C   UNL     1      -8.634   2.445 -32.275  1.00  0.00     0.103 A 
HETATM    2  C   UNL     1      -8.551   1.187 -32.890  1.00  0.00     0.112 A 
HETATM    3  C   UNL     1      -9.680   0.562 -33.417  1.00  0.00     0.041 A 
HETATM    4  C   UNL     1     -10.916   1.198 -33.334  1.00  0.00     0.014 A 
HETATM    5  C   UNL     1     -11.032   2.467 -32.742  1.00  0.00    -0.013 A 
HETATM    6  C   UNL     1      -9.880   3.076 -32.202  1.00  0.00     0.050 A 
ENDROOT
BRANCH   5   7
HETATM    7  C   UNL     1     -12.358   3.189 -32.799  1.00  0.00     0.219 C 
HETATM    8  N   UNL     1     -12.341   4.343 -31.938  1.00  0.00    -0.332 N 
HETATM    9  C   UNL     1     -13.485   5.049 -31.674  1.00  0.00     0.256 C 
HETATM   10  H   UNL     1     -11.489   4.881 -31.881  1.00  0.00     0.165 HD
HETATM   11  O   UNL     1     -13.462   6.209 -31.280  1.00  0.00    -0.267 OA
HETATM   12  C   UNL     1     -14.721   4.310 -31.883  1.00  0.00     0.073 A 
HETATM   13  C   UNL     1     -14.648   2.977 -32.222  1.00  0.00     0.088 A 
HETATM   14  C   UNL     1     -16.071   4.765 -31.784  1.00  0.00    -0.023 A 
HETATM   15  S   UNL     1     -16.182   2.264 -32.388  1.00  0.00    -0.074 SA
HETATM   16  N   UNL     1     -13.468   2.336 -32.409  1.00  0.00    -0.358 N 
HETATM   17  C   UNL     1     -16.963   3.738 -32.039  1.00  0.00     0.018 A 
HETATM   18  C   UNL     1     -18.447   3.877 -32.050  1.00  0.00     0.281 C 
HETATM   19  N   UNL     1     -18.892   5.181 -31.392  1.00  0.00    -0.070 N 
HETATM   20  C   UNL     1     -18.015   6.357 -31.816  1.00  0.00     0.239 C 
HETATM   21  H   UNL     1     -19.833   5.374 -31.755  1.00  0.00     0.279 HD
HETATM   22  C   UNL     1     -19.038   5.055 -29.902  1.00  0.00     0.270 C 
HETATM   23  C   UNL     1     -16.538   6.147 -31.437  1.00  0.00     0.068 C 
HETATM   24  H   UNL     1     -13.475   1.433 -32.878  1.00  0.00     0.162 HD
ENDBRANCH   5   7
BRANCH   1  25
HETATM   25  O   UNL     1      -7.452   2.966 -31.820  1.00  0.00    -0.349 OA
BRANCH  25  26
HETATM   26  C   UNL     1      -7.248   3.021 -30.411  1.00  0.00     0.171 C 
HETATM   27  C   UNL     1      -6.163   2.017 -30.059  1.00  0.00     0.034 C 
ENDBRANCH  25  26
ENDBRANCH   1  25
BRANCH   2  28
HETATM   28  O   UNL     1      -7.253   0.654 -33.084  1.00  0.00    -0.272 OA
BRANCH  28  29
HETATM   29  C   UNL     1      -6.753   0.351 -34.338  1.00  0.00     0.298 C 
HETATM   30  O   UNL     1      -6.840   1.027 -35.351  1.00  0.00    -0.259 OA
BRANCH  29  31
HETATM   31  C   UNL     1      -5.983  -0.920 -34.253  1.00  0.00     0.040 A 
HETATM   32  C   UNL     1      -4.810  -0.932 -33.485  1.00  0.00     0.019 A 
HETATM   33  C   UNL     1      -4.081  -2.115 -33.333  1.00  0.00     0.020 A 
HETATM   34  C   UNL     1      -4.520  -3.282 -33.955  1.00  0.00     0.011 A 
HETATM   35 BR   UNL     1      -3.544  -4.886 -33.736  1.00  0.00    -0.051 Br
HETATM   36  C   UNL     1      -5.677  -3.279 -34.732  1.00  0.00     0.020 A 
HETATM   37  C   UNL     1      -6.410  -2.098 -34.883  1.00  0.00     0.019 A 
ENDBRANCH  29  31
ENDBRANCH  28  29
ENDBRANCH   2  28
TORSDOF 6
ENDMDL
MODEL 6
REMARK VINA RESULT:      -8.4      5.402     10.919
REMARK  6 active torsions:
REMARK  status: ('A' for Active; 'I' for Inactive)
REMARK    1  A    between atoms: C_2  and  O_3 
REMARK    2  A    between atoms: O_3  and  C_4 
REMARK    3  A    between atoms: C_5  and  O_6 
REMARK    4  A    between atoms: O_6  and  C_7 
REMARK    5  A    between atoms: C_7  and  C_8 
REMARK    6  A    between atoms: C_18  and  C_19 
ROOT
HETATM    1  C   UNL     1      -3.916   5.966 -33.449  1.00  0.00     0.103 A 
HETATM    2  C   UNL     1      -3.745   5.994 -32.056  1.00  0.00     0.112 A 
HETATM    3  C   UNL     1      -4.718   5.486 -31.197  1.00  0.00     0.041 A 
HETATM    4  C   UNL     1      -5.882   4.936 -31.728  1.00  0.00     0.014 A 
HETATM    5  C   UNL     1      -6.077   4.873 -33.117  1.00  0.00    -0.013 A 
HETATM    6  C   UNL     1      -5.087   5.406 -33.971  1.00  0.00     0.050 A 
ENDROOT
BRANCH   5   7
HETATM    7  C   UNL     1      -7.281   4.142 -33.661  1.00  0.00     0.219 C 
HETATM    8  N   UNL     1      -8.316   5.074 -34.027  1.00  0.00    -0.332 N 
HETATM    9  C   UNL     1      -9.571   4.645 -34.367  1.00  0.00     0.256 C 
HETATM   10  H   UNL     1      -8.040   5.949 -34.448  1.00  0.00     0.165 HD
HETATM   11  O   UNL     1     -10.342   5.331 -35.028  1.00  0.00    -0.267 OA
HETATM   12  C   UNL     1      -9.921   3.323 -33.868  1.00  0.00     0.073 A 
HETATM   13  C   UNL     1      -9.034   2.670 -33.041  1.00  0.00     0.088 A 
HETATM   14  C   UNL     1     -11.100   2.553 -34.105  1.00  0.00    -0.023 A 
HETATM   15  S   UNL     1      -9.620   1.161 -32.523  1.00  0.00    -0.074 SA
HETATM   16  N   UNL     1      -7.829   3.193 -32.706  1.00  0.00    -0.358 N 
HETATM   17  C   UNL     1     -11.054   1.349 -33.425  1.00  0.00     0.018 A 
HETATM   18  C   UNL     1     -12.107   0.295 -33.478  1.00  0.00     0.281 C 
HETATM   19  N   UNL     1     -13.408   0.834 -34.067  1.00  0.00    -0.070 N 
HETATM   20  C   UNL     1     -13.154   1.717 -35.287  1.00  0.00     0.239 C 
HETATM   21  H   UNL     1     -13.925   0.013 -34.405  1.00  0.00     0.279 HD
HETATM   22  C   UNL     1     -14.285   1.484 -33.035  1.00  0.00     0.270 C 
HETATM   23  C   UNL     1     -12.278   2.937 -34.949  1.00  0.00     0.068 C 
HETATM   24  H   UNL     1      -7.131   2.579 -32.292  1.00  0.00     0.162 HD
ENDBRANCH   5   7
BRANCH   1  25
HETATM   25  O   UNL     1      -2.880   6.471 -34.188  1.00  0.00    -0.349 OA
BRANCH  25  26
HETATM   26  C   UNL     1      -2.114   5.559 -34.971  1.00  0.00     0.171 C 
HETATM   27  C   UNL     1      -0.652   5.747 -34.603  1.00  0.00     0.034 C 
ENDBRANCH  25  26
ENDBRANCH   1  25
BRANCH   2  28
HETATM   28  O   UNL     1      -2.484   6.422 -31.575  1.00  0.00    -0.272 OA
BRANCH  28  29
HETATM   29  C   UNL     1      -1.590   5.561 -30.963  1.00  0.00     0.298 C 
HETATM   30  O   UNL     1      -1.360   4.400 -31.262  1.00  0.00    -0.259 OA
BRANCH  29  31
HETATM   31  C   UNL     1      -0.853   6.308 -29.908  1.00  0.00     0.040 A 
HETATM   32  C   UNL     1       0.121   5.621 -29.169  1.00  0.00     0.019 A 
HETATM   33  C   UNL     1       0.876   6.292 -28.203  1.00  0.00     0.020 A 
HETATM   34  C   UNL     1       0.651   7.648 -27.970  1.00  0.00     0.011 A 
HETATM   35 BR   UNL     1       1.682   8.561 -26.676  1.00  0.00    -0.051 Br
HETATM   36  C   UNL     1      -0.324   8.339 -28.688  1.00  0.00     0.020 A 
HETATM   37  C   UNL     1      -1.078   7.670 -29.657  1.00  0.00     0.019 A 
ENDBRANCH  29  31
ENDBRANCH  28  29
ENDBRANCH   2  28
TORSDOF 6
ENDMDL
MODEL 7
REMARK VINA RESULT:      -8.4      2.071      2.510
REMARK  6 active torsions:
REMARK  status: ('A' for Active; 'I' for Inactive)
REMARK    1  A    between atoms: C_2  and  O_3 
REMARK    2  A    between atoms: O_3  and  C_4 
REMARK    3  A    between atoms: C_5  and  O_6 
REMARK    4  A    between atoms: O_6  and  C_7 
REMARK    5  A    between atoms: C_7  and  C_8 
REMARK    6  A    between atoms: C_18  and  C_19 
ROOT
HETATM    1  C   UNL     1      -5.207   3.914 -33.183  1.00  0.00     0.103 A 
HETATM    2  C   UNL     1      -4.995   2.556 -32.904  1.00  0.00     0.112 A 
HETATM    3  C   UNL     1      -3.894   2.134 -32.159  1.00  0.00     0.041 A 
HETATM    4  C   UNL     1      -2.988   3.076 -31.680  1.00  0.00     0.014 A 
HETATM    5  C   UNL     1      -3.181   4.445 -31.925  1.00  0.00    -0.013 A 
HETATM    6  C   UNL     1      -4.292   4.853 -32.693  1.00  0.00     0.050 A 
ENDROOT
BRANCH   5   7
HETATM    7  C   UNL     1      -2.260   5.448 -31.270  1.00  0.00     0.219 C 
HETATM    8  N   UNL     1      -1.181   4.777 -30.593  1.00  0.00    -0.332 N 
HETATM    9  C   UNL     1      -0.325   5.459 -29.770  1.00  0.00     0.256 C 
HETATM   10  H   UNL     1      -0.785   3.956 -31.028  1.00  0.00     0.165 HD
HETATM   11  O   UNL     1       0.789   5.035 -29.487  1.00  0.00    -0.267 OA
HETATM   12  C   UNL     1      -0.849   6.711 -29.247  1.00  0.00     0.073 A 
HETATM   13  C   UNL     1      -2.153   7.056 -29.530  1.00  0.00     0.088 A 
HETATM   14  C   UNL     1      -0.199   7.694 -28.440  1.00  0.00    -0.023 A 
HETATM   15  S   UNL     1      -2.608   8.526 -28.809  1.00  0.00    -0.074 SA
HETATM   16  N   UNL     1      -2.955   6.292 -30.311  1.00  0.00    -0.358 N 
HETATM   17  C   UNL     1      -1.056   8.736 -28.135  1.00  0.00     0.018 A 
HETATM   18  C   UNL     1      -0.689   9.941 -27.338  1.00  0.00     0.281 C 
HETATM   19  N   UNL     1       0.621   9.735 -26.583  1.00  0.00    -0.070 N 
HETATM   20  C   UNL     1       1.673   9.049 -27.453  1.00  0.00     0.239 C 
HETATM   21  H   UNL     1       0.981  10.675 -26.380  1.00  0.00     0.279 HD
HETATM   22  C   UNL     1       0.424   9.067 -25.253  1.00  0.00     0.270 C 
HETATM   23  C   UNL     1       1.214   7.662 -27.937  1.00  0.00     0.068 C 
HETATM   24  H   UNL     1      -3.813   6.701 -30.672  1.00  0.00     0.162 HD
ENDBRANCH   5   7
BRANCH   1  25
HETATM   25  O   UNL     1      -6.335   4.207 -33.901  1.00  0.00    -0.349 OA
BRANCH  25  26
HETATM   26  C   UNL     1      -7.041   5.401 -33.575  1.00  0.00     0.171 C 
HETATM   27  C   UNL     1      -7.963   5.091 -32.408  1.00  0.00     0.034 C 
ENDBRANCH  25  26
ENDBRANCH   1  25
BRANCH   2  28
HETATM   28  O   UNL     1      -6.021   1.657 -33.281  1.00  0.00    -0.272 OA
BRANCH  28  29
HETATM   29  C   UNL     1      -6.845   1.039 -32.357  1.00  0.00     0.298 C 
HETATM   30  O   UNL     1      -6.528   0.594 -31.265  1.00  0.00    -0.259 OA
BRANCH  29  31
HETATM   31  C   UNL     1      -8.245   1.078 -32.862  1.00  0.00     0.040 A 
HETATM   32  C   UNL     1      -8.559   1.999 -33.871  1.00  0.00     0.019 A 
HETATM   33  C   UNL     1      -9.847   2.038 -34.413  1.00  0.00     0.020 A 
HETATM   34  C   UNL     1     -10.822   1.162 -33.940  1.00  0.00     0.011 A 
HETATM   35 BR   UNL     1     -12.559   1.203 -34.684  1.00  0.00    -0.051 Br
HETATM   36  C   UNL     1     -10.526   0.251 -32.927  1.00  0.00     0.020 A 
HETATM   37  C   UNL     1      -9.238   0.209 -32.385  1.00  0.00     0.019 A 
ENDBRANCH  29  31
ENDBRANCH  28  29
ENDBRANCH   2  28
TORSDOF 6
ENDMDL
MODEL 8
REMARK VINA RESULT:      -8.3      2.311      3.557
REMARK  6 active torsions:
REMARK  status: ('A' for Active; 'I' for Inactive)
REMARK    1  A    between atoms: C_2  and  O_3 
REMARK    2  A    between atoms: O_3  and  C_4 
REMARK    3  A    between atoms: C_5  and  O_6 
REMARK    4  A    between atoms: O_6  and  C_7 
REMARK    5  A    between atoms: C_7  and  C_8 
REMARK    6  A    between atoms: C_18  and  C_19 
ROOT
HETATM    1  C   UNL     1      -3.841   2.004 -32.294  1.00  0.00     0.103 A 
HETATM    2  C   UNL     1      -5.124   2.379 -32.718  1.00  0.00     0.112 A 
HETATM    3  C   UNL     1      -5.594   3.679 -32.541  1.00  0.00     0.041 A 
HETATM    4  C   UNL     1      -4.775   4.627 -31.934  1.00  0.00     0.014 A 
HETATM    5  C   UNL     1      -3.477   4.291 -31.516  1.00  0.00    -0.013 A 
HETATM    6  C   UNL     1      -3.024   2.966 -31.690  1.00  0.00     0.050 A 
ENDROOT
BRANCH   5   7
HETATM    7  C   UNL     1      -2.565   5.377 -30.995  1.00  0.00     0.219 C 
HETATM    8  N   UNL     1      -1.333   4.813 -30.509  1.00  0.00    -0.332 N 
HETATM    9  C   UNL     1      -0.427   5.572 -29.817  1.00  0.00     0.256 C 
HETATM   10  H   UNL     1      -0.934   4.036 -31.016  1.00  0.00     0.165 HD
HETATM   11  O   UNL     1       0.754   5.258 -29.722  1.00  0.00    -0.267 OA
HETATM   12  C   UNL     1      -0.980   6.766 -29.195  1.00  0.00     0.073 A 
HETATM   13  C   UNL     1      -2.339   6.981 -29.263  1.00  0.00     0.088 A 
HETATM   14  C   UNL     1      -0.308   7.805 -28.482  1.00  0.00    -0.023 A 
HETATM   15  S   UNL     1      -2.813   8.398 -28.452  1.00  0.00    -0.074 SA
HETATM   16  N   UNL     1      -3.177   6.145 -29.923  1.00  0.00    -0.358 N 
HETATM   17  C   UNL     1      -1.202   8.757 -28.027  1.00  0.00     0.018 A 
HETATM   18  C   UNL     1      -0.832   9.989 -27.274  1.00  0.00     0.281 C 
HETATM   19  N   UNL     1       0.596   9.910 -26.739  1.00  0.00    -0.070 N 
HETATM   20  C   UNL     1       1.558   9.334 -27.776  1.00  0.00     0.239 C 
HETATM   21  H   UNL     1       0.890  10.880 -26.577  1.00  0.00     0.279 HD
HETATM   22  C   UNL     1       0.676   9.221 -25.407  1.00  0.00     0.270 C 
HETATM   23  C   UNL     1       1.163   7.910 -28.208  1.00  0.00     0.068 C 
HETATM   24  H   UNL     1      -4.117   6.470 -30.137  1.00  0.00     0.162 HD
ENDBRANCH   5   7
BRANCH   1  25
HETATM   25  O   UNL     1      -3.484   0.706 -32.546  1.00  0.00    -0.349 OA
BRANCH  25  26
HETATM   26  C   UNL     1      -3.069  -0.097 -31.444  1.00  0.00     0.171 C 
HETATM   27  C   UNL     1      -3.146  -1.551 -31.874  1.00  0.00     0.034 C 
ENDBRANCH  25  26
ENDBRANCH   1  25
BRANCH   2  28
HETATM   28  O   UNL     1      -5.856   1.422 -33.463  1.00  0.00    -0.272 OA
BRANCH  28  29
HETATM   29  C   UNL     1      -6.752   0.548 -32.873  1.00  0.00     0.298 C 
HETATM   30  O   UNL     1      -6.490  -0.464 -32.242  1.00  0.00    -0.259 OA
BRANCH  29  31
HETATM   31  C   UNL     1      -8.129   1.086 -33.043  1.00  0.00     0.040 A 
HETATM   32  C   UNL     1      -8.686   1.825 -31.989  1.00  0.00     0.019 A 
HETATM   33  C   UNL     1      -9.956   2.394 -32.122  1.00  0.00     0.020 A 
HETATM   34  C   UNL     1     -10.672   2.217 -33.305  1.00  0.00     0.011 A 
HETATM   35 BR   UNL     1     -12.382   3.000 -33.492  1.00  0.00    -0.051 Br
HETATM   36  C   UNL     1     -10.135   1.473 -34.355  1.00  0.00     0.020 A 
HETATM   37  C   UNL     1      -8.864   0.905 -34.225  1.00  0.00     0.019 A 
ENDBRANCH  29  31
ENDBRANCH  28  29
ENDBRANCH   2  28
TORSDOF 6
ENDMDL
MODEL 9
REMARK VINA RESULT:      -8.3      4.783     10.549
REMARK  6 active torsions:
REMARK  status: ('A' for Active; 'I' for Inactive)
REMARK    1  A    between atoms: C_2  and  O_3 
REMARK    2  A    between atoms: O_3  and  C_4 
REMARK    3  A    between atoms: C_5  and  O_6 
REMARK    4  A    between atoms: O_6  and  C_7 
REMARK    5  A    between atoms: C_7  and  C_8 
REMARK    6  A    between atoms: C_18  and  C_19 
ROOT
HETATM    1  C   UNL     1      -2.534   5.041 -32.090  1.00  0.00     0.103 A 
HETATM    2  C   UNL     1      -2.402   5.881 -30.974  1.00  0.00     0.112 A 
HETATM    3  C   UNL     1      -3.477   6.125 -30.120  1.00  0.00     0.041 A 
HETATM    4  C   UNL     1      -4.706   5.523 -30.376  1.00  0.00     0.014 A 
HETATM    5  C   UNL     1      -4.868   4.661 -31.473  1.00  0.00    -0.013 A 
HETATM    6  C   UNL     1      -3.773   4.437 -32.334  1.00  0.00     0.050 A 
ENDROOT
BRANCH   5   7
HETATM    7  C   UNL     1      -6.170   3.913 -31.638  1.00  0.00     0.219 C 
HETATM    8  N   UNL     1      -6.053   2.915 -32.669  1.00  0.00    -0.332 N 
HETATM    9  C   UNL     1      -7.150   2.239 -33.131  1.00  0.00     0.256 C 
HETATM   10  H   UNL     1      -5.182   2.410 -32.744  1.00  0.00     0.165 HD
HETATM   11  O   UNL     1      -7.061   1.158 -33.703  1.00  0.00    -0.267 OA
HETATM   12  C   UNL     1      -8.421   2.909 -32.905  1.00  0.00     0.073 A 
HETATM   13  C   UNL     1      -8.417   4.171 -32.352  1.00  0.00     0.088 A 
HETATM   14  C   UNL     1      -9.746   2.451 -33.182  1.00  0.00    -0.023 A 
HETATM   15  S   UNL     1      -9.981   4.817 -32.195  1.00  0.00    -0.074 SA
HETATM   16  N   UNL     1      -7.276   4.796 -31.972  1.00  0.00    -0.358 N 
HETATM   17  C   UNL     1     -10.686   3.404 -32.836  1.00  0.00     0.018 A 
HETATM   18  C   UNL     1     -12.162   3.236 -32.965  1.00  0.00     0.281 C 
HETATM   19  N   UNL     1     -12.514   2.049 -33.856  1.00  0.00    -0.070 N 
HETATM   20  C   UNL     1     -11.634   0.837 -33.559  1.00  0.00     0.239 C 
HETATM   21  H   UNL     1     -13.473   1.781 -33.603  1.00  0.00     0.279 HD
HETATM   22  C   UNL     1     -12.553   2.411 -35.313  1.00  0.00     0.270 C 
HETATM   23  C   UNL     1     -10.140   1.134 -33.781  1.00  0.00     0.068 C 
HETATM   24  H   UNL     1      -7.347   5.611 -31.367  1.00  0.00     0.162 HD
ENDBRANCH   5   7
BRANCH   1  25
HETATM   25  O   UNL     1      -1.402   4.859 -32.838  1.00  0.00    -0.349 OA
BRANCH  25  26
HETATM   26  C   UNL     1      -1.246   5.649 -34.013  1.00  0.00     0.171 C 
HETATM   27  C   UNL     1      -2.128   5.051 -35.095  1.00  0.00     0.034 C 
ENDBRANCH  25  26
ENDBRANCH   1  25
BRANCH   2  28
HETATM   28  O   UNL     1      -1.098   6.344 -30.674  1.00  0.00    -0.272 OA
BRANCH  28  29
HETATM   29  C   UNL     1      -0.229   5.642 -29.858  1.00  0.00     0.298 C 
HETATM   30  O   UNL     1       0.178   4.502 -30.020  1.00  0.00    -0.259 OA
BRANCH  29  31
HETATM   31  C   UNL     1       0.232   6.539 -28.763  1.00  0.00     0.040 A 
HETATM   32  C   UNL     1      -0.026   6.155 -27.440  1.00  0.00     0.019 A 
HETATM   33  C   UNL     1       0.432   6.938 -26.377  1.00  0.00     0.020 A 
HETATM   34  C   UNL     1       1.140   8.110 -26.638  1.00  0.00     0.011 A 
HETATM   35 BR   UNL     1       1.775   9.161 -25.201  1.00  0.00    -0.051 Br
HETATM   36  C   UNL     1       1.391   8.510 -27.949  1.00  0.00     0.020 A 
HETATM   37  C   UNL     1       0.936   7.726 -29.014  1.00  0.00     0.019 A 
ENDBRANCH  29  31
ENDBRANCH  28  29
ENDBRANCH   2  28
TORSDOF 6
ENDMDL
MODEL 10
REMARK VINA RESULT:      -8.1      2.055      2.526
REMARK  6 active torsions:
REMARK  status: ('A' for Active; 'I' for Inactive)
REMARK    1  A    between atoms: C_2  and  O_3 
REMARK    2  A    between atoms: O_3  and  C_4 
REMARK    3  A    between atoms: C_5  and  O_6 
REMARK    4  A    between atoms: O_6  and  C_7 
REMARK    5  A    between atoms: C_7  and  C_8 
REMARK    6  A    between atoms: C_18  and  C_19 
ROOT
HETATM    1  C   UNL     1      -6.638   4.040 -33.427  1.00  0.00     0.103 A 
HETATM    2  C   UNL     1      -5.810   2.910 -33.353  1.00  0.00     0.112 A 
HETATM    3  C   UNL     1      -4.619   2.931 -32.628  1.00  0.00     0.041 A 
HETATM    4  C   UNL     1      -4.244   4.094 -31.961  1.00  0.00     0.014 A 
HETATM    5  C   UNL     1      -5.060   5.237 -31.997  1.00  0.00    -0.013 A 
HETATM    6  C   UNL     1      -6.254   5.201 -32.748  1.00  0.00     0.050 A 
ENDROOT
BRANCH   5   7
HETATM    7  C   UNL     1      -4.695   6.431 -31.146  1.00  0.00     0.219 C 
HETATM    8  N   UNL     1      -3.717   7.249 -31.815  1.00  0.00    -0.332 N 
HETATM    9  C   UNL     1      -3.092   8.281 -31.168  1.00  0.00     0.256 C 
HETATM   10  H   UNL     1      -3.798   7.363 -32.815  1.00  0.00     0.165 HD
HETATM   11  O   UNL     1      -2.564   9.208 -31.771  1.00  0.00    -0.267 OA
HETATM   12  C   UNL     1      -3.091   8.181 -29.717  1.00  0.00     0.073 A 
HETATM   13  C   UNL     1      -3.613   7.050 -29.128  1.00  0.00     0.088 A 
HETATM   14  C   UNL     1      -2.607   9.113 -28.748  1.00  0.00    -0.023 A 
HETATM   15  S   UNL     1      -3.495   7.086 -27.433  1.00  0.00    -0.074 SA
HETATM   16  N   UNL     1      -4.165   6.043 -29.849  1.00  0.00    -0.358 N 
HETATM   17  C   UNL     1      -2.773   8.629 -27.463  1.00  0.00     0.018 A 
HETATM   18  C   UNL     1      -2.405   9.362 -26.219  1.00  0.00     0.281 C 
HETATM   19  N   UNL     1      -1.489  10.547 -26.517  1.00  0.00    -0.070 N 
HETATM   20  C   UNL     1      -1.952  11.323 -27.747  1.00  0.00     0.239 C 
HETATM   21  H   UNL     1      -1.585  11.184 -25.718  1.00  0.00     0.279 HD
HETATM   22  C   UNL     1      -0.040  10.158 -26.570  1.00  0.00     0.270 C 
HETATM   23  C   UNL     1      -1.976  10.448 -29.013  1.00  0.00     0.068 C 
HETATM   24  H   UNL     1      -4.735   5.354 -29.363  1.00  0.00     0.162 HD
ENDBRANCH   5   7
BRANCH   1  25
HETATM   25  O   UNL     1      -7.792   3.888 -34.148  1.00  0.00    -0.349 OA
BRANCH  25  26
HETATM   26  C   UNL     1      -9.025   3.858 -33.433  1.00  0.00     0.171 C 
HETATM   27  C   UNL     1      -9.991   2.981 -34.211  1.00  0.00     0.034 C 
ENDBRANCH  25  26
ENDBRANCH   1  25
BRANCH   2  28
HETATM   28  O   UNL     1      -6.309   1.713 -33.920  1.00  0.00    -0.272 OA
BRANCH  28  29
HETATM   29  C   UNL     1      -6.831   0.687 -33.152  1.00  0.00     0.298 C 
HETATM   30  O   UNL     1      -7.805   0.736 -32.417  1.00  0.00    -0.259 OA
BRANCH  29  31
HETATM   31  C   UNL     1      -6.064  -0.558 -33.429  1.00  0.00     0.040 A 
HETATM   32  C   UNL     1      -4.885  -0.784 -32.705  1.00  0.00     0.019 A 
HETATM   33  C   UNL     1      -4.159  -1.963 -32.894  1.00  0.00     0.020 A 
HETATM   34  C   UNL     1      -4.606  -2.911 -33.813  1.00  0.00     0.011 A 
HETATM   35 BR   UNL     1      -3.633  -4.513 -34.056  1.00  0.00    -0.051 Br
HETATM   36  C   UNL     1      -5.770  -2.692 -34.549  1.00  0.00     0.020 A 
HETATM   37  C   UNL     1      -6.500  -1.514 -34.359  1.00  0.00     0.019 A 
ENDBRANCH  29  31
ENDBRANCH  28  29
ENDBRANCH   2  28
TORSDOF 6
ENDMDL
