MODEL 1
REMARK VINA RESULT:      -8.5      0.000      0.000
REMARK  8 active torsions:
REMARK  status: ('A' for Active; 'I' for Inactive)
REMARK    1  A    between atoms: C_5  and  C_6 
REMARK    2  A    between atoms: N_7  and  N_8 
REMARK       I    between atoms: N_8  and  C_9 
REMARK    3  A    between atoms: C_9  and  C_10 
REMARK    4  A    between atoms: N_11  and  C_12 
REMARK    5  A    between atoms: C_16  and  N_17 
REMARK    6  A    between atoms: C_20  and  C_21 
REMARK    7  A    between atoms: C_21  and  N_22 
REMARK    8  A    between atoms: C_30  and  O_31 
ROOT
HETATM    1  C   UNL     1      -4.656   3.841 -31.405  1.00  0.00     0.159 A 
HETATM    2  N   UNL     1      -3.820   4.961 -31.373  1.00  0.00    -0.184 N 
HETATM    3  N   UNL     1      -4.600   6.080 -31.434  1.00  0.00    -0.058 NA
HETATM    4  N   UNL     1      -5.872   5.739 -31.451  1.00  0.00    -0.132 NA
HETATM    5  C   UNL     1      -5.942   4.385 -31.441  1.00  0.00     0.118 A 
ENDROOT
BRANCH   1   6
HETATM    6  C   UNL     1      -4.388   2.421 -31.380  1.00  0.00     0.292 C 
HETATM    7  N   UNL     1      -3.714   1.839 -32.434  1.00  0.00    -0.242 N 
HETATM    8  H   UNL     1      -3.265   2.397 -33.158  1.00  0.00     0.192 HD
HETATM    9  O   UNL     1      -4.821   1.752 -30.436  1.00  0.00    -0.264 OA
BRANCH   7  10
HETATM   10  N   UNL     1      -3.504   0.491 -32.433  1.00  0.00    -0.183 NA
HETATM   11  C   UNL     1      -4.335  -0.203 -33.148  1.00  0.00     0.153 C 
BRANCH  11  12
HETATM   12  C   UNL     1      -4.224  -1.673 -33.233  1.00  0.00     0.017 A 
HETATM   13  C   UNL     1      -5.053  -2.341 -34.142  1.00  0.00     0.034 A 
HETATM   14  C   UNL     1      -4.976  -3.731 -34.243  1.00  0.00     0.012 A 
HETATM   15  C   UNL     1      -4.085  -4.457 -33.454  1.00  0.00     0.022 A 
HETATM   16 BR   UNL     1      -6.095  -4.637 -35.468  1.00  0.00    -0.051 Br
HETATM   17  C   UNL     1      -3.259  -3.788 -32.549  1.00  0.00     0.039 A 
HETATM   18  C   UNL     1      -3.327  -2.401 -32.439  1.00  0.00     0.077 A 
BRANCH  18  19
HETATM   19  O   UNL     1      -2.486  -1.817 -31.531  1.00  0.00    -0.360 OA
HETATM   20  H   UNL     1      -1.580  -2.147 -31.711  1.00  0.00     0.217 HD
ENDBRANCH  18  19
ENDBRANCH  11  12
ENDBRANCH   7  10
ENDBRANCH   1   6
BRANCH   2  21
HETATM   21  C   UNL     1      -2.413   5.079 -31.255  1.00  0.00     0.230 A 
HETATM   22  N   UNL     1      -1.599   4.392 -32.058  1.00  0.00    -0.081 NA
HETATM   23  O   UNL     1      -0.319   4.741 -31.625  1.00  0.00    -0.103 OA
HETATM   24  N   UNL     1      -0.376   5.654 -30.584  1.00  0.00    -0.083 NA
HETATM   25  C   UNL     1      -1.670   5.861 -30.350  1.00  0.00     0.201 A 
BRANCH  25  26
HETATM   26  N   UNL     1      -2.145   6.695 -29.411  1.00  0.00    -0.379 N 
HETATM   27  H   UNL     1      -1.517   7.322 -28.916  1.00  0.00     0.158 HD
HETATM   28  H   UNL     1      -3.093   6.657 -29.045  1.00  0.00     0.158 HD
ENDBRANCH  25  26
ENDBRANCH   2  21
BRANCH   5  29
HETATM   29  C   UNL     1      -7.282   3.718 -31.499  1.00  0.00     0.298 C 
BRANCH  29  30
HETATM   30  N   UNL     1      -7.346   2.419 -32.275  1.00  0.00    -0.066 N 
HETATM   31  H   UNL     1      -6.420   1.969 -32.103  1.00  0.00     0.280 HD
HETATM   32  C   UNL     1      -8.412   1.480 -31.779  1.00  0.00     0.235 C 
HETATM   33  C   UNL     1      -8.296   0.149 -32.510  1.00  0.00     0.028 C 
HETATM   34  C   UNL     1      -8.356   0.329 -34.024  1.00  0.00     0.003 C 
HETATM   35  C   UNL     1      -7.313   1.333 -34.497  1.00  0.00     0.028 C 
HETATM   36  C   UNL     1      -7.429   2.658 -33.758  1.00  0.00     0.235 C 
ENDBRANCH  29  30
ENDBRANCH   5  29
TORSDOF 8
ENDMDL
MODEL 2
REMARK VINA RESULT:      -8.5      3.417      6.044
REMARK  8 active torsions:
REMARK  status: ('A' for Active; 'I' for Inactive)
REMARK    1  A    between atoms: C_5  and  C_6 
REMARK    2  A    between atoms: N_7  and  N_8 
REMARK       I    between atoms: N_8  and  C_9 
REMARK    3  A    between atoms: C_9  and  C_10 
REMARK    4  A    between atoms: N_11  and  C_12 
REMARK    5  A    between atoms: C_16  and  N_17 
REMARK    6  A    between atoms: C_20  and  C_21 
REMARK    7  A    between atoms: C_21  and  N_22 
REMARK    8  A    between atoms: C_30  and  O_31 
ROOT
HETATM    1  C   UNL     1      -4.108   4.017 -32.535  1.00  0.00     0.159 A 
HETATM    2  N   UNL     1      -2.905   4.707 -32.354  1.00  0.00    -0.184 N 
HETATM    3  N   UNL     1      -2.096   3.953 -31.554  1.00  0.00    -0.058 NA
HETATM    4  N   UNL     1      -2.689   2.813 -31.262  1.00  0.00    -0.132 NA
HETATM    5  C   UNL     1      -3.917   2.823 -31.838  1.00  0.00     0.118 A 
ENDROOT
BRANCH   1   6
HETATM    6  C   UNL     1      -5.315   4.334 -33.265  1.00  0.00     0.292 C 
HETATM    7  N   UNL     1      -6.519   4.386 -32.593  1.00  0.00    -0.242 N 
HETATM    8  H   UNL     1      -6.570   4.357 -31.577  1.00  0.00     0.192 HD
HETATM    9  O   UNL     1      -5.244   4.497 -34.487  1.00  0.00    -0.264 OA
BRANCH   7  10
HETATM   10  N   UNL     1      -7.666   4.636 -33.290  1.00  0.00    -0.183 NA
HETATM   11  C   UNL     1      -8.484   3.635 -33.397  1.00  0.00     0.153 C 
BRANCH  11  12
HETATM   12  C   UNL     1      -9.760   3.767 -34.129  1.00  0.00     0.017 A 
HETATM   13  C   UNL     1     -10.670   2.708 -34.053  1.00  0.00     0.034 A 
HETATM   14  C   UNL     1     -11.884   2.800 -34.736  1.00  0.00     0.012 A 
HETATM   15  C   UNL     1     -12.196   3.931 -35.489  1.00  0.00     0.022 A 
HETATM   16 BR   UNL     1     -13.118   1.370 -34.638  1.00  0.00    -0.051 Br
HETATM   17  C   UNL     1     -11.286   4.987 -35.562  1.00  0.00     0.039 A 
HETATM   18  C   UNL     1     -10.071   4.906 -34.884  1.00  0.00     0.077 A 
BRANCH  18  19
HETATM   19  O   UNL     1      -9.232   5.979 -35.003  1.00  0.00    -0.360 OA
HETATM   20  H   UNL     1      -9.578   6.549 -35.723  1.00  0.00     0.217 HD
ENDBRANCH  18  19
ENDBRANCH  11  12
ENDBRANCH   7  10
ENDBRANCH   1   6
BRANCH   2  21
HETATM   21  C   UNL     1      -2.444   5.942 -32.873  1.00  0.00     0.230 A 
HETATM   22  N   UNL     1      -2.643   7.080 -32.207  1.00  0.00    -0.081 NA
HETATM   23  O   UNL     1      -2.088   8.059 -33.032  1.00  0.00    -0.103 OA
HETATM   24  N   UNL     1      -1.537   7.497 -34.172  1.00  0.00    -0.083 NA
HETATM   25  C   UNL     1      -1.760   6.188 -34.079  1.00  0.00     0.201 A 
BRANCH  25  26
HETATM   26  N   UNL     1      -1.370   5.287 -34.994  1.00  0.00    -0.379 N 
HETATM   27  H   UNL     1      -2.054   4.697 -35.460  1.00  0.00     0.158 HD
HETATM   28  H   UNL     1      -0.398   5.041 -35.170  1.00  0.00     0.158 HD
ENDBRANCH  25  26
ENDBRANCH   2  21
BRANCH   5  29
HETATM   29  C   UNL     1      -4.834   1.657 -31.631  1.00  0.00     0.298 C 
BRANCH  29  30
HETATM   30  N   UNL     1      -4.972   0.702 -32.798  1.00  0.00    -0.066 N 
HETATM   31  H   UNL     1      -4.377   1.119 -33.545  1.00  0.00     0.280 HD
HETATM   32  C   UNL     1      -4.445  -0.677 -32.507  1.00  0.00     0.235 C 
HETATM   33  C   UNL     1      -4.482  -1.514 -33.779  1.00  0.00     0.028 C 
HETATM   34  C   UNL     1      -5.880  -1.556 -34.387  1.00  0.00     0.003 C 
HETATM   35  C   UNL     1      -6.422  -0.150 -34.613  1.00  0.00     0.028 C 
HETATM   36  C   UNL     1      -6.376   0.683 -33.340  1.00  0.00     0.235 C 
ENDBRANCH  29  30
ENDBRANCH   5  29
TORSDOF 8
ENDMDL
MODEL 3
REMARK VINA RESULT:      -8.5      4.262      8.210
REMARK  8 active torsions:
REMARK  status: ('A' for Active; 'I' for Inactive)
REMARK    1  A    between atoms: C_5  and  C_6 
REMARK    2  A    between atoms: N_7  and  N_8 
REMARK       I    between atoms: N_8  and  C_9 
REMARK    3  A    between atoms: C_9  and  C_10 
REMARK    4  A    between atoms: N_11  and  C_12 
REMARK    5  A    between atoms: C_16  and  N_17 
REMARK    6  A    between atoms: C_20  and  C_21 
REMARK    7  A    between atoms: C_21  and  N_22 
REMARK    8  A    between atoms: C_30  and  O_31 
ROOT
HETATM    1  C   UNL     1      -5.490  -0.931 -33.267  1.00  0.00     0.159 A 
HETATM    2  N   UNL     1      -4.928  -2.202 -33.424  1.00  0.00    -0.184 N 
HETATM    3  N   UNL     1      -3.840  -2.293 -32.605  1.00  0.00    -0.058 NA
HETATM    4  N   UNL     1      -3.710  -1.184 -31.906  1.00  0.00    -0.132 NA
HETATM    5  C   UNL     1      -4.693  -0.332 -32.289  1.00  0.00     0.118 A 
ENDROOT
BRANCH   1   6
HETATM    6  C   UNL     1      -6.628  -0.284 -33.879  1.00  0.00     0.292 C 
HETATM    7  N   UNL     1      -7.847  -0.304 -33.233  1.00  0.00    -0.242 N 
HETATM    8  H   UNL     1      -7.941  -0.628 -32.272  1.00  0.00     0.192 HD
HETATM    9  O   UNL     1      -6.492   0.227 -34.995  1.00  0.00    -0.264 OA
BRANCH   7  10
HETATM   10  N   UNL     1      -8.933   0.264 -33.832  1.00  0.00    -0.183 NA
HETATM   11  C   UNL     1      -9.984   0.389 -33.081  1.00  0.00     0.153 C 
BRANCH  11  12
HETATM   12  C   UNL     1     -11.230   0.984 -33.604  1.00  0.00     0.017 A 
HETATM   13  C   UNL     1     -11.160   2.266 -34.160  1.00  0.00     0.034 A 
HETATM   14  C   UNL     1     -12.321   2.859 -34.660  1.00  0.00     0.012 A 
HETATM   15  C   UNL     1     -13.542   2.188 -34.612  1.00  0.00     0.022 A 
HETATM   16 BR   UNL     1     -12.231   4.591 -35.411  1.00  0.00    -0.051 Br
HETATM   17  C   UNL     1     -13.609   0.909 -34.058  1.00  0.00     0.039 A 
HETATM   18  C   UNL     1     -12.457   0.308 -33.556  1.00  0.00     0.077 A 
BRANCH  18  19
HETATM   19  O   UNL     1     -12.602  -0.946 -33.029  1.00  0.00    -0.360 OA
HETATM   20  H   UNL     1     -11.753  -1.423 -33.157  1.00  0.00     0.217 HD
ENDBRANCH  18  19
ENDBRANCH  11  12
ENDBRANCH   7  10
ENDBRANCH   1   6
BRANCH   2  21
HETATM   21  C   UNL     1      -5.323  -3.312 -34.211  1.00  0.00     0.230 A 
HETATM   22  N   UNL     1      -6.422  -3.261 -34.963  1.00  0.00    -0.081 NA
HETATM   23  O   UNL     1      -6.492  -4.524 -35.552  1.00  0.00    -0.103 OA
HETATM   24  N   UNL     1      -5.419  -5.313 -35.168  1.00  0.00    -0.083 NA
HETATM   25  C   UNL     1      -4.697  -4.567 -34.335  1.00  0.00     0.201 A 
BRANCH  25  26
HETATM   26  N   UNL     1      -3.561  -4.975 -33.746  1.00  0.00    -0.379 N 
HETATM   27  H   UNL     1      -2.776  -5.292 -34.307  1.00  0.00     0.158 HD
HETATM   28  H   UNL     1      -3.464  -5.125 -32.744  1.00  0.00     0.158 HD
ENDBRANCH  25  26
ENDBRANCH   2  21
BRANCH   5  29
HETATM   29  C   UNL     1      -4.758   1.035 -31.681  1.00  0.00     0.298 C 
BRANCH  29  30
HETATM   30  N   UNL     1      -4.409   2.189 -32.596  1.00  0.00    -0.066 N 
HETATM   31  H   UNL     1      -4.114   1.733 -33.487  1.00  0.00     0.280 HD
HETATM   32  C   UNL     1      -5.580   3.083 -32.904  1.00  0.00     0.235 C 
HETATM   33  C   UNL     1      -5.172   4.113 -33.948  1.00  0.00     0.028 C 
HETATM   34  C   UNL     1      -3.949   4.911 -33.507  1.00  0.00     0.003 C 
HETATM   35  C   UNL     1      -2.797   3.986 -33.137  1.00  0.00     0.028 C 
HETATM   36  C   UNL     1      -3.212   2.954 -32.098  1.00  0.00     0.235 C 
ENDBRANCH  29  30
ENDBRANCH   5  29
TORSDOF 8
ENDMDL
MODEL 4
REMARK VINA RESULT:      -8.2      3.178      5.744
REMARK  8 active torsions:
REMARK  status: ('A' for Active; 'I' for Inactive)
REMARK    1  A    between atoms: C_5  and  C_6 
REMARK    2  A    between atoms: N_7  and  N_8 
REMARK       I    between atoms: N_8  and  C_9 
REMARK    3  A    between atoms: C_9  and  C_10 
REMARK    4  A    between atoms: N_11  and  C_12 
REMARK    5  A    between atoms: C_16  and  N_17 
REMARK    6  A    between atoms: C_20  and  C_21 
REMARK    7  A    between atoms: C_21  and  N_22 
REMARK    8  A    between atoms: C_30  and  O_31 
ROOT
HETATM    1  C   UNL     1      -4.756   2.781 -32.378  1.00  0.00     0.159 A 
HETATM    2  N   UNL     1      -3.639   3.600 -32.184  1.00  0.00    -0.184 N 
HETATM    3  N   UNL     1      -2.695   2.885 -31.505  1.00  0.00    -0.058 NA
HETATM    4  N   UNL     1      -3.123   1.655 -31.305  1.00  0.00    -0.132 NA
HETATM    5  C   UNL     1      -4.375   1.560 -31.817  1.00  0.00     0.118 A 
ENDROOT
BRANCH   1   6
HETATM    6  C   UNL     1      -6.034   3.006 -33.013  1.00  0.00     0.292 C 
HETATM    7  N   UNL     1      -7.177   3.050 -32.240  1.00  0.00    -0.242 N 
HETATM    8  H   UNL     1      -7.137   3.078 -31.223  1.00  0.00     0.192 HD
HETATM    9  O   UNL     1      -6.077   3.101 -34.244  1.00  0.00    -0.264 OA
BRANCH   7  10
HETATM   10  N   UNL     1      -8.389   3.214 -32.844  1.00  0.00    -0.183 NA
HETATM   11  C   UNL     1      -9.022   2.118 -33.132  1.00  0.00     0.153 C 
BRANCH  11  12
HETATM   12  C   UNL     1     -10.343   2.150 -33.791  1.00  0.00     0.017 A 
HETATM   13  C   UNL     1     -11.241   1.116 -33.508  1.00  0.00     0.034 A 
HETATM   14  C   UNL     1     -12.497   1.115 -34.118  1.00  0.00     0.012 A 
HETATM   15  C   UNL     1     -12.863   2.131 -35.001  1.00  0.00     0.022 A 
HETATM   16 BR   UNL     1     -13.714  -0.281 -33.740  1.00  0.00    -0.051 Br
HETATM   17  C   UNL     1     -11.965   3.162 -35.280  1.00  0.00     0.039 A 
HETATM   18  C   UNL     1     -10.709   3.173 -34.678  1.00  0.00     0.077 A 
BRANCH  18  19
HETATM   19  O   UNL     1      -9.884   4.216 -35.001  1.00  0.00    -0.360 OA
HETATM   20  H   UNL     1      -9.366   3.952 -35.792  1.00  0.00     0.217 HD
ENDBRANCH  18  19
ENDBRANCH  11  12
ENDBRANCH   7  10
ENDBRANCH   1   6
BRANCH   2  21
HETATM   21  C   UNL     1      -3.368   4.930 -32.594  1.00  0.00     0.230 A 
HETATM   22  N   UNL     1      -3.461   5.283 -33.876  1.00  0.00    -0.081 NA
HETATM   23  O   UNL     1      -3.097   6.631 -33.885  1.00  0.00    -0.103 OA
HETATM   24  N   UNL     1      -2.814   7.080 -32.605  1.00  0.00    -0.083 NA
HETATM   25  C   UNL     1      -2.976   6.028 -31.804  1.00  0.00     0.201 A 
BRANCH  25  26
HETATM   26  N   UNL     1      -2.801   6.056 -30.474  1.00  0.00    -0.379 N 
HETATM   27  H   UNL     1      -2.925   5.213 -29.921  1.00  0.00     0.158 HD
HETATM   28  H   UNL     1      -2.682   6.911 -29.935  1.00  0.00     0.158 HD
ENDBRANCH  25  26
ENDBRANCH   2  21
BRANCH   5  29
HETATM   29  C   UNL     1      -5.126   0.270 -31.688  1.00  0.00     0.298 C 
BRANCH  29  30
HETATM   30  N   UNL     1      -5.298  -0.531 -32.961  1.00  0.00    -0.066 N 
HETATM   31  H   UNL     1      -4.969   0.109 -33.716  1.00  0.00     0.280 HD
HETATM   32  C   UNL     1      -4.446  -1.770 -33.007  1.00  0.00     0.235 C 
HETATM   33  C   UNL     1      -4.567  -2.420 -34.378  1.00  0.00     0.028 C 
HETATM   34  C   UNL     1      -6.020  -2.716 -34.737  1.00  0.00     0.003 C 
HETATM   35  C   UNL     1      -6.878  -1.463 -34.621  1.00  0.00     0.028 C 
HETATM   36  C   UNL     1      -6.748  -0.814 -33.250  1.00  0.00     0.235 C 
ENDBRANCH  29  30
ENDBRANCH   5  29
TORSDOF 8
ENDMDL
MODEL 5
REMARK VINA RESULT:      -8.2      4.170      7.962
REMARK  8 active torsions:
REMARK  status: ('A' for Active; 'I' for Inactive)
REMARK    1  A    between atoms: C_5  and  C_6 
REMARK    2  A    between atoms: N_7  and  N_8 
REMARK       I    between atoms: N_8  and  C_9 
REMARK    3  A    between atoms: C_9  and  C_10 
REMARK    4  A    between atoms: N_11  and  C_12 
REMARK    5  A    between atoms: C_16  and  N_17 
REMARK    6  A    between atoms: C_20  and  C_21 
REMARK    7  A    between atoms: C_21  and  N_22 
REMARK    8  A    between atoms: C_30  and  O_31 
ROOT
HETATM    1  C   UNL     1      -5.434  -0.675 -33.652  1.00  0.00     0.159 A 
HETATM    2  N   UNL     1      -4.822  -1.930 -33.715  1.00  0.00    -0.184 N 
HETATM    3  N   UNL     1      -3.612  -1.849 -33.087  1.00  0.00    -0.058 NA
HETATM    4  N   UNL     1      -3.445  -0.641 -32.589  1.00  0.00    -0.132 NA
HETATM    5  C   UNL     1      -4.532   0.100 -32.920  1.00  0.00     0.118 A 
ENDROOT
BRANCH   1   6
HETATM    6  C   UNL     1      -6.697  -0.177 -34.149  1.00  0.00     0.292 C 
HETATM    7  N   UNL     1      -7.864  -0.521 -33.499  1.00  0.00    -0.242 N 
HETATM    8  H   UNL     1      -7.859  -0.989 -32.595  1.00  0.00     0.192 HD
HETATM    9  O   UNL     1      -6.702   0.502 -35.180  1.00  0.00    -0.264 OA
BRANCH   7  10
HETATM   10  N   UNL     1      -9.060  -0.092 -33.997  1.00  0.00    -0.183 NA
HETATM   11  C   UNL     1      -9.691   0.774 -33.265  1.00  0.00     0.153 C 
BRANCH  11  12
HETATM   12  C   UNL     1     -10.998   1.319 -33.683  1.00  0.00     0.017 A 
HETATM   13  C   UNL     1     -11.030   2.619 -34.199  1.00  0.00     0.034 A 
HETATM   14  C   UNL     1     -12.251   3.165 -34.600  1.00  0.00     0.012 A 
HETATM   15  C   UNL     1     -13.432   2.431 -34.492  1.00  0.00     0.022 A 
HETATM   16 BR   UNL     1     -12.300   4.922 -35.296  1.00  0.00    -0.051 Br
HETATM   17  C   UNL     1     -13.396   1.134 -33.978  1.00  0.00     0.039 A 
HETATM   18  C   UNL     1     -12.183   0.579 -33.575  1.00  0.00     0.077 A 
BRANCH  18  19
HETATM   19  O   UNL     1     -12.228  -0.697 -33.082  1.00  0.00    -0.360 OA
HETATM   20  H   UNL     1     -12.056  -1.311 -33.828  1.00  0.00     0.217 HD
ENDBRANCH  18  19
ENDBRANCH  11  12
ENDBRANCH   7  10
ENDBRANCH   1   6
BRANCH   2  21
HETATM   21  C   UNL     1      -5.264  -3.164 -34.254  1.00  0.00     0.230 A 
HETATM   22  N   UNL     1      -6.457  -3.267 -34.840  1.00  0.00    -0.081 NA
HETATM   23  O   UNL     1      -6.543  -4.610 -35.207  1.00  0.00    -0.103 OA
HETATM   24  N   UNL     1      -5.388  -5.296 -34.863  1.00  0.00    -0.083 NA
HETATM   25  C   UNL     1      -4.598  -4.405 -34.269  1.00  0.00     0.201 A 
BRANCH  25  26
HETATM   26  N   UNL     1      -3.373  -4.679 -33.792  1.00  0.00    -0.379 N 
HETATM   27  H   UNL     1      -3.104  -5.637 -33.586  1.00  0.00     0.158 HD
HETATM   28  H   UNL     1      -2.713  -3.970 -33.481  1.00  0.00     0.158 HD
ENDBRANCH  25  26
ENDBRANCH   2  21
BRANCH   5  29
HETATM   29  C   UNL     1      -4.589   1.541 -32.515  1.00  0.00     0.298 C 
BRANCH  29  30
HETATM   30  N   UNL     1      -5.967   2.166 -32.469  1.00  0.00    -0.066 N 
HETATM   31  H   UNL     1      -6.592   1.445 -32.889  1.00  0.00     0.280 HD
HETATM   32  C   UNL     1      -6.454   2.438 -31.071  1.00  0.00     0.235 C 
HETATM   33  C   UNL     1      -7.899   2.916 -31.121  1.00  0.00     0.028 C 
HETATM   34  C   UNL     1      -8.061   4.133 -32.025  1.00  0.00     0.003 C 
HETATM   35  C   UNL     1      -7.503   3.859 -33.416  1.00  0.00     0.028 C 
HETATM   36  C   UNL     1      -6.060   3.376 -33.360  1.00  0.00     0.235 C 
ENDBRANCH  29  30
ENDBRANCH   5  29
TORSDOF 8
ENDMDL
MODEL 6
REMARK VINA RESULT:      -8.1      4.126      6.570
REMARK  8 active torsions:
REMARK  status: ('A' for Active; 'I' for Inactive)
REMARK    1  A    between atoms: C_5  and  C_6 
REMARK    2  A    between atoms: N_7  and  N_8 
REMARK       I    between atoms: N_8  and  C_9 
REMARK    3  A    between atoms: C_9  and  C_10 
REMARK    4  A    between atoms: N_11  and  C_12 
REMARK    5  A    between atoms: C_16  and  N_17 
REMARK    6  A    between atoms: C_20  and  C_21 
REMARK    7  A    between atoms: C_21  and  N_22 
REMARK    8  A    between atoms: C_30  and  O_31 
ROOT
HETATM    1  C   UNL     1      -4.171   4.034 -32.945  1.00  0.00     0.159 A 
HETATM    2  N   UNL     1      -2.896   4.563 -32.717  1.00  0.00    -0.184 N 
HETATM    3  N   UNL     1      -2.242   3.742 -31.843  1.00  0.00    -0.058 NA
HETATM    4  N   UNL     1      -3.000   2.706 -31.547  1.00  0.00    -0.132 NA
HETATM    5  C   UNL     1      -4.182   2.856 -32.195  1.00  0.00     0.118 A 
ENDROOT
BRANCH   1   6
HETATM    6  C   UNL     1      -5.281   4.478 -33.756  1.00  0.00     0.292 C 
HETATM    7  N   UNL     1      -6.508   4.699 -33.164  1.00  0.00    -0.242 N 
HETATM    8  H   UNL     1      -6.623   4.705 -32.152  1.00  0.00     0.192 HD
HETATM    9  O   UNL     1      -5.116   4.596 -34.974  1.00  0.00    -0.264 OA
BRANCH   7  10
HETATM   10  N   UNL     1      -7.569   5.070 -33.937  1.00  0.00    -0.183 NA
HETATM   11  C   UNL     1      -8.721   4.601 -33.567  1.00  0.00     0.153 C 
BRANCH  11  12
HETATM   12  C   UNL     1      -9.952   4.922 -34.317  1.00  0.00     0.017 A 
HETATM   13  C   UNL     1     -10.363   6.258 -34.359  1.00  0.00     0.034 A 
HETATM   14  C   UNL     1     -11.525   6.594 -35.056  1.00  0.00     0.012 A 
HETATM   15  C   UNL     1     -12.275   5.615 -35.709  1.00  0.00     0.022 A 
HETATM   16 BR   UNL     1     -12.087   8.398 -35.114  1.00  0.00    -0.051 Br
HETATM   17  C   UNL     1     -11.860   4.283 -35.666  1.00  0.00     0.039 A 
HETATM   18  C   UNL     1     -10.703   3.937 -34.973  1.00  0.00     0.077 A 
BRANCH  18  19
HETATM   19  O   UNL     1     -10.361   2.612 -34.977  1.00  0.00    -0.360 OA
HETATM   20  H   UNL     1     -11.078   2.119 -34.523  1.00  0.00     0.217 HD
ENDBRANCH  18  19
ENDBRANCH  11  12
ENDBRANCH   7  10
ENDBRANCH   1   6
BRANCH   2  21
HETATM   21  C   UNL     1      -2.243   5.702 -33.250  1.00  0.00     0.230 A 
HETATM   22  N   UNL     1      -1.340   5.579 -34.223  1.00  0.00    -0.081 NA
HETATM   23  O   UNL     1      -0.908   6.886 -34.454  1.00  0.00    -0.103 OA
HETATM   24  N   UNL     1      -1.576   7.784 -33.636  1.00  0.00    -0.083 NA
HETATM   25  C   UNL     1      -2.399   7.053 -32.886  1.00  0.00     0.201 A 
BRANCH  25  26
HETATM   26  N   UNL     1      -3.231   7.559 -31.963  1.00  0.00    -0.379 N 
HETATM   27  H   UNL     1      -3.221   7.204 -31.011  1.00  0.00     0.158 HD
HETATM   28  H   UNL     1      -3.992   8.200 -32.175  1.00  0.00     0.158 HD
ENDBRANCH  25  26
ENDBRANCH   2  21
BRANCH   5  29
HETATM   29  C   UNL     1      -5.260   1.834 -32.002  1.00  0.00     0.298 C 
BRANCH  29  30
HETATM   30  N   UNL     1      -5.521   0.911 -33.173  1.00  0.00    -0.066 N 
HETATM   31  H   UNL     1      -4.810   1.188 -33.884  1.00  0.00     0.280 HD
HETATM   32  C   UNL     1      -5.303  -0.542 -32.848  1.00  0.00     0.235 C 
HETATM   33  C   UNL     1      -5.434  -1.372 -34.118  1.00  0.00     0.028 C 
HETATM   34  C   UNL     1      -6.774  -1.139 -34.809  1.00  0.00     0.003 C 
HETATM   35  C   UNL     1      -7.005   0.344 -35.070  1.00  0.00     0.028 C 
HETATM   36  C   UNL     1      -6.866   1.169 -33.798  1.00  0.00     0.235 C 
ENDBRANCH  29  30
ENDBRANCH   5  29
TORSDOF 8
ENDMDL
MODEL 7
REMARK VINA RESULT:      -8.1      1.731      2.081
REMARK  8 active torsions:
REMARK  status: ('A' for Active; 'I' for Inactive)
REMARK    1  A    between atoms: C_5  and  C_6 
REMARK    2  A    between atoms: N_7  and  N_8 
REMARK       I    between atoms: N_8  and  C_9 
REMARK    3  A    between atoms: C_9  and  C_10 
REMARK    4  A    between atoms: N_11  and  C_12 
REMARK    5  A    between atoms: C_16  and  N_17 
REMARK    6  A    between atoms: C_20  and  C_21 
REMARK    7  A    between atoms: C_21  and  N_22 
REMARK    8  A    between atoms: C_30  and  O_31 
ROOT
HETATM    1  C   UNL     1      -6.028   3.633 -32.218  1.00  0.00     0.159 A 
HETATM    2  N   UNL     1      -5.302   4.828 -32.228  1.00  0.00    -0.184 N 
HETATM    3  N   UNL     1      -5.954   5.733 -31.440  1.00  0.00    -0.058 NA
HETATM    4  N   UNL     1      -7.013   5.171 -30.895  1.00  0.00    -0.132 NA
HETATM    5  C   UNL     1      -7.092   3.897 -31.352  1.00  0.00     0.118 A 
ENDROOT
BRANCH   1   6
HETATM    6  C   UNL     1      -5.823   2.359 -32.869  1.00  0.00     0.292 C 
HETATM    7  N   UNL     1      -4.889   1.480 -32.361  1.00  0.00    -0.242 N 
HETATM    8  H   UNL     1      -4.445   1.631 -31.457  1.00  0.00     0.192 HD
HETATM    9  O   UNL     1      -6.455   2.113 -33.902  1.00  0.00    -0.264 OA
BRANCH   7  10
HETATM   10  N   UNL     1      -4.661   0.299 -33.004  1.00  0.00    -0.183 NA
HETATM   11  C   UNL     1      -4.705  -0.761 -32.257  1.00  0.00     0.153 C 
BRANCH  11  12
HETATM   12  C   UNL     1      -4.472  -2.104 -32.823  1.00  0.00     0.017 A 
HETATM   13  C   UNL     1      -5.356  -2.562 -33.807  1.00  0.00     0.034 A 
HETATM   14  C   UNL     1      -5.166  -3.830 -34.360  1.00  0.00     0.012 A 
HETATM   15  C   UNL     1      -4.109  -4.639 -33.945  1.00  0.00     0.022 A 
HETATM   16 BR   UNL     1      -6.358  -4.454 -35.688  1.00  0.00    -0.051 Br
HETATM   17  C   UNL     1      -3.228  -4.179 -32.965  1.00  0.00     0.039 A 
HETATM   18  C   UNL     1      -3.408  -2.916 -32.405  1.00  0.00     0.077 A 
BRANCH  18  19
HETATM   19  O   UNL     1      -2.505  -2.535 -31.451  1.00  0.00    -0.360 OA
HETATM   20  H   UNL     1      -1.912  -1.865 -31.853  1.00  0.00     0.217 HD
ENDBRANCH  18  19
ENDBRANCH  11  12
ENDBRANCH   7  10
ENDBRANCH   1   6
BRANCH   2  21
HETATM   21  C   UNL     1      -4.079   5.177 -32.852  1.00  0.00     0.230 A 
HETATM   22  N   UNL     1      -4.063   5.911 -33.965  1.00  0.00    -0.081 NA
HETATM   23  O   UNL     1      -2.709   6.017 -34.286  1.00  0.00    -0.103 OA
HETATM   24  N   UNL     1      -1.922   5.368 -33.348  1.00  0.00    -0.083 NA
HETATM   25  C   UNL     1      -2.767   4.843 -32.462  1.00  0.00     0.201 A 
BRANCH  25  26
HETATM   26  N   UNL     1      -2.391   4.135 -31.385  1.00  0.00    -0.379 N 
HETATM   27  H   UNL     1      -1.439   4.197 -31.036  1.00  0.00     0.158 HD
HETATM   28  H   UNL     1      -2.962   3.413 -30.953  1.00  0.00     0.158 HD
ENDBRANCH  25  26
ENDBRANCH   2  21
BRANCH   5  29
HETATM   29  C   UNL     1      -8.237   3.032 -30.923  1.00  0.00     0.298 C 
BRANCH  29  30
HETATM   30  N   UNL     1      -8.935   2.257 -32.021  1.00  0.00    -0.066 N 
HETATM   31  H   UNL     1      -8.325   2.387 -32.857  1.00  0.00     0.280 HD
HETATM   32  C   UNL     1      -9.028   0.781 -31.745  1.00  0.00     0.235 C 
HETATM   33  C   UNL     1      -9.598   0.071 -32.965  1.00  0.00     0.028 C 
HETATM   34  C   UNL     1     -10.943   0.656 -33.382  1.00  0.00     0.003 C 
HETATM   35  C   UNL     1     -10.844   2.162 -33.593  1.00  0.00     0.028 C 
HETATM   36  C   UNL     1     -10.267   2.866 -32.373  1.00  0.00     0.235 C 
ENDBRANCH  29  30
ENDBRANCH   5  29
TORSDOF 8
ENDMDL
MODEL 8
REMARK VINA RESULT:      -8.0      1.789      2.171
REMARK  8 active torsions:
REMARK  status: ('A' for Active; 'I' for Inactive)
REMARK    1  A    between atoms: C_5  and  C_6 
REMARK    2  A    between atoms: N_7  and  N_8 
REMARK       I    between atoms: N_8  and  C_9 
REMARK    3  A    between atoms: C_9  and  C_10 
REMARK    4  A    between atoms: N_11  and  C_12 
REMARK    5  A    between atoms: C_16  and  N_17 
REMARK    6  A    between atoms: C_20  and  C_21 
REMARK    7  A    between atoms: C_21  and  N_22 
REMARK    8  A    between atoms: C_30  and  O_31 
ROOT
HETATM    1  C   UNL     1      -4.043   4.485 -31.797  1.00  0.00     0.159 A 
HETATM    2  N   UNL     1      -3.604   5.673 -32.390  1.00  0.00    -0.184 N 
HETATM    3  N   UNL     1      -4.406   6.689 -31.957  1.00  0.00    -0.058 NA
HETATM    4  N   UNL     1      -5.287   6.229 -31.092  1.00  0.00    -0.132 NA
HETATM    5  C   UNL     1      -5.098   4.891 -30.977  1.00  0.00     0.118 A 
ENDROOT
BRANCH   1   6
HETATM    6  C   UNL     1      -3.587   3.117 -31.896  1.00  0.00     0.292 C 
HETATM    7  N   UNL     1      -4.281   2.227 -32.689  1.00  0.00    -0.242 N 
HETATM    8  H   UNL     1      -5.015   2.532 -33.326  1.00  0.00     0.192 HD
HETATM    9  O   UNL     1      -2.614   2.766 -31.221  1.00  0.00    -0.264 OA
BRANCH   7  10
HETATM   10  N   UNL     1      -3.879   0.924 -32.744  1.00  0.00    -0.183 NA
HETATM   11  C   UNL     1      -4.804   0.067 -33.052  1.00  0.00     0.153 C 
BRANCH  11  12
HETATM   12  C   UNL     1      -4.508  -1.376 -33.144  1.00  0.00     0.017 A 
HETATM   13  C   UNL     1      -5.247  -2.140 -34.052  1.00  0.00     0.034 A 
HETATM   14  C   UNL     1      -4.993  -3.509 -34.160  1.00  0.00     0.012 A 
HETATM   15  C   UNL     1      -4.015  -4.118 -33.375  1.00  0.00     0.022 A 
HETATM   16 BR   UNL     1      -5.991  -4.546 -35.386  1.00  0.00    -0.051 Br
HETATM   17  C   UNL     1      -3.278  -3.353 -32.470  1.00  0.00     0.039 A 
HETATM   18  C   UNL     1      -3.523  -1.986 -32.354  1.00  0.00     0.077 A 
BRANCH  18  19
HETATM   19  O   UNL     1      -2.761  -1.303 -31.446  1.00  0.00    -0.360 OA
HETATM   20  H   UNL     1      -1.855  -1.224 -31.817  1.00  0.00     0.217 HD
ENDBRANCH  18  19
ENDBRANCH  11  12
ENDBRANCH   7  10
ENDBRANCH   1   6
BRANCH   2  21
HETATM   21  C   UNL     1      -2.520   5.942 -33.261  1.00  0.00     0.230 A 
HETATM   22  N   UNL     1      -2.246   5.131 -34.283  1.00  0.00    -0.081 NA
HETATM   23  O   UNL     1      -1.117   5.699 -34.876  1.00  0.00    -0.103 OA
HETATM   24  N   UNL     1      -0.741   6.860 -34.221  1.00  0.00    -0.083 NA
HETATM   25  C   UNL     1      -1.604   7.011 -33.218  1.00  0.00     0.201 A 
BRANCH  25  26
HETATM   26  N   UNL     1      -1.579   8.031 -32.346  1.00  0.00    -0.379 N 
HETATM   27  H   UNL     1      -2.442   8.493 -32.072  1.00  0.00     0.158 HD
HETATM   28  H   UNL     1      -0.727   8.484 -32.027  1.00  0.00     0.158 HD
ENDBRANCH  25  26
ENDBRANCH   2  21
BRANCH   5  29
HETATM   29  C   UNL     1      -6.000   4.096 -30.083  1.00  0.00     0.298 C 
BRANCH  29  30
HETATM   30  N   UNL     1      -7.293   3.610 -30.703  1.00  0.00    -0.066 N 
HETATM   31  H   UNL     1      -7.288   4.016 -31.663  1.00  0.00     0.280 HD
HETATM   32  C   UNL     1      -7.364   2.113 -30.837  1.00  0.00     0.235 C 
HETATM   33  C   UNL     1      -8.621   1.732 -31.608  1.00  0.00     0.028 C 
HETATM   34  C   UNL     1      -9.877   2.305 -30.960  1.00  0.00     0.003 C 
HETATM   35  C   UNL     1      -9.758   3.812 -30.772  1.00  0.00     0.028 C 
HETATM   36  C   UNL     1      -8.497   4.187 -30.007  1.00  0.00     0.235 C 
ENDBRANCH  29  30
ENDBRANCH   5  29
TORSDOF 8
ENDMDL
MODEL 9
REMARK VINA RESULT:      -8.0      3.770      6.789
REMARK  8 active torsions:
REMARK  status: ('A' for Active; 'I' for Inactive)
REMARK    1  A    between atoms: C_5  and  C_6 
REMARK    2  A    between atoms: N_7  and  N_8 
REMARK       I    between atoms: N_8  and  C_9 
REMARK    3  A    between atoms: C_9  and  C_10 
REMARK    4  A    between atoms: N_11  and  C_12 
REMARK    5  A    between atoms: C_16  and  N_17 
REMARK    6  A    between atoms: C_20  and  C_21 
REMARK    7  A    between atoms: C_21  and  N_22 
REMARK    8  A    between atoms: C_30  and  O_31 
ROOT
HETATM    1  C   UNL     1     -10.333   2.753 -32.311  1.00  0.00     0.159 A 
HETATM    2  N   UNL     1     -11.594   3.106 -32.801  1.00  0.00    -0.184 N 
HETATM    3  N   UNL     1     -11.900   4.353 -32.338  1.00  0.00    -0.058 NA
HETATM    4  N   UNL     1     -10.895   4.829 -31.632  1.00  0.00    -0.132 NA
HETATM    5  C   UNL     1      -9.928   3.879 -31.591  1.00  0.00     0.118 A 
ENDROOT
BRANCH   1   6
HETATM    6  C   UNL     1      -9.522   1.567 -32.464  1.00  0.00     0.292 C 
HETATM    7  N   UNL     1      -8.911   1.314 -33.675  1.00  0.00    -0.242 N 
HETATM    8  H   UNL     1      -8.886   2.008 -34.420  1.00  0.00     0.192 HD
HETATM    9  O   UNL     1      -9.442   0.777 -31.517  1.00  0.00    -0.264 OA
BRANCH   7  10
HETATM   10  N   UNL     1      -8.186   0.169 -33.834  1.00  0.00    -0.183 NA
HETATM   11  C   UNL     1      -6.898   0.307 -33.749  1.00  0.00     0.153 C 
BRANCH  11  12
HETATM   12  C   UNL     1      -5.995  -0.850 -33.905  1.00  0.00     0.017 A 
HETATM   13  C   UNL     1      -6.502  -1.998 -34.523  1.00  0.00     0.034 A 
HETATM   14  C   UNL     1      -5.675  -3.111 -34.682  1.00  0.00     0.012 A 
HETATM   15  C   UNL     1      -4.354  -3.089 -34.235  1.00  0.00     0.022 A 
HETATM   16 BR   UNL     1      -6.357  -4.665 -35.515  1.00  0.00    -0.051 Br
HETATM   17  C   UNL     1      -3.850  -1.942 -33.620  1.00  0.00     0.039 A 
HETATM   18  C   UNL     1      -4.667  -0.825 -33.455  1.00  0.00     0.077 A 
BRANCH  18  19
HETATM   19  O   UNL     1      -4.103   0.261 -32.844  1.00  0.00    -0.360 OA
HETATM   20  H   UNL     1      -3.366  -0.063 -32.282  1.00  0.00     0.217 HD
ENDBRANCH  18  19
ENDBRANCH  11  12
ENDBRANCH   7  10
ENDBRANCH   1   6
BRANCH   2  21
HETATM   21  C   UNL     1     -12.490   2.426 -33.662  1.00  0.00     0.230 A 
HETATM   22  N   UNL     1     -12.169   2.186 -34.934  1.00  0.00    -0.081 NA
HETATM   23  O   UNL     1     -13.291   1.540 -35.454  1.00  0.00    -0.103 OA
HETATM   24  N   UNL     1     -14.266   1.374 -34.482  1.00  0.00    -0.083 NA
HETATM   25  C   UNL     1     -13.775   1.926 -33.374  1.00  0.00     0.201 A 
BRANCH  25  26
HETATM   26  N   UNL     1     -14.421   1.964 -32.198  1.00  0.00    -0.379 N 
HETATM   27  H   UNL     1     -15.231   1.371 -32.037  1.00  0.00     0.158 HD
HETATM   28  H   UNL     1     -14.245   2.658 -31.476  1.00  0.00     0.158 HD
ENDBRANCH  25  26
ENDBRANCH   2  21
BRANCH   5  29
HETATM   29  C   UNL     1      -8.676   4.139 -30.811  1.00  0.00     0.298 C 
BRANCH  29  30
HETATM   30  N   UNL     1      -7.414   4.339 -31.623  1.00  0.00    -0.066 N 
HETATM   31  H   UNL     1      -6.943   5.154 -31.173  1.00  0.00     0.280 HD
HETATM   32  C   UNL     1      -6.470   3.169 -31.558  1.00  0.00     0.235 C 
HETATM   33  C   UNL     1      -5.172   3.524 -32.270  1.00  0.00     0.028 C 
HETATM   34  C   UNL     1      -5.419   3.975 -33.705  1.00  0.00     0.003 C 
HETATM   35  C   UNL     1      -6.427   5.116 -33.754  1.00  0.00     0.028 C 
HETATM   36  C   UNL     1      -7.721   4.758 -33.036  1.00  0.00     0.235 C 
ENDBRANCH  29  30
ENDBRANCH   5  29
TORSDOF 8
ENDMDL
MODEL 10
REMARK VINA RESULT:      -8.0      2.391      5.297
REMARK  8 active torsions:
REMARK  status: ('A' for Active; 'I' for Inactive)
REMARK    1  A    between atoms: C_5  and  C_6 
REMARK    2  A    between atoms: N_7  and  N_8 
REMARK       I    between atoms: N_8  and  C_9 
REMARK    3  A    between atoms: C_9  and  C_10 
REMARK    4  A    between atoms: N_11  and  C_12 
REMARK    5  A    between atoms: C_16  and  N_17 
REMARK    6  A    between atoms: C_20  and  C_21 
REMARK    7  A    between atoms: C_21  and  N_22 
REMARK    8  A    between atoms: C_30  and  O_31 
ROOT
HETATM    1  C   UNL     1      -6.831   3.704 -31.802  1.00  0.00     0.159 A 
HETATM    2  N   UNL     1      -7.953   4.538 -31.850  1.00  0.00    -0.184 N 
HETATM    3  N   UNL     1      -7.543   5.820 -31.617  1.00  0.00    -0.058 NA
HETATM    4  N   UNL     1      -6.234   5.854 -31.478  1.00  0.00    -0.132 NA
HETATM    5  C   UNL     1      -5.770   4.583 -31.578  1.00  0.00     0.118 A 
ENDROOT
BRANCH   1   6
HETATM    6  C   UNL     1      -6.668   2.276 -31.961  1.00  0.00     0.292 C 
HETATM    7  N   UNL     1      -6.032   1.787 -33.083  1.00  0.00    -0.242 N 
HETATM    8  H   UNL     1      -5.540   2.399 -33.731  1.00  0.00     0.192 HD
HETATM    9  O   UNL     1      -7.153   1.526 -31.108  1.00  0.00    -0.264 OA
BRANCH   7  10
HETATM   10  N   UNL     1      -5.921   0.438 -33.256  1.00  0.00    -0.183 NA
HETATM   11  C   UNL     1      -4.743  -0.058 -33.034  1.00  0.00     0.153 C 
BRANCH  11  12
HETATM   12  C   UNL     1      -4.483  -1.503 -33.188  1.00  0.00     0.017 A 
HETATM   13  C   UNL     1      -5.267  -2.216 -34.100  1.00  0.00     0.034 A 
HETATM   14  C   UNL     1      -5.049  -3.585 -34.266  1.00  0.00     0.012 A 
HETATM   15  C   UNL     1      -4.061  -4.245 -33.536  1.00  0.00     0.022 A 
HETATM   16 BR   UNL     1      -6.109  -4.553 -35.497  1.00  0.00    -0.051 Br
HETATM   17  C   UNL     1      -3.279  -3.531 -32.628  1.00  0.00     0.039 A 
HETATM   18  C   UNL     1      -3.488  -2.164 -32.453  1.00  0.00     0.077 A 
BRANCH  18  19
HETATM   19  O   UNL     1      -2.682  -1.533 -31.546  1.00  0.00    -0.360 OA
HETATM   20  H   UNL     1      -1.785  -1.470 -31.938  1.00  0.00     0.217 HD
ENDBRANCH  18  19
ENDBRANCH  11  12
ENDBRANCH   7  10
ENDBRANCH   1   6
BRANCH   2  21
HETATM   21  C   UNL     1      -9.316   4.263 -32.120  1.00  0.00     0.230 A 
HETATM   22  N   UNL     1      -9.932   4.820 -33.163  1.00  0.00    -0.081 NA
HETATM   23  O   UNL     1     -11.241   4.343 -33.081  1.00  0.00    -0.103 OA
HETATM   24  N   UNL     1     -11.391   3.482 -32.005  1.00  0.00    -0.083 NA
HETATM   25  C   UNL     1     -10.203   3.435 -31.406  1.00  0.00     0.201 A 
BRANCH  25  26
HETATM   26  N   UNL     1      -9.934   2.698 -30.317  1.00  0.00    -0.379 N 
HETATM   27  H   UNL     1     -10.681   2.420 -29.686  1.00  0.00     0.158 HD
HETATM   28  H   UNL     1      -8.993   2.499 -29.984  1.00  0.00     0.158 HD
ENDBRANCH  25  26
ENDBRANCH   2  21
BRANCH   5  29
HETATM   29  C   UNL     1      -4.304   4.321 -31.413  1.00  0.00     0.298 C 
BRANCH  29  30
HETATM   30  N   UNL     1      -3.393   4.963 -32.438  1.00  0.00    -0.066 N 
HETATM   31  H   UNL     1      -3.497   5.987 -32.271  1.00  0.00     0.280 HD
HETATM   32  C   UNL     1      -1.942   4.612 -32.250  1.00  0.00     0.235 C 
HETATM   33  C   UNL     1      -1.093   5.422 -33.220  1.00  0.00     0.028 C 
HETATM   34  C   UNL     1      -1.543   5.225 -34.664  1.00  0.00     0.003 C 
HETATM   35  C   UNL     1      -3.029   5.522 -34.820  1.00  0.00     0.028 C 
HETATM   36  C   UNL     1      -3.872   4.715 -33.843  1.00  0.00     0.235 C 
ENDBRANCH  29  30
ENDBRANCH   5  29
TORSDOF 8
ENDMDL
