MODEL 1
REMARK VINA RESULT:      -9.9      0.000      0.000
REMARK  7 active torsions:
REMARK  status: ('A' for Active; 'I' for Inactive)
REMARK    1  A    between atoms: C_4  and  C_5 
REMARK    2  A    between atoms: C_5  and  N_6 
REMARK    3  A    between atoms: N_10  and  N_11 
REMARK       I    between atoms: N_11  and  C_12 
REMARK    4  A    between atoms: C_12  and  C_13 
REMARK    5  A    between atoms: C_13  and  N_14 
REMARK       I    between atoms: N_14  and  C_15 
REMARK    6  A    between atoms: C_15  and  C_16 
REMARK    7  A    between atoms: C_17  and  O_18 
ROOT
HETATM    1  N   UNL     1      -6.467   1.198 -32.406  1.00  0.00    -0.307 N 
HETATM    2  C   UNL     1      -5.440   2.058 -32.750  1.00  0.00     0.280 A 
HETATM    3  O   UNL     1      -4.237   1.912 -32.684  1.00  0.00    -0.265 OA
HETATM    4  C   UNL     1      -6.117   3.321 -33.270  1.00  0.00     0.157 A 
HETATM    5  N   UNL     1      -5.584   4.428 -33.678  1.00  0.00    -0.166 NA
HETATM    6  C   UNL     1      -7.550   3.065 -33.207  1.00  0.00     0.027 A 
HETATM    7  C   UNL     1      -7.715   1.787 -32.677  1.00  0.00     0.050 A 
HETATM    8  C   UNL     1      -8.610   3.882 -33.555  1.00  0.00     0.016 A 
HETATM    9  C   UNL     1      -9.893   3.372 -33.358  1.00  0.00     0.001 A 
HETATM   10  C   UNL     1     -10.079   2.082 -32.825  1.00  0.00     0.002 A 
HETATM   11  C   UNL     1      -8.984   1.276 -32.478  1.00  0.00     0.031 A 
ENDROOT
BRANCH   5  12
HETATM   12  N   UNL     1      -4.223   4.540 -33.633  1.00  0.00    -0.245 N 
HETATM   13  C   UNL     1      -3.552   5.002 -34.757  1.00  0.00     0.255 C 
HETATM   14  O   UNL     1      -4.077   5.255 -35.842  1.00  0.00    -0.270 OA
HETATM   15  H   UNL     1      -3.715   4.336 -32.764  1.00  0.00     0.192 HD
BRANCH  13  16
HETATM   16  C   UNL     1      -2.054   5.182 -34.548  1.00  0.00     0.227 C 
BRANCH  16  17
HETATM   17  N   UNL     1      -1.767   5.712 -33.228  1.00  0.00    -0.348 N 
HETATM   18  C   UNL     1      -1.525   7.050 -33.029  1.00  0.00     0.254 C 
HETATM   19  O   UNL     1      -1.577   7.876 -33.931  1.00  0.00    -0.268 OA
HETATM   20  H   UNL     1      -1.630   5.052 -32.467  1.00  0.00     0.163 HD
BRANCH  18  21
HETATM   21  C   UNL     1      -1.168   7.447 -31.646  1.00  0.00     0.065 A 
HETATM   22  C   UNL     1      -1.911   8.377 -30.907  1.00  0.00     0.081 A 
HETATM   23  C   UNL     1      -1.573   8.651 -29.583  1.00  0.00     0.037 A 
HETATM   24  C   UNL     1      -0.473   8.021 -28.999  1.00  0.00     0.003 A 
HETATM   25  C   UNL     1       0.293   7.119 -29.740  1.00  0.00     0.001 A 
HETATM   26  C   UNL     1      -0.052   6.835 -31.062  1.00  0.00     0.020 A 
BRANCH  22  27
HETATM   27  O   UNL     1      -2.972   9.072 -31.418  1.00  0.00    -0.360 OA
HETATM   28  H   UNL     1      -2.876  10.013 -31.177  1.00  0.00     0.217 HD
ENDBRANCH  22  27
ENDBRANCH  18  21
ENDBRANCH  16  17
ENDBRANCH  13  16
ENDBRANCH   5  12
BRANCH   1  29
HETATM   29  C   UNL     1      -6.262  -0.134 -31.888  1.00  0.00     0.171 C 
BRANCH  29  30
HETATM   30  C   UNL     1      -5.962  -1.145 -32.970  1.00  0.00    -0.040 A 
HETATM   31  C   UNL     1      -6.988  -1.625 -33.797  1.00  0.00     0.009 A 
HETATM   32  C   UNL     1      -6.716  -2.560 -34.797  1.00  0.00     0.001 A 
HETATM   33  C   UNL     1      -5.416  -3.027 -34.981  1.00  0.00     0.000 A 
HETATM   34  C   UNL     1      -4.386  -2.555 -34.169  1.00  0.00     0.001 A 
HETATM   35  C   UNL     1      -4.657  -1.617 -33.171  1.00  0.00     0.009 A 
ENDBRANCH  29  30
ENDBRANCH   1  29
TORSDOF 7
ENDMDL
MODEL 2
REMARK VINA RESULT:      -9.3      2.225      4.402
REMARK  7 active torsions:
REMARK  status: ('A' for Active; 'I' for Inactive)
REMARK    1  A    between atoms: C_4  and  C_5 
REMARK    2  A    between atoms: C_5  and  N_6 
REMARK    3  A    between atoms: N_10  and  N_11 
REMARK       I    between atoms: N_11  and  C_12 
REMARK    4  A    between atoms: C_12  and  C_13 
REMARK    5  A    between atoms: C_13  and  N_14 
REMARK       I    between atoms: N_14  and  C_15 
REMARK    6  A    between atoms: C_15  and  C_16 
REMARK    7  A    between atoms: C_17  and  O_18 
ROOT
HETATM    1  N   UNL     1      -6.042   0.857 -33.860  1.00  0.00    -0.307 N 
HETATM    2  C   UNL     1      -5.626   1.848 -32.989  1.00  0.00     0.280 A 
HETATM    3  O   UNL     1      -6.001   2.996 -32.868  1.00  0.00    -0.265 OA
HETATM    4  C   UNL     1      -4.534   1.214 -32.135  1.00  0.00     0.157 A 
HETATM    5  N   UNL     1      -3.810   1.747 -31.203  1.00  0.00    -0.166 NA
HETATM    6  C   UNL     1      -4.421  -0.167 -32.585  1.00  0.00     0.027 A 
HETATM    7  C   UNL     1      -5.336  -0.336 -33.623  1.00  0.00     0.050 A 
HETATM    8  C   UNL     1      -3.581  -1.174 -32.147  1.00  0.00     0.016 A 
HETATM    9  C   UNL     1      -3.680  -2.406 -32.791  1.00  0.00     0.001 A 
HETATM   10  C   UNL     1      -4.600  -2.595 -33.840  1.00  0.00     0.002 A 
HETATM   11  C   UNL     1      -5.438  -1.555 -34.266  1.00  0.00     0.031 A 
ENDROOT
BRANCH   5  12
HETATM   12  N   UNL     1      -3.996   3.071 -30.924  1.00  0.00    -0.245 N 
HETATM   13  C   UNL     1      -3.106   3.997 -31.451  1.00  0.00     0.255 C 
HETATM   14  O   UNL     1      -2.097   3.721 -32.100  1.00  0.00    -0.270 OA
HETATM   15  H   UNL     1      -4.811   3.376 -30.379  1.00  0.00     0.192 HD
BRANCH  13  16
HETATM   16  C   UNL     1      -3.479   5.445 -31.156  1.00  0.00     0.227 C 
BRANCH  16  17
HETATM   17  N   UNL     1      -2.646   5.998 -30.103  1.00  0.00    -0.348 N 
HETATM   18  C   UNL     1      -1.555   6.782 -30.389  1.00  0.00     0.254 C 
HETATM   19  O   UNL     1      -1.244   7.098 -31.530  1.00  0.00    -0.268 OA
HETATM   20  H   UNL     1      -2.817   5.692 -29.148  1.00  0.00     0.163 HD
BRANCH  18  21
HETATM   21  C   UNL     1      -0.745   7.217 -29.226  1.00  0.00     0.065 A 
HETATM   22  C   UNL     1       0.147   6.366 -28.561  1.00  0.00     0.081 A 
HETATM   23  C   UNL     1       0.941   6.853 -27.525  1.00  0.00     0.037 A 
HETATM   24  C   UNL     1       0.826   8.186 -27.126  1.00  0.00     0.003 A 
HETATM   25  C   UNL     1      -0.085   9.031 -27.760  1.00  0.00     0.001 A 
HETATM   26  C   UNL     1      -0.872   8.547 -28.806  1.00  0.00     0.020 A 
BRANCH  22  27
HETATM   27  O   UNL     1       0.286   5.038 -28.858  1.00  0.00    -0.360 OA
HETATM   28  H   UNL     1      -0.555   4.584 -28.663  1.00  0.00     0.217 HD
ENDBRANCH  22  27
ENDBRANCH  18  21
ENDBRANCH  16  17
ENDBRANCH  13  16
ENDBRANCH   5  12
BRANCH   1  29
HETATM   29  C   UNL     1      -7.092   1.031 -34.836  1.00  0.00     0.171 C 
BRANCH  29  30
HETATM   30  C   UNL     1      -8.475   0.932 -34.235  1.00  0.00    -0.040 A 
HETATM   31  C   UNL     1      -9.454   1.889 -34.544  1.00  0.00     0.009 A 
HETATM   32  C   UNL     1     -10.732   1.802 -33.990  1.00  0.00     0.001 A 
HETATM   33  C   UNL     1     -11.046   0.760 -33.120  1.00  0.00     0.000 A 
HETATM   34  C   UNL     1     -10.085  -0.199 -32.807  1.00  0.00     0.001 A 
HETATM   35  C   UNL     1      -8.807  -0.115 -33.364  1.00  0.00     0.009 A 
ENDBRANCH  29  30
ENDBRANCH   1  29
TORSDOF 7
ENDMDL
MODEL 3
REMARK VINA RESULT:      -8.8      3.546      8.142
REMARK  7 active torsions:
REMARK  status: ('A' for Active; 'I' for Inactive)
REMARK    1  A    between atoms: C_4  and  C_5 
REMARK    2  A    between atoms: C_5  and  N_6 
REMARK    3  A    between atoms: N_10  and  N_11 
REMARK       I    between atoms: N_11  and  C_12 
REMARK    4  A    between atoms: C_12  and  C_13 
REMARK    5  A    between atoms: C_13  and  N_14 
REMARK       I    between atoms: N_14  and  C_15 
REMARK    6  A    between atoms: C_15  and  C_16 
REMARK    7  A    between atoms: C_17  and  O_18 
ROOT
HETATM    1  N   UNL     1      -6.472   2.119 -32.449  1.00  0.00    -0.307 N 
HETATM    2  C   UNL     1      -7.503   2.900 -32.940  1.00  0.00     0.280 A 
HETATM    3  O   UNL     1      -8.693   2.676 -33.010  1.00  0.00    -0.265 OA
HETATM    4  C   UNL     1      -6.850   4.193 -33.413  1.00  0.00     0.157 A 
HETATM    5  N   UNL     1      -7.391   5.222 -33.983  1.00  0.00    -0.166 NA
HETATM    6  C   UNL     1      -5.429   4.060 -33.119  1.00  0.00     0.027 A 
HETATM    7  C   UNL     1      -5.246   2.800 -32.550  1.00  0.00     0.050 A 
HETATM    8  C   UNL     1      -4.392   4.943 -33.349  1.00  0.00     0.016 A 
HETATM    9  C   UNL     1      -3.113   4.528 -32.981  1.00  0.00     0.001 A 
HETATM   10  C   UNL     1      -2.909   3.260 -32.404  1.00  0.00     0.002 A 
HETATM   11  C   UNL     1      -3.980   2.382 -32.184  1.00  0.00     0.031 A 
ENDROOT
BRANCH   5  12
HETATM   12  N   UNL     1      -8.731   5.183 -34.241  1.00  0.00    -0.245 N 
HETATM   13  C   UNL     1      -9.586   5.948 -33.458  1.00  0.00     0.255 C 
HETATM   14  O   UNL     1      -9.246   6.616 -32.481  1.00  0.00    -0.270 OA
HETATM   15  H   UNL     1      -9.091   4.639 -35.034  1.00  0.00     0.192 HD
BRANCH  13  16
HETATM   16  C   UNL     1     -11.041   5.902 -33.910  1.00  0.00     0.227 C 
BRANCH  16  17
HETATM   17  N   UNL     1     -11.626   4.596 -33.663  1.00  0.00    -0.348 N 
HETATM   18  C   UNL     1     -11.654   3.627 -34.636  1.00  0.00     0.254 C 
HETATM   19  O   UNL     1     -11.157   3.783 -35.744  1.00  0.00    -0.268 OA
HETATM   20  H   UNL     1     -12.124   4.454 -32.788  1.00  0.00     0.163 HD
BRANCH  18  21
HETATM   21  C   UNL     1     -12.350   2.368 -34.279  1.00  0.00     0.065 A 
HETATM   22  C   UNL     1     -11.678   1.151 -34.103  1.00  0.00     0.081 A 
HETATM   23  C   UNL     1     -12.376   0.018 -33.689  1.00  0.00     0.037 A 
HETATM   24  C   UNL     1     -13.753   0.085 -33.478  1.00  0.00     0.003 A 
HETATM   25  C   UNL     1     -14.436   1.285 -33.684  1.00  0.00     0.001 A 
HETATM   26  C   UNL     1     -13.737   2.424 -34.087  1.00  0.00     0.020 A 
BRANCH  22  27
HETATM   27  O   UNL     1     -10.340   0.989 -34.335  1.00  0.00    -0.360 OA
HETATM   28  H   UNL     1      -9.921   0.644 -33.524  1.00  0.00     0.217 HD
ENDBRANCH  22  27
ENDBRANCH  18  21
ENDBRANCH  16  17
ENDBRANCH  13  16
ENDBRANCH   5  12
BRANCH   1  29
HETATM   29  C   UNL     1      -6.658   0.808 -31.874  1.00  0.00     0.171 C 
BRANCH  29  30
HETATM   30  C   UNL     1      -6.325  -0.309 -32.836  1.00  0.00    -0.040 A 
HETATM   31  C   UNL     1      -5.070  -0.935 -32.790  1.00  0.00     0.009 A 
HETATM   32  C   UNL     1      -4.758  -1.966 -33.678  1.00  0.00     0.001 A 
HETATM   33  C   UNL     1      -5.694  -2.382 -34.622  1.00  0.00     0.000 A 
HETATM   34  C   UNL     1      -6.945  -1.771 -34.676  1.00  0.00     0.001 A 
HETATM   35  C   UNL     1      -7.261  -0.742 -33.786  1.00  0.00     0.009 A 
ENDBRANCH  29  30
ENDBRANCH   1  29
TORSDOF 7
ENDMDL
MODEL 4
REMARK VINA RESULT:      -8.7      2.564      4.936
REMARK  7 active torsions:
REMARK  status: ('A' for Active; 'I' for Inactive)
REMARK    1  A    between atoms: C_4  and  C_5 
REMARK    2  A    between atoms: C_5  and  N_6 
REMARK    3  A    between atoms: N_10  and  N_11 
REMARK       I    between atoms: N_11  and  C_12 
REMARK    4  A    between atoms: C_12  and  C_13 
REMARK    5  A    between atoms: C_13  and  N_14 
REMARK       I    between atoms: N_14  and  C_15 
REMARK    6  A    between atoms: C_15  and  C_16 
REMARK    7  A    between atoms: C_17  and  O_18 
ROOT
HETATM    1  N   UNL     1      -6.216   0.049 -34.062  1.00  0.00    -0.307 N 
HETATM    2  C   UNL     1      -5.868   1.013 -33.133  1.00  0.00     0.280 A 
HETATM    3  O   UNL     1      -6.305   2.132 -32.961  1.00  0.00    -0.265 OA
HETATM    4  C   UNL     1      -4.759   0.393 -32.291  1.00  0.00     0.157 A 
HETATM    5  N   UNL     1      -4.081   0.914 -31.319  1.00  0.00    -0.166 NA
HETATM    6  C   UNL     1      -4.565  -0.955 -32.809  1.00  0.00     0.027 A 
HETATM    7  C   UNL     1      -5.451  -1.116 -33.872  1.00  0.00     0.050 A 
HETATM    8  C   UNL     1      -3.680  -1.938 -32.406  1.00  0.00     0.016 A 
HETATM    9  C   UNL     1      -3.702  -3.138 -33.115  1.00  0.00     0.001 A 
HETATM   10  C   UNL     1      -4.592  -3.320 -34.191  1.00  0.00     0.002 A 
HETATM   11  C   UNL     1      -5.477  -2.304 -34.580  1.00  0.00     0.031 A 
ENDROOT
BRANCH   5  12
HETATM   12  N   UNL     1      -4.342   2.210 -30.976  1.00  0.00    -0.245 N 
HETATM   13  C   UNL     1      -5.367   2.471 -30.076  1.00  0.00     0.255 C 
HETATM   14  O   UNL     1      -6.129   1.626 -29.606  1.00  0.00    -0.270 OA
HETATM   15  H   UNL     1      -3.753   2.970 -31.337  1.00  0.00     0.192 HD
BRANCH  13  16
HETATM   16  C   UNL     1      -5.490   3.940 -29.693  1.00  0.00     0.227 C 
BRANCH  16  17
HETATM   17  N   UNL     1      -4.308   4.686 -30.086  1.00  0.00    -0.348 N 
HETATM   18  C   UNL     1      -4.266   5.396 -31.262  1.00  0.00     0.254 C 
HETATM   19  O   UNL     1      -5.221   5.479 -32.022  1.00  0.00    -0.268 OA
HETATM   20  H   UNL     1      -3.465   4.575 -29.528  1.00  0.00     0.163 HD
BRANCH  18  21
HETATM   21  C   UNL     1      -2.973   6.047 -31.581  1.00  0.00     0.065 A 
HETATM   22  C   UNL     1      -1.745   5.378 -31.503  1.00  0.00     0.081 A 
HETATM   23  C   UNL     1      -0.570   6.019 -31.892  1.00  0.00     0.037 A 
HETATM   24  C   UNL     1      -0.612   7.342 -32.334  1.00  0.00     0.003 A 
HETATM   25  C   UNL     1      -1.827   8.028 -32.382  1.00  0.00     0.001 A 
HETATM   26  C   UNL     1      -3.005   7.382 -32.004  1.00  0.00     0.020 A 
BRANCH  22  27
HETATM   27  O   UNL     1      -1.612   4.099 -31.037  1.00  0.00    -0.360 OA
HETATM   28  H   UNL     1      -0.955   3.632 -31.588  1.00  0.00     0.217 HD
ENDBRANCH  22  27
ENDBRANCH  18  21
ENDBRANCH  16  17
ENDBRANCH  13  16
ENDBRANCH   5  12
BRANCH   1  29
HETATM   29  C   UNL     1      -7.256   0.219 -35.049  1.00  0.00     0.171 C 
BRANCH  29  30
HETATM   30  C   UNL     1      -8.620   0.426 -34.433  1.00  0.00    -0.040 A 
HETATM   31  C   UNL     1      -9.468   1.438 -34.910  1.00  0.00     0.009 A 
HETATM   32  C   UNL     1     -10.728   1.634 -34.344  1.00  0.00     0.001 A 
HETATM   33  C   UNL     1     -11.156   0.822 -33.295  1.00  0.00     0.000 A 
HETATM   34  C   UNL     1     -10.327  -0.189 -32.815  1.00  0.00     0.001 A 
HETATM   35  C   UNL     1      -9.067  -0.388 -33.383  1.00  0.00     0.009 A 
ENDBRANCH  29  30
ENDBRANCH   1  29
TORSDOF 7
ENDMDL
MODEL 5
REMARK VINA RESULT:      -8.7      3.183      6.183
REMARK  7 active torsions:
REMARK  status: ('A' for Active; 'I' for Inactive)
REMARK    1  A    between atoms: C_4  and  C_5 
REMARK    2  A    between atoms: C_5  and  N_6 
REMARK    3  A    between atoms: N_10  and  N_11 
REMARK       I    between atoms: N_11  and  C_12 
REMARK    4  A    between atoms: C_12  and  C_13 
REMARK    5  A    between atoms: C_13  and  N_14 
REMARK       I    between atoms: N_14  and  C_15 
REMARK    6  A    between atoms: C_15  and  C_16 
REMARK    7  A    between atoms: C_17  and  O_18 
ROOT
HETATM    1  N   UNL     1      -5.928   0.182 -33.770  1.00  0.00    -0.307 N 
HETATM    2  C   UNL     1      -5.637   1.210 -32.892  1.00  0.00     0.280 A 
HETATM    3  O   UNL     1      -6.121   2.319 -32.791  1.00  0.00    -0.265 OA
HETATM    4  C   UNL     1      -4.521   0.683 -31.996  1.00  0.00     0.157 A 
HETATM    5  N   UNL     1      -3.884   1.285 -31.043  1.00  0.00    -0.166 NA
HETATM    6  C   UNL     1      -4.264  -0.682 -32.433  1.00  0.00     0.027 A 
HETATM    7  C   UNL     1      -5.122  -0.939 -33.502  1.00  0.00     0.050 A 
HETATM    8  C   UNL     1      -3.350  -1.605 -31.960  1.00  0.00     0.016 A 
HETATM    9  C   UNL     1      -3.310  -2.843 -32.600  1.00  0.00     0.001 A 
HETATM   10  C   UNL     1      -4.171  -3.120 -33.679  1.00  0.00     0.002 A 
HETATM   11  C   UNL     1      -5.087  -2.164 -34.141  1.00  0.00     0.031 A 
ENDROOT
BRANCH   5  12
HETATM   12  N   UNL     1      -4.202   2.586 -30.778  1.00  0.00    -0.245 N 
HETATM   13  C   UNL     1      -3.455   3.593 -31.375  1.00  0.00     0.255 C 
HETATM   14  O   UNL     1      -2.460   3.415 -32.078  1.00  0.00    -0.270 OA
HETATM   15  H   UNL     1      -5.014   2.812 -30.191  1.00  0.00     0.192 HD
BRANCH  13  16
HETATM   16  C   UNL     1      -3.972   4.996 -31.086  1.00  0.00     0.227 C 
BRANCH  16  17
HETATM   17  N   UNL     1      -5.419   5.054 -31.185  1.00  0.00    -0.348 N 
HETATM   18  C   UNL     1      -6.223   4.771 -30.107  1.00  0.00     0.254 C 
HETATM   19  O   UNL     1      -5.777   4.498 -28.999  1.00  0.00    -0.268 OA
HETATM   20  H   UNL     1      -5.831   5.191 -32.104  1.00  0.00     0.163 HD
BRANCH  18  21
HETATM   21  C   UNL     1      -7.683   4.789 -30.362  1.00  0.00     0.065 A 
HETATM   22  C   UNL     1      -8.462   3.625 -30.400  1.00  0.00     0.081 A 
HETATM   23  C   UNL     1      -9.843   3.711 -30.565  1.00  0.00     0.037 A 
HETATM   24  C   UNL     1     -10.450   4.957 -30.725  1.00  0.00     0.003 A 
HETATM   25  C   UNL     1      -9.677   6.119 -30.723  1.00  0.00     0.001 A 
HETATM   26  C   UNL     1      -8.295   6.035 -30.546  1.00  0.00     0.020 A 
BRANCH  22  27
HETATM   27  O   UNL     1      -7.940   2.365 -30.299  1.00  0.00    -0.360 OA
HETATM   28  H   UNL     1      -7.141   2.400 -29.740  1.00  0.00     0.217 HD
ENDBRANCH  22  27
ENDBRANCH  18  21
ENDBRANCH  16  17
ENDBRANCH  13  16
ENDBRANCH   5  12
BRANCH   1  29
HETATM   29  C   UNL     1      -6.954   0.255 -34.783  1.00  0.00     0.171 C 
BRANCH  29  30
HETATM   30  C   UNL     1      -8.330   0.500 -34.209  1.00  0.00    -0.040 A 
HETATM   31  C   UNL     1      -9.087   1.605 -34.626  1.00  0.00     0.009 A 
HETATM   32  C   UNL     1     -10.358   1.837 -34.096  1.00  0.00     0.001 A 
HETATM   33  C   UNL     1     -10.886   0.966 -33.144  1.00  0.00     0.000 A 
HETATM   34  C   UNL     1     -10.147  -0.137 -32.725  1.00  0.00     0.001 A 
HETATM   35  C   UNL     1      -8.877  -0.372 -33.256  1.00  0.00     0.009 A 
ENDBRANCH  29  30
ENDBRANCH   1  29
TORSDOF 7
ENDMDL
MODEL 6
REMARK VINA RESULT:      -8.7      2.985      5.139
REMARK  7 active torsions:
REMARK  status: ('A' for Active; 'I' for Inactive)
REMARK    1  A    between atoms: C_4  and  C_5 
REMARK    2  A    between atoms: C_5  and  N_6 
REMARK    3  A    between atoms: N_10  and  N_11 
REMARK       I    between atoms: N_11  and  C_12 
REMARK    4  A    between atoms: C_12  and  C_13 
REMARK    5  A    between atoms: C_13  and  N_14 
REMARK       I    between atoms: N_14  and  C_15 
REMARK    6  A    between atoms: C_15  and  C_16 
REMARK    7  A    between atoms: C_17  and  O_18 
ROOT
HETATM    1  N   UNL     1      -7.072   0.648 -32.066  1.00  0.00    -0.307 N 
HETATM    2  C   UNL     1      -6.025   1.454 -31.657  1.00  0.00     0.280 A 
HETATM    3  O   UNL     1      -6.018   2.421 -30.922  1.00  0.00    -0.265 OA
HETATM    4  C   UNL     1      -4.780   0.886 -32.328  1.00  0.00     0.157 A 
HETATM    5  N   UNL     1      -3.559   1.315 -32.286  1.00  0.00    -0.166 NA
HETATM    6  C   UNL     1      -5.225  -0.276 -33.086  1.00  0.00     0.027 A 
HETATM    7  C   UNL     1      -6.604  -0.377 -32.908  1.00  0.00     0.050 A 
HETATM    8  C   UNL     1      -4.500  -1.146 -33.878  1.00  0.00     0.016 A 
HETATM    9  C   UNL     1      -5.208  -2.166 -34.512  1.00  0.00     0.001 A 
HETATM   10  C   UNL     1      -6.601  -2.285 -34.342  1.00  0.00     0.002 A 
HETATM   11  C   UNL     1      -7.312  -1.385 -33.535  1.00  0.00     0.031 A 
ENDROOT
BRANCH   5  12
HETATM   12  N   UNL     1      -3.301   2.449 -31.570  1.00  0.00    -0.245 N 
HETATM   13  C   UNL     1      -2.850   3.577 -32.243  1.00  0.00     0.255 C 
HETATM   14  O   UNL     1      -2.583   3.626 -33.444  1.00  0.00    -0.270 OA
HETATM   15  H   UNL     1      -3.490   2.480 -30.561  1.00  0.00     0.192 HD
BRANCH  13  16
HETATM   16  C   UNL     1      -2.700   4.805 -31.354  1.00  0.00     0.227 C 
BRANCH  16  17
HETATM   17  N   UNL     1      -3.901   5.037 -30.572  1.00  0.00    -0.348 N 
HETATM   18  C   UNL     1      -4.945   5.781 -31.067  1.00  0.00     0.254 C 
HETATM   19  O   UNL     1      -4.949   6.252 -32.196  1.00  0.00    -0.268 OA
HETATM   20  H   UNL     1      -3.904   4.738 -29.601  1.00  0.00     0.163 HD
BRANCH  18  21
HETATM   21  C   UNL     1      -6.077   6.009 -30.137  1.00  0.00     0.065 A 
HETATM   22  C   UNL     1      -6.264   5.260 -28.968  1.00  0.00     0.081 A 
HETATM   23  C   UNL     1      -7.302   5.572 -28.092  1.00  0.00     0.037 A 
HETATM   24  C   UNL     1      -8.178   6.616 -28.394  1.00  0.00     0.003 A 
HETATM   25  C   UNL     1      -8.020   7.345 -29.573  1.00  0.00     0.001 A 
HETATM   26  C   UNL     1      -6.974   7.040 -30.446  1.00  0.00     0.020 A 
BRANCH  22  27
HETATM   27  O   UNL     1      -5.480   4.193 -28.624  1.00  0.00    -0.360 OA
HETATM   28  H   UNL     1      -4.543   4.458 -28.691  1.00  0.00     0.217 HD
ENDBRANCH  22  27
ENDBRANCH  18  21
ENDBRANCH  16  17
ENDBRANCH  13  16
ENDBRANCH   5  12
BRANCH   1  29
HETATM   29  C   UNL     1      -8.439   0.823 -31.637  1.00  0.00     0.171 C 
BRANCH  29  30
HETATM   30  C   UNL     1      -9.319   1.421 -32.711  1.00  0.00    -0.040 A 
HETATM   31  C   UNL     1     -10.439   0.720 -33.182  1.00  0.00     0.009 A 
HETATM   32  C   UNL     1     -11.254   1.268 -34.175  1.00  0.00     0.001 A 
HETATM   33  C   UNL     1     -10.958   2.521 -34.708  1.00  0.00     0.000 A 
HETATM   34  C   UNL     1      -9.851   3.230 -34.245  1.00  0.00     0.001 A 
HETATM   35  C   UNL     1      -9.037   2.685 -33.250  1.00  0.00     0.009 A 
ENDBRANCH  29  30
ENDBRANCH   1  29
TORSDOF 7
ENDMDL
MODEL 7
REMARK VINA RESULT:      -8.6      3.716      6.938
REMARK  7 active torsions:
REMARK  status: ('A' for Active; 'I' for Inactive)
REMARK    1  A    between atoms: C_4  and  C_5 
REMARK    2  A    between atoms: C_5  and  N_6 
REMARK    3  A    between atoms: N_10  and  N_11 
REMARK       I    between atoms: N_11  and  C_12 
REMARK    4  A    between atoms: C_12  and  C_13 
REMARK    5  A    between atoms: C_13  and  N_14 
REMARK       I    between atoms: N_14  and  C_15 
REMARK    6  A    between atoms: C_15  and  C_16 
REMARK    7  A    between atoms: C_17  and  O_18 
ROOT
HETATM    1  N   UNL     1      -5.963   0.558 -32.189  1.00  0.00    -0.307 N 
HETATM    2  C   UNL     1      -7.115   1.147 -32.679  1.00  0.00     0.280 A 
HETATM    3  O   UNL     1      -7.716   2.131 -32.303  1.00  0.00    -0.265 OA
HETATM    4  C   UNL     1      -7.541   0.291 -33.867  1.00  0.00     0.157 A 
HETATM    5  N   UNL     1      -8.578   0.411 -34.632  1.00  0.00    -0.166 NA
HETATM    6  C   UNL     1      -6.537  -0.757 -33.990  1.00  0.00     0.027 A 
HETATM    7  C   UNL     1      -5.616  -0.564 -32.961  1.00  0.00     0.050 A 
HETATM    8  C   UNL     1      -6.450  -1.796 -34.897  1.00  0.00     0.016 A 
HETATM    9  C   UNL     1      -5.377  -2.675 -34.754  1.00  0.00     0.001 A 
HETATM   10  C   UNL     1      -4.435  -2.494 -33.722  1.00  0.00     0.002 A 
HETATM   11  C   UNL     1      -4.550  -1.432 -32.813  1.00  0.00     0.031 A 
ENDROOT
BRANCH   5  12
HETATM   12  N   UNL     1      -9.461   1.418 -34.363  1.00  0.00    -0.245 N 
HETATM   13  C   UNL     1     -10.585   1.136 -33.598  1.00  0.00     0.255 C 
HETATM   14  O   UNL     1     -10.905   0.019 -33.193  1.00  0.00    -0.270 OA
HETATM   15  H   UNL     1      -9.266   2.376 -34.678  1.00  0.00     0.192 HD
BRANCH  13  16
HETATM   16  C   UNL     1     -11.435   2.360 -33.280  1.00  0.00     0.227 C 
BRANCH  16  17
HETATM   17  N   UNL     1     -10.736   3.268 -32.389  1.00  0.00    -0.348 N 
HETATM   18  C   UNL     1     -10.098   4.389 -32.864  1.00  0.00     0.254 C 
HETATM   19  O   UNL     1     -10.113   4.712 -34.045  1.00  0.00    -0.268 OA
HETATM   20  H   UNL     1     -10.626   2.994 -31.417  1.00  0.00     0.163 HD
BRANCH  18  21
HETATM   21  C   UNL     1      -9.356   5.188 -31.860  1.00  0.00     0.065 A 
HETATM   22  C   UNL     1      -9.779   5.321 -30.531  1.00  0.00     0.081 A 
HETATM   23  C   UNL     1      -8.997   6.019 -29.613  1.00  0.00     0.037 A 
HETATM   24  C   UNL     1      -7.805   6.616 -30.023  1.00  0.00     0.003 A 
HETATM   25  C   UNL     1      -7.393   6.518 -31.353  1.00  0.00     0.001 A 
HETATM   26  C   UNL     1      -8.169   5.808 -32.271  1.00  0.00     0.020 A 
BRANCH  22  27
HETATM   27  O   UNL     1     -10.956   4.808 -30.060  1.00  0.00    -0.360 OA
HETATM   28  H   UNL     1     -11.546   5.547 -29.820  1.00  0.00     0.217 HD
ENDBRANCH  22  27
ENDBRANCH  18  21
ENDBRANCH  16  17
ENDBRANCH  13  16
ENDBRANCH   5  12
BRANCH   1  29
HETATM   29  C   UNL     1      -5.211   1.071 -31.068  1.00  0.00     0.171 C 
BRANCH  29  30
HETATM   30  C   UNL     1      -4.513   2.375 -31.377  1.00  0.00    -0.040 A 
HETATM   31  C   UNL     1      -4.901   3.559 -30.730  1.00  0.00     0.009 A 
HETATM   32  C   UNL     1      -4.261   4.766 -31.013  1.00  0.00     0.001 A 
HETATM   33  C   UNL     1      -3.226   4.805 -31.946  1.00  0.00     0.000 A 
HETATM   34  C   UNL     1      -2.829   3.638 -32.593  1.00  0.00     0.001 A 
HETATM   35  C   UNL     1      -3.466   2.428 -32.308  1.00  0.00     0.009 A 
ENDBRANCH  29  30
ENDBRANCH   1  29
TORSDOF 7
ENDMDL
MODEL 8
REMARK VINA RESULT:      -8.5      2.456      3.501
REMARK  7 active torsions:
REMARK  status: ('A' for Active; 'I' for Inactive)
REMARK    1  A    between atoms: C_4  and  C_5 
REMARK    2  A    between atoms: C_5  and  N_6 
REMARK    3  A    between atoms: N_10  and  N_11 
REMARK       I    between atoms: N_11  and  C_12 
REMARK    4  A    between atoms: C_12  and  C_13 
REMARK    5  A    between atoms: C_13  and  N_14 
REMARK       I    between atoms: N_14  and  C_15 
REMARK    6  A    between atoms: C_15  and  C_16 
REMARK    7  A    between atoms: C_17  and  O_18 
ROOT
HETATM    1  N   UNL     1      -5.459   1.071 -32.441  1.00  0.00    -0.307 N 
HETATM    2  C   UNL     1      -5.432   2.038 -31.452  1.00  0.00     0.280 A 
HETATM    3  O   UNL     1      -4.503   2.677 -31.003  1.00  0.00    -0.265 OA
HETATM    4  C   UNL     1      -6.874   2.185 -30.981  1.00  0.00     0.157 A 
HETATM    5  N   UNL     1      -7.356   2.938 -30.045  1.00  0.00    -0.166 NA
HETATM    6  C   UNL     1      -7.660   1.267 -31.794  1.00  0.00     0.027 A 
HETATM    7  C   UNL     1      -6.772   0.615 -32.649  1.00  0.00     0.050 A 
HETATM    8  C   UNL     1      -9.017   1.006 -31.772  1.00  0.00     0.016 A 
HETATM    9  C   UNL     1      -9.492   0.043 -32.662  1.00  0.00     0.001 A 
HETATM   10  C   UNL     1      -8.610  -0.624 -33.534  1.00  0.00     0.002 A 
HETATM   11  C   UNL     1      -7.237  -0.341 -33.533  1.00  0.00     0.031 A 
ENDROOT
BRANCH   5  12
HETATM   12  N   UNL     1      -6.487   3.712 -29.331  1.00  0.00    -0.245 N 
HETATM   13  C   UNL     1      -6.519   5.089 -29.506  1.00  0.00     0.255 C 
HETATM   14  O   UNL     1      -7.223   5.684 -30.321  1.00  0.00    -0.270 OA
HETATM   15  H   UNL     1      -5.860   3.284 -28.638  1.00  0.00     0.192 HD
BRANCH  13  16
HETATM   16  C   UNL     1      -5.577   5.849 -28.579  1.00  0.00     0.227 C 
BRANCH  16  17
HETATM   17  N   UNL     1      -4.205   5.775 -29.050  1.00  0.00    -0.348 N 
HETATM   18  C   UNL     1      -3.622   6.819 -29.726  1.00  0.00     0.254 C 
HETATM   19  O   UNL     1      -4.198   7.879 -29.936  1.00  0.00    -0.268 OA
HETATM   20  H   UNL     1      -3.721   4.885 -28.973  1.00  0.00     0.163 HD
BRANCH  18  21
HETATM   21  C   UNL     1      -2.245   6.585 -30.220  1.00  0.00     0.065 A 
HETATM   22  C   UNL     1      -1.945   5.657 -31.227  1.00  0.00     0.081 A 
HETATM   23  C   UNL     1      -0.642   5.538 -31.706  1.00  0.00     0.037 A 
HETATM   24  C   UNL     1       0.376   6.322 -31.162  1.00  0.00     0.003 A 
HETATM   25  C   UNL     1       0.093   7.224 -30.135  1.00  0.00     0.001 A 
HETATM   26  C   UNL     1      -1.215   7.353 -29.662  1.00  0.00     0.020 A 
BRANCH  22  27
HETATM   27  O   UNL     1      -2.874   4.819 -31.779  1.00  0.00    -0.360 OA
HETATM   28  H   UNL     1      -2.482   3.929 -31.863  1.00  0.00     0.217 HD
ENDBRANCH  22  27
ENDBRANCH  18  21
ENDBRANCH  16  17
ENDBRANCH  13  16
ENDBRANCH   5  12
BRANCH   1  29
HETATM   29  C   UNL     1      -4.294   0.641 -33.179  1.00  0.00     0.171 C 
BRANCH  29  30
HETATM   30  C   UNL     1      -4.012  -0.835 -33.022  1.00  0.00    -0.040 A 
HETATM   31  C   UNL     1      -4.403  -1.742 -34.019  1.00  0.00     0.009 A 
HETATM   32  C   UNL     1      -4.146  -3.107 -33.878  1.00  0.00     0.001 A 
HETATM   33  C   UNL     1      -3.498  -3.581 -32.740  1.00  0.00     0.000 A 
HETATM   34  C   UNL     1      -3.101  -2.691 -31.744  1.00  0.00     0.001 A 
HETATM   35  C   UNL     1      -3.354  -1.325 -31.885  1.00  0.00     0.009 A 
ENDBRANCH  29  30
ENDBRANCH   1  29
TORSDOF 7
ENDMDL
MODEL 9
REMARK VINA RESULT:      -8.5      3.038      9.792
REMARK  7 active torsions:
REMARK  status: ('A' for Active; 'I' for Inactive)
REMARK    1  A    between atoms: C_4  and  C_5 
REMARK    2  A    between atoms: C_5  and  N_6 
REMARK    3  A    between atoms: N_10  and  N_11 
REMARK       I    between atoms: N_11  and  C_12 
REMARK    4  A    between atoms: C_12  and  C_13 
REMARK    5  A    between atoms: C_13  and  N_14 
REMARK       I    between atoms: N_14  and  C_15 
REMARK    6  A    between atoms: C_15  and  C_16 
REMARK    7  A    between atoms: C_17  and  O_18 
ROOT
HETATM    1  N   UNL     1      -0.895   6.877 -30.591  1.00  0.00    -0.307 N 
HETATM    2  C   UNL     1      -1.280   5.570 -30.828  1.00  0.00     0.280 A 
HETATM    3  O   UNL     1      -0.632   4.543 -30.805  1.00  0.00    -0.265 OA
HETATM    4  C   UNL     1      -2.770   5.630 -31.143  1.00  0.00     0.157 A 
HETATM    5  N   UNL     1      -3.577   4.672 -31.469  1.00  0.00    -0.166 NA
HETATM    6  C   UNL     1      -3.149   7.032 -31.032  1.00  0.00     0.027 A 
HETATM    7  C   UNL     1      -1.996   7.744 -30.707  1.00  0.00     0.050 A 
HETATM    8  C   UNL     1      -4.380   7.633 -31.221  1.00  0.00     0.016 A 
HETATM    9  C   UNL     1      -4.439   9.017 -31.069  1.00  0.00     0.001 A 
HETATM   10  C   UNL     1      -3.284   9.753 -30.740  1.00  0.00     0.002 A 
HETATM   11  C   UNL     1      -2.047   9.117 -30.557  1.00  0.00     0.031 A 
ENDROOT
BRANCH   5  12
HETATM   12  N   UNL     1      -3.065   3.411 -31.583  1.00  0.00    -0.245 N 
HETATM   13  C   UNL     1      -3.770   2.349 -31.031  1.00  0.00     0.255 C 
HETATM   14  O   UNL     1      -4.801   2.453 -30.366  1.00  0.00    -0.270 OA
HETATM   15  H   UNL     1      -2.201   3.248 -32.115  1.00  0.00     0.192 HD
BRANCH  13  16
HETATM   16  C   UNL     1      -3.150   0.986 -31.314  1.00  0.00     0.227 C 
BRANCH  16  17
HETATM   17  N   UNL     1      -3.900   0.270 -32.330  1.00  0.00    -0.348 N 
HETATM   18  C   UNL     1      -4.955  -0.547 -32.001  1.00  0.00     0.254 C 
HETATM   19  O   UNL     1      -5.352  -0.688 -30.852  1.00  0.00    -0.268 OA
HETATM   20  H   UNL     1      -3.551   0.291 -33.285  1.00  0.00     0.163 HD
BRANCH  18  21
HETATM   21  C   UNL     1      -5.584  -1.280 -33.126  1.00  0.00     0.065 A 
HETATM   22  C   UNL     1      -6.902  -1.052 -33.539  1.00  0.00     0.081 A 
HETATM   23  C   UNL     1      -7.413  -1.715 -34.653  1.00  0.00     0.037 A 
HETATM   24  C   UNL     1      -6.620  -2.633 -35.343  1.00  0.00     0.003 A 
HETATM   25  C   UNL     1      -5.316  -2.892 -34.917  1.00  0.00     0.001 A 
HETATM   26  C   UNL     1      -4.799  -2.219 -33.808  1.00  0.00     0.020 A 
BRANCH  22  27
HETATM   27  O   UNL     1      -7.760  -0.206 -32.891  1.00  0.00    -0.360 OA
HETATM   28  H   UNL     1      -8.416   0.127 -33.533  1.00  0.00     0.217 HD
ENDBRANCH  22  27
ENDBRANCH  18  21
ENDBRANCH  16  17
ENDBRANCH  13  16
ENDBRANCH   5  12
BRANCH   1  29
HETATM   29  C   UNL     1       0.447   7.268 -30.229  1.00  0.00     0.171 C 
BRANCH  29  30
HETATM   30  C   UNL     1       0.630   7.427 -28.737  1.00  0.00    -0.040 A 
HETATM   31  C   UNL     1       1.416   8.470 -28.225  1.00  0.00     0.009 A 
HETATM   32  C   UNL     1       1.589   8.619 -26.848  1.00  0.00     0.001 A 
HETATM   33  C   UNL     1       0.979   7.728 -25.967  1.00  0.00     0.000 A 
HETATM   34  C   UNL     1       0.193   6.690 -26.462  1.00  0.00     0.001 A 
HETATM   35  C   UNL     1       0.016   6.542 -27.839  1.00  0.00     0.009 A 
ENDBRANCH  29  30
ENDBRANCH   1  29
TORSDOF 7
ENDMDL
MODEL 10
REMARK VINA RESULT:      -8.4      4.352      8.870
REMARK  7 active torsions:
REMARK  status: ('A' for Active; 'I' for Inactive)
REMARK    1  A    between atoms: C_4  and  C_5 
REMARK    2  A    between atoms: C_5  and  N_6 
REMARK    3  A    between atoms: N_10  and  N_11 
REMARK       I    between atoms: N_11  and  C_12 
REMARK    4  A    between atoms: C_12  and  C_13 
REMARK    5  A    between atoms: C_13  and  N_14 
REMARK       I    between atoms: N_14  and  C_15 
REMARK    6  A    between atoms: C_15  and  C_16 
REMARK    7  A    between atoms: C_17  and  O_18 
ROOT
HETATM    1  N   UNL     1      -2.079   7.997 -28.045  1.00  0.00    -0.307 N 
HETATM    2  C   UNL     1      -3.058   7.038 -28.231  1.00  0.00     0.280 A 
HETATM    3  O   UNL     1      -3.323   6.365 -29.206  1.00  0.00    -0.265 OA
HETATM    4  C   UNL     1      -3.810   6.955 -26.908  1.00  0.00     0.157 A 
HETATM    5  N   UNL     1      -4.836   6.231 -26.594  1.00  0.00    -0.166 NA
HETATM    6  C   UNL     1      -3.156   7.899 -26.012  1.00  0.00     0.027 A 
HETATM    7  C   UNL     1      -2.130   8.506 -26.735  1.00  0.00     0.050 A 
HETATM    8  C   UNL     1      -3.444   8.216 -24.698  1.00  0.00     0.016 A 
HETATM    9  C   UNL     1      -2.652   9.190 -24.092  1.00  0.00     0.001 A 
HETATM   10  C   UNL     1      -1.610   9.813 -24.807  1.00  0.00     0.002 A 
HETATM   11  C   UNL     1      -1.342   9.473 -26.140  1.00  0.00     0.031 A 
ENDROOT
BRANCH   5  12
HETATM   12  N   UNL     1      -5.374   5.427 -27.558  1.00  0.00    -0.245 N 
HETATM   13  C   UNL     1      -6.575   5.799 -28.147  1.00  0.00     0.255 C 
HETATM   14  O   UNL     1      -7.254   6.772 -27.817  1.00  0.00    -0.270 OA
HETATM   15  H   UNL     1      -4.869   4.591 -27.877  1.00  0.00     0.192 HD
BRANCH  13  16
HETATM   16  C   UNL     1      -7.018   4.879 -29.278  1.00  0.00     0.227 C 
BRANCH  16  17
HETATM   17  N   UNL     1      -6.188   5.058 -30.455  1.00  0.00    -0.348 N 
HETATM   18  C   UNL     1      -5.273   4.107 -30.839  1.00  0.00     0.254 C 
HETATM   19  O   UNL     1      -5.131   3.045 -30.248  1.00  0.00    -0.268 OA
HETATM   20  H   UNL     1      -6.212   5.959 -30.925  1.00  0.00     0.163 HD
BRANCH  18  21
HETATM   21  C   UNL     1      -4.435   4.449 -32.013  1.00  0.00     0.065 A 
HETATM   22  C   UNL     1      -3.046   4.273 -32.032  1.00  0.00     0.081 A 
HETATM   23  C   UNL     1      -2.321   4.537 -33.193  1.00  0.00     0.037 A 
HETATM   24  C   UNL     1      -2.975   5.007 -34.332  1.00  0.00     0.003 A 
HETATM   25  C   UNL     1      -4.355   5.217 -34.311  1.00  0.00     0.001 A 
HETATM   26  C   UNL     1      -5.084   4.942 -33.153  1.00  0.00     0.020 A 
BRANCH  22  27
HETATM   27  O   UNL     1      -2.323   3.863 -30.946  1.00  0.00    -0.360 OA
HETATM   28  H   UNL     1      -2.227   4.615 -30.331  1.00  0.00     0.217 HD
ENDBRANCH  22  27
ENDBRANCH  18  21
ENDBRANCH  16  17
ENDBRANCH  13  16
ENDBRANCH   5  12
BRANCH   1  29
HETATM   29  C   UNL     1      -1.116   8.372 -29.054  1.00  0.00     0.171 C 
BRANCH  29  30
HETATM   30  C   UNL     1      -0.351   7.191 -29.603  1.00  0.00    -0.040 A 
HETATM   31  C   UNL     1      -0.187   7.034 -30.988  1.00  0.00     0.009 A 
HETATM   32  C   UNL     1       0.518   5.944 -31.501  1.00  0.00     0.001 A 
HETATM   33  C   UNL     1       1.066   4.998 -30.636  1.00  0.00     0.000 A 
HETATM   34  C   UNL     1       0.913   5.144 -29.259  1.00  0.00     0.001 A 
HETATM   35  C   UNL     1       0.212   6.236 -28.745  1.00  0.00     0.009 A 
ENDBRANCH  29  30
ENDBRANCH   1  29
TORSDOF 7
ENDMDL
