MODEL 1
REMARK VINA RESULT:      -8.4      0.000      0.000
REMARK  7 active torsions:
REMARK  status: ('A' for Active; 'I' for Inactive)
REMARK    1  A    between atoms: C_4  and  C_5 
REMARK    2  A    between atoms: C_5  and  N_6 
REMARK       I    between atoms: N_6  and  C_7 
REMARK    3  A    between atoms: N_6  and  C_22 
REMARK    4  A    between atoms: C_7  and  C_8 
REMARK    5  A    between atoms: C_13  and  C_14 
REMARK    6  A    between atoms: C_15  and  O_16 
REMARK    7  A    between atoms: C_22  and  C_23 
ROOT
HETATM    1  N   UNL     1      -6.769   0.933 -32.487  1.00  0.00    -0.343 N 
HETATM    2  C   UNL     1      -5.817   1.538 -31.654  1.00  0.00     0.235 C 
HETATM    3  O   UNL     1      -6.015   1.656 -30.440  1.00  0.00    -0.272 OA
ENDROOT
BRANCH   2   4
HETATM    4  C   UNL     1      -4.548   2.096 -32.273  1.00  0.00     0.195 C 
HETATM    5  C   UNL     1      -3.349   1.839 -31.404  1.00  0.00     0.247 C 
HETATM    6  O   UNL     1      -2.826   0.754 -31.197  1.00  0.00    -0.271 OA
HETATM    7  N   UNL     1      -2.922   3.041 -30.881  1.00  0.00    -0.290 N 
HETATM    8  N   UNL     1      -3.708   4.125 -31.256  1.00  0.00    -0.228 NA
HETATM    9  H   UNL     1      -2.207   3.073 -30.161  1.00  0.00     0.183 HD
HETATM   10  C   UNL     1      -4.523   3.630 -32.397  1.00  0.00     0.134 C 
HETATM   11  H   UNL     1      -3.125   4.900 -31.580  1.00  0.00     0.147 HD
BRANCH  10  12
HETATM   12  C   UNL     1      -5.851   4.343 -32.527  1.00  0.00    -0.004 A 
HETATM   13  C   UNL     1      -6.500   4.876 -31.408  1.00  0.00     0.073 A 
HETATM   14  C   UNL     1      -7.721   5.543 -31.525  1.00  0.00     0.037 A 
HETATM   15  C   UNL     1      -8.302   5.708 -32.781  1.00  0.00     0.003 A 
HETATM   16  C   UNL     1      -7.667   5.202 -33.912  1.00  0.00     0.001 A 
HETATM   17  C   UNL     1      -6.454   4.523 -33.785  1.00  0.00     0.012 A 
BRANCH  13  18
HETATM   18  O   UNL     1      -5.909   4.752 -30.181  1.00  0.00    -0.360 OA
HETATM   19  H   UNL     1      -5.081   5.261 -30.181  1.00  0.00     0.217 HD
ENDBRANCH  13  18
ENDBRANCH  10  12
ENDBRANCH   2   4
BRANCH   1  20
HETATM   20  C   UNL     1      -7.946   0.351 -31.827  1.00  0.00     0.164 C 
BRANCH  20  21
HETATM   21  C   UNL     1      -9.268   0.865 -32.349  1.00  0.00    -0.040 A 
HETATM   22  C   UNL     1      -9.569   2.235 -32.326  1.00  0.00     0.009 A 
HETATM   23  C   UNL     1     -10.776   2.705 -32.845  1.00  0.00     0.001 A 
HETATM   24  C   UNL     1     -11.696   1.813 -33.395  1.00  0.00     0.000 A 
HETATM   25  C   UNL     1     -11.408   0.451 -33.428  1.00  0.00     0.001 A 
HETATM   26  C   UNL     1     -10.199  -0.020 -32.913  1.00  0.00     0.009 A 
ENDBRANCH  20  21
ENDBRANCH   1  20
BRANCH   1  27
HETATM   27  C   UNL     1      -6.464   0.532 -33.867  1.00  0.00     0.164 C 
BRANCH  27  28
HETATM   28  C   UNL     1      -6.086  -0.911 -34.099  1.00  0.00    -0.040 A 
HETATM   29  C   UNL     1      -7.019  -1.828 -34.604  1.00  0.00     0.009 A 
HETATM   30  C   UNL     1      -6.655  -3.153 -34.843  1.00  0.00     0.001 A 
HETATM   31  C   UNL     1      -5.351  -3.575 -34.589  1.00  0.00     0.000 A 
HETATM   32  C   UNL     1      -4.411  -2.673 -34.097  1.00  0.00     0.001 A 
HETATM   33  C   UNL     1      -4.774  -1.347 -33.857  1.00  0.00     0.009 A 
ENDBRANCH  27  28
ENDBRANCH   1  27
TORSDOF 7
ENDMDL
MODEL 2
REMARK VINA RESULT:      -8.0      1.773      5.446
REMARK  7 active torsions:
REMARK  status: ('A' for Active; 'I' for Inactive)
REMARK    1  A    between atoms: C_4  and  C_5 
REMARK    2  A    between atoms: C_5  and  N_6 
REMARK       I    between atoms: N_6  and  C_7 
REMARK    3  A    between atoms: N_6  and  C_22 
REMARK    4  A    between atoms: C_7  and  C_8 
REMARK    5  A    between atoms: C_13  and  C_14 
REMARK    6  A    between atoms: C_15  and  O_16 
REMARK    7  A    between atoms: C_22  and  C_23 
ROOT
HETATM    1  N   UNL     1      -7.736   1.769 -33.670  1.00  0.00    -0.343 N 
HETATM    2  C   UNL     1      -7.030   2.967 -33.501  1.00  0.00     0.235 C 
HETATM    3  O   UNL     1      -6.125   3.290 -34.278  1.00  0.00    -0.272 OA
ENDROOT
BRANCH   2   4
HETATM    4  C   UNL     1      -7.358   3.853 -32.312  1.00  0.00     0.195 C 
HETATM    5  C   UNL     1      -7.404   5.304 -32.698  1.00  0.00     0.247 C 
HETATM    6  O   UNL     1      -8.254   5.841 -33.392  1.00  0.00    -0.271 OA
HETATM    7  N   UNL     1      -6.324   5.942 -32.127  1.00  0.00    -0.290 N 
HETATM    8  N   UNL     1      -5.492   5.096 -31.401  1.00  0.00    -0.228 NA
HETATM    9  H   UNL     1      -6.093   6.901 -32.372  1.00  0.00     0.183 HD
HETATM   10  C   UNL     1      -6.287   3.855 -31.206  1.00  0.00     0.134 C 
HETATM   11  H   UNL     1      -5.277   5.497 -30.485  1.00  0.00     0.147 HD
BRANCH  10  12
HETATM   12  C   UNL     1      -5.427   2.619 -31.063  1.00  0.00    -0.004 A 
HETATM   13  C   UNL     1      -5.913   1.467 -30.433  1.00  0.00     0.073 A 
HETATM   14  C   UNL     1      -5.125   0.321 -30.308  1.00  0.00     0.037 A 
HETATM   15  C   UNL     1      -3.837   0.304 -30.840  1.00  0.00     0.003 A 
HETATM   16  C   UNL     1      -3.339   1.430 -31.488  1.00  0.00     0.001 A 
HETATM   17  C   UNL     1      -4.125   2.579 -31.596  1.00  0.00     0.012 A 
BRANCH  13  18
HETATM   18  O   UNL     1      -7.191   1.469 -29.948  1.00  0.00    -0.360 OA
HETATM   19  H   UNL     1      -7.182   1.108 -29.046  1.00  0.00     0.217 HD
ENDBRANCH  13  18
ENDBRANCH  10  12
ENDBRANCH   2   4
BRANCH   1  20
HETATM   20  C   UNL     1      -7.423   0.985 -34.874  1.00  0.00     0.164 C 
BRANCH  20  21
HETATM   21  C   UNL     1      -6.691  -0.308 -34.599  1.00  0.00    -0.040 A 
HETATM   22  C   UNL     1      -5.415  -0.305 -34.017  1.00  0.00     0.009 A 
HETATM   23  C   UNL     1      -4.761  -1.504 -33.732  1.00  0.00     0.001 A 
HETATM   24  C   UNL     1      -5.376  -2.722 -34.022  1.00  0.00     0.000 A 
HETATM   25  C   UNL     1      -6.644  -2.740 -34.596  1.00  0.00     0.001 A 
HETATM   26  C   UNL     1      -7.300  -1.540 -34.878  1.00  0.00     0.009 A 
ENDBRANCH  20  21
ENDBRANCH   1  20
BRANCH   1  27
HETATM   27  C   UNL     1      -8.981   1.481 -32.945  1.00  0.00     0.164 C 
BRANCH  27  28
HETATM   28  C   UNL     1     -10.279   1.740 -33.671  1.00  0.00    -0.040 A 
HETATM   29  C   UNL     1     -10.443   2.883 -34.467  1.00  0.00     0.009 A 
HETATM   30  C   UNL     1     -11.635   3.101 -35.158  1.00  0.00     0.001 A 
HETATM   31  C   UNL     1     -12.673   2.176 -35.069  1.00  0.00     0.000 A 
HETATM   32  C   UNL     1     -12.520   1.031 -34.290  1.00  0.00     0.001 A 
HETATM   33  C   UNL     1     -11.328   0.811 -33.598  1.00  0.00     0.009 A 
ENDBRANCH  27  28
ENDBRANCH   1  27
TORSDOF 7
ENDMDL
MODEL 3
REMARK VINA RESULT:      -7.9      2.284      5.294
REMARK  7 active torsions:
REMARK  status: ('A' for Active; 'I' for Inactive)
REMARK    1  A    between atoms: C_4  and  C_5 
REMARK    2  A    between atoms: C_5  and  N_6 
REMARK       I    between atoms: N_6  and  C_7 
REMARK    3  A    between atoms: N_6  and  C_22 
REMARK    4  A    between atoms: C_7  and  C_8 
REMARK    5  A    between atoms: C_13  and  C_14 
REMARK    6  A    between atoms: C_15  and  O_16 
REMARK    7  A    between atoms: C_22  and  C_23 
ROOT
HETATM    1  N   UNL     1      -5.701   3.121 -32.623  1.00  0.00    -0.343 N 
HETATM    2  C   UNL     1      -6.370   3.390 -31.421  1.00  0.00     0.235 C 
HETATM    3  O   UNL     1      -6.472   2.530 -30.541  1.00  0.00    -0.272 OA
ENDROOT
BRANCH   2   4
HETATM    4  C   UNL     1      -7.019   4.750 -31.230  1.00  0.00     0.195 C 
HETATM    5  C   UNL     1      -6.878   5.236 -29.815  1.00  0.00     0.247 C 
HETATM    6  O   UNL     1      -5.844   5.601 -29.276  1.00  0.00    -0.271 OA
HETATM    7  N   UNL     1      -8.121   5.213 -29.220  1.00  0.00    -0.290 N 
HETATM    8  N   UNL     1      -9.130   4.731 -30.047  1.00  0.00    -0.228 NA
HETATM    9  H   UNL     1      -8.226   5.376 -28.222  1.00  0.00     0.183 HD
HETATM   10  C   UNL     1      -8.547   4.757 -31.414  1.00  0.00     0.134 C 
HETATM   11  H   UNL     1      -9.944   5.350 -30.024  1.00  0.00     0.147 HD
BRANCH  10  12
HETATM   12  C   UNL     1      -9.145   3.713 -32.331  1.00  0.00    -0.004 A 
HETATM   13  C   UNL     1      -9.569   2.473 -31.838  1.00  0.00     0.073 A 
HETATM   14  C   UNL     1     -10.131   1.511 -32.679  1.00  0.00     0.037 A 
HETATM   15  C   UNL     1     -10.300   1.789 -34.034  1.00  0.00     0.003 A 
HETATM   16  C   UNL     1      -9.903   3.021 -34.545  1.00  0.00     0.001 A 
HETATM   17  C   UNL     1      -9.328   3.974 -33.701  1.00  0.00     0.012 A 
BRANCH  13  18
HETATM   18  O   UNL     1      -9.443   2.216 -30.501  1.00  0.00    -0.360 OA
HETATM   19  H   UNL     1      -9.918   2.904 -30.005  1.00  0.00     0.217 HD
ENDBRANCH  13  18
ENDBRANCH  10  12
ENDBRANCH   2   4
BRANCH   1  20
HETATM   20  C   UNL     1      -5.036   1.815 -32.727  1.00  0.00     0.164 C 
BRANCH  20  21
HETATM   21  C   UNL     1      -5.826   0.775 -33.486  1.00  0.00    -0.040 A 
HETATM   22  C   UNL     1      -6.644   1.136 -34.567  1.00  0.00     0.009 A 
HETATM   23  C   UNL     1      -7.341   0.165 -35.286  1.00  0.00     0.001 A 
HETATM   24  C   UNL     1      -7.229  -1.180 -34.936  1.00  0.00     0.000 A 
HETATM   25  C   UNL     1      -6.418  -1.554 -33.868  1.00  0.00     0.001 A 
HETATM   26  C   UNL     1      -5.717  -0.583 -33.150  1.00  0.00     0.009 A 
ENDBRANCH  20  21
ENDBRANCH   1  20
BRANCH   1  27
HETATM   27  C   UNL     1      -5.325   4.182 -33.568  1.00  0.00     0.164 C 
BRANCH  27  28
HETATM   28  C   UNL     1      -3.874   4.597 -33.598  1.00  0.00    -0.040 A 
HETATM   29  C   UNL     1      -3.294   5.106 -34.769  1.00  0.00     0.009 A 
HETATM   30  C   UNL     1      -1.961   5.515 -34.782  1.00  0.00     0.001 A 
HETATM   31  C   UNL     1      -1.193   5.429 -33.622  1.00  0.00     0.000 A 
HETATM   32  C   UNL     1      -1.759   4.935 -32.449  1.00  0.00     0.001 A 
HETATM   33  C   UNL     1      -3.093   4.525 -32.434  1.00  0.00     0.009 A 
ENDBRANCH  27  28
ENDBRANCH   1  27
TORSDOF 7
ENDMDL
MODEL 4
REMARK VINA RESULT:      -7.9      2.290      5.023
REMARK  7 active torsions:
REMARK  status: ('A' for Active; 'I' for Inactive)
REMARK    1  A    between atoms: C_4  and  C_5 
REMARK    2  A    between atoms: C_5  and  N_6 
REMARK       I    between atoms: N_6  and  C_7 
REMARK    3  A    between atoms: N_6  and  C_22 
REMARK    4  A    between atoms: C_7  and  C_8 
REMARK    5  A    between atoms: C_13  and  C_14 
REMARK    6  A    between atoms: C_15  and  O_16 
REMARK    7  A    between atoms: C_22  and  C_23 
ROOT
HETATM    1  N   UNL     1      -6.568   2.121 -32.875  1.00  0.00    -0.343 N 
HETATM    2  C   UNL     1      -7.904   2.538 -32.959  1.00  0.00     0.235 C 
HETATM    3  O   UNL     1      -8.244   3.440 -33.732  1.00  0.00    -0.272 OA
ENDROOT
BRANCH   2   4
HETATM    4  C   UNL     1      -8.933   1.896 -32.045  1.00  0.00     0.195 C 
HETATM    5  C   UNL     1     -10.196   1.556 -32.785  1.00  0.00     0.247 C 
HETATM    6  O   UNL     1     -10.327   0.680 -33.626  1.00  0.00    -0.271 OA
HETATM    7  N   UNL     1     -11.197   2.398 -32.349  1.00  0.00    -0.290 N 
HETATM    8  N   UNL     1     -10.777   3.324 -31.400  1.00  0.00    -0.228 NA
HETATM    9  H   UNL     1     -12.098   2.425 -32.818  1.00  0.00     0.183 HD
HETATM   10  C   UNL     1      -9.460   2.820 -30.932  1.00  0.00     0.134 C 
HETATM   11  H   UNL     1     -11.422   3.347 -30.607  1.00  0.00     0.147 HD
BRANCH  10  12
HETATM   12  C   UNL     1      -8.544   3.922 -30.448  1.00  0.00    -0.004 A 
HETATM   13  C   UNL     1      -7.435   3.641 -29.641  1.00  0.00     0.073 A 
HETATM   14  C   UNL     1      -6.581   4.655 -29.200  1.00  0.00     0.037 A 
HETATM   15  C   UNL     1      -6.816   5.974 -29.586  1.00  0.00     0.003 A 
HETATM   16  C   UNL     1      -7.901   6.276 -30.402  1.00  0.00     0.001 A 
HETATM   17  C   UNL     1      -8.760   5.260 -30.827  1.00  0.00     0.012 A 
BRANCH  13  18
HETATM   18  O   UNL     1      -7.180   2.342 -29.298  1.00  0.00    -0.360 OA
HETATM   19  H   UNL     1      -6.816   1.882 -30.073  1.00  0.00     0.217 HD
ENDBRANCH  13  18
ENDBRANCH  10  12
ENDBRANCH   2   4
BRANCH   1  20
HETATM   20  C   UNL     1      -5.628   2.728 -33.828  1.00  0.00     0.164 C 
BRANCH  20  21
HETATM   21  C   UNL     1      -4.759   3.813 -33.237  1.00  0.00    -0.040 A 
HETATM   22  C   UNL     1      -5.213   5.138 -33.156  1.00  0.00     0.009 A 
HETATM   23  C   UNL     1      -4.419   6.127 -32.574  1.00  0.00     0.001 A 
HETATM   24  C   UNL     1      -3.163   5.804 -32.063  1.00  0.00     0.000 A 
HETATM   25  C   UNL     1      -2.702   4.493 -32.132  1.00  0.00     0.001 A 
HETATM   26  C   UNL     1      -3.497   3.502 -32.711  1.00  0.00     0.009 A 
ENDBRANCH  20  21
ENDBRANCH   1  20
BRANCH   1  27
HETATM   27  C   UNL     1      -6.172   0.888 -32.182  1.00  0.00     0.164 C 
BRANCH  27  28
HETATM   28  C   UNL     1      -5.970  -0.346 -33.028  1.00  0.00    -0.040 A 
HETATM   29  C   UNL     1      -7.033  -0.900 -33.757  1.00  0.00     0.009 A 
HETATM   30  C   UNL     1      -6.833  -2.023 -34.560  1.00  0.00     0.001 A 
HETATM   31  C   UNL     1      -5.567  -2.600 -34.651  1.00  0.00     0.000 A 
HETATM   32  C   UNL     1      -4.501  -2.054 -33.940  1.00  0.00     0.001 A 
HETATM   33  C   UNL     1      -4.700  -0.930 -33.136  1.00  0.00     0.009 A 
ENDBRANCH  27  28
ENDBRANCH   1  27
TORSDOF 7
ENDMDL
MODEL 5
REMARK VINA RESULT:      -7.9      2.234      6.269
REMARK  7 active torsions:
REMARK  status: ('A' for Active; 'I' for Inactive)
REMARK    1  A    between atoms: C_4  and  C_5 
REMARK    2  A    between atoms: C_5  and  N_6 
REMARK       I    between atoms: N_6  and  C_7 
REMARK    3  A    between atoms: N_6  and  C_22 
REMARK    4  A    between atoms: C_7  and  C_8 
REMARK    5  A    between atoms: C_13  and  C_14 
REMARK    6  A    between atoms: C_15  and  O_16 
REMARK    7  A    between atoms: C_22  and  C_23 
ROOT
HETATM    1  N   UNL     1      -4.596   2.498 -31.919  1.00  0.00    -0.343 N 
HETATM    2  C   UNL     1      -5.659   2.470 -31.006  1.00  0.00     0.235 C 
HETATM    3  O   UNL     1      -5.675   1.666 -30.068  1.00  0.00    -0.272 OA
ENDROOT
BRANCH   2   4
HETATM    4  C   UNL     1      -6.829   3.417 -31.211  1.00  0.00     0.195 C 
HETATM    5  C   UNL     1      -7.397   3.887 -29.902  1.00  0.00     0.247 C 
HETATM    6  O   UNL     1      -6.859   4.647 -29.111  1.00  0.00    -0.271 OA
HETATM    7  N   UNL     1      -8.644   3.321 -29.739  1.00  0.00    -0.290 N 
HETATM    8  N   UNL     1      -9.013   2.472 -30.777  1.00  0.00    -0.228 NA
HETATM    9  H   UNL     1      -9.144   3.402 -28.859  1.00  0.00     0.183 HD
HETATM   10  C   UNL     1      -8.059   2.774 -31.875  1.00  0.00     0.134 C 
HETATM   11  H   UNL     1      -9.962   2.683 -31.097  1.00  0.00     0.147 HD
BRANCH  10  12
HETATM   12  C   UNL     1      -7.821   1.595 -32.792  1.00  0.00    -0.004 A 
HETATM   13  C   UNL     1      -7.869   0.281 -32.310  1.00  0.00     0.073 A 
HETATM   14  C   UNL     1      -7.660  -0.811 -33.155  1.00  0.00     0.037 A 
HETATM   15  C   UNL     1      -7.423  -0.601 -34.512  1.00  0.00     0.003 A 
HETATM   16  C   UNL     1      -7.389   0.695 -35.019  1.00  0.00     0.001 A 
HETATM   17  C   UNL     1      -7.583   1.783 -34.166  1.00  0.00     0.012 A 
BRANCH  13  18
HETATM   18  O   UNL     1      -8.144   0.073 -30.987  1.00  0.00    -0.360 OA
HETATM   19  H   UNL     1      -7.538  -0.606 -30.646  1.00  0.00     0.217 HD
ENDBRANCH  13  18
ENDBRANCH  10  12
ENDBRANCH   2   4
BRANCH   1  20
HETATM   20  C   UNL     1      -3.462   1.607 -31.634  1.00  0.00     0.164 C 
BRANCH  20  21
HETATM   21  C   UNL     1      -3.628   0.202 -32.166  1.00  0.00    -0.040 A 
HETATM   22  C   UNL     1      -4.097  -0.026 -33.468  1.00  0.00     0.009 A 
HETATM   23  C   UNL     1      -4.211  -1.325 -33.963  1.00  0.00     0.001 A 
HETATM   24  C   UNL     1      -3.855  -2.412 -33.167  1.00  0.00     0.000 A 
HETATM   25  C   UNL     1      -3.384  -2.200 -31.874  1.00  0.00     0.001 A 
HETATM   26  C   UNL     1      -3.266  -0.901 -31.378  1.00  0.00     0.009 A 
ENDBRANCH  20  21
ENDBRANCH   1  20
BRANCH   1  27
HETATM   27  C   UNL     1      -4.406   3.600 -32.871  1.00  0.00     0.164 C 
BRANCH  27  28
HETATM   28  C   UNL     1      -3.208   4.494 -32.661  1.00  0.00    -0.040 A 
HETATM   29  C   UNL     1      -2.218   4.615 -33.648  1.00  0.00     0.009 A 
HETATM   30  C   UNL     1      -1.129   5.466 -33.459  1.00  0.00     0.001 A 
HETATM   31  C   UNL     1      -1.020   6.212 -32.287  1.00  0.00     0.000 A 
HETATM   32  C   UNL     1      -2.001   6.109 -31.304  1.00  0.00     0.001 A 
HETATM   33  C   UNL     1      -3.092   5.259 -31.491  1.00  0.00     0.009 A 
ENDBRANCH  27  28
ENDBRANCH   1  27
TORSDOF 7
ENDMDL
MODEL 6
REMARK VINA RESULT:      -7.7      2.496      6.554
REMARK  7 active torsions:
REMARK  status: ('A' for Active; 'I' for Inactive)
REMARK    1  A    between atoms: C_4  and  C_5 
REMARK    2  A    between atoms: C_5  and  N_6 
REMARK       I    between atoms: N_6  and  C_7 
REMARK    3  A    between atoms: N_6  and  C_22 
REMARK    4  A    between atoms: C_7  and  C_8 
REMARK    5  A    between atoms: C_13  and  C_14 
REMARK    6  A    between atoms: C_15  and  O_16 
REMARK    7  A    between atoms: C_22  and  C_23 
ROOT
HETATM    1  N   UNL     1      -7.372   4.190 -31.412  1.00  0.00    -0.343 N 
HETATM    2  C   UNL     1      -8.613   3.546 -31.319  1.00  0.00     0.235 C 
HETATM    3  O   UNL     1      -8.841   2.725 -30.423  1.00  0.00    -0.272 OA
ENDROOT
BRANCH   2   4
HETATM    4  C   UNL     1      -9.672   3.833 -32.368  1.00  0.00     0.195 C 
HETATM    5  C   UNL     1     -11.018   4.075 -31.746  1.00  0.00     0.247 C 
HETATM    6  O   UNL     1     -11.344   5.049 -31.083  1.00  0.00    -0.271 OA
HETATM    7  N   UNL     1     -11.840   3.012 -32.055  1.00  0.00    -0.290 N 
HETATM    8  N   UNL     1     -11.215   2.021 -32.805  1.00  0.00    -0.228 NA
HETATM    9  H   UNL     1     -12.752   2.913 -31.620  1.00  0.00     0.183 HD
HETATM   10  C   UNL     1      -9.969   2.654 -33.312  1.00  0.00     0.134 C 
HETATM   11  H   UNL     1     -11.795   1.751 -33.603  1.00  0.00     0.147 HD
BRANCH  10  12
HETATM   12  C   UNL     1      -8.858   1.657 -33.556  1.00  0.00    -0.004 A 
HETATM   13  C   UNL     1      -8.763   0.479 -32.805  1.00  0.00     0.073 A 
HETATM   14  C   UNL     1      -7.744  -0.448 -33.034  1.00  0.00     0.037 A 
HETATM   15  C   UNL     1      -6.812  -0.217 -34.044  1.00  0.00     0.003 A 
HETATM   16  C   UNL     1      -6.896   0.938 -34.816  1.00  0.00     0.001 A 
HETATM   17  C   UNL     1      -7.908   1.868 -34.572  1.00  0.00     0.012 A 
BRANCH  13  18
HETATM   18  O   UNL     1      -9.702   0.233 -31.843  1.00  0.00    -0.360 OA
HETATM   19  H   UNL     1     -10.468  -0.197 -32.259  1.00  0.00     0.217 HD
ENDBRANCH  13  18
ENDBRANCH  10  12
ENDBRANCH   2   4
BRANCH   1  20
HETATM   20  C   UNL     1      -6.410   3.925 -30.333  1.00  0.00     0.164 C 
BRANCH  20  21
HETATM   21  C   UNL     1      -5.486   2.760 -30.598  1.00  0.00    -0.040 A 
HETATM   22  C   UNL     1      -5.885   1.444 -30.320  1.00  0.00     0.009 A 
HETATM   23  C   UNL     1      -5.039   0.371 -30.602  1.00  0.00     0.001 A 
HETATM   24  C   UNL     1      -3.787   0.598 -31.170  1.00  0.00     0.000 A 
HETATM   25  C   UNL     1      -3.379   1.898 -31.456  1.00  0.00     0.001 A 
HETATM   26  C   UNL     1      -4.225   2.972 -31.177  1.00  0.00     0.009 A 
ENDBRANCH  20  21
ENDBRANCH   1  20
BRANCH   1  27
HETATM   27  C   UNL     1      -7.155   5.355 -32.281  1.00  0.00     0.164 C 
BRANCH  27  28
HETATM   28  C   UNL     1      -5.842   5.428 -33.022  1.00  0.00    -0.040 A 
HETATM   29  C   UNL     1      -4.794   6.234 -32.552  1.00  0.00     0.009 A 
HETATM   30  C   UNL     1      -3.573   6.275 -33.225  1.00  0.00     0.001 A 
HETATM   31  C   UNL     1      -3.382   5.505 -34.371  1.00  0.00     0.000 A 
HETATM   32  C   UNL     1      -4.410   4.692 -34.843  1.00  0.00     0.001 A 
HETATM   33  C   UNL     1      -5.632   4.650 -34.170  1.00  0.00     0.009 A 
ENDBRANCH  27  28
ENDBRANCH   1  27
TORSDOF 7
ENDMDL
MODEL 7
REMARK VINA RESULT:      -7.6      3.203      5.822
REMARK  7 active torsions:
REMARK  status: ('A' for Active; 'I' for Inactive)
REMARK    1  A    between atoms: C_4  and  C_5 
REMARK    2  A    between atoms: C_5  and  N_6 
REMARK       I    between atoms: N_6  and  C_7 
REMARK    3  A    between atoms: N_6  and  C_22 
REMARK    4  A    between atoms: C_7  and  C_8 
REMARK    5  A    between atoms: C_13  and  C_14 
REMARK    6  A    between atoms: C_15  and  O_16 
REMARK    7  A    between atoms: C_22  and  C_23 
ROOT
HETATM    1  N   UNL     1      -3.778   3.583 -31.379  1.00  0.00    -0.343 N 
HETATM    2  C   UNL     1      -3.113   4.088 -32.505  1.00  0.00     0.235 C 
HETATM    3  O   UNL     1      -2.263   3.417 -33.099  1.00  0.00    -0.272 OA
ENDROOT
BRANCH   2   4
HETATM    4  C   UNL     1      -3.416   5.503 -32.964  1.00  0.00     0.195 C 
HETATM    5  C   UNL     1      -3.570   5.580 -34.457  1.00  0.00     0.247 C 
HETATM    6  O   UNL     1      -4.491   5.119 -35.113  1.00  0.00    -0.271 OA
HETATM    7  N   UNL     1      -2.494   6.272 -34.971  1.00  0.00    -0.290 N 
HETATM    8  N   UNL     1      -1.572   6.670 -34.009  1.00  0.00    -0.228 NA
HETATM    9  H   UNL     1      -2.334   6.321 -35.973  1.00  0.00     0.183 HD
HETATM   10  C   UNL     1      -2.280   6.511 -32.712  1.00  0.00     0.134 C 
HETATM   11  H   UNL     1      -1.323   7.654 -34.130  1.00  0.00     0.147 HD
BRANCH  10  12
HETATM   12  C   UNL     1      -1.344   6.234 -31.557  1.00  0.00    -0.004 A 
HETATM   13  C   UNL     1      -1.683   6.593 -30.247  1.00  0.00     0.073 A 
HETATM   14  C   UNL     1      -0.826   6.330 -29.177  1.00  0.00     0.037 A 
HETATM   15  C   UNL     1       0.384   5.675 -29.403  1.00  0.00     0.003 A 
HETATM   16  C   UNL     1       0.735   5.292 -30.694  1.00  0.00     0.001 A 
HETATM   17  C   UNL     1      -0.120   5.572 -31.762  1.00  0.00     0.012 A 
BRANCH  13  18
HETATM   18  O   UNL     1      -2.888   7.196 -30.019  1.00  0.00    -0.360 OA
HETATM   19  H   UNL     1      -3.539   6.839 -30.646  1.00  0.00     0.217 HD
ENDBRANCH  13  18
ENDBRANCH  10  12
ENDBRANCH   2   4
BRANCH   1  20
HETATM   20  C   UNL     1      -3.494   2.186 -31.019  1.00  0.00     0.164 C 
BRANCH  20  21
HETATM   21  C   UNL     1      -4.495   1.191 -31.558  1.00  0.00    -0.040 A 
HETATM   22  C   UNL     1      -5.332   0.469 -30.694  1.00  0.00     0.009 A 
HETATM   23  C   UNL     1      -6.279  -0.420 -31.202  1.00  0.00     0.001 A 
HETATM   24  C   UNL     1      -6.405  -0.597 -32.579  1.00  0.00     0.000 A 
HETATM   25  C   UNL     1      -5.584   0.116 -33.448  1.00  0.00     0.001 A 
HETATM   26  C   UNL     1      -4.638   1.008 -32.941  1.00  0.00     0.009 A 
ENDBRANCH  20  21
ENDBRANCH   1  20
BRANCH   1  27
HETATM   27  C   UNL     1      -4.971   4.229 -30.815  1.00  0.00     0.164 C 
BRANCH  27  28
HETATM   28  C   UNL     1      -6.314   3.746 -31.307  1.00  0.00    -0.040 A 
HETATM   29  C   UNL     1      -6.630   3.766 -32.673  1.00  0.00     0.009 A 
HETATM   30  C   UNL     1      -7.862   3.291 -33.123  1.00  0.00     0.001 A 
HETATM   31  C   UNL     1      -8.789   2.785 -32.215  1.00  0.00     0.000 A 
HETATM   32  C   UNL     1      -8.485   2.750 -30.856  1.00  0.00     0.001 A 
HETATM   33  C   UNL     1      -7.252   3.224 -30.404  1.00  0.00     0.009 A 
ENDBRANCH  27  28
ENDBRANCH   1  27
TORSDOF 7
ENDMDL
MODEL 8
REMARK VINA RESULT:      -7.5      2.467      5.409
REMARK  7 active torsions:
REMARK  status: ('A' for Active; 'I' for Inactive)
REMARK    1  A    between atoms: C_4  and  C_5 
REMARK    2  A    between atoms: C_5  and  N_6 
REMARK       I    between atoms: N_6  and  C_7 
REMARK    3  A    between atoms: N_6  and  C_22 
REMARK    4  A    between atoms: C_7  and  C_8 
REMARK    5  A    between atoms: C_13  and  C_14 
REMARK    6  A    between atoms: C_15  and  O_16 
REMARK    7  A    between atoms: C_22  and  C_23 
ROOT
HETATM    1  N   UNL     1      -5.766   3.459 -32.634  1.00  0.00    -0.343 N 
HETATM    2  C   UNL     1      -6.442   3.744 -31.440  1.00  0.00     0.235 C 
HETATM    3  O   UNL     1      -6.576   2.885 -30.562  1.00  0.00    -0.272 OA
ENDROOT
BRANCH   2   4
HETATM    4  C   UNL     1      -7.056   5.120 -31.253  1.00  0.00     0.195 C 
HETATM    5  C   UNL     1      -6.959   5.581 -29.826  1.00  0.00     0.247 C 
HETATM    6  O   UNL     1      -5.938   5.906 -29.240  1.00  0.00    -0.271 OA
HETATM    7  N   UNL     1      -8.226   5.588 -29.282  1.00  0.00    -0.290 N 
HETATM    8  N   UNL     1      -9.214   5.149 -30.157  1.00  0.00    -0.228 NA
HETATM    9  H   UNL     1      -8.366   5.739 -28.287  1.00  0.00     0.183 HD
HETATM   10  C   UNL     1      -8.575   5.177 -31.499  1.00  0.00     0.134 C 
HETATM   11  H   UNL     1     -10.009   5.793 -30.157  1.00  0.00     0.147 HD
BRANCH  10  12
HETATM   12  C   UNL     1      -9.166   4.166 -32.455  1.00  0.00    -0.004 A 
HETATM   13  C   UNL     1      -9.196   4.404 -33.835  1.00  0.00     0.073 A 
HETATM   14  C   UNL     1      -9.732   3.468 -34.722  1.00  0.00     0.037 A 
HETATM   15  C   UNL     1     -10.228   2.259 -34.238  1.00  0.00     0.003 A 
HETATM   16  C   UNL     1     -10.192   1.991 -32.873  1.00  0.00     0.001 A 
HETATM   17  C   UNL     1      -9.669   2.937 -31.989  1.00  0.00     0.012 A 
BRANCH  13  18
HETATM   18  O   UNL     1      -8.671   5.572 -34.314  1.00  0.00    -0.360 OA
HETATM   19  H   UNL     1      -8.161   5.377 -35.119  1.00  0.00     0.217 HD
ENDBRANCH  13  18
ENDBRANCH  10  12
ENDBRANCH   2   4
BRANCH   1  20
HETATM   20  C   UNL     1      -5.135   2.135 -32.734  1.00  0.00     0.164 C 
BRANCH  20  21
HETATM   21  C   UNL     1      -5.980   1.096 -33.432  1.00  0.00    -0.040 A 
HETATM   22  C   UNL     1      -6.620   1.382 -34.647  1.00  0.00     0.009 A 
HETATM   23  C   UNL     1      -7.367   0.404 -35.303  1.00  0.00     0.001 A 
HETATM   24  C   UNL     1      -7.483  -0.873 -34.757  1.00  0.00     0.000 A 
HETATM   25  C   UNL     1      -6.850  -1.173 -33.553  1.00  0.00     0.001 A 
HETATM   26  C   UNL     1      -6.099  -0.196 -32.897  1.00  0.00     0.009 A 
ENDBRANCH  20  21
ENDBRANCH   1  20
BRANCH   1  27
HETATM   27  C   UNL     1      -5.352   4.511 -33.573  1.00  0.00     0.164 C 
BRANCH  27  28
HETATM   28  C   UNL     1      -3.887   4.873 -33.601  1.00  0.00    -0.040 A 
HETATM   29  C   UNL     1      -3.149   4.981 -32.413  1.00  0.00     0.009 A 
HETATM   30  C   UNL     1      -1.789   5.288 -32.448  1.00  0.00     0.001 A 
HETATM   31  C   UNL     1      -1.148   5.482 -33.670  1.00  0.00     0.000 A 
HETATM   32  C   UNL     1      -1.867   5.368 -34.858  1.00  0.00     0.001 A 
HETATM   33  C   UNL     1      -3.228   5.061 -34.825  1.00  0.00     0.009 A 
ENDBRANCH  27  28
ENDBRANCH   1  27
TORSDOF 7
ENDMDL
MODEL 9
REMARK VINA RESULT:      -7.5      2.372      3.780
REMARK  7 active torsions:
REMARK  status: ('A' for Active; 'I' for Inactive)
REMARK    1  A    between atoms: C_4  and  C_5 
REMARK    2  A    between atoms: C_5  and  N_6 
REMARK       I    between atoms: N_6  and  C_7 
REMARK    3  A    between atoms: N_6  and  C_22 
REMARK    4  A    between atoms: C_7  and  C_8 
REMARK    5  A    between atoms: C_13  and  C_14 
REMARK    6  A    between atoms: C_15  and  O_16 
REMARK    7  A    between atoms: C_22  and  C_23 
ROOT
HETATM    1  N   UNL     1      -4.844   3.447 -30.804  1.00  0.00    -0.343 N 
HETATM    2  C   UNL     1      -4.636   4.439 -31.772  1.00  0.00     0.235 C 
HETATM    3  O   UNL     1      -5.130   5.564 -31.649  1.00  0.00    -0.272 OA
ENDROOT
BRANCH   2   4
HETATM    4  C   UNL     1      -3.828   4.098 -33.012  1.00  0.00     0.195 C 
HETATM    5  C   UNL     1      -2.862   5.193 -33.362  1.00  0.00     0.247 C 
HETATM    6  O   UNL     1      -1.859   5.500 -32.736  1.00  0.00    -0.271 OA
HETATM    7  N   UNL     1      -3.290   5.798 -34.525  1.00  0.00    -0.290 N 
HETATM    8  N   UNL     1      -4.477   5.274 -35.025  1.00  0.00    -0.228 NA
HETATM    9  H   UNL     1      -2.852   6.651 -34.862  1.00  0.00     0.183 HD
HETATM   10  C   UNL     1      -4.660   3.988 -34.303  1.00  0.00     0.134 C 
HETATM   11  H   UNL     1      -4.394   5.081 -36.026  1.00  0.00     0.147 HD
BRANCH  10  12
HETATM   12  C   UNL     1      -6.113   3.589 -34.166  1.00  0.00    -0.004 A 
HETATM   13  C   UNL     1      -7.110   4.547 -33.947  1.00  0.00     0.073 A 
HETATM   14  C   UNL     1      -8.453   4.184 -33.830  1.00  0.00     0.037 A 
HETATM   15  C   UNL     1      -8.823   2.846 -33.957  1.00  0.00     0.003 A 
HETATM   16  C   UNL     1      -7.852   1.877 -34.193  1.00  0.00     0.001 A 
HETATM   17  C   UNL     1      -6.509   2.245 -34.294  1.00  0.00     0.012 A 
BRANCH  13  18
HETATM   18  O   UNL     1      -6.753   5.864 -33.865  1.00  0.00    -0.360 OA
HETATM   19  H   UNL     1      -6.320   6.122 -34.696  1.00  0.00     0.217 HD
ENDBRANCH  13  18
ENDBRANCH  10  12
ENDBRANCH   2   4
BRANCH   1  20
HETATM   20  C   UNL     1      -5.576   3.851 -29.595  1.00  0.00     0.164 C 
BRANCH  20  21
HETATM   21  C   UNL     1      -7.065   4.017 -29.797  1.00  0.00    -0.040 A 
HETATM   22  C   UNL     1      -7.688   5.256 -29.589  1.00  0.00     0.009 A 
HETATM   23  C   UNL     1      -9.056   5.409 -29.814  1.00  0.00     0.001 A 
HETATM   24  C   UNL     1      -9.819   4.328 -30.252  1.00  0.00     0.000 A 
HETATM   25  C   UNL     1      -9.213   3.093 -30.467  1.00  0.00     0.001 A 
HETATM   26  C   UNL     1      -7.843   2.939 -30.245  1.00  0.00     0.009 A 
ENDBRANCH  20  21
ENDBRANCH   1  20
BRANCH   1  27
HETATM   27  C   UNL     1      -4.065   2.202 -30.774  1.00  0.00     0.164 C 
BRANCH  27  28
HETATM   28  C   UNL     1      -4.600   1.033 -31.566  1.00  0.00    -0.040 A 
HETATM   29  C   UNL     1      -3.847   0.461 -32.602  1.00  0.00     0.009 A 
HETATM   30  C   UNL     1      -4.335  -0.638 -33.310  1.00  0.00     0.001 A 
HETATM   31  C   UNL     1      -5.576  -1.182 -32.986  1.00  0.00     0.000 A 
HETATM   32  C   UNL     1      -6.330  -0.629 -31.953  1.00  0.00     0.001 A 
HETATM   33  C   UNL     1      -5.843   0.469 -31.243  1.00  0.00     0.009 A 
ENDBRANCH  27  28
ENDBRANCH   1  27
TORSDOF 7
ENDMDL
MODEL 10
REMARK VINA RESULT:      -7.4     15.663     18.235
REMARK  7 active torsions:
REMARK  status: ('A' for Active; 'I' for Inactive)
REMARK    1  A    between atoms: C_4  and  C_5 
REMARK    2  A    between atoms: C_5  and  N_6 
REMARK       I    between atoms: N_6  and  C_7 
REMARK    3  A    between atoms: N_6  and  C_22 
REMARK    4  A    between atoms: C_7  and  C_8 
REMARK    5  A    between atoms: C_13  and  C_14 
REMARK    6  A    between atoms: C_15  and  O_16 
REMARK    7  A    between atoms: C_22  and  C_23 
ROOT
HETATM    1  N   UNL     1      -4.085 -15.805 -39.511  1.00  0.00    -0.343 N 
HETATM    2  C   UNL     1      -4.246 -15.183 -38.265  1.00  0.00     0.235 C 
HETATM    3  O   UNL     1      -5.062 -15.608 -37.440  1.00  0.00    -0.272 OA
ENDROOT
BRANCH   2   4
HETATM    4  C   UNL     1      -3.432 -13.940 -37.953  1.00  0.00     0.195 C 
HETATM    5  C   UNL     1      -2.838 -13.998 -36.574  1.00  0.00     0.247 C 
HETATM    6  O   UNL     1      -1.937 -14.737 -36.206  1.00  0.00    -0.271 OA
HETATM    7  N   UNL     1      -3.474 -13.064 -35.785  1.00  0.00    -0.290 N 
HETATM    8  N   UNL     1      -4.482 -12.368 -36.443  1.00  0.00    -0.228 NA
HETATM    9  H   UNL     1      -3.316 -13.032 -34.782  1.00  0.00     0.183 HD
HETATM   10  C   UNL     1      -4.255 -12.641 -37.886  1.00  0.00     0.134 C 
HETATM   11  H   UNL     1      -4.393 -11.362 -36.280  1.00  0.00     0.147 HD
BRANCH  10  12
HETATM   12  C   UNL     1      -5.524 -12.576 -38.707  1.00  0.00    -0.004 A 
HETATM   13  C   UNL     1      -6.776 -12.810 -38.125  1.00  0.00     0.073 A 
HETATM   14  C   UNL     1      -7.951 -12.741 -38.877  1.00  0.00     0.037 A 
HETATM   15  C   UNL     1      -7.889 -12.408 -40.229  1.00  0.00     0.003 A 
HETATM   16  C   UNL     1      -6.659 -12.152 -40.826  1.00  0.00     0.001 A 
HETATM   17  C   UNL     1      -5.486 -12.239 -40.072  1.00  0.00     0.012 A 
BRANCH  13  18
HETATM   18  O   UNL     1      -6.840 -13.095 -36.790  1.00  0.00    -0.360 OA
HETATM   19  H   UNL     1      -6.073 -12.692 -36.348  1.00  0.00     0.217 HD
ENDBRANCH  13  18
ENDBRANCH  10  12
ENDBRANCH   2   4
BRANCH   1  20
HETATM   20  C   UNL     1      -4.849 -17.041 -39.733  1.00  0.00     0.164 C 
BRANCH  20  21
HETATM   21  C   UNL     1      -5.987 -16.900 -40.715  1.00  0.00    -0.040 A 
HETATM   22  C   UNL     1      -7.003 -15.953 -40.512  1.00  0.00     0.009 A 
HETATM   23  C   UNL     1      -8.031 -15.804 -41.444  1.00  0.00     0.001 A 
HETATM   24  C   UNL     1      -8.055 -16.595 -42.592  1.00  0.00     0.000 A 
HETATM   25  C   UNL     1      -7.052 -17.535 -42.808  1.00  0.00     0.001 A 
HETATM   26  C   UNL     1      -6.021 -17.684 -41.878  1.00  0.00     0.009 A 
ENDBRANCH  20  21
ENDBRANCH   1  20
BRANCH   1  27
HETATM   27  C   UNL     1      -2.954 -15.505 -40.399  1.00  0.00     0.164 C 
BRANCH  27  28
HETATM   28  C   UNL     1      -3.233 -15.458 -41.881  1.00  0.00    -0.040 A 
HETATM   29  C   UNL     1      -2.633 -16.375 -42.757  1.00  0.00     0.009 A 
HETATM   30  C   UNL     1      -2.919 -16.345 -44.122  1.00  0.00     0.001 A 
HETATM   31  C   UNL     1      -3.813 -15.403 -44.627  1.00  0.00     0.000 A 
HETATM   32  C   UNL     1      -4.424 -14.492 -43.768  1.00  0.00     0.001 A 
HETATM   33  C   UNL     1      -4.140 -14.522 -42.402  1.00  0.00     0.009 A 
ENDBRANCH  27  28
ENDBRANCH   1  27
TORSDOF 7
ENDMDL
