MODEL 1
REMARK VINA RESULT:      -8.5      0.000      0.000
REMARK  5 active torsions:
REMARK  status: ('A' for Active; 'I' for Inactive)
REMARK    1  A    between atoms: C_8  and  C_9 
REMARK    2  A    between atoms: N_10  and  N_11 
REMARK       I    between atoms: N_11  and  C_12 
REMARK    3  A    between atoms: C_12  and  C_13 
REMARK    4  A    between atoms: C_13  and  O_14 
REMARK    5  A    between atoms: O_14  and  C_15 
ROOT
HETATM    1  N   UNL     1      -8.512   1.526 -32.550  1.00  0.00    -0.246 N 
HETATM    2  C   UNL     1      -9.853   1.223 -32.751  1.00  0.00     0.261 C 
HETATM    3  O   UNL     1     -10.316   0.118 -33.025  1.00  0.00    -0.269 OA
HETATM    4  H   UNL     1      -8.306   2.415 -32.093  1.00  0.00     0.192 HD
ENDROOT
BRANCH   1   5
HETATM    5  N   UNL     1      -7.463   0.640 -32.546  1.00  0.00    -0.184 NA
HETATM    6  C   UNL     1      -6.947   0.273 -33.676  1.00  0.00     0.152 C 
BRANCH   6   7
HETATM    7  C   UNL     1      -5.856  -0.683 -33.692  1.00  0.00     0.011 A 
HETATM    8  C   UNL     1      -5.922  -2.054 -34.102  1.00  0.00     0.004 A 
HETATM    9  C   UNL     1      -6.958  -2.891 -34.572  1.00  0.00     0.014 A 
HETATM   10  C   UNL     1      -4.643  -2.594 -33.968  1.00  0.00     0.043 A 
HETATM   11  C   UNL     1      -6.677  -4.224 -34.891  1.00  0.00     0.001 A 
HETATM   12  C   UNL     1      -5.389  -4.731 -34.750  1.00  0.00     0.002 A 
HETATM   13  C   UNL     1      -4.345  -3.925 -34.285  1.00  0.00     0.030 A 
HETATM   14  N   UNL     1      -3.829  -1.593 -33.490  1.00  0.00    -0.364 N 
HETATM   15  H   UNL     1      -2.843  -1.700 -33.296  1.00  0.00     0.165 HD
HETATM   16  C   UNL     1      -4.548  -0.441 -33.317  1.00  0.00     0.102 A 
ENDBRANCH   6   7
ENDBRANCH   1   5
BRANCH   2  17
HETATM   17  C   UNL     1     -10.760   2.452 -32.685  1.00  0.00     0.280 C 
BRANCH  17  18
HETATM   18  O   UNL     1     -11.814   2.389 -33.640  1.00  0.00    -0.340 OA
BRANCH  18  19
HETATM   19  C   UNL     1     -13.092   2.545 -33.166  1.00  0.00     0.092 A 
HETATM   20  C   UNL     1     -13.978   1.471 -33.356  1.00  0.00     0.069 A 
HETATM   21 CL   UNL     1     -13.477   0.032 -34.171  1.00  0.00    -0.081 Cl
HETATM   22  C   UNL     1     -15.296   1.542 -32.897  1.00  0.00     0.052 A 
HETATM   23  C   UNL     1     -15.742   2.684 -32.232  1.00  0.00     0.057 A 
HETATM   24 CL   UNL     1     -17.382   2.712 -31.690  1.00  0.00    -0.082 Cl
HETATM   25  C   UNL     1     -14.866   3.754 -32.025  1.00  0.00     0.058 A 
HETATM   26 CL   UNL     1     -15.344   5.194 -31.197  1.00  0.00    -0.082 Cl
HETATM   27  C   UNL     1     -13.545   3.683 -32.489  1.00  0.00     0.064 A 
ENDBRANCH  18  19
ENDBRANCH  17  18
ENDBRANCH   2  17
TORSDOF 5
ENDMDL
MODEL 2
REMARK VINA RESULT:      -8.4      8.319     10.473
REMARK  5 active torsions:
REMARK  status: ('A' for Active; 'I' for Inactive)
REMARK    1  A    between atoms: C_8  and  C_9 
REMARK    2  A    between atoms: N_10  and  N_11 
REMARK       I    between atoms: N_11  and  C_12 
REMARK    3  A    between atoms: C_12  and  C_13 
REMARK    4  A    between atoms: C_13  and  O_14 
REMARK    5  A    between atoms: O_14  and  C_15 
ROOT
HETATM    1  N   UNL     1      -3.379   3.406 -31.213  1.00  0.00    -0.246 N 
HETATM    2  C   UNL     1      -2.543   4.491 -31.448  1.00  0.00     0.261 C 
HETATM    3  O   UNL     1      -1.444   4.457 -31.998  1.00  0.00    -0.269 OA
HETATM    4  H   UNL     1      -4.348   3.618 -30.977  1.00  0.00     0.192 HD
ENDROOT
BRANCH   1   5
HETATM    5  N   UNL     1      -3.173   2.110 -31.616  1.00  0.00    -0.184 NA
HETATM    6  C   UNL     1      -4.194   1.325 -31.753  1.00  0.00     0.152 C 
BRANCH   6   7
HETATM    7  C   UNL     1      -3.992  -0.055 -32.152  1.00  0.00     0.011 A 
HETATM    8  C   UNL     1      -4.741  -0.782 -33.133  1.00  0.00     0.004 A 
HETATM    9  C   UNL     1      -5.837  -0.467 -33.967  1.00  0.00     0.014 A 
HETATM   10  C   UNL     1      -4.201  -2.067 -33.205  1.00  0.00     0.043 A 
HETATM   11  C   UNL     1      -6.345  -1.439 -34.836  1.00  0.00     0.001 A 
HETATM   12  C   UNL     1      -5.780  -2.710 -34.887  1.00  0.00     0.002 A 
HETATM   13  C   UNL     1      -4.697  -3.050 -34.071  1.00  0.00     0.030 A 
HETATM   14  N   UNL     1      -3.167  -2.123 -32.300  1.00  0.00    -0.364 N 
HETATM   15  H   UNL     1      -2.593  -2.937 -32.136  1.00  0.00     0.165 HD
HETATM   16  C   UNL     1      -3.035  -0.921 -31.658  1.00  0.00     0.102 A 
ENDBRANCH   6   7
ENDBRANCH   1   5
BRANCH   2  17
HETATM   17  C   UNL     1      -3.079   5.797 -30.864  1.00  0.00     0.280 C 
BRANCH  17  18
HETATM   18  O   UNL     1      -2.094   6.825 -30.862  1.00  0.00    -0.340 OA
BRANCH  18  19
HETATM   19  C   UNL     1      -1.391   7.009 -29.697  1.00  0.00     0.092 A 
HETATM   20  C   UNL     1       0.008   7.081 -29.801  1.00  0.00     0.069 A 
HETATM   21 CL   UNL     1       0.800   6.923 -31.329  1.00  0.00    -0.081 Cl
HETATM   22  C   UNL     1       0.801   7.274 -28.667  1.00  0.00     0.052 A 
HETATM   23  C   UNL     1       0.203   7.408 -27.414  1.00  0.00     0.057 A 
HETATM   24 CL   UNL     1       1.235   7.644 -26.049  1.00  0.00    -0.082 Cl
HETATM   25  C   UNL     1      -1.190   7.351 -27.299  1.00  0.00     0.058 A 
HETATM   26 CL   UNL     1      -2.001   7.523 -25.782  1.00  0.00    -0.082 Cl
HETATM   27  C   UNL     1      -1.983   7.154 -28.437  1.00  0.00     0.064 A 
ENDBRANCH  18  19
ENDBRANCH  17  18
ENDBRANCH   2  17
TORSDOF 5
ENDMDL
MODEL 3
REMARK VINA RESULT:      -8.4      1.449      2.265
REMARK  5 active torsions:
REMARK  status: ('A' for Active; 'I' for Inactive)
REMARK    1  A    between atoms: C_8  and  C_9 
REMARK    2  A    between atoms: N_10  and  N_11 
REMARK       I    between atoms: N_11  and  C_12 
REMARK    3  A    between atoms: C_12  and  C_13 
REMARK    4  A    between atoms: C_13  and  O_14 
REMARK    5  A    between atoms: O_14  and  C_15 
ROOT
HETATM    1  N   UNL     1      -8.800   1.124 -34.929  1.00  0.00    -0.246 N 
HETATM    2  C   UNL     1      -9.009   2.295 -34.210  1.00  0.00     0.261 C 
HETATM    3  O   UNL     1      -8.236   2.797 -33.397  1.00  0.00    -0.269 OA
HETATM    4  H   UNL     1      -9.406   0.967 -35.734  1.00  0.00     0.192 HD
ENDROOT
BRANCH   1   5
HETATM    5  N   UNL     1      -7.667   0.348 -34.921  1.00  0.00    -0.184 NA
HETATM    6  C   UNL     1      -7.279  -0.184 -33.806  1.00  0.00     0.152 C 
BRANCH   6   7
HETATM    7  C   UNL     1      -6.069  -0.985 -33.774  1.00  0.00     0.011 A 
HETATM    8  C   UNL     1      -5.938  -2.356 -34.168  1.00  0.00     0.004 A 
HETATM    9  C   UNL     1      -6.835  -3.328 -34.661  1.00  0.00     0.014 A 
HETATM   10  C   UNL     1      -4.603  -2.718 -33.984  1.00  0.00     0.043 A 
HETATM   11  C   UNL     1      -6.368  -4.615 -34.952  1.00  0.00     0.001 A 
HETATM   12  C   UNL     1      -5.029  -4.943 -34.762  1.00  0.00     0.002 A 
HETATM   13  C   UNL     1      -4.119  -4.000 -34.273  1.00  0.00     0.030 A 
HETATM   14  N   UNL     1      -3.947  -1.613 -33.493  1.00  0.00    -0.364 N 
HETATM   15  H   UNL     1      -2.964  -1.585 -33.264  1.00  0.00     0.165 HD
HETATM   16  C   UNL     1      -4.819  -0.567 -33.358  1.00  0.00     0.102 A 
ENDBRANCH   6   7
ENDBRANCH   1   5
BRANCH   2  17
HETATM   17  C   UNL     1     -10.385   2.911 -34.457  1.00  0.00     0.280 C 
BRANCH  17  18
HETATM   18  O   UNL     1     -10.965   3.418 -33.259  1.00  0.00    -0.340 OA
BRANCH  18  19
HETATM   19  C   UNL     1     -12.274   3.086 -33.015  1.00  0.00     0.092 A 
HETATM   20  C   UNL     1     -12.925   3.780 -31.981  1.00  0.00     0.069 A 
HETATM   21 CL   UNL     1     -12.099   4.980 -31.051  1.00  0.00    -0.081 Cl
HETATM   22  C   UNL     1     -14.260   3.511 -31.669  1.00  0.00     0.052 A 
HETATM   23  C   UNL     1     -14.966   2.551 -32.395  1.00  0.00     0.057 A 
HETATM   24 CL   UNL     1     -16.613   2.263 -31.963  1.00  0.00    -0.082 Cl
HETATM   25  C   UNL     1     -14.333   1.864 -33.435  1.00  0.00     0.058 A 
HETATM   26 CL   UNL     1     -15.147   0.672 -34.387  1.00  0.00    -0.082 Cl
HETATM   27  C   UNL     1     -12.992   2.132 -33.744  1.00  0.00     0.064 A 
ENDBRANCH  18  19
ENDBRANCH  17  18
ENDBRANCH   2  17
TORSDOF 5
ENDMDL
MODEL 4
REMARK VINA RESULT:      -8.1      6.077      9.686
REMARK  5 active torsions:
REMARK  status: ('A' for Active; 'I' for Inactive)
REMARK    1  A    between atoms: C_8  and  C_9 
REMARK    2  A    between atoms: N_10  and  N_11 
REMARK       I    between atoms: N_11  and  C_12 
REMARK    3  A    between atoms: C_12  and  C_13 
REMARK    4  A    between atoms: C_13  and  O_14 
REMARK    5  A    between atoms: O_14  and  C_15 
ROOT
HETATM    1  N   UNL     1      -5.960   2.810 -32.495  1.00  0.00    -0.246 N 
HETATM    2  C   UNL     1      -6.725   1.771 -31.980  1.00  0.00     0.261 C 
HETATM    3  O   UNL     1      -6.998   1.586 -30.796  1.00  0.00    -0.269 OA
HETATM    4  H   UNL     1      -6.025   2.972 -33.500  1.00  0.00     0.192 HD
ENDROOT
BRANCH   1   5
HETATM    5  N   UNL     1      -5.429   3.863 -31.792  1.00  0.00    -0.184 NA
HETATM    6  C   UNL     1      -4.166   4.124 -31.912  1.00  0.00     0.152 C 
BRANCH   6   7
HETATM    7  C   UNL     1      -3.582   5.217 -31.156  1.00  0.00     0.011 A 
HETATM    8  C   UNL     1      -2.198   5.583 -31.108  1.00  0.00     0.004 A 
HETATM    9  C   UNL     1      -1.023   5.066 -31.695  1.00  0.00     0.014 A 
HETATM   10  C   UNL     1      -2.088   6.695 -30.272  1.00  0.00     0.043 A 
HETATM   11  C   UNL     1       0.208   5.677 -31.430  1.00  0.00     0.001 A 
HETATM   12  C   UNL     1       0.283   6.788 -30.596  1.00  0.00     0.002 A 
HETATM   13  C   UNL     1      -0.865   7.319 -29.999  1.00  0.00     0.030 A 
HETATM   14  N   UNL     1      -3.354   6.993 -29.825  1.00  0.00    -0.364 N 
HETATM   15  H   UNL     1      -3.577   7.754 -29.200  1.00  0.00     0.165 HD
HETATM   16  C   UNL     1      -4.260   6.109 -30.347  1.00  0.00     0.102 A 
ENDBRANCH   6   7
ENDBRANCH   1   5
BRANCH   2  17
HETATM   17  C   UNL     1      -7.162   0.765 -33.044  1.00  0.00     0.280 C 
BRANCH  17  18
HETATM   18  O   UNL     1      -6.130   0.506 -33.990  1.00  0.00    -0.340 OA
BRANCH  18  19
HETATM   19  C   UNL     1      -5.637  -0.774 -34.037  1.00  0.00     0.092 A 
HETATM   20  C   UNL     1      -4.400  -1.004 -33.413  1.00  0.00     0.069 A 
HETATM   21 CL   UNL     1      -3.535   0.278 -32.642  1.00  0.00    -0.081 Cl
HETATM   22  C   UNL     1      -3.828  -2.279 -33.406  1.00  0.00     0.052 A 
HETATM   23  C   UNL     1      -4.493  -3.344 -34.015  1.00  0.00     0.057 A 
HETATM   24 CL   UNL     1      -3.737  -4.896 -33.975  1.00  0.00    -0.082 Cl
HETATM   25  C   UNL     1      -5.731  -3.130 -34.628  1.00  0.00     0.058 A 
HETATM   26 CL   UNL     1      -6.619  -4.403 -35.390  1.00  0.00    -0.082 Cl
HETATM   27  C   UNL     1      -6.302  -1.850 -34.637  1.00  0.00     0.064 A 
ENDBRANCH  18  19
ENDBRANCH  17  18
ENDBRANCH   2  17
TORSDOF 5
ENDMDL
MODEL 5
REMARK VINA RESULT:      -8.1      6.097      7.941
REMARK  5 active torsions:
REMARK  status: ('A' for Active; 'I' for Inactive)
REMARK    1  A    between atoms: C_8  and  C_9 
REMARK    2  A    between atoms: N_10  and  N_11 
REMARK       I    between atoms: N_11  and  C_12 
REMARK    3  A    between atoms: C_12  and  C_13 
REMARK    4  A    between atoms: C_13  and  O_14 
REMARK    5  A    between atoms: O_14  and  C_15 
ROOT
HETATM    1  N   UNL     1      -4.722   1.230 -30.620  1.00  0.00    -0.246 N 
HETATM    2  C   UNL     1      -5.735   2.167 -30.782  1.00  0.00     0.261 C 
HETATM    3  O   UNL     1      -6.775   2.012 -31.420  1.00  0.00    -0.269 OA
HETATM    4  H   UNL     1      -4.050   1.407 -29.874  1.00  0.00     0.192 HD
ENDROOT
BRANCH   1   5
HETATM    5  N   UNL     1      -4.724  -0.066 -31.076  1.00  0.00    -0.184 NA
HETATM    6  C   UNL     1      -3.730  -0.478 -31.796  1.00  0.00     0.152 C 
BRANCH   6   7
HETATM    7  C   UNL     1      -3.727  -1.836 -32.308  1.00  0.00     0.011 A 
HETATM    8  C   UNL     1      -4.576  -2.368 -33.332  1.00  0.00     0.004 A 
HETATM    9  C   UNL     1      -5.620  -1.835 -34.118  1.00  0.00     0.014 A 
HETATM   10  C   UNL     1      -4.222  -3.705 -33.515  1.00  0.00     0.043 A 
HETATM   11  C   UNL     1      -6.265  -2.653 -35.054  1.00  0.00     0.001 A 
HETATM   12  C   UNL     1      -5.885  -3.981 -35.216  1.00  0.00     0.002 A 
HETATM   13  C   UNL     1      -4.856  -4.535 -34.449  1.00  0.00     0.030 A 
HETATM   14  N   UNL     1      -3.201  -3.979 -32.635  1.00  0.00    -0.364 N 
HETATM   15  H   UNL     1      -2.746  -4.877 -32.547  1.00  0.00     0.165 HD
HETATM   16  C   UNL     1      -2.897  -2.864 -31.902  1.00  0.00     0.102 A 
ENDBRANCH   6   7
ENDBRANCH   1   5
BRANCH   2  17
HETATM   17  C   UNL     1      -5.410   3.516 -30.142  1.00  0.00     0.280 C 
BRANCH  17  18
HETATM   18  O   UNL     1      -5.490   4.585 -31.079  1.00  0.00    -0.340 OA
BRANCH  18  19
HETATM   19  C   UNL     1      -4.425   4.745 -31.930  1.00  0.00     0.092 A 
HETATM   20  C   UNL     1      -4.714   4.844 -33.301  1.00  0.00     0.069 A 
HETATM   21 CL   UNL     1      -6.339   4.745 -33.882  1.00  0.00    -0.081 Cl
HETATM   22  C   UNL     1      -3.690   5.015 -34.238  1.00  0.00     0.052 A 
HETATM   23  C   UNL     1      -2.365   5.101 -33.813  1.00  0.00     0.057 A 
HETATM   24 CL   UNL     1      -1.144   5.312 -35.016  1.00  0.00    -0.082 Cl
HETATM   25  C   UNL     1      -2.066   5.018 -32.449  1.00  0.00     0.058 A 
HETATM   26 CL   UNL     1      -0.449   5.130 -31.848  1.00  0.00    -0.082 Cl
HETATM   27  C   UNL     1      -3.093   4.842 -31.512  1.00  0.00     0.064 A 
ENDBRANCH  18  19
ENDBRANCH  17  18
ENDBRANCH   2  17
TORSDOF 5
ENDMDL
MODEL 6
REMARK VINA RESULT:      -8.1      1.803      2.194
REMARK  5 active torsions:
REMARK  status: ('A' for Active; 'I' for Inactive)
REMARK    1  A    between atoms: C_8  and  C_9 
REMARK    2  A    between atoms: N_10  and  N_11 
REMARK       I    between atoms: N_11  and  C_12 
REMARK    3  A    between atoms: C_12  and  C_13 
REMARK    4  A    between atoms: C_13  and  O_14 
REMARK    5  A    between atoms: O_14  and  C_15 
ROOT
HETATM    1  N   UNL     1      -8.940   1.889 -31.634  1.00  0.00    -0.246 N 
HETATM    2  C   UNL     1      -9.101   3.002 -30.818  1.00  0.00     0.261 C 
HETATM    3  O   UNL     1      -8.251   3.490 -30.076  1.00  0.00    -0.269 OA
HETATM    4  H   UNL     1      -9.637   1.753 -32.365  1.00  0.00     0.192 HD
ENDROOT
BRANCH   1   5
HETATM    5  N   UNL     1      -7.784   1.171 -31.821  1.00  0.00    -0.184 NA
HETATM    6  C   UNL     1      -7.491   0.753 -33.012  1.00  0.00     0.152 C 
BRANCH   6   7
HETATM    7  C   UNL     1      -6.288  -0.028 -33.224  1.00  0.00     0.011 A 
HETATM    8  C   UNL     1      -6.206  -1.340 -33.794  1.00  0.00     0.004 A 
HETATM    9  C   UNL     1      -7.159  -2.259 -34.287  1.00  0.00     0.014 A 
HETATM   10  C   UNL     1      -4.859  -1.703 -33.820  1.00  0.00     0.043 A 
HETATM   11  C   UNL     1      -6.732  -3.495 -34.787  1.00  0.00     0.001 A 
HETATM   12  C   UNL     1      -5.379  -3.824 -34.803  1.00  0.00     0.002 A 
HETATM   13  C   UNL     1      -4.416  -2.934 -34.319  1.00  0.00     0.030 A 
HETATM   14  N   UNL     1      -4.147  -0.656 -33.283  1.00  0.00    -0.364 N 
HETATM   15  H   UNL     1      -3.143  -0.642 -33.174  1.00  0.00     0.165 HD
HETATM   16  C   UNL     1      -4.996   0.355 -32.918  1.00  0.00     0.102 A 
ENDBRANCH   6   7
ENDBRANCH   1   5
BRANCH   2  17
HETATM   17  C   UNL     1     -10.522   3.564 -30.846  1.00  0.00     0.280 C 
BRANCH  17  18
HETATM   18  O   UNL     1     -10.947   3.873 -32.169  1.00  0.00    -0.340 OA
BRANCH  18  19
HETATM   19  C   UNL     1     -12.004   3.153 -32.666  1.00  0.00     0.092 A 
HETATM   20  C   UNL     1     -11.773   2.402 -33.830  1.00  0.00     0.069 A 
HETATM   21 CL   UNL     1     -10.229   2.409 -34.606  1.00  0.00    -0.081 Cl
HETATM   22  C   UNL     1     -12.791   1.633 -34.400  1.00  0.00     0.052 A 
HETATM   23  C   UNL     1     -14.053   1.597 -33.805  1.00  0.00     0.057 A 
HETATM   24 CL   UNL     1     -15.271   0.630 -34.556  1.00  0.00    -0.082 Cl
HETATM   25  C   UNL     1     -14.292   2.330 -32.639  1.00  0.00     0.058 A 
HETATM   26 CL   UNL     1     -15.824   2.322 -31.839  1.00  0.00    -0.082 Cl
HETATM   27  C   UNL     1     -13.270   3.103 -32.071  1.00  0.00     0.064 A 
ENDBRANCH  18  19
ENDBRANCH  17  18
ENDBRANCH   2  17
TORSDOF 5
ENDMDL
MODEL 7
REMARK VINA RESULT:      -8.0      3.835      8.946
REMARK  5 active torsions:
REMARK  status: ('A' for Active; 'I' for Inactive)
REMARK    1  A    between atoms: C_8  and  C_9 
REMARK    2  A    between atoms: N_10  and  N_11 
REMARK       I    between atoms: N_11  and  C_12 
REMARK    3  A    between atoms: C_12  and  C_13 
REMARK    4  A    between atoms: C_13  and  O_14 
REMARK    5  A    between atoms: O_14  and  C_15 
ROOT
HETATM    1  N   UNL     1      -7.460   1.917 -32.448  1.00  0.00    -0.246 N 
HETATM    2  C   UNL     1      -6.538   1.536 -31.481  1.00  0.00     0.261 C 
HETATM    3  O   UNL     1      -6.689   1.608 -30.263  1.00  0.00    -0.269 OA
HETATM    4  H   UNL     1      -7.300   1.573 -33.395  1.00  0.00     0.192 HD
ENDROOT
BRANCH   1   5
HETATM    5  N   UNL     1      -8.737   2.374 -32.229  1.00  0.00    -0.184 NA
HETATM    6  C   UNL     1      -9.670   2.056 -33.068  1.00  0.00     0.152 C 
BRANCH   6   7
HETATM    7  C   UNL     1     -11.019   2.552 -32.866  1.00  0.00     0.011 A 
HETATM    8  C   UNL     1     -12.239   1.886 -33.212  1.00  0.00     0.004 A 
HETATM    9  C   UNL     1     -12.545   0.650 -33.823  1.00  0.00     0.014 A 
HETATM   10  C   UNL     1     -13.293   2.716 -32.831  1.00  0.00     0.043 A 
HETATM   11  C   UNL     1     -13.883   0.292 -34.024  1.00  0.00     0.001 A 
HETATM   12  C   UNL     1     -14.911   1.141 -33.627  1.00  0.00     0.002 A 
HETATM   13  C   UNL     1     -14.637   2.371 -33.022  1.00  0.00     0.030 A 
HETATM   14  N   UNL     1     -12.738   3.847 -32.277  1.00  0.00    -0.364 N 
HETATM   15  H   UNL     1     -13.268   4.625 -31.913  1.00  0.00     0.165 HD
HETATM   16  C   UNL     1     -11.372   3.761 -32.297  1.00  0.00     0.102 A 
ENDBRANCH   6   7
ENDBRANCH   1   5
BRANCH   2  17
HETATM   17  C   UNL     1      -5.209   1.068 -32.073  1.00  0.00     0.280 C 
BRANCH  17  18
HETATM   18  O   UNL     1      -5.318   0.770 -33.461  1.00  0.00    -0.340 OA
BRANCH  18  19
HETATM   19  C   UNL     1      -5.379  -0.556 -33.808  1.00  0.00     0.092 A 
HETATM   20  C   UNL     1      -6.394  -0.936 -34.700  1.00  0.00     0.069 A 
HETATM   21 CL   UNL     1      -7.527   0.219 -35.311  1.00  0.00    -0.081 Cl
HETATM   22  C   UNL     1      -6.524  -2.265 -35.113  1.00  0.00     0.052 A 
HETATM   23  C   UNL     1      -5.631  -3.230 -34.646  1.00  0.00     0.057 A 
HETATM   24 CL   UNL     1      -5.843  -4.855 -35.191  1.00  0.00    -0.082 Cl
HETATM   25  C   UNL     1      -4.608  -2.861 -33.768  1.00  0.00     0.058 A 
HETATM   26 CL   UNL     1      -3.457  -3.999 -33.160  1.00  0.00    -0.082 Cl
HETATM   27  C   UNL     1      -4.481  -1.529 -33.353  1.00  0.00     0.064 A 
ENDBRANCH  18  19
ENDBRANCH  17  18
ENDBRANCH   2  17
TORSDOF 5
ENDMDL
MODEL 8
REMARK VINA RESULT:      -7.8      8.364     10.662
REMARK  5 active torsions:
REMARK  status: ('A' for Active; 'I' for Inactive)
REMARK    1  A    between atoms: C_8  and  C_9 
REMARK    2  A    between atoms: N_10  and  N_11 
REMARK       I    between atoms: N_11  and  C_12 
REMARK    3  A    between atoms: C_12  and  C_13 
REMARK    4  A    between atoms: C_13  and  O_14 
REMARK    5  A    between atoms: O_14  and  C_15 
ROOT
HETATM    1  N   UNL     1      -2.847   3.904 -31.309  1.00  0.00    -0.246 N 
HETATM    2  C   UNL     1      -1.887   4.508 -32.111  1.00  0.00     0.261 C 
HETATM    3  O   UNL     1      -1.895   4.565 -33.339  1.00  0.00    -0.269 OA
HETATM    4  H   UNL     1      -2.836   4.148 -30.319  1.00  0.00     0.192 HD
ENDROOT
BRANCH   1   5
HETATM    5  N   UNL     1      -4.018   3.322 -31.729  1.00  0.00    -0.184 NA
HETATM    6  C   UNL     1      -4.014   2.070 -32.057  1.00  0.00     0.152 C 
BRANCH   6   7
HETATM    7  C   UNL     1      -5.236   1.445 -32.528  1.00  0.00     0.011 A 
HETATM    8  C   UNL     1      -5.358   0.161 -33.151  1.00  0.00     0.004 A 
HETATM    9  C   UNL     1      -4.439  -0.848 -33.512  1.00  0.00     0.014 A 
HETATM   10  C   UNL     1      -6.710  -0.042 -33.429  1.00  0.00     0.043 A 
HETATM   11  C   UNL     1      -4.903  -2.016 -34.129  1.00  0.00     0.001 A 
HETATM   12  C   UNL     1      -6.260  -2.190 -34.387  1.00  0.00     0.002 A 
HETATM   13  C   UNL     1      -7.191  -1.206 -34.042  1.00  0.00     0.030 A 
HETATM   14  N   UNL     1      -7.386   1.075 -32.995  1.00  0.00    -0.364 N 
HETATM   15  H   UNL     1      -8.385   1.205 -33.070  1.00  0.00     0.165 HD
HETATM   16  C   UNL     1      -6.510   1.978 -32.456  1.00  0.00     0.102 A 
ENDBRANCH   6   7
ENDBRANCH   1   5
BRANCH   2  17
HETATM   17  C   UNL     1      -0.704   5.061 -31.316  1.00  0.00     0.280 C 
BRANCH  17  18
HETATM   18  O   UNL     1      -0.509   6.452 -31.548  1.00  0.00    -0.340 OA
BRANCH  18  19
HETATM   19  C   UNL     1      -0.540   7.275 -30.450  1.00  0.00     0.092 A 
HETATM   20  C   UNL     1      -1.666   8.102 -30.305  1.00  0.00     0.069 A 
HETATM   21 CL   UNL     1      -2.939   8.093 -31.474  1.00  0.00    -0.081 Cl
HETATM   22  C   UNL     1      -1.783   8.966 -29.213  1.00  0.00     0.052 A 
HETATM   23  C   UNL     1      -0.780   9.005 -28.245  1.00  0.00     0.057 A 
HETATM   24 CL   UNL     1      -0.981  10.093 -26.918  1.00  0.00    -0.082 Cl
HETATM   25  C   UNL     1       0.339   8.176 -28.370  1.00  0.00     0.058 A 
HETATM   26 CL   UNL     1       1.614   8.160 -27.203  1.00  0.00    -0.082 Cl
HETATM   27  C   UNL     1       0.457   7.313 -29.468  1.00  0.00     0.064 A 
ENDBRANCH  18  19
ENDBRANCH  17  18
ENDBRANCH   2  17
TORSDOF 5
ENDMDL
MODEL 9
REMARK VINA RESULT:      -7.7      7.877     10.131
REMARK  5 active torsions:
REMARK  status: ('A' for Active; 'I' for Inactive)
REMARK    1  A    between atoms: C_8  and  C_9 
REMARK    2  A    between atoms: N_10  and  N_11 
REMARK       I    between atoms: N_11  and  C_12 
REMARK    3  A    between atoms: C_12  and  C_13 
REMARK    4  A    between atoms: C_13  and  O_14 
REMARK    5  A    between atoms: O_14  and  C_15 
ROOT
HETATM    1  N   UNL     1      -4.812   3.951 -32.387  1.00  0.00    -0.246 N 
HETATM    2  C   UNL     1      -3.595   4.188 -31.760  1.00  0.00     0.261 C 
HETATM    3  O   UNL     1      -2.615   3.447 -31.769  1.00  0.00    -0.269 OA
HETATM    4  H   UNL     1      -5.433   4.752 -32.499  1.00  0.00     0.192 HD
ENDROOT
BRANCH   1   5
HETATM    5  N   UNL     1      -5.125   2.883 -33.192  1.00  0.00    -0.184 NA
HETATM    6  C   UNL     1      -6.199   2.204 -32.944  1.00  0.00     0.152 C 
BRANCH   6   7
HETATM    7  C   UNL     1      -6.531   1.057 -33.768  1.00  0.00     0.011 A 
HETATM    8  C   UNL     1      -5.849  -0.203 -33.801  1.00  0.00     0.004 A 
HETATM    9  C   UNL     1      -4.721  -0.728 -33.134  1.00  0.00     0.014 A 
HETATM   10  C   UNL     1      -6.512  -1.014 -34.723  1.00  0.00     0.043 A 
HETATM   11  C   UNL     1      -4.303  -2.035 -33.408  1.00  0.00     0.001 A 
HETATM   12  C   UNL     1      -4.989  -2.820 -34.330  1.00  0.00     0.002 A 
HETATM   13  C   UNL     1      -6.108  -2.325 -35.007  1.00  0.00     0.030 A 
HETATM   14  N   UNL     1      -7.554  -0.277 -35.235  1.00  0.00    -0.364 N 
HETATM   15  H   UNL     1      -8.207  -0.613 -35.929  1.00  0.00     0.165 HD
HETATM   16  C   UNL     1      -7.573   0.971 -34.672  1.00  0.00     0.102 A 
ENDBRANCH   6   7
ENDBRANCH   1   5
BRANCH   2  17
HETATM   17  C   UNL     1      -3.586   5.478 -30.940  1.00  0.00     0.280 C 
BRANCH  17  18
HETATM   18  O   UNL     1      -2.403   6.240 -31.156  1.00  0.00    -0.340 OA
BRANCH  18  19
HETATM   19  C   UNL     1      -1.635   6.520 -30.053  1.00  0.00     0.092 A 
HETATM   20  C   UNL     1      -0.303   6.077 -30.075  1.00  0.00     0.069 A 
HETATM   21 CL   UNL     1       0.326   5.199 -31.424  1.00  0.00    -0.081 Cl
HETATM   22  C   UNL     1       0.552   6.326 -28.997  1.00  0.00     0.052 A 
HETATM   23  C   UNL     1       0.086   7.032 -27.888  1.00  0.00     0.057 A 
HETATM   24 CL   UNL     1       1.189   7.309 -26.588  1.00  0.00    -0.082 Cl
HETATM   25  C   UNL     1      -1.234   7.490 -27.861  1.00  0.00     0.058 A 
HETATM   26 CL   UNL     1      -1.876   8.384 -26.527  1.00  0.00    -0.082 Cl
HETATM   27  C   UNL     1      -2.091   7.236 -28.941  1.00  0.00     0.064 A 
ENDBRANCH  18  19
ENDBRANCH  17  18
ENDBRANCH   2  17
TORSDOF 5
ENDMDL
MODEL 10
REMARK VINA RESULT:      -7.7      6.771      8.767
REMARK  5 active torsions:
REMARK  status: ('A' for Active; 'I' for Inactive)
REMARK    1  A    between atoms: C_8  and  C_9 
REMARK    2  A    between atoms: N_10  and  N_11 
REMARK       I    between atoms: N_11  and  C_12 
REMARK    3  A    between atoms: C_12  and  C_13 
REMARK    4  A    between atoms: C_13  and  O_14 
REMARK    5  A    between atoms: O_14  and  C_15 
ROOT
HETATM    1  N   UNL     1      -5.352   2.582 -32.145  1.00  0.00    -0.246 N 
HETATM    2  C   UNL     1      -5.856   2.914 -30.893  1.00  0.00     0.261 C 
HETATM    3  O   UNL     1      -6.686   2.275 -30.250  1.00  0.00    -0.269 OA
HETATM    4  H   UNL     1      -4.502   3.063 -32.438  1.00  0.00     0.192 HD
ENDROOT
BRANCH   1   5
HETATM    5  N   UNL     1      -5.628   1.446 -32.865  1.00  0.00    -0.184 NA
HETATM    6  C   UNL     1      -4.852   0.417 -32.736  1.00  0.00     0.152 C 
BRANCH   6   7
HETATM    7  C   UNL     1      -5.114  -0.783 -33.508  1.00  0.00     0.011 A 
HETATM    8  C   UNL     1      -4.511  -2.069 -33.326  1.00  0.00     0.004 A 
HETATM    9  C   UNL     1      -3.538  -2.582 -32.440  1.00  0.00     0.014 A 
HETATM   10  C   UNL     1      -5.063  -2.929 -34.276  1.00  0.00     0.043 A 
HETATM   11  C   UNL     1      -3.158  -3.927 -32.535  1.00  0.00     0.001 A 
HETATM   12  C   UNL     1      -3.732  -4.759 -33.491  1.00  0.00     0.002 A 
HETATM   13  C   UNL     1      -4.696  -4.277 -34.381  1.00  0.00     0.030 A 
HETATM   14  N   UNL     1      -5.964  -2.196 -35.011  1.00  0.00    -0.364 N 
HETATM   15  H   UNL     1      -6.515  -2.563 -35.774  1.00  0.00     0.165 HD
HETATM   16  C   UNL     1      -6.001  -0.903 -34.562  1.00  0.00     0.102 A 
ENDBRANCH   6   7
ENDBRANCH   1   5
BRANCH   2  17
HETATM   17  C   UNL     1      -5.335   4.254 -30.374  1.00  0.00     0.280 C 
BRANCH  17  18
HETATM   18  O   UNL     1      -4.685   5.005 -31.394  1.00  0.00    -0.340 OA
BRANCH  18  19
HETATM   19  C   UNL     1      -3.470   5.559 -31.078  1.00  0.00     0.092 A 
HETATM   20  C   UNL     1      -2.364   5.150 -31.840  1.00  0.00     0.069 A 
HETATM   21 CL   UNL     1      -2.531   3.982 -33.103  1.00  0.00    -0.081 Cl
HETATM   22  C   UNL     1      -1.091   5.670 -31.590  1.00  0.00     0.052 A 
HETATM   23  C   UNL     1      -0.910   6.616 -30.581  1.00  0.00     0.057 A 
HETATM   24 CL   UNL     1       0.686   7.221 -30.320  1.00  0.00    -0.082 Cl
HETATM   25  C   UNL     1      -2.006   7.041 -29.824  1.00  0.00     0.058 A 
HETATM   26 CL   UNL     1      -1.861   8.220 -28.568  1.00  0.00    -0.082 Cl
HETATM   27  C   UNL     1      -3.281   6.516 -30.074  1.00  0.00     0.064 A 
ENDBRANCH  18  19
ENDBRANCH  17  18
ENDBRANCH   2  17
TORSDOF 5
ENDMDL
