MODEL 1
REMARK VINA RESULT:      -9.6      0.000      0.000
REMARK  7 active torsions:
REMARK  status: ('A' for Active; 'I' for Inactive)
REMARK    1  A    between atoms: C_2  and  N_3 
REMARK    2  A    between atoms: C_11  and  C_12 
REMARK    3  A    between atoms: C_14  and  O_15 
REMARK    4  A    between atoms: C_17  and  O_18 
REMARK    5  A    between atoms: O_18  and  C_19 
REMARK    6  A    between atoms: C_19  and  C_20 
REMARK    7  A    between atoms: C_31  and  O_32 
ROOT
HETATM    1  N   UNL     1      -0.371   8.000 -26.503  1.00  0.00    -0.067 N 
HETATM    2  H   UNL     1      -0.581   8.201 -25.518  1.00  0.00     0.280 HD
HETATM    3  C   UNL     1      -1.681   8.243 -27.259  1.00  0.00     0.281 C 
HETATM    4  C   UNL     1      -1.655   7.585 -28.595  1.00  0.00     0.018 A 
HETATM    5  C   UNL     1      -0.769   6.588 -28.977  1.00  0.00    -0.024 A 
HETATM    6  C   UNL     1      -1.003   6.190 -30.331  1.00  0.00     0.057 A 
HETATM    7  C   UNL     1      -2.069   6.856 -30.878  1.00  0.00     0.087 A 
HETATM    8  N   UNL     1      -2.489   6.629 -32.137  1.00  0.00    -0.357 N 
HETATM    9  C   UNL     1      -2.047   5.388 -32.769  1.00  0.00     0.243 C 
HETATM   10  N   UNL     1      -0.748   4.840 -32.322  1.00  0.00    -0.235 NA
HETATM   11  C   UNL     1      -0.331   5.239 -31.177  1.00  0.00     0.173 C 
HETATM   12  S   UNL     1      -2.768   7.981 -29.819  1.00  0.00    -0.074 SA
HETATM   13  C   UNL     1       0.281   6.075 -28.038  1.00  0.00     0.068 C 
HETATM   14  C   UNL     1       0.012   6.522 -26.589  1.00  0.00     0.240 C 
HETATM   15  H   UNL     1      -3.411   6.949 -32.416  1.00  0.00     0.162 HD
ENDROOT
BRANCH   9  16
HETATM   16  C   UNL     1      -3.181   4.363 -32.679  1.00  0.00    -0.012 A 
HETATM   17  C   UNL     1      -4.353   4.484 -33.452  1.00  0.00     0.050 A 
HETATM   18  C   UNL     1      -5.355   3.513 -33.395  1.00  0.00     0.102 A 
HETATM   19  C   UNL     1      -5.158   2.380 -32.600  1.00  0.00     0.112 A 
HETATM   20  C   UNL     1      -4.026   2.252 -31.796  1.00  0.00     0.041 A 
HETATM   21  C   UNL     1      -3.043   3.241 -31.838  1.00  0.00     0.014 A 
BRANCH  18  22
HETATM   22  O   UNL     1      -6.513   3.572 -34.123  1.00  0.00    -0.353 OA
HETATM   23  C   UNL     1      -7.456   4.543 -33.680  1.00  0.00     0.210 C 
ENDBRANCH  18  22
BRANCH  19  24
HETATM   24  O   UNL     1      -6.171   1.414 -32.569  1.00  0.00    -0.272 OA
BRANCH  24  25
HETATM   25  C   UNL     1      -5.822   0.259 -31.903  1.00  0.00     0.300 C 
HETATM   26  O   UNL     1      -5.628   0.077 -30.713  1.00  0.00    -0.259 OA
BRANCH  25  27
HETATM   27  C   UNL     1      -5.726  -0.796 -32.917  1.00  0.00     0.061 A 
HETATM   28  C   UNL     1      -4.517  -1.463 -33.133  1.00  0.00     0.050 A 
HETATM   29 CL   UNL     1      -3.086  -1.099 -32.240  1.00  0.00    -0.083 Cl
HETATM   30  C   UNL     1      -4.452  -2.465 -34.104  1.00  0.00     0.025 A 
HETATM   31  C   UNL     1      -5.588  -2.799 -34.846  1.00  0.00     0.002 A 
HETATM   32  C   UNL     1      -6.795  -2.136 -34.618  1.00  0.00     0.001 A 
HETATM   33  C   UNL     1      -6.869  -1.133 -33.651  1.00  0.00     0.019 A 
ENDBRANCH  25  27
ENDBRANCH  24  25
ENDBRANCH  19  24
ENDBRANCH   9  16
BRANCH  11  34
HETATM   34  O   UNL     1       0.826   4.735 -30.712  1.00  0.00    -0.344 OA
HETATM   35  H   UNL     1       0.877   4.985 -29.771  1.00  0.00     0.219 HD
ENDBRANCH  11  34
BRANCH   1  36
HETATM   36  C   UNL     1       0.707   8.978 -26.925  1.00  0.00     0.231 C 
HETATM   37  C   UNL     1       2.023   8.671 -26.237  1.00  0.00     0.034 C 
ENDBRANCH   1  36
TORSDOF 7
ENDMDL
MODEL 2
REMARK VINA RESULT:      -9.0      3.565      9.080
REMARK  7 active torsions:
REMARK  status: ('A' for Active; 'I' for Inactive)
REMARK    1  A    between atoms: C_2  and  N_3 
REMARK    2  A    between atoms: C_11  and  C_12 
REMARK    3  A    between atoms: C_14  and  O_15 
REMARK    4  A    between atoms: C_17  and  O_18 
REMARK    5  A    between atoms: O_18  and  C_19 
REMARK    6  A    between atoms: C_19  and  C_20 
REMARK    7  A    between atoms: C_31  and  O_32 
ROOT
HETATM    1  N   UNL     1      -5.985  -1.716 -34.802  1.00  0.00    -0.067 N 
HETATM    2  H   UNL     1      -5.679  -2.147 -35.682  1.00  0.00     0.280 HD
HETATM    3  C   UNL     1      -6.590  -0.365 -35.196  1.00  0.00     0.281 C 
HETATM    4  C   UNL     1      -6.673   0.544 -34.019  1.00  0.00     0.018 A 
HETATM    5  C   UNL     1      -5.979   0.377 -32.829  1.00  0.00    -0.024 A 
HETATM    6  C   UNL     1      -6.302   1.416 -31.900  1.00  0.00     0.057 A 
HETATM    7  C   UNL     1      -7.169   2.330 -32.444  1.00  0.00     0.087 A 
HETATM    8  N   UNL     1      -7.597   3.408 -31.760  1.00  0.00    -0.357 N 
HETATM    9  C   UNL     1      -6.820   3.799 -30.586  1.00  0.00     0.243 C 
HETATM   10  N   UNL     1      -6.101   2.721 -29.874  1.00  0.00    -0.235 NA
HETATM   11  C   UNL     1      -5.879   1.651 -30.545  1.00  0.00     0.173 C 
HETATM   12  S   UNL     1      -7.638   1.945 -34.027  1.00  0.00    -0.074 SA
HETATM   13  C   UNL     1      -5.053  -0.783 -32.622  1.00  0.00     0.068 C 
HETATM   14  C   UNL     1      -4.734  -1.497 -33.949  1.00  0.00     0.240 C 
HETATM   15  H   UNL     1      -8.027   4.175 -32.266  1.00  0.00     0.162 HD
ENDROOT
BRANCH   9  16
HETATM   16  C   UNL     1      -5.902   4.962 -30.974  1.00  0.00    -0.012 A 
HETATM   17  C   UNL     1      -5.357   5.831 -30.007  1.00  0.00     0.050 A 
HETATM   18  C   UNL     1      -4.481   6.855 -30.373  1.00  0.00     0.102 A 
HETATM   19  C   UNL     1      -4.101   6.976 -31.712  1.00  0.00     0.112 A 
HETATM   20  C   UNL     1      -4.652   6.156 -32.695  1.00  0.00     0.041 A 
HETATM   21  C   UNL     1      -5.549   5.153 -32.324  1.00  0.00     0.014 A 
BRANCH  18  22
HETATM   22  O   UNL     1      -3.917   7.728 -29.481  1.00  0.00    -0.353 OA
HETATM   23  C   UNL     1      -3.413   7.133 -28.289  1.00  0.00     0.210 C 
ENDBRANCH  18  22
BRANCH  19  24
HETATM   24  O   UNL     1      -3.211   8.003 -32.053  1.00  0.00    -0.272 OA
BRANCH  24  25
HETATM   25  C   UNL     1      -2.079   7.567 -32.708  1.00  0.00     0.300 C 
HETATM   26  O   UNL     1      -1.776   7.667 -33.885  1.00  0.00    -0.259 OA
BRANCH  25  27
HETATM   27  C   UNL     1      -1.229   6.930 -31.697  1.00  0.00     0.061 A 
HETATM   28  C   UNL     1      -0.996   5.553 -31.731  1.00  0.00     0.050 A 
HETATM   29 CL   UNL     1      -1.679   4.529 -32.940  1.00  0.00    -0.083 Cl
HETATM   30  C   UNL     1      -0.181   4.972 -30.757  1.00  0.00     0.025 A 
HETATM   31  C   UNL     1       0.399   5.764 -29.763  1.00  0.00     0.002 A 
HETATM   32  C   UNL     1       0.171   7.141 -29.740  1.00  0.00     0.001 A 
HETATM   33  C   UNL     1      -0.642   7.730 -30.708  1.00  0.00     0.019 A 
ENDBRANCH  25  27
ENDBRANCH  24  25
ENDBRANCH  19  24
ENDBRANCH   9  16
BRANCH  11  34
HETATM   34  O   UNL     1      -5.193   0.660 -29.951  1.00  0.00    -0.344 OA
HETATM   35  H   UNL     1      -5.471  -0.167 -30.385  1.00  0.00     0.219 HD
ENDBRANCH  11  34
BRANCH   1  36
HETATM   36  C   UNL     1      -7.026  -2.641 -34.205  1.00  0.00     0.231 C 
HETATM   37  C   UNL     1      -6.881  -4.050 -34.750  1.00  0.00     0.034 C 
ENDBRANCH   1  36
TORSDOF 7
ENDMDL
MODEL 3
REMARK VINA RESULT:      -9.0      4.873      9.998
REMARK  7 active torsions:
REMARK  status: ('A' for Active; 'I' for Inactive)
REMARK    1  A    between atoms: C_2  and  N_3 
REMARK    2  A    between atoms: C_11  and  C_12 
REMARK    3  A    between atoms: C_14  and  O_15 
REMARK    4  A    between atoms: C_17  and  O_18 
REMARK    5  A    between atoms: O_18  and  C_19 
REMARK    6  A    between atoms: C_19  and  C_20 
REMARK    7  A    between atoms: C_31  and  O_32 
ROOT
HETATM    1  N   UNL     1     -14.037   2.429 -34.050  1.00  0.00    -0.067 N 
HETATM    2  H   UNL     1     -14.792   2.820 -34.625  1.00  0.00     0.280 HD
HETATM    3  C   UNL     1     -13.444   3.620 -33.290  1.00  0.00     0.281 C 
HETATM    4  C   UNL     1     -12.088   3.294 -32.765  1.00  0.00     0.018 A 
HETATM    5  C   UNL     1     -11.297   2.239 -33.194  1.00  0.00    -0.024 A 
HETATM    6  C   UNL     1     -10.064   2.199 -32.471  1.00  0.00     0.057 A 
HETATM    7  C   UNL     1      -9.964   3.238 -31.582  1.00  0.00     0.087 A 
HETATM    8  N   UNL     1      -8.880   3.416 -30.804  1.00  0.00    -0.357 N 
HETATM    9  C   UNL     1      -7.657   2.724 -31.204  1.00  0.00     0.243 C 
HETATM   10  N   UNL     1      -7.823   1.456 -31.947  1.00  0.00    -0.235 NA
HETATM   11  C   UNL     1      -8.955   1.284 -32.523  1.00  0.00     0.173 C 
HETATM   12  S   UNL     1     -11.335   4.236 -31.565  1.00  0.00    -0.074 SA
HETATM   13  C   UNL     1     -11.764   1.299 -34.265  1.00  0.00     0.068 C 
HETATM   14  C   UNL     1     -12.993   1.853 -35.009  1.00  0.00     0.240 C 
HETATM   15  H   UNL     1      -8.737   4.315 -30.353  1.00  0.00     0.162 HD
ENDROOT
BRANCH   9  16
HETATM   16  C   UNL     1      -6.749   3.719 -31.933  1.00  0.00    -0.012 A 
HETATM   17  C   UNL     1      -6.166   4.816 -31.268  1.00  0.00     0.050 A 
HETATM   18  C   UNL     1      -5.299   5.684 -31.936  1.00  0.00     0.102 A 
HETATM   19  C   UNL     1      -4.968   5.419 -33.267  1.00  0.00     0.112 A 
HETATM   20  C   UNL     1      -5.557   4.365 -33.961  1.00  0.00     0.041 A 
HETATM   21  C   UNL     1      -6.444   3.518 -33.293  1.00  0.00     0.014 A 
BRANCH  18  22
HETATM   22  O   UNL     1      -4.700   6.764 -31.344  1.00  0.00    -0.353 OA
HETATM   23  C   UNL     1      -4.089   6.502 -30.085  1.00  0.00     0.210 C 
ENDBRANCH  18  22
BRANCH  19  24
HETATM   24  O   UNL     1      -4.087   6.297 -33.912  1.00  0.00    -0.272 OA
BRANCH  24  25
HETATM   25  C   UNL     1      -2.911   5.706 -34.323  1.00  0.00     0.300 C 
HETATM   26  O   UNL     1      -2.645   5.161 -35.381  1.00  0.00    -0.259 OA
BRANCH  25  27
HETATM   27  C   UNL     1      -1.957   5.858 -33.220  1.00  0.00     0.061 A 
HETATM   28  C   UNL     1      -1.745   4.812 -32.318  1.00  0.00     0.050 A 
HETATM   29 CL   UNL     1      -2.573   3.303 -32.439  1.00  0.00    -0.083 Cl
HETATM   30  C   UNL     1      -0.830   4.981 -31.276  1.00  0.00     0.025 A 
HETATM   31  C   UNL     1      -0.132   6.184 -31.143  1.00  0.00     0.002 A 
HETATM   32  C   UNL     1      -0.341   7.222 -32.054  1.00  0.00     0.001 A 
HETATM   33  C   UNL     1      -1.253   7.062 -33.097  1.00  0.00     0.019 A 
ENDBRANCH  25  27
ENDBRANCH  24  25
ENDBRANCH  19  24
ENDBRANCH   9  16
BRANCH  11  34
HETATM   34  O   UNL     1      -9.136   0.163 -33.245  1.00  0.00    -0.344 OA
HETATM   35  H   UNL     1     -10.099   0.049 -33.340  1.00  0.00     0.219 HD
ENDBRANCH  11  34
BRANCH   1  36
HETATM   36  C   UNL     1     -14.680   1.430 -33.109  1.00  0.00     0.231 C 
HETATM   37  C   UNL     1     -15.586   2.125 -32.110  1.00  0.00     0.034 C 
ENDBRANCH   1  36
TORSDOF 7
ENDMDL
MODEL 4
REMARK VINA RESULT:      -8.9      1.891      2.438
REMARK  7 active torsions:
REMARK  status: ('A' for Active; 'I' for Inactive)
REMARK    1  A    between atoms: C_2  and  N_3 
REMARK    2  A    between atoms: C_11  and  C_12 
REMARK    3  A    between atoms: C_14  and  O_15 
REMARK    4  A    between atoms: C_17  and  O_18 
REMARK    5  A    between atoms: O_18  and  C_19 
REMARK    6  A    between atoms: C_19  and  C_20 
REMARK    7  A    between atoms: C_31  and  O_32 
ROOT
HETATM    1  N   UNL     1      -2.611   9.289 -25.156  1.00  0.00    -0.067 N 
HETATM    2  H   UNL     1      -3.285   9.606 -24.449  1.00  0.00     0.280 HD
HETATM    3  C   UNL     1      -3.212   9.696 -26.506  1.00  0.00     0.281 C 
HETATM    4  C   UNL     1      -2.583   8.933 -27.620  1.00  0.00     0.018 A 
HETATM    5  C   UNL     1      -1.846   7.767 -27.474  1.00  0.00    -0.024 A 
HETATM    6  C   UNL     1      -1.369   7.303 -28.740  1.00  0.00     0.057 A 
HETATM    7  C   UNL     1      -1.804   8.100 -29.768  1.00  0.00     0.087 A 
HETATM    8  N   UNL     1      -1.495   7.845 -31.054  1.00  0.00    -0.357 N 
HETATM    9  C   UNL     1      -1.030   6.497 -31.369  1.00  0.00     0.243 C 
HETATM   10  N   UNL     1      -0.328   5.767 -30.291  1.00  0.00    -0.235 NA
HETATM   11  C   UNL     1      -0.542   6.181 -29.097  1.00  0.00     0.173 C 
HETATM   12  S   UNL     1      -2.736   9.416 -29.244  1.00  0.00    -0.074 SA
HETATM   13  C   UNL     1      -1.611   7.156 -26.125  1.00  0.00     0.068 C 
HETATM   14  C   UNL     1      -2.540   7.764 -25.058  1.00  0.00     0.240 C 
HETATM   15  H   UNL     1      -2.029   8.299 -31.789  1.00  0.00     0.162 HD
ENDROOT
BRANCH   9  16
HETATM   16  C   UNL     1      -2.199   5.701 -31.954  1.00  0.00    -0.012 A 
HETATM   17  C   UNL     1      -3.383   6.331 -32.386  1.00  0.00     0.050 A 
HETATM   18  C   UNL     1      -4.420   5.595 -32.965  1.00  0.00     0.102 A 
HETATM   19  C   UNL     1      -4.247   4.223 -33.166  1.00  0.00     0.112 A 
HETATM   20  C   UNL     1      -3.103   3.566 -32.716  1.00  0.00     0.041 A 
HETATM   21  C   UNL     1      -2.084   4.306 -32.113  1.00  0.00     0.014 A 
BRANCH  18  22
HETATM   22  O   UNL     1      -5.591   6.149 -33.406  1.00  0.00    -0.353 OA
HETATM   23  C   UNL     1      -6.422   6.698 -32.388  1.00  0.00     0.210 C 
ENDBRANCH  18  22
BRANCH  19  24
HETATM   24  O   UNL     1      -5.295   3.508 -33.760  1.00  0.00    -0.272 OA
BRANCH  24  25
HETATM   25  C   UNL     1      -5.985   2.697 -32.884  1.00  0.00     0.300 C 
HETATM   26  O   UNL     1      -6.391   2.938 -31.759  1.00  0.00    -0.259 OA
BRANCH  25  27
HETATM   27  C   UNL     1      -6.181   1.414 -33.567  1.00  0.00     0.061 A 
HETATM   28  C   UNL     1      -5.470   0.281 -33.164  1.00  0.00     0.050 A 
HETATM   29 CL   UNL     1      -4.337   0.313 -31.863  1.00  0.00    -0.083 Cl
HETATM   30  C   UNL     1      -5.676  -0.929 -33.830  1.00  0.00     0.025 A 
HETATM   31  C   UNL     1      -6.589  -1.003 -34.885  1.00  0.00     0.002 A 
HETATM   32  C   UNL     1      -7.304   0.130 -35.276  1.00  0.00     0.001 A 
HETATM   33  C   UNL     1      -7.105   1.343 -34.617  1.00  0.00     0.019 A 
ENDBRANCH  25  27
ENDBRANCH  24  25
ENDBRANCH  19  24
ENDBRANCH   9  16
BRANCH  11  34
HETATM   34  O   UNL     1       0.044   5.521 -28.082  1.00  0.00    -0.344 OA
HETATM   35  H   UNL     1       0.915   5.937 -27.948  1.00  0.00     0.219 HD
ENDBRANCH  11  34
BRANCH   1  36
HETATM   36  C   UNL     1      -1.314  10.022 -24.879  1.00  0.00     0.231 C 
HETATM   37  C   UNL     1      -1.006  10.042 -23.394  1.00  0.00     0.034 C 
ENDBRANCH   1  36
TORSDOF 7
ENDMDL
MODEL 5
REMARK VINA RESULT:      -8.8      3.838      9.605
REMARK  7 active torsions:
REMARK  status: ('A' for Active; 'I' for Inactive)
REMARK    1  A    between atoms: C_2  and  N_3 
REMARK    2  A    between atoms: C_11  and  C_12 
REMARK    3  A    between atoms: C_14  and  O_15 
REMARK    4  A    between atoms: C_17  and  O_18 
REMARK    5  A    between atoms: O_18  and  C_19 
REMARK    6  A    between atoms: C_19  and  C_20 
REMARK    7  A    between atoms: C_31  and  O_32 
ROOT
HETATM    1  N   UNL     1      -7.854   1.091 -31.082  1.00  0.00    -0.067 N 
HETATM    2  H   UNL     1      -8.342   0.644 -30.297  1.00  0.00     0.280 HD
HETATM    3  C   UNL     1      -6.365   1.029 -30.726  1.00  0.00     0.281 C 
HETATM    4  C   UNL     1      -5.583   2.006 -31.534  1.00  0.00     0.018 A 
HETATM    5  C   UNL     1      -6.120   3.080 -32.228  1.00  0.00    -0.024 A 
HETATM    6  C   UNL     1      -5.098   3.806 -32.916  1.00  0.00     0.057 A 
HETATM    7  C   UNL     1      -3.853   3.284 -32.669  1.00  0.00     0.087 A 
HETATM    8  N   UNL     1      -2.734   3.818 -33.194  1.00  0.00    -0.357 N 
HETATM    9  C   UNL     1      -2.827   5.185 -33.700  1.00  0.00     0.243 C 
HETATM   10  N   UNL     1      -4.148   5.621 -34.201  1.00  0.00    -0.235 NA
HETATM   11  C   UNL     1      -5.159   4.950 -33.786  1.00  0.00     0.173 C 
HETATM   12  S   UNL     1      -3.889   1.917 -31.667  1.00  0.00    -0.074 SA
HETATM   13  C   UNL     1      -7.595   3.354 -32.224  1.00  0.00     0.068 C 
HETATM   14  C   UNL     1      -8.316   2.549 -31.127  1.00  0.00     0.240 C 
HETATM   15  H   UNL     1      -1.834   3.566 -32.798  1.00  0.00     0.162 HD
ENDROOT
BRANCH   9  16
HETATM   16  C   UNL     1      -2.254   6.136 -32.646  1.00  0.00    -0.012 A 
HETATM   17  C   UNL     1      -2.746   7.446 -32.483  1.00  0.00     0.050 A 
HETATM   18  C   UNL     1      -2.247   8.283 -31.482  1.00  0.00     0.102 A 
HETATM   19  C   UNL     1      -1.285   7.785 -30.599  1.00  0.00     0.112 A 
HETATM   20  C   UNL     1      -0.752   6.507 -30.759  1.00  0.00     0.041 A 
HETATM   21  C   UNL     1      -1.238   5.688 -31.780  1.00  0.00     0.014 A 
BRANCH  18  22
HETATM   22  O   UNL     1      -2.686   9.563 -31.273  1.00  0.00    -0.353 OA
HETATM   23  C   UNL     1      -3.982   9.670 -30.692  1.00  0.00     0.210 C 
ENDBRANCH  18  22
BRANCH  19  24
HETATM   24  O   UNL     1      -0.809   8.639 -29.597  1.00  0.00    -0.272 OA
BRANCH  24  25
HETATM   25  C   UNL     1      -1.236   8.305 -28.329  1.00  0.00     0.300 C 
HETATM   26  O   UNL     1      -2.311   7.858 -27.965  1.00  0.00    -0.259 OA
BRANCH  25  27
HETATM   27  C   UNL     1      -0.114   8.574 -27.424  1.00  0.00     0.061 A 
HETATM   28  C   UNL     1       0.004   9.815 -26.792  1.00  0.00     0.050 A 
HETATM   29 CL   UNL     1      -1.138  11.086 -27.027  1.00  0.00    -0.083 Cl
HETATM   30  C   UNL     1       1.081  10.046 -25.933  1.00  0.00     0.025 A 
HETATM   31  C   UNL     1       2.026   9.042 -25.707  1.00  0.00     0.002 A 
HETATM   32  C   UNL     1       1.897   7.801 -26.334  1.00  0.00     0.001 A 
HETATM   33  C   UNL     1       0.825   7.562 -27.194  1.00  0.00     0.019 A 
ENDBRANCH  25  27
ENDBRANCH  24  25
ENDBRANCH  19  24
ENDBRANCH   9  16
BRANCH  11  34
HETATM   34  O   UNL     1      -6.384   5.337 -34.183  1.00  0.00    -0.344 OA
HETATM   35  H   UNL     1      -6.303   5.591 -35.120  1.00  0.00     0.219 HD
ENDBRANCH  11  34
BRANCH   1  36
HETATM   36  C   UNL     1      -8.168   0.269 -32.314  1.00  0.00     0.231 C 
HETATM   37  C   UNL     1      -9.654   0.285 -32.617  1.00  0.00     0.034 C 
ENDBRANCH   1  36
TORSDOF 7
ENDMDL
MODEL 6
REMARK VINA RESULT:      -8.7      3.705      9.316
REMARK  7 active torsions:
REMARK  status: ('A' for Active; 'I' for Inactive)
REMARK    1  A    between atoms: C_2  and  N_3 
REMARK    2  A    between atoms: C_11  and  C_12 
REMARK    3  A    between atoms: C_14  and  O_15 
REMARK    4  A    between atoms: C_17  and  O_18 
REMARK    5  A    between atoms: O_18  and  C_19 
REMARK    6  A    between atoms: C_19  and  C_20 
REMARK    7  A    between atoms: C_31  and  O_32 
ROOT
HETATM    1  N   UNL     1      -5.892  -2.217 -34.953  1.00  0.00    -0.067 N 
HETATM    2  H   UNL     1      -5.650  -2.689 -35.833  1.00  0.00     0.280 HD
HETATM    3  C   UNL     1      -6.422  -0.838 -35.360  1.00  0.00     0.281 C 
HETATM    4  C   UNL     1      -6.397   0.103 -34.206  1.00  0.00     0.018 A 
HETATM    5  C   UNL     1      -5.669  -0.080 -33.041  1.00  0.00    -0.024 A 
HETATM    6  C   UNL     1      -5.884   1.001 -32.129  1.00  0.00     0.057 A 
HETATM    7  C   UNL     1      -6.711   1.956 -32.663  1.00  0.00     0.087 A 
HETATM    8  N   UNL     1      -7.039   3.077 -31.993  1.00  0.00    -0.357 N 
HETATM    9  C   UNL     1      -6.191   3.445 -30.861  1.00  0.00     0.243 C 
HETATM   10  N   UNL     1      -5.517   2.339 -30.148  1.00  0.00    -0.235 NA
HETATM   11  C   UNL     1      -5.393   1.241 -30.798  1.00  0.00     0.173 C 
HETATM   12  S   UNL     1      -7.268   1.565 -34.215  1.00  0.00    -0.074 SA
HETATM   13  C   UNL     1      -4.812  -1.294 -32.838  1.00  0.00     0.068 C 
HETATM   14  C   UNL     1      -4.595  -2.060 -34.156  1.00  0.00     0.240 C 
HETATM   15  H   UNL     1      -7.438   3.859 -32.503  1.00  0.00     0.162 HD
ENDROOT
BRANCH   9  16
HETATM   16  C   UNL     1      -5.215   4.534 -31.316  1.00  0.00    -0.012 A 
HETATM   17  C   UNL     1      -4.072   4.233 -32.083  1.00  0.00     0.050 A 
HETATM   18  C   UNL     1      -3.221   5.244 -32.533  1.00  0.00     0.102 A 
HETATM   19  C   UNL     1      -3.546   6.575 -32.260  1.00  0.00     0.112 A 
HETATM   20  C   UNL     1      -4.649   6.902 -31.472  1.00  0.00     0.041 A 
HETATM   21  C   UNL     1      -5.479   5.882 -31.004  1.00  0.00     0.014 A 
BRANCH  18  22
HETATM   22  O   UNL     1      -2.098   5.015 -33.283  1.00  0.00    -0.353 OA
HETATM   23  C   UNL     1      -2.297   5.046 -34.692  1.00  0.00     0.210 C 
ENDBRANCH  18  22
BRANCH  19  24
HETATM   24  O   UNL     1      -2.683   7.573 -32.732  1.00  0.00    -0.272 OA
BRANCH  24  25
HETATM   25  C   UNL     1      -2.191   8.399 -31.744  1.00  0.00     0.300 C 
HETATM   26  O   UNL     1      -2.453   9.566 -31.506  1.00  0.00    -0.259 OA
BRANCH  25  27
HETATM   27  C   UNL     1      -1.248   7.597 -30.958  1.00  0.00     0.061 A 
HETATM   28  C   UNL     1      -1.452   7.402 -29.589  1.00  0.00     0.050 A 
HETATM   29 CL   UNL     1      -2.800   8.078 -28.749  1.00  0.00    -0.083 Cl
HETATM   30  C   UNL     1      -0.540   6.634 -28.864  1.00  0.00     0.025 A 
HETATM   31  C   UNL     1       0.563   6.061 -29.504  1.00  0.00     0.002 A 
HETATM   32  C   UNL     1       0.756   6.251 -30.874  1.00  0.00     0.001 A 
HETATM   33  C   UNL     1      -0.150   7.018 -31.607  1.00  0.00     0.019 A 
ENDBRANCH  25  27
ENDBRANCH  24  25
ENDBRANCH  19  24
ENDBRANCH   9  16
BRANCH  11  34
HETATM   34  O   UNL     1      -4.749   0.221 -30.204  1.00  0.00    -0.344 OA
HETATM   35  H   UNL     1      -4.322   0.589 -29.409  1.00  0.00     0.219 HD
ENDBRANCH  11  34
BRANCH   1  36
HETATM   36  C   UNL     1      -6.966  -3.055 -34.292  1.00  0.00     0.231 C 
HETATM   37  C   UNL     1      -6.879  -4.503 -34.735  1.00  0.00     0.034 C 
ENDBRANCH   1  36
TORSDOF 7
ENDMDL
MODEL 7
REMARK VINA RESULT:      -8.7      6.482      9.806
REMARK  7 active torsions:
REMARK  status: ('A' for Active; 'I' for Inactive)
REMARK    1  A    between atoms: C_2  and  N_3 
REMARK    2  A    between atoms: C_11  and  C_12 
REMARK    3  A    between atoms: C_14  and  O_15 
REMARK    4  A    between atoms: C_17  and  O_18 
REMARK    5  A    between atoms: O_18  and  C_19 
REMARK    6  A    between atoms: C_19  and  C_20 
REMARK    7  A    between atoms: C_31  and  O_32 
ROOT
HETATM    1  N   UNL     1      -3.034  -1.703 -32.706  1.00  0.00    -0.067 N 
HETATM    2  H   UNL     1      -2.092  -1.781 -33.107  1.00  0.00     0.280 HD
HETATM    3  C   UNL     1      -3.978  -1.563 -33.904  1.00  0.00     0.281 C 
HETATM    4  C   UNL     1      -5.295  -1.009 -33.482  1.00  0.00     0.018 A 
HETATM    5  C   UNL     1      -5.540  -0.356 -32.283  1.00  0.00    -0.024 A 
HETATM    6  C   UNL     1      -6.913   0.031 -32.184  1.00  0.00     0.057 A 
HETATM    7  C   UNL     1      -7.615  -0.298 -33.316  1.00  0.00     0.087 A 
HETATM    8  N   UNL     1      -8.923  -0.012 -33.458  1.00  0.00    -0.357 N 
HETATM    9  C   UNL     1      -9.481   1.000 -32.564  1.00  0.00     0.243 C 
HETATM   10  N   UNL     1      -8.843   1.139 -31.237  1.00  0.00    -0.235 NA
HETATM   11  C   UNL     1      -7.649   0.685 -31.134  1.00  0.00     0.173 C 
HETATM   12  S   UNL     1      -6.673  -1.099 -34.476  1.00  0.00    -0.074 SA
HETATM   13  C   UNL     1      -4.453  -0.149 -31.271  1.00  0.00     0.068 C 
HETATM   14  C   UNL     1      -3.061  -0.421 -31.871  1.00  0.00     0.240 C 
HETATM   15  H   UNL     1      -9.337  -0.042 -34.385  1.00  0.00     0.162 HD
ENDROOT
BRANCH   9  16
HETATM   16  C   UNL     1      -9.563   2.329 -33.320  1.00  0.00    -0.012 A 
HETATM   17  C   UNL     1      -8.480   3.230 -33.356  1.00  0.00     0.050 A 
HETATM   18  C   UNL     1      -8.554   4.414 -34.093  1.00  0.00     0.102 A 
HETATM   19  C   UNL     1      -9.701   4.673 -34.847  1.00  0.00     0.112 A 
HETATM   20  C   UNL     1     -10.802   3.819 -34.801  1.00  0.00     0.041 A 
HETATM   21  C   UNL     1     -10.730   2.652 -34.040  1.00  0.00     0.014 A 
BRANCH  18  22
HETATM   22  O   UNL     1      -7.536   5.326 -34.169  1.00  0.00    -0.353 OA
HETATM   23  C   UNL     1      -6.252   4.832 -33.802  1.00  0.00     0.210 C 
ENDBRANCH  18  22
BRANCH  19  24
HETATM   24  O   UNL     1      -9.747   5.861 -35.588  1.00  0.00    -0.272 OA
BRANCH  24  25
HETATM   25  C   UNL     1     -10.507   6.853 -35.005  1.00  0.00     0.300 C 
HETATM   26  O   UNL     1     -10.619   7.156 -33.829  1.00  0.00    -0.259 OA
BRANCH  25  27
HETATM   27  C   UNL     1     -11.198   7.547 -36.097  1.00  0.00     0.061 A 
HETATM   28  C   UNL     1     -12.569   7.364 -36.297  1.00  0.00     0.050 A 
HETATM   29 CL   UNL     1     -13.521   6.333 -35.294  1.00  0.00    -0.083 Cl
HETATM   30  C   UNL     1     -13.204   8.038 -37.343  1.00  0.00     0.025 A 
HETATM   31  C   UNL     1     -12.473   8.889 -38.176  1.00  0.00     0.002 A 
HETATM   32  C   UNL     1     -11.105   9.074 -37.965  1.00  0.00     0.001 A 
HETATM   33  C   UNL     1     -10.463   8.406 -36.923  1.00  0.00     0.019 A 
ENDBRANCH  25  27
ENDBRANCH  24  25
ENDBRANCH  19  24
ENDBRANCH   9  16
BRANCH  11  34
HETATM   34  O   UNL     1      -7.014   0.827 -29.957  1.00  0.00    -0.344 OA
HETATM   35  H   UNL     1      -6.873  -0.072 -29.609  1.00  0.00     0.219 HD
ENDBRANCH  11  34
BRANCH   1  36
HETATM   36  C   UNL     1      -3.288  -2.985 -31.941  1.00  0.00     0.231 C 
HETATM   37  C   UNL     1      -3.398  -4.170 -32.882  1.00  0.00     0.034 C 
ENDBRANCH   1  36
TORSDOF 7
ENDMDL
MODEL 8
REMARK VINA RESULT:      -8.5      3.378      9.551
REMARK  7 active torsions:
REMARK  status: ('A' for Active; 'I' for Inactive)
REMARK    1  A    between atoms: C_2  and  N_3 
REMARK    2  A    between atoms: C_11  and  C_12 
REMARK    3  A    between atoms: C_14  and  O_15 
REMARK    4  A    between atoms: C_17  and  O_18 
REMARK    5  A    between atoms: O_18  and  C_19 
REMARK    6  A    between atoms: C_19  and  C_20 
REMARK    7  A    between atoms: C_31  and  O_32 
ROOT
HETATM    1  N   UNL     1      -6.785   1.675 -33.202  1.00  0.00    -0.067 N 
HETATM    2  H   UNL     1      -7.642   1.253 -32.824  1.00  0.00     0.280 HD
HETATM    3  C   UNL     1      -5.812   1.752 -32.021  1.00  0.00     0.281 C 
HETATM    4  C   UNL     1      -4.714   2.720 -32.298  1.00  0.00     0.018 A 
HETATM    5  C   UNL     1      -4.738   3.694 -33.285  1.00  0.00    -0.024 A 
HETATM    6  C   UNL     1      -3.518   4.440 -33.295  1.00  0.00     0.057 A 
HETATM    7  C   UNL     1      -2.668   4.034 -32.298  1.00  0.00     0.087 A 
HETATM    8  N   UNL     1      -1.466   4.608 -32.101  1.00  0.00    -0.357 N 
HETATM    9  C   UNL     1      -1.253   5.922 -32.703  1.00  0.00     0.243 C 
HETATM   10  N   UNL     1      -2.010   6.218 -33.939  1.00  0.00    -0.235 NA
HETATM   11  C   UNL     1      -3.057   5.506 -34.144  1.00  0.00     0.173 C 
HETATM   12  S   UNL     1      -3.283   2.749 -31.379  1.00  0.00    -0.074 SA
HETATM   13  C   UNL     1      -5.920   3.856 -34.194  1.00  0.00     0.068 C 
HETATM   14  C   UNL     1      -7.146   3.086 -33.670  1.00  0.00     0.240 C 
HETATM   15  H   UNL     1      -0.984   4.456 -31.220  1.00  0.00     0.162 HD
ENDROOT
BRANCH   9  16
HETATM   16  C   UNL     1      -1.446   6.992 -31.625  1.00  0.00    -0.012 A 
HETATM   17  C   UNL     1      -0.823   6.896 -30.365  1.00  0.00     0.050 A 
HETATM   18  C   UNL     1      -0.969   7.905 -29.411  1.00  0.00     0.102 A 
HETATM   19  C   UNL     1      -1.699   9.050 -29.742  1.00  0.00     0.112 A 
HETATM   20  C   UNL     1      -2.357   9.156 -30.966  1.00  0.00     0.041 A 
HETATM   21  C   UNL     1      -2.229   8.129 -31.902  1.00  0.00     0.014 A 
BRANCH  18  22
HETATM   22  O   UNL     1      -0.386   7.871 -28.172  1.00  0.00    -0.353 OA
HETATM   23  C   UNL     1      -0.325   6.583 -27.569  1.00  0.00     0.210 C 
ENDBRANCH  18  22
BRANCH  19  24
HETATM   24  O   UNL     1      -1.820  10.055 -28.774  1.00  0.00    -0.272 OA
BRANCH  24  25
HETATM   25  C   UNL     1      -3.083  10.155 -28.229  1.00  0.00     0.300 C 
HETATM   26  O   UNL     1      -4.116  10.561 -28.735  1.00  0.00    -0.259 OA
BRANCH  25  27
HETATM   27  C   UNL     1      -2.989   9.650 -26.856  1.00  0.00     0.061 A 
HETATM   28  C   UNL     1      -3.439   8.365 -26.541  1.00  0.00     0.050 A 
HETATM   29 CL   UNL     1      -4.119   7.308 -27.723  1.00  0.00    -0.083 Cl
HETATM   30  C   UNL     1      -3.337   7.907 -25.226  1.00  0.00     0.025 A 
HETATM   31  C   UNL     1      -2.786   8.727 -24.237  1.00  0.00     0.002 A 
HETATM   32  C   UNL     1      -2.329  10.006 -24.560  1.00  0.00     0.001 A 
HETATM   33  C   UNL     1      -2.427  10.472 -25.871  1.00  0.00     0.019 A 
ENDBRANCH  25  27
ENDBRANCH  24  25
ENDBRANCH  19  24
ENDBRANCH   9  16
BRANCH  11  34
HETATM   34  O   UNL     1      -3.799   5.768 -35.234  1.00  0.00    -0.344 OA
HETATM   35  H   UNL     1      -4.620   5.251 -35.140  1.00  0.00     0.219 HD
ENDBRANCH  11  34
BRANCH   1  36
HETATM   36  C   UNL     1      -6.280   0.739 -34.281  1.00  0.00     0.231 C 
HETATM   37  C   UNL     1      -7.361   0.454 -35.306  1.00  0.00     0.034 C 
ENDBRANCH   1  36
TORSDOF 7
ENDMDL
MODEL 9
REMARK VINA RESULT:      -8.4      3.816      9.814
REMARK  7 active torsions:
REMARK  status: ('A' for Active; 'I' for Inactive)
REMARK    1  A    between atoms: C_2  and  N_3 
REMARK    2  A    between atoms: C_11  and  C_12 
REMARK    3  A    between atoms: C_14  and  O_15 
REMARK    4  A    between atoms: C_17  and  O_18 
REMARK    5  A    between atoms: O_18  and  C_19 
REMARK    6  A    between atoms: C_19  and  C_20 
REMARK    7  A    between atoms: C_31  and  O_32 
ROOT
HETATM    1  N   UNL     1      -8.292   1.046 -31.338  1.00  0.00    -0.067 N 
HETATM    2  H   UNL     1      -8.810   0.573 -30.589  1.00  0.00     0.280 HD
HETATM    3  C   UNL     1      -6.812   0.881 -30.979  1.00  0.00     0.281 C 
HETATM    4  C   UNL     1      -5.972   1.867 -31.714  1.00  0.00     0.018 A 
HETATM    5  C   UNL     1      -6.445   3.013 -32.336  1.00  0.00    -0.024 A 
HETATM    6  C   UNL     1      -5.379   3.729 -32.966  1.00  0.00     0.057 A 
HETATM    7  C   UNL     1      -4.167   3.126 -32.749  1.00  0.00     0.087 A 
HETATM    8  N   UNL     1      -3.016   3.634 -33.230  1.00  0.00    -0.357 N 
HETATM    9  C   UNL     1      -3.032   5.036 -33.641  1.00  0.00     0.243 C 
HETATM   10  N   UNL     1      -4.324   5.575 -34.119  1.00  0.00    -0.235 NA
HETATM   11  C   UNL     1      -5.372   4.932 -33.756  1.00  0.00     0.173 C 
HETATM   12  S   UNL     1      -4.284   1.698 -31.843  1.00  0.00    -0.074 SA
HETATM   13  C   UNL     1      -7.903   3.364 -32.321  1.00  0.00     0.068 C 
HETATM   14  C   UNL     1      -8.677   2.526 -31.286  1.00  0.00     0.240 C 
HETATM   15  H   UNL     1      -2.134   3.308 -32.847  1.00  0.00     0.162 HD
ENDROOT
BRANCH   9  16
HETATM   16  C   UNL     1      -2.419   5.881 -32.521  1.00  0.00    -0.012 A 
HETATM   17  C   UNL     1      -1.391   5.385 -31.695  1.00  0.00     0.050 A 
HETATM   18  C   UNL     1      -0.808   6.187 -30.711  1.00  0.00     0.102 A 
HETATM   19  C   UNL     1      -1.220   7.517 -30.590  1.00  0.00     0.112 A 
HETATM   20  C   UNL     1      -2.260   8.024 -31.367  1.00  0.00     0.041 A 
HETATM   21  C   UNL     1      -2.855   7.207 -32.328  1.00  0.00     0.014 A 
BRANCH  18  22
HETATM   22  O   UNL     1       0.195   5.764 -29.881  1.00  0.00    -0.353 OA
HETATM   23  C   UNL     1       1.057   4.773 -30.431  1.00  0.00     0.210 C 
ENDBRANCH  18  22
BRANCH  19  24
HETATM   24  O   UNL     1      -0.612   8.306 -29.604  1.00  0.00    -0.272 OA
BRANCH  24  25
HETATM   25  C   UNL     1      -1.115   8.102 -28.337  1.00  0.00     0.300 C 
HETATM   26  O   UNL     1      -2.203   7.670 -27.994  1.00  0.00    -0.259 OA
BRANCH  25  27
HETATM   27  C   UNL     1      -0.061   8.497 -27.398  1.00  0.00     0.061 A 
HETATM   28  C   UNL     1      -0.015   9.798 -26.891  1.00  0.00     0.050 A 
HETATM   29 CL   UNL     1      -1.174  11.002 -27.324  1.00  0.00    -0.083 Cl
HETATM   30  C   UNL     1       0.999  10.150 -25.997  1.00  0.00     0.025 A 
HETATM   31  C   UNL     1       1.954   9.206 -25.612  1.00  0.00     0.002 A 
HETATM   32  C   UNL     1       1.898   7.905 -26.116  1.00  0.00     0.001 A 
HETATM   33  C   UNL     1       0.889   7.545 -27.009  1.00  0.00     0.019 A 
ENDBRANCH  25  27
ENDBRANCH  24  25
ENDBRANCH  19  24
ENDBRANCH   9  16
BRANCH  11  34
HETATM   34  O   UNL     1      -6.571   5.409 -34.133  1.00  0.00    -0.344 OA
HETATM   35  H   UNL     1      -6.442   5.825 -35.004  1.00  0.00     0.219 HD
ENDBRANCH  11  34
BRANCH   1  36
HETATM   36  C   UNL     1      -8.638   0.328 -32.626  1.00  0.00     0.231 C 
HETATM   37  C   UNL     1     -10.131   0.365 -32.889  1.00  0.00     0.034 C 
ENDBRANCH   1  36
TORSDOF 7
ENDMDL
MODEL 10
REMARK VINA RESULT:      -8.3      2.221      3.023
REMARK  7 active torsions:
REMARK  status: ('A' for Active; 'I' for Inactive)
REMARK    1  A    between atoms: C_2  and  N_3 
REMARK    2  A    between atoms: C_11  and  C_12 
REMARK    3  A    between atoms: C_14  and  O_15 
REMARK    4  A    between atoms: C_17  and  O_18 
REMARK    5  A    between atoms: O_18  and  C_19 
REMARK    6  A    between atoms: C_19  and  C_20 
REMARK    7  A    between atoms: C_31  and  O_32 
ROOT
HETATM    1  N   UNL     1       0.104   8.527 -26.407  1.00  0.00    -0.067 N 
HETATM    2  H   UNL     1      -0.011   8.867 -25.445  1.00  0.00     0.280 HD
HETATM    3  C   UNL     1      -1.245   8.769 -27.091  1.00  0.00     0.281 C 
HETATM    4  C   UNL     1      -1.372   7.944 -28.325  1.00  0.00     0.018 A 
HETATM    5  C   UNL     1      -0.587   6.843 -28.634  1.00  0.00    -0.024 A 
HETATM    6  C   UNL     1      -0.958   6.293 -29.901  1.00  0.00     0.057 A 
HETATM    7  C   UNL     1      -2.020   6.962 -30.453  1.00  0.00     0.087 A 
HETATM    8  N   UNL     1      -2.555   6.608 -31.637  1.00  0.00    -0.357 N 
HETATM    9  C   UNL     1      -2.249   5.266 -32.127  1.00  0.00     0.243 C 
HETATM   10  N   UNL     1      -0.956   4.683 -31.706  1.00  0.00    -0.235 NA
HETATM   11  C   UNL     1      -0.421   5.194 -30.659  1.00  0.00     0.173 C 
HETATM   12  S   UNL     1      -2.554   8.263 -29.506  1.00  0.00    -0.074 SA
HETATM   13  C   UNL     1       0.500   6.376 -27.714  1.00  0.00     0.068 C 
HETATM   14  C   UNL     1       0.382   7.025 -26.322  1.00  0.00     0.240 C 
HETATM   15  H   UNL     1      -3.475   6.958 -31.887  1.00  0.00     0.162 HD
ENDROOT
BRANCH   9  16
HETATM   16  C   UNL     1      -3.436   4.350 -31.818  1.00  0.00    -0.012 A 
HETATM   17  C   UNL     1      -3.664   3.161 -32.540  1.00  0.00     0.050 A 
HETATM   18  C   UNL     1      -4.722   2.312 -32.211  1.00  0.00     0.102 A 
HETATM   19  C   UNL     1      -5.527   2.625 -31.112  1.00  0.00     0.112 A 
HETATM   20  C   UNL     1      -5.349   3.811 -30.403  1.00  0.00     0.041 A 
HETATM   21  C   UNL     1      -4.306   4.668 -30.757  1.00  0.00     0.014 A 
BRANCH  18  22
HETATM   22  O   UNL     1      -4.993   1.144 -32.873  1.00  0.00    -0.353 OA
HETATM   23  C   UNL     1      -4.065   0.089 -32.640  1.00  0.00     0.210 C 
ENDBRANCH  18  22
BRANCH  19  24
HETATM   24  O   UNL     1      -6.574   1.750 -30.795  1.00  0.00    -0.272 OA
BRANCH  24  25
HETATM   25  C   UNL     1      -7.815   2.351 -30.770  1.00  0.00     0.300 C 
HETATM   26  O   UNL     1      -8.278   3.144 -29.967  1.00  0.00    -0.259 OA
BRANCH  25  27
HETATM   27  C   UNL     1      -8.539   1.867 -31.951  1.00  0.00     0.061 A 
HETATM   28  C   UNL     1      -8.611   2.648 -33.107  1.00  0.00     0.050 A 
HETATM   29 CL   UNL     1      -7.867   4.201 -33.223  1.00  0.00    -0.083 Cl
HETATM   30  C   UNL     1      -9.305   2.163 -34.218  1.00  0.00     0.025 A 
HETATM   31  C   UNL     1      -9.916   0.908 -34.172  1.00  0.00     0.002 A 
HETATM   32  C   UNL     1      -9.832   0.128 -33.016  1.00  0.00     0.001 A 
HETATM   33  C   UNL     1      -9.141   0.604 -31.901  1.00  0.00     0.019 A 
ENDBRANCH  25  27
ENDBRANCH  24  25
ENDBRANCH  19  24
ENDBRANCH   9  16
BRANCH  11  34
HETATM   34  O   UNL     1       0.734   4.667 -30.216  1.00  0.00    -0.344 OA
HETATM   35  H   UNL     1       0.653   3.701 -30.313  1.00  0.00     0.219 HD
ENDBRANCH  11  34
BRANCH   1  36
HETATM   36  C   UNL     1       1.205   9.358 -27.033  1.00  0.00     0.231 C 
HETATM   37  C   UNL     1       1.097  10.812 -26.614  1.00  0.00     0.034 C 
ENDBRANCH   1  36
TORSDOF 7
ENDMDL
