MODEL 1
REMARK VINA RESULT:      -8.7      0.000      0.000
REMARK  6 active torsions:
REMARK  status: ('A' for Active; 'I' for Inactive)
REMARK    1  A    between atoms: C_5  and  C_6 
REMARK    2  A    between atoms: C_6  and  N_7 
REMARK    3  A    between atoms: C_6  and  C_11 
REMARK       I    between atoms: N_7  and  C_8 
REMARK    4  A    between atoms: C_11  and  C_12 
REMARK       I    between atoms: C_12  and  N_13 
REMARK    5  A    between atoms: N_13  and  C_14 
REMARK    6  A    between atoms: C_16  and  C_17 
ROOT
HETATM    1  C   UNL     1     -10.256   0.761 -33.857  1.00  0.00     0.224 C 
HETATM    2  N   UNL     1      -9.064   0.991 -34.521  1.00  0.00    -0.327 N 
HETATM    3  O   UNL     1     -10.431  -0.004 -32.913  1.00  0.00    -0.273 OA
HETATM    4  H   UNL     1      -9.087   1.697 -35.249  1.00  0.00     0.169 HD
ENDROOT
BRANCH   1   5
HETATM    5  C   UNL     1     -11.418   1.518 -34.465  1.00  0.00     0.133 C 
BRANCH   5   6
HETATM    6  C   UNL     1     -11.724   2.790 -33.667  1.00  0.00     0.126 C 
BRANCH   6   7
HETATM    7  C   UNL     1     -13.147   2.746 -33.128  1.00  0.00    -0.035 A 
HETATM    8  C   UNL     1     -13.689   3.799 -32.377  1.00  0.00     0.010 A 
HETATM    9  C   UNL     1     -15.016   3.757 -31.941  1.00  0.00     0.007 A 
HETATM   10  C   UNL     1     -15.832   2.664 -32.249  1.00  0.00    -0.062 A 
HETATM   11  C   UNL     1     -17.270   2.651 -31.824  1.00  0.00     0.048 C 
HETATM   12  C   UNL     1     -15.304   1.619 -33.014  1.00  0.00     0.007 A 
HETATM   13  C   UNL     1     -13.975   1.657 -33.444  1.00  0.00     0.010 A 
ENDBRANCH   6   7
BRANCH   6  14
HETATM   14  N   UNL     1     -11.445   4.061 -34.340  1.00  0.00    -0.352 N 
HETATM   15  C   UNL     1     -10.204   4.607 -34.560  1.00  0.00     0.214 C 
HETATM   16  C   UNL     1     -10.253   5.902 -35.327  1.00  0.00     0.117 C 
HETATM   17  O   UNL     1      -9.146   4.107 -34.192  1.00  0.00    -0.274 OA
HETATM   18  H   UNL     1     -12.240   4.502 -34.782  1.00  0.00     0.163 HD
ENDBRANCH   6  14
ENDBRANCH   5   6
ENDBRANCH   1   5
BRANCH   2  19
HETATM   19  C   UNL     1      -7.804   0.414 -34.266  1.00  0.00     0.035 A 
HETATM   20  C   UNL     1      -7.486  -0.921 -34.530  1.00  0.00     0.042 A 
HETATM   21  C   UNL     1      -6.207  -1.433 -34.243  1.00  0.00    -0.021 A 
HETATM   22  C   UNL     1      -5.241  -0.574 -33.704  1.00  0.00     0.012 A 
HETATM   23  C   UNL     1      -5.549   0.761 -33.439  1.00  0.00     0.003 A 
HETATM   24  C   UNL     1      -6.827   1.248 -33.711  1.00  0.00     0.029 A 
BRANCH  21  25
HETATM   25  C   UNL     1      -5.908  -2.833 -34.503  1.00  0.00     0.010 A 
HETATM   26  C   UNL     1      -6.734  -3.888 -34.963  1.00  0.00     0.152 A 
HETATM   27  N   UNL     1      -6.086  -5.053 -35.053  1.00  0.00    -0.187 NA
HETATM   28  N   UNL     1      -4.846  -4.753 -34.642  1.00  0.00    -0.289 N 
HETATM   29  H   UNL     1      -4.157  -5.498 -34.612  1.00  0.00     0.188 HD
HETATM   30  C   UNL     1      -4.686  -3.441 -34.302  1.00  0.00     0.123 A 
ENDBRANCH  21  25
ENDBRANCH   2  19
TORSDOF 6
ENDMDL
MODEL 2
REMARK VINA RESULT:      -8.6      5.982      9.620
REMARK  6 active torsions:
REMARK  status: ('A' for Active; 'I' for Inactive)
REMARK    1  A    between atoms: C_5  and  C_6 
REMARK    2  A    between atoms: C_6  and  N_7 
REMARK    3  A    between atoms: C_6  and  C_11 
REMARK       I    between atoms: N_7  and  C_8 
REMARK    4  A    between atoms: C_11  and  C_12 
REMARK       I    between atoms: C_12  and  N_13 
REMARK    5  A    between atoms: N_13  and  C_14 
REMARK    6  A    between atoms: C_16  and  C_17 
ROOT
HETATM    1  C   UNL     1      -3.560   2.602 -32.084  1.00  0.00     0.224 C 
HETATM    2  N   UNL     1      -2.675   3.212 -32.954  1.00  0.00    -0.327 N 
HETATM    3  O   UNL     1      -4.090   3.115 -31.102  1.00  0.00    -0.273 OA
HETATM    4  H   UNL     1      -2.372   2.656 -33.747  1.00  0.00     0.169 HD
ENDROOT
BRANCH   1   5
HETATM    5  C   UNL     1      -3.789   1.142 -32.412  1.00  0.00     0.133 C 
BRANCH   5   6
HETATM    6  C   UNL     1      -5.273   0.860 -32.668  1.00  0.00     0.126 C 
BRANCH   6   7
HETATM    7  C   UNL     1      -5.441  -0.466 -33.397  1.00  0.00    -0.035 A 
HETATM    8  C   UNL     1      -4.402  -1.404 -33.480  1.00  0.00     0.010 A 
HETATM    9  C   UNL     1      -4.600  -2.637 -34.108  1.00  0.00     0.007 A 
HETATM   10  C   UNL     1      -5.842  -2.961 -34.663  1.00  0.00    -0.062 A 
HETATM   11  C   UNL     1      -6.062  -4.307 -35.287  1.00  0.00     0.048 C 
HETATM   12  C   UNL     1      -6.888  -2.038 -34.567  1.00  0.00     0.007 A 
HETATM   13  C   UNL     1      -6.689  -0.802 -33.946  1.00  0.00     0.010 A 
ENDBRANCH   6   7
BRANCH   6  14
HETATM   14  N   UNL     1      -6.033   1.929 -33.319  1.00  0.00    -0.352 N 
HETATM   15  C   UNL     1      -7.132   2.573 -32.804  1.00  0.00     0.214 C 
HETATM   16  C   UNL     1      -7.654   3.665 -33.700  1.00  0.00     0.117 C 
HETATM   17  O   UNL     1      -7.648   2.316 -31.722  1.00  0.00    -0.274 OA
HETATM   18  H   UNL     1      -5.626   2.296 -34.168  1.00  0.00     0.163 HD
ENDBRANCH   6  14
ENDBRANCH   5   6
ENDBRANCH   1   5
BRANCH   2  19
HETATM   19  C   UNL     1      -2.193   4.536 -32.915  1.00  0.00     0.035 A 
HETATM   20  C   UNL     1      -1.658   5.141 -31.775  1.00  0.00     0.042 A 
HETATM   21  C   UNL     1      -1.201   6.471 -31.805  1.00  0.00    -0.021 A 
HETATM   22  C   UNL     1      -1.271   7.182 -33.011  1.00  0.00     0.012 A 
HETATM   23  C   UNL     1      -1.801   6.585 -34.154  1.00  0.00     0.003 A 
HETATM   24  C   UNL     1      -2.268   5.272 -34.103  1.00  0.00     0.029 A 
BRANCH  21  25
HETATM   25  C   UNL     1      -0.672   7.087 -30.599  1.00  0.00     0.010 A 
HETATM   26  C   UNL     1       0.563   6.903 -29.929  1.00  0.00     0.152 A 
HETATM   27  N   UNL     1       0.669   7.646 -28.823  1.00  0.00    -0.187 NA
HETATM   28  N   UNL     1      -0.500   8.301 -28.773  1.00  0.00    -0.289 N 
HETATM   29  H   UNL     1      -0.663   8.934 -27.997  1.00  0.00     0.188 HD
HETATM   30  C   UNL     1      -1.337   8.004 -29.809  1.00  0.00     0.123 A 
ENDBRANCH  21  25
ENDBRANCH   2  19
TORSDOF 6
ENDMDL
MODEL 3
REMARK VINA RESULT:      -8.6      5.822      8.962
REMARK  6 active torsions:
REMARK  status: ('A' for Active; 'I' for Inactive)
REMARK    1  A    between atoms: C_5  and  C_6 
REMARK    2  A    between atoms: C_6  and  N_7 
REMARK    3  A    between atoms: C_6  and  C_11 
REMARK       I    between atoms: N_7  and  C_8 
REMARK    4  A    between atoms: C_11  and  C_12 
REMARK       I    between atoms: C_12  and  N_13 
REMARK    5  A    between atoms: N_13  and  C_14 
REMARK    6  A    between atoms: C_16  and  C_17 
ROOT
HETATM    1  C   UNL     1      -5.140   4.453 -34.005  1.00  0.00     0.224 C 
HETATM    2  N   UNL     1      -3.897   4.116 -33.501  1.00  0.00    -0.327 N 
HETATM    3  O   UNL     1      -5.554   5.587 -34.231  1.00  0.00    -0.273 OA
HETATM    4  H   UNL     1      -3.700   3.123 -33.425  1.00  0.00     0.169 HD
ENDROOT
BRANCH   1   5
HETATM    5  C   UNL     1      -6.036   3.249 -34.205  1.00  0.00     0.133 C 
BRANCH   5   6
HETATM    6  C   UNL     1      -5.877   2.248 -33.055  1.00  0.00     0.126 C 
BRANCH   6   7
HETATM    7  C   UNL     1      -6.027   0.824 -33.571  1.00  0.00    -0.035 A 
HETATM    8  C   UNL     1      -5.245  -0.231 -33.076  1.00  0.00     0.010 A 
HETATM    9  C   UNL     1      -5.441  -1.539 -33.528  1.00  0.00     0.007 A 
HETATM   10  C   UNL     1      -6.425  -1.823 -34.481  1.00  0.00    -0.062 A 
HETATM   11  C   UNL     1      -6.664  -3.237 -34.920  1.00  0.00     0.048 C 
HETATM   12  C   UNL     1      -7.220  -0.780 -34.964  1.00  0.00     0.007 A 
HETATM   13  C   UNL     1      -7.020   0.530 -34.519  1.00  0.00     0.010 A 
ENDBRANCH   6   7
BRANCH   6  14
HETATM   14  N   UNL     1      -6.710   2.480 -31.873  1.00  0.00    -0.352 N 
HETATM   15  C   UNL     1      -6.354   3.200 -30.759  1.00  0.00     0.214 C 
HETATM   16  C   UNL     1      -7.457   3.297 -29.738  1.00  0.00     0.117 C 
HETATM   17  O   UNL     1      -5.262   3.732 -30.591  1.00  0.00    -0.274 OA
HETATM   18  H   UNL     1      -7.671   2.179 -31.953  1.00  0.00     0.163 HD
ENDBRANCH   6  14
ENDBRANCH   5   6
ENDBRANCH   1   5
BRANCH   2  19
HETATM   19  C   UNL     1      -2.842   4.979 -33.144  1.00  0.00     0.035 A 
HETATM   20  C   UNL     1      -2.172   4.932 -31.918  1.00  0.00     0.042 A 
HETATM   21  C   UNL     1      -1.131   5.831 -31.626  1.00  0.00    -0.021 A 
HETATM   22  C   UNL     1      -0.756   6.770 -32.596  1.00  0.00     0.012 A 
HETATM   23  C   UNL     1      -1.418   6.823 -33.822  1.00  0.00     0.003 A 
HETATM   24  C   UNL     1      -2.462   5.938 -34.090  1.00  0.00     0.029 A 
BRANCH  21  25
HETATM   25  C   UNL     1      -0.465   5.779 -30.333  1.00  0.00     0.010 A 
HETATM   26  C   UNL     1      -0.579   6.618 -29.197  1.00  0.00     0.152 A 
HETATM   27  N   UNL     1       0.228   6.250 -28.198  1.00  0.00    -0.187 NA
HETATM   28  N   UNL     1       0.870   5.182 -28.691  1.00  0.00    -0.289 N 
HETATM   29  H   UNL     1       1.561   4.723 -28.105  1.00  0.00     0.188 HD
HETATM   30  C   UNL     1       0.494   4.858 -29.962  1.00  0.00     0.123 A 
ENDBRANCH  21  25
ENDBRANCH   2  19
TORSDOF 6
ENDMDL
MODEL 4
REMARK VINA RESULT:      -8.5      5.220      7.459
REMARK  6 active torsions:
REMARK  status: ('A' for Active; 'I' for Inactive)
REMARK    1  A    between atoms: C_5  and  C_6 
REMARK    2  A    between atoms: C_6  and  N_7 
REMARK    3  A    between atoms: C_6  and  C_11 
REMARK       I    between atoms: N_7  and  C_8 
REMARK    4  A    between atoms: C_11  and  C_12 
REMARK       I    between atoms: C_12  and  N_13 
REMARK    5  A    between atoms: N_13  and  C_14 
REMARK    6  A    between atoms: C_16  and  C_17 
ROOT
HETATM    1  C   UNL     1      -6.198   2.069 -31.081  1.00  0.00     0.224 C 
HETATM    2  N   UNL     1      -5.459   1.287 -31.951  1.00  0.00    -0.327 N 
HETATM    3  O   UNL     1      -7.409   2.266 -31.125  1.00  0.00    -0.273 OA
HETATM    4  H   UNL     1      -4.472   1.191 -31.737  1.00  0.00     0.169 HD
ENDROOT
BRANCH   1   5
HETATM    5  C   UNL     1      -5.338   2.763 -30.046  1.00  0.00     0.133 C 
BRANCH   5   6
HETATM    6  C   UNL     1      -5.245   4.267 -30.327  1.00  0.00     0.126 C 
BRANCH   6   7
HETATM    7  C   UNL     1      -4.322   4.528 -31.508  1.00  0.00    -0.035 A 
HETATM    8  C   UNL     1      -2.993   4.081 -31.525  1.00  0.00     0.010 A 
HETATM    9  C   UNL     1      -2.183   4.287 -32.645  1.00  0.00     0.007 A 
HETATM   10  C   UNL     1      -2.685   4.940 -33.776  1.00  0.00    -0.062 A 
HETATM   11  C   UNL     1      -1.826   5.109 -34.994  1.00  0.00     0.048 C 
HETATM   12  C   UNL     1      -4.015   5.371 -33.773  1.00  0.00     0.007 A 
HETATM   13  C   UNL     1      -4.823   5.173 -32.651  1.00  0.00     0.010 A 
ENDBRANCH   6   7
BRANCH   6  14
HETATM   14  N   UNL     1      -4.908   5.120 -29.185  1.00  0.00    -0.352 N 
HETATM   15  C   UNL     1      -5.780   5.574 -28.226  1.00  0.00     0.214 C 
HETATM   16  C   UNL     1      -5.110   6.390 -27.152  1.00  0.00     0.117 C 
HETATM   17  O   UNL     1      -6.985   5.343 -28.212  1.00  0.00    -0.274 OA
HETATM   18  H   UNL     1      -3.921   5.278 -29.037  1.00  0.00     0.163 HD
ENDBRANCH   6  14
ENDBRANCH   5   6
ENDBRANCH   1   5
BRANCH   2  19
HETATM   19  C   UNL     1      -5.920   0.551 -33.060  1.00  0.00     0.035 A 
HETATM   20  C   UNL     1      -5.683  -0.813 -33.249  1.00  0.00     0.042 A 
HETATM   21  C   UNL     1      -6.168  -1.484 -34.386  1.00  0.00    -0.021 A 
HETATM   22  C   UNL     1      -6.918  -0.765 -35.326  1.00  0.00     0.012 A 
HETATM   23  C   UNL     1      -7.161   0.596 -35.145  1.00  0.00     0.003 A 
HETATM   24  C   UNL     1      -6.657   1.251 -34.022  1.00  0.00     0.029 A 
BRANCH  21  25
HETATM   25  C   UNL     1      -5.886  -2.899 -34.573  1.00  0.00     0.010 A 
HETATM   26  C   UNL     1      -6.714  -3.959 -35.018  1.00  0.00     0.152 A 
HETATM   27  N   UNL     1      -6.086  -5.138 -35.031  1.00  0.00    -0.187 NA
HETATM   28  N   UNL     1      -4.857  -4.842 -34.586  1.00  0.00    -0.289 N 
HETATM   29  H   UNL     1      -4.184  -5.597 -34.497  1.00  0.00     0.188 HD
HETATM   30  C   UNL     1      -4.685  -3.520 -34.297  1.00  0.00     0.123 A 
ENDBRANCH  21  25
ENDBRANCH   2  19
TORSDOF 6
ENDMDL
MODEL 5
REMARK VINA RESULT:      -8.5      4.829      7.908
REMARK  6 active torsions:
REMARK  status: ('A' for Active; 'I' for Inactive)
REMARK    1  A    between atoms: C_5  and  C_6 
REMARK    2  A    between atoms: C_6  and  N_7 
REMARK    3  A    between atoms: C_6  and  C_11 
REMARK       I    between atoms: N_7  and  C_8 
REMARK    4  A    between atoms: C_11  and  C_12 
REMARK       I    between atoms: C_12  and  N_13 
REMARK    5  A    between atoms: N_13  and  C_14 
REMARK    6  A    between atoms: C_16  and  C_17 
ROOT
HETATM    1  C   UNL     1      -5.477   2.116 -31.583  1.00  0.00     0.224 C 
HETATM    2  N   UNL     1      -5.074   1.564 -32.786  1.00  0.00    -0.327 N 
HETATM    3  O   UNL     1      -6.528   1.889 -30.990  1.00  0.00    -0.273 OA
HETATM    4  H   UNL     1      -4.148   1.824 -33.109  1.00  0.00     0.169 HD
ENDROOT
BRANCH   1   5
HETATM    5  C   UNL     1      -4.495   3.139 -31.052  1.00  0.00     0.133 C 
BRANCH   5   6
HETATM    6  C   UNL     1      -4.420   4.361 -31.974  1.00  0.00     0.126 C 
BRANCH   6   7
HETATM    7  C   UNL     1      -3.103   5.096 -31.772  1.00  0.00    -0.035 A 
HETATM    8  C   UNL     1      -3.010   6.246 -30.975  1.00  0.00     0.010 A 
HETATM    9  C   UNL     1      -1.778   6.871 -30.761  1.00  0.00     0.007 A 
HETATM   10  C   UNL     1      -0.611   6.357 -31.336  1.00  0.00    -0.062 A 
HETATM   11  C   UNL     1       0.715   7.001 -31.057  1.00  0.00     0.048 C 
HETATM   12  C   UNL     1      -0.693   5.199 -32.115  1.00  0.00     0.007 A 
HETATM   13  C   UNL     1      -1.926   4.579 -32.336  1.00  0.00     0.010 A 
ENDBRANCH   6   7
BRANCH   6  14
HETATM   14  N   UNL     1      -5.559   5.280 -31.926  1.00  0.00    -0.352 N 
HETATM   15  C   UNL     1      -6.440   5.535 -32.949  1.00  0.00     0.214 C 
HETATM   16  C   UNL     1      -7.536   6.493 -32.564  1.00  0.00     0.117 C 
HETATM   17  O   UNL     1      -6.373   5.037 -34.068  1.00  0.00    -0.274 OA
HETATM   18  H   UNL     1      -5.773   5.660 -31.014  1.00  0.00     0.163 HD
ENDBRANCH   6  14
ENDBRANCH   5   6
ENDBRANCH   1   5
BRANCH   2  19
HETATM   19  C   UNL     1      -5.763   0.631 -33.586  1.00  0.00     0.035 A 
HETATM   20  C   UNL     1      -5.425  -0.722 -33.679  1.00  0.00     0.042 A 
HETATM   21  C   UNL     1      -6.153  -1.597 -34.504  1.00  0.00    -0.021 A 
HETATM   22  C   UNL     1      -7.247  -1.096 -35.223  1.00  0.00     0.012 A 
HETATM   23  C   UNL     1      -7.593   0.253 -35.134  1.00  0.00     0.003 A 
HETATM   24  C   UNL     1      -6.849   1.112 -34.327  1.00  0.00     0.029 A 
BRANCH  21  25
HETATM   25  C   UNL     1      -5.766  -2.996 -34.604  1.00  0.00     0.010 A 
HETATM   26  C   UNL     1      -6.478  -4.123 -35.083  1.00  0.00     0.152 A 
HETATM   27  N   UNL     1      -5.779  -5.258 -34.988  1.00  0.00    -0.187 NA
HETATM   28  N   UNL     1      -4.620  -4.865 -34.438  1.00  0.00    -0.289 N 
HETATM   29  H   UNL     1      -3.913  -5.570 -34.254  1.00  0.00     0.188 HD
HETATM   30  C   UNL     1      -4.561  -3.525 -34.189  1.00  0.00     0.123 A 
ENDBRANCH  21  25
ENDBRANCH   2  19
TORSDOF 6
ENDMDL
MODEL 6
REMARK VINA RESULT:      -8.4      2.335      8.692
REMARK  6 active torsions:
REMARK  status: ('A' for Active; 'I' for Inactive)
REMARK    1  A    between atoms: C_5  and  C_6 
REMARK    2  A    between atoms: C_6  and  N_7 
REMARK    3  A    between atoms: C_6  and  C_11 
REMARK       I    between atoms: N_7  and  C_8 
REMARK    4  A    between atoms: C_11  and  C_12 
REMARK       I    between atoms: C_12  and  N_13 
REMARK    5  A    between atoms: N_13  and  C_14 
REMARK    6  A    between atoms: C_16  and  C_17 
ROOT
HETATM    1  C   UNL     1      -8.595   0.531 -34.208  1.00  0.00     0.224 C 
HETATM    2  N   UNL     1      -9.176   1.754 -34.493  1.00  0.00    -0.327 N 
HETATM    3  O   UNL     1      -8.926  -0.245 -33.316  1.00  0.00    -0.273 OA
HETATM    4  H   UNL     1      -8.810   2.246 -35.302  1.00  0.00     0.169 HD
ENDROOT
BRANCH   1   5
HETATM    5  C   UNL     1      -7.401   0.234 -35.090  1.00  0.00     0.133 C 
BRANCH   5   6
HETATM    6  C   UNL     1      -6.094   0.326 -34.296  1.00  0.00     0.126 C 
BRANCH   6   7
HETATM    7  C   UNL     1      -5.491  -1.059 -34.108  1.00  0.00    -0.035 A 
HETATM    8  C   UNL     1      -5.955  -2.174 -34.821  1.00  0.00     0.010 A 
HETATM    9  C   UNL     1      -5.348  -3.423 -34.670  1.00  0.00     0.007 A 
HETATM   10  C   UNL     1      -4.261  -3.586 -33.805  1.00  0.00    -0.062 A 
HETATM   11  C   UNL     1      -3.581  -4.918 -33.689  1.00  0.00     0.048 C 
HETATM   12  C   UNL     1      -3.781  -2.475 -33.105  1.00  0.00     0.007 A 
HETATM   13  C   UNL     1      -4.392  -1.227 -33.249  1.00  0.00     0.010 A 
ENDBRANCH   6   7
BRANCH   6  14
HETATM   14  N   UNL     1      -6.155   1.060 -33.030  1.00  0.00    -0.352 N 
HETATM   15  C   UNL     1      -5.862   2.390 -32.848  1.00  0.00     0.214 C 
HETATM   16  C   UNL     1      -6.074   2.856 -31.432  1.00  0.00     0.117 C 
HETATM   17  O   UNL     1      -5.478   3.147 -33.733  1.00  0.00    -0.274 OA
HETATM   18  H   UNL     1      -6.567   0.558 -32.256  1.00  0.00     0.163 HD
ENDBRANCH   6  14
ENDBRANCH   5   6
ENDBRANCH   1   5
BRANCH   2  19
HETATM   19  C   UNL     1     -10.261   2.372 -33.840  1.00  0.00     0.035 A 
HETATM   20  C   UNL     1     -11.581   1.919 -33.911  1.00  0.00     0.042 A 
HETATM   21  C   UNL     1     -12.617   2.590 -33.238  1.00  0.00    -0.021 A 
HETATM   22  C   UNL     1     -12.303   3.719 -32.469  1.00  0.00     0.012 A 
HETATM   23  C   UNL     1     -10.989   4.178 -32.390  1.00  0.00     0.003 A 
HETATM   24  C   UNL     1      -9.976   3.513 -33.080  1.00  0.00     0.029 A 
BRANCH  21  25
HETATM   25  C   UNL     1     -13.987   2.113 -33.349  1.00  0.00     0.010 A 
HETATM   26  C   UNL     1     -14.565   1.144 -34.206  1.00  0.00     0.152 A 
HETATM   27  N   UNL     1     -15.880   1.002 -34.016  1.00  0.00    -0.187 NA
HETATM   28  N   UNL     1     -16.153   1.885 -33.045  1.00  0.00    -0.289 N 
HETATM   29  H   UNL     1     -17.114   1.970 -32.729  1.00  0.00     0.188 HD
HETATM   30  C   UNL     1     -15.058   2.575 -32.611  1.00  0.00     0.123 A 
ENDBRANCH  21  25
ENDBRANCH   2  19
TORSDOF 6
ENDMDL
MODEL 7
REMARK VINA RESULT:      -8.3      2.570      8.956
REMARK  6 active torsions:
REMARK  status: ('A' for Active; 'I' for Inactive)
REMARK    1  A    between atoms: C_5  and  C_6 
REMARK    2  A    between atoms: C_6  and  N_7 
REMARK    3  A    between atoms: C_6  and  C_11 
REMARK       I    between atoms: N_7  and  C_8 
REMARK    4  A    between atoms: C_11  and  C_12 
REMARK       I    between atoms: C_12  and  N_13 
REMARK    5  A    between atoms: N_13  and  C_14 
REMARK    6  A    between atoms: C_16  and  C_17 
ROOT
HETATM    1  C   UNL     1      -8.967   0.629 -34.306  1.00  0.00     0.224 C 
HETATM    2  N   UNL     1      -9.785   1.637 -34.785  1.00  0.00    -0.327 N 
HETATM    3  O   UNL     1      -9.194  -0.101 -33.345  1.00  0.00    -0.273 OA
HETATM    4  H   UNL     1      -9.466   2.110 -35.624  1.00  0.00     0.169 HD
ENDROOT
BRANCH   1   5
HETATM    5  C   UNL     1      -7.657   0.533 -35.058  1.00  0.00     0.133 C 
BRANCH   5   6
HETATM    6  C   UNL     1      -6.465   0.578 -34.096  1.00  0.00     0.126 C 
BRANCH   6   7
HETATM    7  C   UNL     1      -5.793  -0.786 -34.025  1.00  0.00    -0.035 A 
HETATM    8  C   UNL     1      -6.240  -1.875 -34.788  1.00  0.00     0.010 A 
HETATM    9  C   UNL     1      -5.570  -3.101 -34.744  1.00  0.00     0.007 A 
HETATM   10  C   UNL     1      -4.437  -3.265 -33.941  1.00  0.00    -0.062 A 
HETATM   11  C   UNL     1      -3.694  -4.568 -33.942  1.00  0.00     0.048 C 
HETATM   12  C   UNL     1      -3.975  -2.179 -33.193  1.00  0.00     0.007 A 
HETATM   13  C   UNL     1      -4.648  -0.954 -33.229  1.00  0.00     0.010 A 
ENDBRANCH   6   7
BRANCH   6  14
HETATM   14  N   UNL     1      -6.730   1.115 -32.759  1.00  0.00    -0.352 N 
HETATM   15  C   UNL     1      -6.238   2.289 -32.244  1.00  0.00     0.214 C 
HETATM   16  C   UNL     1      -6.741   2.586 -30.857  1.00  0.00     0.117 C 
HETATM   17  O   UNL     1      -5.475   3.046 -32.837  1.00  0.00    -0.274 OA
HETATM   18  H   UNL     1      -7.436   0.626 -32.227  1.00  0.00     0.163 HD
ENDBRANCH   6  14
ENDBRANCH   5   6
ENDBRANCH   1   5
BRANCH   2  19
HETATM   19  C   UNL     1     -11.041   2.043 -34.292  1.00  0.00     0.035 A 
HETATM   20  C   UNL     1     -11.216   2.964 -33.256  1.00  0.00     0.042 A 
HETATM   21  C   UNL     1     -12.502   3.318 -32.809  1.00  0.00    -0.021 A 
HETATM   22  C   UNL     1     -13.617   2.746 -33.436  1.00  0.00     0.012 A 
HETATM   23  C   UNL     1     -13.452   1.827 -34.472  1.00  0.00     0.003 A 
HETATM   24  C   UNL     1     -12.170   1.472 -34.891  1.00  0.00     0.029 A 
BRANCH  21  25
HETATM   25  C   UNL     1     -12.657   4.261 -31.712  1.00  0.00     0.010 A 
HETATM   26  C   UNL     1     -12.107   5.551 -31.513  1.00  0.00     0.152 A 
HETATM   27  N   UNL     1     -12.474   6.098 -30.350  1.00  0.00    -0.187 NA
HETATM   28  N   UNL     1     -13.251   5.157 -29.793  1.00  0.00    -0.289 N 
HETATM   29  H   UNL     1     -13.649   5.343 -28.878  1.00  0.00     0.188 HD
HETATM   30  C   UNL     1     -13.393   4.041 -30.565  1.00  0.00     0.123 A 
ENDBRANCH  21  25
ENDBRANCH   2  19
TORSDOF 6
ENDMDL
MODEL 8
REMARK VINA RESULT:      -8.2      4.225      7.547
REMARK  6 active torsions:
REMARK  status: ('A' for Active; 'I' for Inactive)
REMARK    1  A    between atoms: C_5  and  C_6 
REMARK    2  A    between atoms: C_6  and  N_7 
REMARK    3  A    between atoms: C_6  and  C_11 
REMARK       I    between atoms: N_7  and  C_8 
REMARK    4  A    between atoms: C_11  and  C_12 
REMARK       I    between atoms: C_12  and  N_13 
REMARK    5  A    between atoms: N_13  and  C_14 
REMARK    6  A    between atoms: C_16  and  C_17 
ROOT
HETATM    1  C   UNL     1      -7.726   3.470 -33.066  1.00  0.00     0.224 C 
HETATM    2  N   UNL     1      -6.495   3.259 -33.662  1.00  0.00    -0.327 N 
HETATM    3  O   UNL     1      -7.927   3.828 -31.909  1.00  0.00    -0.273 OA
HETATM    4  H   UNL     1      -6.511   3.013 -34.646  1.00  0.00     0.169 HD
ENDROOT
BRANCH   1   5
HETATM    5  C   UNL     1      -8.883   3.137 -33.985  1.00  0.00     0.133 C 
BRANCH   5   6
HETATM    6  C   UNL     1      -9.464   1.756 -33.661  1.00  0.00     0.126 C 
BRANCH   6   7
HETATM    7  C   UNL     1      -8.397   0.683 -33.823  1.00  0.00    -0.035 A 
HETATM    8  C   UNL     1      -7.924   0.291 -35.084  1.00  0.00     0.010 A 
HETATM    9  C   UNL     1      -6.905  -0.659 -35.202  1.00  0.00     0.007 A 
HETATM   10  C   UNL     1      -6.333  -1.233 -34.063  1.00  0.00    -0.062 A 
HETATM   11  C   UNL     1      -5.203  -2.211 -34.196  1.00  0.00     0.048 C 
HETATM   12  C   UNL     1      -6.786  -0.833 -32.802  1.00  0.00     0.007 A 
HETATM   13  C   UNL     1      -7.810   0.110 -32.683  1.00  0.00     0.010 A 
ENDBRANCH   6   7
BRANCH   6  14
HETATM   14  N   UNL     1     -10.700   1.393 -34.358  1.00  0.00    -0.352 N 
HETATM   15  C   UNL     1     -11.970   1.786 -34.015  1.00  0.00     0.214 C 
HETATM   16  C   UNL     1     -13.024   1.284 -34.967  1.00  0.00     0.117 C 
HETATM   17  O   UNL     1     -12.247   2.485 -33.046  1.00  0.00    -0.274 OA
HETATM   18  H   UNL     1     -10.576   0.909 -35.237  1.00  0.00     0.163 HD
ENDBRANCH   6  14
ENDBRANCH   5   6
ENDBRANCH   1   5
BRANCH   2  19
HETATM   19  C   UNL     1      -5.217   3.409 -33.088  1.00  0.00     0.035 A 
HETATM   20  C   UNL     1      -4.397   4.524 -33.283  1.00  0.00     0.042 A 
HETATM   21  C   UNL     1      -3.127   4.604 -32.683  1.00  0.00    -0.021 A 
HETATM   22  C   UNL     1      -2.699   3.552 -31.863  1.00  0.00     0.012 A 
HETATM   23  C   UNL     1      -3.512   2.437 -31.661  1.00  0.00     0.003 A 
HETATM   24  C   UNL     1      -4.760   2.363 -32.278  1.00  0.00     0.029 A 
BRANCH  21  25
HETATM   25  C   UNL     1      -2.281   5.764 -32.922  1.00  0.00     0.010 A 
HETATM   26  C   UNL     1      -2.339   6.763 -33.924  1.00  0.00     0.152 A 
HETATM   27  N   UNL     1      -1.356   7.661 -33.819  1.00  0.00    -0.187 NA
HETATM   28  N   UNL     1      -0.656   7.236 -32.757  1.00  0.00    -0.289 N 
HETATM   29  H   UNL     1       0.166   7.764 -32.481  1.00  0.00     0.188 HD
HETATM   30  C   UNL     1      -1.166   6.107 -32.185  1.00  0.00     0.123 A 
ENDBRANCH  21  25
ENDBRANCH   2  19
TORSDOF 6
ENDMDL
MODEL 9
REMARK VINA RESULT:      -8.1      2.632      8.909
REMARK  6 active torsions:
REMARK  status: ('A' for Active; 'I' for Inactive)
REMARK    1  A    between atoms: C_5  and  C_6 
REMARK    2  A    between atoms: C_6  and  N_7 
REMARK    3  A    between atoms: C_6  and  C_11 
REMARK       I    between atoms: N_7  and  C_8 
REMARK    4  A    between atoms: C_11  and  C_12 
REMARK       I    between atoms: C_12  and  N_13 
REMARK    5  A    between atoms: N_13  and  C_14 
REMARK    6  A    between atoms: C_16  and  C_17 
ROOT
HETATM    1  C   UNL     1      -7.777   1.964 -33.769  1.00  0.00     0.224 C 
HETATM    2  N   UNL     1      -8.862   1.490 -34.483  1.00  0.00    -0.327 N 
HETATM    3  O   UNL     1      -7.812   2.726 -32.807  1.00  0.00    -0.273 OA
HETATM    4  H   UNL     1      -8.656   0.824 -35.220  1.00  0.00     0.169 HD
ENDROOT
BRANCH   1   5
HETATM    5  C   UNL     1      -6.454   1.500 -34.341  1.00  0.00     0.133 C 
BRANCH   5   6
HETATM    6  C   UNL     1      -5.719   0.584 -33.356  1.00  0.00     0.126 C 
BRANCH   6   7
HETATM    7  C   UNL     1      -5.803  -0.863 -33.820  1.00  0.00    -0.035 A 
HETATM    8  C   UNL     1      -7.029  -1.482 -34.105  1.00  0.00     0.010 A 
HETATM    9  C   UNL     1      -7.074  -2.796 -34.581  1.00  0.00     0.007 A 
HETATM   10  C   UNL     1      -5.894  -3.519 -34.786  1.00  0.00    -0.062 A 
HETATM   11  C   UNL     1      -5.948  -4.908 -35.348  1.00  0.00     0.048 C 
HETATM   12  C   UNL     1      -4.668  -2.902 -34.522  1.00  0.00     0.007 A 
HETATM   13  C   UNL     1      -4.622  -1.591 -34.038  1.00  0.00     0.010 A 
ENDBRANCH   6   7
BRANCH   6  14
HETATM   14  N   UNL     1      -6.090   0.717 -31.946  1.00  0.00    -0.352 N 
HETATM   15  C   UNL     1      -5.269   0.498 -30.867  1.00  0.00     0.214 C 
HETATM   16  C   UNL     1      -5.938   0.772 -29.546  1.00  0.00     0.117 C 
HETATM   17  O   UNL     1      -4.102   0.129 -30.942  1.00  0.00    -0.274 OA
HETATM   18  H   UNL     1      -6.999   1.124 -31.772  1.00  0.00     0.163 HD
ENDBRANCH   6  14
ENDBRANCH   5   6
ENDBRANCH   1   5
BRANCH   2  19
HETATM   19  C   UNL     1     -10.228   1.765 -34.270  1.00  0.00     0.035 A 
HETATM   20  C   UNL     1     -10.829   2.999 -34.530  1.00  0.00     0.042 A 
HETATM   21  C   UNL     1     -12.199   3.206 -34.286  1.00  0.00    -0.021 A 
HETATM   22  C   UNL     1     -12.966   2.141 -33.795  1.00  0.00     0.012 A 
HETATM   23  C   UNL     1     -12.375   0.905 -33.535  1.00  0.00     0.003 A 
HETATM   24  C   UNL     1     -11.012   0.722 -33.763  1.00  0.00     0.029 A 
BRANCH  21  25
HETATM   25  C   UNL     1     -12.796   4.508 -34.541  1.00  0.00     0.010 A 
HETATM   26  C   UNL     1     -13.496   5.390 -33.682  1.00  0.00     0.152 A 
HETATM   27  N   UNL     1     -13.915   6.496 -34.304  1.00  0.00    -0.187 NA
HETATM   28  N   UNL     1     -13.496   6.323 -35.566  1.00  0.00    -0.289 N 
HETATM   29  H   UNL     1     -13.710   7.045 -36.246  1.00  0.00     0.188 HD
HETATM   30  C   UNL     1     -12.822   5.152 -35.761  1.00  0.00     0.123 A 
ENDBRANCH  21  25
ENDBRANCH   2  19
TORSDOF 6
ENDMDL
MODEL 10
REMARK VINA RESULT:      -7.8      6.167      9.807
REMARK  6 active torsions:
REMARK  status: ('A' for Active; 'I' for Inactive)
REMARK    1  A    between atoms: C_5  and  C_6 
REMARK    2  A    between atoms: C_6  and  N_7 
REMARK    3  A    between atoms: C_6  and  C_11 
REMARK       I    between atoms: N_7  and  C_8 
REMARK    4  A    between atoms: C_11  and  C_12 
REMARK       I    between atoms: C_12  and  N_13 
REMARK    5  A    between atoms: N_13  and  C_14 
REMARK    6  A    between atoms: C_16  and  C_17 
ROOT
HETATM    1  C   UNL     1      -3.124   3.764 -32.252  1.00  0.00     0.224 C 
HETATM    2  N   UNL     1      -3.235   2.487 -31.732  1.00  0.00    -0.327 N 
HETATM    3  O   UNL     1      -3.745   4.221 -33.208  1.00  0.00    -0.273 OA
HETATM    4  H   UNL     1      -2.683   2.292 -30.904  1.00  0.00     0.169 HD
ENDROOT
BRANCH   1   5
HETATM    5  C   UNL     1      -2.062   4.588 -31.555  1.00  0.00     0.133 C 
BRANCH   5   6
HETATM    6  C   UNL     1      -2.652   5.887 -30.994  1.00  0.00     0.126 C 
BRANCH   6   7
HETATM    7  C   UNL     1      -1.606   6.633 -30.179  1.00  0.00    -0.035 A 
HETATM    8  C   UNL     1      -1.940   7.346 -29.018  1.00  0.00     0.010 A 
HETATM    9  C   UNL     1      -0.951   7.977 -28.258  1.00  0.00     0.007 A 
HETATM   10  C   UNL     1       0.393   7.908 -28.639  1.00  0.00    -0.062 A 
HETATM   11  C   UNL     1       1.452   8.542 -27.789  1.00  0.00     0.048 C 
HETATM   12  C   UNL     1       0.734   7.184 -29.785  1.00  0.00     0.007 A 
HETATM   13  C   UNL     1      -0.254   6.558 -30.550  1.00  0.00     0.010 A 
ENDBRANCH   6   7
BRANCH   6  14
HETATM   14  N   UNL     1      -3.914   5.762 -30.261  1.00  0.00    -0.352 N 
HETATM   15  C   UNL     1      -5.121   6.307 -30.626  1.00  0.00     0.214 C 
HETATM   16  C   UNL     1      -6.241   5.951 -29.684  1.00  0.00     0.117 C 
HETATM   17  O   UNL     1      -5.301   7.004 -31.618  1.00  0.00    -0.274 OA
HETATM   18  H   UNL     1      -3.904   5.114 -29.485  1.00  0.00     0.163 HD
ENDBRANCH   6  14
ENDBRANCH   5   6
ENDBRANCH   1   5
BRANCH   2  19
HETATM   19  C   UNL     1      -4.073   1.442 -32.170  1.00  0.00     0.035 A 
HETATM   20  C   UNL     1      -5.468   1.475 -32.101  1.00  0.00     0.042 A 
HETATM   21  C   UNL     1      -6.243   0.391 -32.551  1.00  0.00    -0.021 A 
HETATM   22  C   UNL     1      -5.593  -0.725 -33.095  1.00  0.00     0.012 A 
HETATM   23  C   UNL     1      -4.201  -0.765 -33.170  1.00  0.00     0.003 A 
HETATM   24  C   UNL     1      -3.446   0.309 -32.702  1.00  0.00     0.029 A 
BRANCH  21  25
HETATM   25  C   UNL     1      -7.693   0.438 -32.445  1.00  0.00     0.010 A 
HETATM   26  C   UNL     1      -8.700  -0.205 -33.206  1.00  0.00     0.152 A 
HETATM   27  N   UNL     1      -9.935   0.115 -32.809  1.00  0.00    -0.187 NA
HETATM   28  N   UNL     1      -9.726   0.972 -31.799  1.00  0.00    -0.289 N 
HETATM   29  H   UNL     1     -10.535   1.370 -31.332  1.00  0.00     0.188 HD
HETATM   30  C   UNL     1      -8.406   1.199 -31.541  1.00  0.00     0.123 A 
ENDBRANCH  21  25
ENDBRANCH   2  19
TORSDOF 6
ENDMDL
