MODEL 1
REMARK VINA RESULT:      -9.0      0.000      0.000
REMARK  7 active torsions:
REMARK  status: ('A' for Active; 'I' for Inactive)
REMARK    1  A    between atoms: C_2  and  C_3 
REMARK    2  A    between atoms: C_2  and  C_9 
REMARK    3  A    between atoms: C_9  and  C_10 
REMARK       I    between atoms: C_10  and  N_11 
REMARK    4  A    between atoms: N_11  and  N_12 
REMARK       I    between atoms: N_12  and  C_13 
REMARK    5  A    between atoms: C_13  and  C_14 
REMARK    6  A    between atoms: C_18  and  C_19 
REMARK    7  A    between atoms: C_22  and  O_23 
ROOT
HETATM    1  N   UNL     1      -3.023   4.038 -31.178  1.00  0.00    -0.262 N 
HETATM    2  C   UNL     1      -4.394   4.057 -31.302  1.00  0.00     0.288 C 
HETATM    3  O   UNL     1      -5.054   5.075 -31.102  1.00  0.00    -0.264 OA
HETATM    4  H   UNL     1      -2.453   3.203 -31.297  1.00  0.00     0.190 HD
ENDROOT
BRANCH   2   5
HETATM    5  C   UNL     1      -4.986   2.806 -31.692  1.00  0.00     0.121 A 
HETATM    6  N   UNL     1      -6.225   2.421 -31.267  1.00  0.00    -0.272 N 
HETATM    7  H   UNL     1      -6.846   2.935 -30.648  1.00  0.00     0.189 HD
HETATM    8  N   UNL     1      -6.637   1.244 -31.764  1.00  0.00    -0.174 NA
HETATM    9  C   UNL     1      -5.614   0.819 -32.522  1.00  0.00     0.089 A 
HETATM   10  C   UNL     1      -4.558   1.773 -32.502  1.00  0.00     0.071 A 
BRANCH   9  11
HETATM   11  C   UNL     1      -5.660  -0.445 -33.260  1.00  0.00    -0.005 A 
HETATM   12  C   UNL     1      -4.533  -1.274 -33.327  1.00  0.00     0.016 A 
HETATM   13  C   UNL     1      -4.592  -2.501 -33.998  1.00  0.00     0.037 A 
HETATM   14  C   UNL     1      -5.773  -2.921 -34.614  1.00  0.00     0.068 A 
HETATM   15  C   UNL     1      -6.892  -2.092 -34.571  1.00  0.00     0.037 A 
HETATM   16  C   UNL     1      -6.836  -0.864 -33.898  1.00  0.00     0.016 A 
BRANCH  14  17
HETATM   17  O   UNL     1      -5.701  -4.143 -35.222  1.00  0.00    -0.356 OA
HETATM   18  C   UNL     1      -4.985  -5.161 -34.533  1.00  0.00     0.210 C 
ENDBRANCH  14  17
ENDBRANCH   9  11
ENDBRANCH   2   5
BRANCH   1  19
HETATM   19  N   UNL     1      -2.340   5.197 -30.798  1.00  0.00    -0.267 N 
HETATM   20  C   UNL     1      -1.480   5.748 -31.721  1.00  0.00     0.236 C 
HETATM   21  O   UNL     1      -1.418   5.337 -32.882  1.00  0.00    -0.272 OA
HETATM   22  H   UNL     1      -2.311   5.397 -29.802  1.00  0.00     0.190 HD
BRANCH  20  23
HETATM   23  C   UNL     1      -0.701   6.962 -31.258  1.00  0.00     0.113 C 
BRANCH  23  24
HETATM   24  C   UNL     1       0.613   6.654 -30.523  1.00  0.00     0.023 C 
HETATM   25  C   UNL     1       0.990   5.180 -30.718  1.00  0.00     0.015 C 
BRANCH  24  26
HETATM   26  C   UNL     1       0.575   6.996 -29.043  1.00  0.00    -0.054 A 
HETATM   27  C   UNL     1       1.137   8.180 -28.543  1.00  0.00     0.007 A 
HETATM   28  C   UNL     1       1.092   8.468 -27.177  1.00  0.00     0.001 A 
HETATM   29  C   UNL     1       0.482   7.580 -26.295  1.00  0.00     0.000 A 
HETATM   30  C   UNL     1      -0.085   6.403 -26.777  1.00  0.00     0.001 A 
HETATM   31  C   UNL     1      -0.040   6.113 -28.142  1.00  0.00     0.007 A 
ENDBRANCH  24  26
ENDBRANCH  23  24
ENDBRANCH  20  23
ENDBRANCH   1  19
TORSDOF 7
ENDMDL
MODEL 2
REMARK VINA RESULT:      -8.9      2.227     10.886
REMARK  7 active torsions:
REMARK  status: ('A' for Active; 'I' for Inactive)
REMARK    1  A    between atoms: C_2  and  C_3 
REMARK    2  A    between atoms: C_2  and  C_9 
REMARK    3  A    between atoms: C_9  and  C_10 
REMARK       I    between atoms: C_10  and  N_11 
REMARK    4  A    between atoms: N_11  and  N_12 
REMARK       I    between atoms: N_12  and  C_13 
REMARK    5  A    between atoms: C_13  and  C_14 
REMARK    6  A    between atoms: C_18  and  C_19 
REMARK    7  A    between atoms: C_22  and  O_23 
ROOT
HETATM    1  N   UNL     1      -3.921   2.492 -32.253  1.00  0.00    -0.262 N 
HETATM    2  C   UNL     1      -3.797   3.763 -32.770  1.00  0.00     0.288 C 
HETATM    3  O   UNL     1      -4.504   4.163 -33.693  1.00  0.00    -0.264 OA
HETATM    4  H   UNL     1      -3.325   2.117 -31.518  1.00  0.00     0.190 HD
ENDROOT
BRANCH   2   5
HETATM    5  C   UNL     1      -2.793   4.578 -32.144  1.00  0.00     0.121 A 
HETATM    6  N   UNL     1      -1.540   4.725 -32.667  1.00  0.00    -0.272 N 
HETATM    7  H   UNL     1      -1.176   4.291 -33.510  1.00  0.00     0.189 HD
HETATM    8  N   UNL     1      -0.747   5.557 -31.973  1.00  0.00    -0.174 NA
HETATM    9  C   UNL     1      -1.498   5.951 -30.932  1.00  0.00     0.089 A 
HETATM   10  C   UNL     1      -2.788   5.357 -31.004  1.00  0.00     0.071 A 
BRANCH   9  11
HETATM   11  C   UNL     1      -1.000   6.884 -29.920  1.00  0.00    -0.005 A 
HETATM   12  C   UNL     1      -1.886   7.677 -29.181  1.00  0.00     0.016 A 
HETATM   13  C   UNL     1      -1.411   8.538 -28.185  1.00  0.00     0.037 A 
HETATM   14  C   UNL     1      -0.045   8.625 -27.911  1.00  0.00     0.068 A 
HETATM   15  C   UNL     1       0.847   7.856 -28.656  1.00  0.00     0.037 A 
HETATM   16  C   UNL     1       0.373   6.992 -29.652  1.00  0.00     0.016 A 
BRANCH  14  17
HETATM   17  O   UNL     1       0.286   9.492 -26.907  1.00  0.00    -0.356 OA
HETATM   18  C   UNL     1       1.414   9.151 -26.111  1.00  0.00     0.210 C 
ENDBRANCH  14  17
ENDBRANCH   9  11
ENDBRANCH   2   5
BRANCH   1  19
HETATM   19  N   UNL     1      -4.862   1.609 -32.789  1.00  0.00    -0.267 N 
HETATM   20  C   UNL     1      -5.364   0.642 -31.947  1.00  0.00     0.236 C 
HETATM   21  O   UNL     1      -5.117   0.637 -30.739  1.00  0.00    -0.272 OA
HETATM   22  H   UNL     1      -4.909   1.562 -33.804  1.00  0.00     0.190 HD
BRANCH  20  23
HETATM   23  C   UNL     1      -6.328  -0.346 -32.573  1.00  0.00     0.113 C 
BRANCH  23  24
HETATM   24  C   UNL     1      -6.029  -0.714 -34.034  1.00  0.00     0.023 C 
HETATM   25  C   UNL     1      -7.181  -0.257 -34.937  1.00  0.00     0.015 C 
BRANCH  24  26
HETATM   26  C   UNL     1      -5.753  -2.193 -34.243  1.00  0.00    -0.054 A 
HETATM   27  C   UNL     1      -6.747  -3.074 -34.696  1.00  0.00     0.007 A 
HETATM   28  C   UNL     1      -6.467  -4.431 -34.875  1.00  0.00     0.001 A 
HETATM   29  C   UNL     1      -5.192  -4.923 -34.610  1.00  0.00     0.000 A 
HETATM   30  C   UNL     1      -4.194  -4.060 -34.166  1.00  0.00     0.001 A 
HETATM   31  C   UNL     1      -4.471  -2.704 -33.984  1.00  0.00     0.007 A 
ENDBRANCH  24  26
ENDBRANCH  23  24
ENDBRANCH  20  23
ENDBRANCH   1  19
TORSDOF 7
ENDMDL
MODEL 3
REMARK VINA RESULT:      -8.8      2.371     11.086
REMARK  7 active torsions:
REMARK  status: ('A' for Active; 'I' for Inactive)
REMARK    1  A    between atoms: C_2  and  C_3 
REMARK    2  A    between atoms: C_2  and  C_9 
REMARK    3  A    between atoms: C_9  and  C_10 
REMARK       I    between atoms: C_10  and  N_11 
REMARK    4  A    between atoms: N_11  and  N_12 
REMARK       I    between atoms: N_12  and  C_13 
REMARK    5  A    between atoms: C_13  and  C_14 
REMARK    6  A    between atoms: C_18  and  C_19 
REMARK    7  A    between atoms: C_22  and  O_23 
ROOT
HETATM    1  N   UNL     1      -3.473   3.123 -31.770  1.00  0.00    -0.262 N 
HETATM    2  C   UNL     1      -2.690   4.125 -32.298  1.00  0.00     0.288 C 
HETATM    3  O   UNL     1      -2.238   4.067 -33.441  1.00  0.00    -0.264 OA
HETATM    4  H   UNL     1      -3.828   3.121 -30.817  1.00  0.00     0.190 HD
ENDROOT
BRANCH   2   5
HETATM    5  C   UNL     1      -2.455   5.238 -31.420  1.00  0.00     0.121 A 
HETATM    6  N   UNL     1      -3.449   6.096 -31.046  1.00  0.00    -0.272 N 
HETATM    7  H   UNL     1      -4.423   6.066 -31.334  1.00  0.00     0.189 HD
HETATM    8  N   UNL     1      -3.058   7.052 -30.188  1.00  0.00    -0.174 NA
HETATM    9  C   UNL     1      -1.745   6.834 -30.014  1.00  0.00     0.089 A 
HETATM   10  C   UNL     1      -1.329   5.705 -30.772  1.00  0.00     0.071 A 
BRANCH   9  11
HETATM   11  C   UNL     1      -0.925   7.667 -29.131  1.00  0.00    -0.005 A 
HETATM   12  C   UNL     1      -1.499   8.720 -28.407  1.00  0.00     0.016 A 
HETATM   13  C   UNL     1      -0.722   9.488 -27.532  1.00  0.00     0.037 A 
HETATM   14  C   UNL     1       0.638   9.222 -27.367  1.00  0.00     0.068 A 
HETATM   15  C   UNL     1       1.222   8.191 -28.100  1.00  0.00     0.037 A 
HETATM   16  C   UNL     1       0.446   7.419 -28.975  1.00  0.00     0.016 A 
BRANCH  14  17
HETATM   17  O   UNL     1       1.279  10.036 -26.474  1.00  0.00    -0.356 OA
HETATM   18  C   UNL     1       0.953  11.420 -26.519  1.00  0.00     0.210 C 
ENDBRANCH  14  17
ENDBRANCH   9  11
ENDBRANCH   2   5
BRANCH   1  19
HETATM   19  N   UNL     1      -3.763   1.988 -32.533  1.00  0.00    -0.267 N 
HETATM   20  C   UNL     1      -3.291   0.782 -32.065  1.00  0.00     0.236 C 
HETATM   21  O   UNL     1      -2.768   0.673 -30.954  1.00  0.00    -0.272 OA
HETATM   22  H   UNL     1      -4.054   2.152 -33.494  1.00  0.00     0.190 HD
BRANCH  20  23
HETATM   23  C   UNL     1      -3.558  -0.421 -32.947  1.00  0.00     0.113 C 
BRANCH  23  24
HETATM   24  C   UNL     1      -5.041  -0.696 -33.247  1.00  0.00     0.023 C 
HETATM   25  C   UNL     1      -5.878  -0.494 -31.978  1.00  0.00     0.015 C 
BRANCH  24  26
HETATM   26  C   UNL     1      -5.297  -2.074 -33.832  1.00  0.00    -0.054 A 
HETATM   27  C   UNL     1      -6.543  -2.429 -34.370  1.00  0.00     0.007 A 
HETATM   28  C   UNL     1      -6.752  -3.705 -34.898  1.00  0.00     0.001 A 
HETATM   29  C   UNL     1      -5.720  -4.640 -34.899  1.00  0.00     0.000 A 
HETATM   30  C   UNL     1      -4.477  -4.300 -34.373  1.00  0.00     0.001 A 
HETATM   31  C   UNL     1      -4.265  -3.025 -33.844  1.00  0.00     0.007 A 
ENDBRANCH  24  26
ENDBRANCH  23  24
ENDBRANCH  20  23
ENDBRANCH   1  19
TORSDOF 7
ENDMDL
MODEL 4
REMARK VINA RESULT:      -8.7      2.604     11.403
REMARK  7 active torsions:
REMARK  status: ('A' for Active; 'I' for Inactive)
REMARK    1  A    between atoms: C_2  and  C_3 
REMARK    2  A    between atoms: C_2  and  C_9 
REMARK    3  A    between atoms: C_9  and  C_10 
REMARK       I    between atoms: C_10  and  N_11 
REMARK    4  A    between atoms: N_11  and  N_12 
REMARK       I    between atoms: N_12  and  C_13 
REMARK    5  A    between atoms: C_13  and  C_14 
REMARK    6  A    between atoms: C_18  and  C_19 
REMARK    7  A    between atoms: C_22  and  O_23 
ROOT
HETATM    1  N   UNL     1      -2.481   4.552 -31.107  1.00  0.00    -0.262 N 
HETATM    2  C   UNL     1      -1.227   5.123 -31.108  1.00  0.00     0.288 C 
HETATM    3  O   UNL     1      -0.360   4.794 -31.916  1.00  0.00    -0.264 OA
HETATM    4  H   UNL     1      -3.205   4.772 -30.428  1.00  0.00     0.190 HD
ENDROOT
BRANCH   2   5
HETATM    5  C   UNL     1      -1.019   6.132 -30.106  1.00  0.00     0.121 A 
HETATM    6  N   UNL     1      -2.010   6.983 -29.709  1.00  0.00    -0.272 N 
HETATM    7  H   UNL     1      -2.963   7.017 -30.061  1.00  0.00     0.189 HD
HETATM    8  N   UNL     1      -1.650   7.831 -28.734  1.00  0.00    -0.174 NA
HETATM    9  C   UNL     1      -0.359   7.550 -28.499  1.00  0.00     0.089 A 
HETATM   10  C   UNL     1       0.074   6.489 -29.341  1.00  0.00     0.071 A 
BRANCH   9  11
HETATM   11  C   UNL     1       0.423   8.259 -27.484  1.00  0.00    -0.005 A 
HETATM   12  C   UNL     1       0.156   9.601 -27.185  1.00  0.00     0.016 A 
HETATM   13  C   UNL     1       0.877  10.264 -26.185  1.00  0.00     0.037 A 
HETATM   14  C   UNL     1       1.876   9.602 -25.469  1.00  0.00     0.068 A 
HETATM   15  C   UNL     1       2.164   8.274 -25.774  1.00  0.00     0.037 A 
HETATM   16  C   UNL     1       1.442   7.607 -26.774  1.00  0.00     0.016 A 
BRANCH  14  17
HETATM   17  O   UNL     1       2.494  10.358 -24.511  1.00  0.00    -0.356 OA
HETATM   18  C   UNL     1       3.704   9.842 -23.969  1.00  0.00     0.210 C 
ENDBRANCH  14  17
ENDBRANCH   9  11
ENDBRANCH   2   5
BRANCH   1  19
HETATM   19  N   UNL     1      -2.793   3.554 -32.035  1.00  0.00    -0.267 N 
HETATM   20  C   UNL     1      -3.739   2.626 -31.661  1.00  0.00     0.236 C 
HETATM   21  O   UNL     1      -4.394   2.744 -30.623  1.00  0.00    -0.272 OA
HETATM   22  H   UNL     1      -2.128   3.417 -32.791  1.00  0.00     0.190 HD
BRANCH  20  23
HETATM   23  C   UNL     1      -4.008   1.516 -32.657  1.00  0.00     0.113 C 
BRANCH  23  24
HETATM   24  C   UNL     1      -4.323   0.145 -32.037  1.00  0.00     0.023 C 
HETATM   25  C   UNL     1      -3.057  -0.452 -31.412  1.00  0.00     0.015 C 
BRANCH  24  26
HETATM   26  C   UNL     1      -4.938  -0.838 -33.019  1.00  0.00    -0.054 A 
HETATM   27  C   UNL     1      -6.213  -0.635 -33.569  1.00  0.00     0.007 A 
HETATM   28  C   UNL     1      -6.756  -1.556 -34.466  1.00  0.00     0.001 A 
HETATM   29  C   UNL     1      -6.032  -2.689 -34.830  1.00  0.00     0.000 A 
HETATM   30  C   UNL     1      -4.763  -2.901 -34.297  1.00  0.00     0.001 A 
HETATM   31  C   UNL     1      -4.218  -1.982 -33.398  1.00  0.00     0.007 A 
ENDBRANCH  24  26
ENDBRANCH  23  24
ENDBRANCH  20  23
ENDBRANCH   1  19
TORSDOF 7
ENDMDL
MODEL 5
REMARK VINA RESULT:      -8.4      1.780      2.339
REMARK  7 active torsions:
REMARK  status: ('A' for Active; 'I' for Inactive)
REMARK    1  A    between atoms: C_2  and  C_3 
REMARK    2  A    between atoms: C_2  and  C_9 
REMARK    3  A    between atoms: C_9  and  C_10 
REMARK       I    between atoms: C_10  and  N_11 
REMARK    4  A    between atoms: N_11  and  N_12 
REMARK       I    between atoms: N_12  and  C_13 
REMARK    5  A    between atoms: C_13  and  C_14 
REMARK    6  A    between atoms: C_18  and  C_19 
REMARK    7  A    between atoms: C_22  and  O_23 
ROOT
HETATM    1  N   UNL     1      -3.627   5.029 -30.753  1.00  0.00    -0.262 N 
HETATM    2  C   UNL     1      -2.935   4.044 -31.421  1.00  0.00     0.288 C 
HETATM    3  O   UNL     1      -1.716   4.094 -31.577  1.00  0.00    -0.264 OA
HETATM    4  H   UNL     1      -4.639   5.038 -30.643  1.00  0.00     0.190 HD
ENDROOT
BRANCH   2   5
HETATM    5  C   UNL     1      -3.741   2.959 -31.908  1.00  0.00     0.121 A 
HETATM    6  N   UNL     1      -5.098   3.052 -32.024  1.00  0.00    -0.272 N 
HETATM    7  H   UNL     1      -5.679   3.850 -31.784  1.00  0.00     0.189 HD
HETATM    8  N   UNL     1      -5.684   1.958 -32.536  1.00  0.00    -0.174 NA
HETATM    9  C   UNL     1      -4.675   1.095 -32.737  1.00  0.00     0.089 A 
HETATM   10  C   UNL     1      -3.439   1.687 -32.353  1.00  0.00     0.071 A 
BRANCH   9  11
HETATM   11  C   UNL     1      -4.888  -0.240 -33.299  1.00  0.00    -0.005 A 
HETATM   12  C   UNL     1      -3.936  -1.251 -33.122  1.00  0.00     0.016 A 
HETATM   13  C   UNL     1      -4.161  -2.537 -33.625  1.00  0.00     0.037 A 
HETATM   14  C   UNL     1      -5.337  -2.836 -34.316  1.00  0.00     0.068 A 
HETATM   15  C   UNL     1      -6.281  -1.831 -34.516  1.00  0.00     0.037 A 
HETATM   16  C   UNL     1      -6.058  -0.542 -34.011  1.00  0.00     0.016 A 
BRANCH  14  17
HETATM   17  O   UNL     1      -5.440  -4.131 -34.743  1.00  0.00    -0.356 OA
HETATM   18  C   UNL     1      -6.667  -4.509 -35.355  1.00  0.00     0.210 C 
ENDBRANCH  14  17
ENDBRANCH   9  11
ENDBRANCH   2   5
BRANCH   1  19
HETATM   19  N   UNL     1      -2.946   6.137 -30.242  1.00  0.00    -0.267 N 
HETATM   20  C   UNL     1      -2.963   7.288 -30.998  1.00  0.00     0.236 C 
HETATM   21  O   UNL     1      -3.666   7.395 -32.006  1.00  0.00    -0.272 OA
HETATM   22  H   UNL     1      -2.271   5.951 -29.504  1.00  0.00     0.190 HD
BRANCH  20  23
HETATM   23  C   UNL     1      -2.158   8.450 -30.455  1.00  0.00     0.113 C 
BRANCH  23  24
HETATM   24  C   UNL     1      -2.231   8.640 -28.931  1.00  0.00     0.023 C 
HETATM   25  C   UNL     1      -3.173   9.802 -28.592  1.00  0.00     0.015 C 
BRANCH  24  26
HETATM   26  C   UNL     1      -0.875   8.856 -28.281  1.00  0.00    -0.054 A 
HETATM   27  C   UNL     1       0.214   8.011 -28.545  1.00  0.00     0.007 A 
HETATM   28  C   UNL     1       1.449   8.230 -27.930  1.00  0.00     0.001 A 
HETATM   29  C   UNL     1       1.613   9.295 -27.049  1.00  0.00     0.000 A 
HETATM   30  C   UNL     1       0.543  10.145 -26.782  1.00  0.00     0.001 A 
HETATM   31  C   UNL     1      -0.693   9.928 -27.394  1.00  0.00     0.007 A 
ENDBRANCH  24  26
ENDBRANCH  23  24
ENDBRANCH  20  23
ENDBRANCH   1  19
TORSDOF 7
ENDMDL
MODEL 6
REMARK VINA RESULT:      -7.9      1.860      2.604
REMARK  7 active torsions:
REMARK  status: ('A' for Active; 'I' for Inactive)
REMARK    1  A    between atoms: C_2  and  C_3 
REMARK    2  A    between atoms: C_2  and  C_9 
REMARK    3  A    between atoms: C_9  and  C_10 
REMARK       I    between atoms: C_10  and  N_11 
REMARK    4  A    between atoms: N_11  and  N_12 
REMARK       I    between atoms: N_12  and  C_13 
REMARK    5  A    between atoms: C_13  and  C_14 
REMARK    6  A    between atoms: C_18  and  C_19 
REMARK    7  A    between atoms: C_22  and  O_23 
ROOT
HETATM    1  N   UNL     1      -4.410   4.736 -30.428  1.00  0.00    -0.262 N 
HETATM    2  C   UNL     1      -3.636   4.117 -31.385  1.00  0.00     0.288 C 
HETATM    3  O   UNL     1      -2.493   4.491 -31.641  1.00  0.00    -0.264 OA
HETATM    4  H   UNL     1      -5.372   4.478 -30.221  1.00  0.00     0.190 HD
ENDROOT
BRANCH   2   5
HETATM    5  C   UNL     1      -4.261   3.005 -32.045  1.00  0.00     0.121 A 
HETATM    6  N   UNL     1      -5.416   3.135 -32.761  1.00  0.00    -0.272 N 
HETATM    7  H   UNL     1      -5.956   3.984 -32.900  1.00  0.00     0.189 HD
HETATM    8  N   UNL     1      -5.833   2.001 -33.346  1.00  0.00    -0.174 NA
HETATM    9  C   UNL     1      -4.933   1.077 -32.974  1.00  0.00     0.089 A 
HETATM   10  C   UNL     1      -3.931   1.668 -32.156  1.00  0.00     0.071 A 
BRANCH   9  11
HETATM   11  C   UNL     1      -5.021  -0.318 -33.410  1.00  0.00    -0.005 A 
HETATM   12  C   UNL     1      -6.069  -0.745 -34.234  1.00  0.00     0.016 A 
HETATM   13  C   UNL     1      -6.127  -2.069 -34.684  1.00  0.00     0.037 A 
HETATM   14  C   UNL     1      -5.144  -2.990 -34.317  1.00  0.00     0.068 A 
HETATM   15  C   UNL     1      -4.109  -2.580 -33.479  1.00  0.00     0.037 A 
HETATM   16  C   UNL     1      -4.048  -1.254 -33.029  1.00  0.00     0.016 A 
BRANCH  14  17
HETATM   17  O   UNL     1      -5.311  -4.245 -34.833  1.00  0.00    -0.356 OA
HETATM   18  C   UNL     1      -6.570  -4.532 -35.428  1.00  0.00     0.210 C 
ENDBRANCH  14  17
ENDBRANCH   9  11
ENDBRANCH   2   5
BRANCH   1  19
HETATM   19  N   UNL     1      -3.906   5.834 -29.726  1.00  0.00    -0.267 N 
HETATM   20  C   UNL     1      -4.164   7.083 -30.247  1.00  0.00     0.236 C 
HETATM   21  O   UNL     1      -4.926   7.246 -31.203  1.00  0.00    -0.272 OA
HETATM   22  H   UNL     1      -3.172   5.639 -29.050  1.00  0.00     0.190 HD
BRANCH  20  23
HETATM   23  C   UNL     1      -3.546   8.251 -29.505  1.00  0.00     0.113 C 
BRANCH  23  24
HETATM   24  C   UNL     1      -2.926   7.904 -28.142  1.00  0.00     0.023 C 
HETATM   25  C   UNL     1      -3.594   8.730 -27.037  1.00  0.00     0.015 C 
BRANCH  24  26
HETATM   26  C   UNL     1      -1.419   8.088 -28.098  1.00  0.00    -0.054 A 
HETATM   27  C   UNL     1      -0.806   8.950 -27.175  1.00  0.00     0.007 A 
HETATM   28  C   UNL     1       0.582   9.104 -27.158  1.00  0.00     0.001 A 
HETATM   29  C   UNL     1       1.375   8.396 -28.058  1.00  0.00     0.000 A 
HETATM   30  C   UNL     1       0.782   7.533 -28.975  1.00  0.00     0.001 A 
HETATM   31  C   UNL     1      -0.606   7.379 -28.995  1.00  0.00     0.007 A 
ENDBRANCH  24  26
ENDBRANCH  23  24
ENDBRANCH  20  23
ENDBRANCH   1  19
TORSDOF 7
ENDMDL
MODEL 7
REMARK VINA RESULT:      -7.9      7.198     11.386
REMARK  7 active torsions:
REMARK  status: ('A' for Active; 'I' for Inactive)
REMARK    1  A    between atoms: C_2  and  C_3 
REMARK    2  A    between atoms: C_2  and  C_9 
REMARK    3  A    between atoms: C_9  and  C_10 
REMARK       I    between atoms: C_10  and  N_11 
REMARK    4  A    between atoms: N_11  and  N_12 
REMARK       I    between atoms: N_12  and  C_13 
REMARK    5  A    between atoms: C_13  and  C_14 
REMARK    6  A    between atoms: C_18  and  C_19 
REMARK    7  A    between atoms: C_22  and  O_23 
ROOT
HETATM    1  N   UNL     1     -10.004   0.896 -32.376  1.00  0.00    -0.262 N 
HETATM    2  C   UNL     1     -10.559   1.373 -33.543  1.00  0.00     0.288 C 
HETATM    3  O   UNL     1     -10.085   1.108 -34.647  1.00  0.00    -0.264 OA
HETATM    4  H   UNL     1     -10.346   1.129 -31.447  1.00  0.00     0.190 HD
ENDROOT
BRANCH   2   5
HETATM    5  C   UNL     1     -11.730   2.188 -33.370  1.00  0.00     0.121 A 
HETATM    6  N   UNL     1     -11.832   3.442 -33.899  1.00  0.00    -0.272 N 
HETATM    7  H   UNL     1     -11.129   3.935 -34.441  1.00  0.00     0.189 HD
HETATM    8  N   UNL     1     -13.013   4.040 -33.674  1.00  0.00    -0.174 NA
HETATM    9  C   UNL     1     -13.707   3.157 -32.939  1.00  0.00     0.089 A 
HETATM   10  C   UNL     1     -12.934   1.982 -32.726  1.00  0.00     0.071 A 
BRANCH   9  11
HETATM   11  C   UNL     1     -15.071   3.424 -32.480  1.00  0.00    -0.005 A 
HETATM   12  C   UNL     1     -15.468   4.722 -32.136  1.00  0.00     0.016 A 
HETATM   13  C   UNL     1     -16.785   4.981 -31.737  1.00  0.00     0.037 A 
HETATM   14  C   UNL     1     -17.725   3.952 -31.672  1.00  0.00     0.068 A 
HETATM   15  C   UNL     1     -17.334   2.653 -31.992  1.00  0.00     0.037 A 
HETATM   16  C   UNL     1     -16.017   2.392 -32.393  1.00  0.00     0.016 A 
BRANCH  14  17
HETATM   17  O   UNL     1     -18.977   4.340 -31.282  1.00  0.00    -0.356 OA
HETATM   18  C   UNL     1     -19.066   5.523 -30.497  1.00  0.00     0.210 C 
ENDBRANCH  14  17
ENDBRANCH   9  11
ENDBRANCH   2   5
BRANCH   1  19
HETATM   19  N   UNL     1      -8.858   0.098 -32.424  1.00  0.00    -0.267 N 
HETATM   20  C   UNL     1      -7.648   0.727 -32.231  1.00  0.00     0.236 C 
HETATM   21  O   UNL     1      -7.575   1.908 -31.884  1.00  0.00    -0.272 OA
HETATM   22  H   UNL     1      -8.962  -0.816 -32.858  1.00  0.00     0.190 HD
BRANCH  20  23
HETATM   23  C   UNL     1      -6.418  -0.149 -32.358  1.00  0.00     0.113 C 
BRANCH  23  24
HETATM   24  C   UNL     1      -5.941  -0.400 -33.798  1.00  0.00     0.023 C 
HETATM   25  C   UNL     1      -6.860   0.324 -34.789  1.00  0.00     0.015 C 
BRANCH  24  26
HETATM   26  C   UNL     1      -5.838  -1.873 -34.155  1.00  0.00    -0.054 A 
HETATM   27  C   UNL     1      -6.953  -2.609 -34.585  1.00  0.00     0.007 A 
HETATM   28  C   UNL     1      -6.832  -3.963 -34.903  1.00  0.00     0.001 A 
HETATM   29  C   UNL     1      -5.596  -4.598 -34.802  1.00  0.00     0.000 A 
HETATM   30  C   UNL     1      -4.480  -3.879 -34.382  1.00  0.00     0.001 A 
HETATM   31  C   UNL     1      -4.599  -2.525 -34.062  1.00  0.00     0.007 A 
ENDBRANCH  24  26
ENDBRANCH  23  24
ENDBRANCH  20  23
ENDBRANCH   1  19
TORSDOF 7
ENDMDL
MODEL 8
REMARK VINA RESULT:      -7.9     18.025     20.117
REMARK  7 active torsions:
REMARK  status: ('A' for Active; 'I' for Inactive)
REMARK    1  A    between atoms: C_2  and  C_3 
REMARK    2  A    between atoms: C_2  and  C_9 
REMARK    3  A    between atoms: C_9  and  C_10 
REMARK       I    between atoms: C_10  and  N_11 
REMARK    4  A    between atoms: N_11  and  N_12 
REMARK       I    between atoms: N_12  and  C_13 
REMARK    5  A    between atoms: C_13  and  C_14 
REMARK    6  A    between atoms: C_18  and  C_19 
REMARK    7  A    between atoms: C_22  and  O_23 
ROOT
HETATM    1  N   UNL     1      -6.731 -14.425 -35.538  1.00  0.00    -0.262 N 
HETATM    2  C   UNL     1      -7.000 -13.871 -34.306  1.00  0.00     0.288 C 
HETATM    3  O   UNL     1      -7.572 -12.788 -34.188  1.00  0.00    -0.264 OA
HETATM    4  H   UNL     1      -6.224 -15.297 -35.670  1.00  0.00     0.190 HD
ENDROOT
BRANCH   2   5
HETATM    5  C   UNL     1      -6.574 -14.656 -33.180  1.00  0.00     0.121 A 
HETATM    6  N   UNL     1      -7.327 -15.676 -32.675  1.00  0.00    -0.272 N 
HETATM    7  H   UNL     1      -8.238 -15.985 -33.004  1.00  0.00     0.189 HD
HETATM    8  N   UNL     1      -6.754 -16.328 -31.650  1.00  0.00    -0.174 NA
HETATM    9  C   UNL     1      -5.590 -15.691 -31.451  1.00  0.00     0.089 A 
HETATM   10  C   UNL     1      -5.441 -14.635 -32.392  1.00  0.00     0.071 A 
BRANCH   9  11
HETATM   11  C   UNL     1      -4.644 -16.100 -30.411  1.00  0.00    -0.005 A 
HETATM   12  C   UNL     1      -3.263 -16.005 -30.623  1.00  0.00     0.016 A 
HETATM   13  C   UNL     1      -2.361 -16.357 -29.613  1.00  0.00     0.037 A 
HETATM   14  C   UNL     1      -2.820 -16.813 -28.375  1.00  0.00     0.068 A 
HETATM   15  C   UNL     1      -4.192 -16.932 -28.163  1.00  0.00     0.037 A 
HETATM   16  C   UNL     1      -5.097 -16.578 -29.173  1.00  0.00     0.016 A 
BRANCH  14  17
HETATM   17  O   UNL     1      -1.838 -17.110 -27.472  1.00  0.00    -0.356 OA
HETATM   18  C   UNL     1      -0.549 -16.565 -27.723  1.00  0.00     0.210 C 
ENDBRANCH  14  17
ENDBRANCH   9  11
ENDBRANCH   2   5
BRANCH   1  19
HETATM   19  N   UNL     1      -7.096 -13.746 -36.703  1.00  0.00    -0.267 N 
HETATM   20  C   UNL     1      -6.080 -13.184 -37.445  1.00  0.00     0.236 C 
HETATM   21  O   UNL     1      -4.892 -13.391 -37.185  1.00  0.00    -0.272 OA
HETATM   22  H   UNL     1      -8.074 -13.479 -36.783  1.00  0.00     0.190 HD
BRANCH  20  23
HETATM   23  C   UNL     1      -6.509 -12.394 -38.664  1.00  0.00     0.113 C 
BRANCH  23  24
HETATM   24  C   UNL     1      -6.929 -13.240 -39.877  1.00  0.00     0.023 C 
HETATM   25  C   UNL     1      -6.236 -12.722 -41.143  1.00  0.00     0.015 C 
BRANCH  24  26
HETATM   26  C   UNL     1      -8.432 -13.296 -40.086  1.00  0.00    -0.054 A 
HETATM   27  C   UNL     1      -9.098 -14.503 -40.350  1.00  0.00     0.007 A 
HETATM   28  C   UNL     1     -10.481 -14.526 -40.543  1.00  0.00     0.001 A 
HETATM   29  C   UNL     1     -11.217 -13.346 -40.470  1.00  0.00     0.000 A 
HETATM   30  C   UNL     1     -10.571 -12.141 -40.203  1.00  0.00     0.001 A 
HETATM   31  C   UNL     1      -9.188 -12.116 -40.011  1.00  0.00     0.007 A 
ENDBRANCH  24  26
ENDBRANCH  23  24
ENDBRANCH  20  23
ENDBRANCH   1  19
TORSDOF 7
ENDMDL
MODEL 9
REMARK VINA RESULT:      -7.8      7.691     12.032
REMARK  7 active torsions:
REMARK  status: ('A' for Active; 'I' for Inactive)
REMARK    1  A    between atoms: C_2  and  C_3 
REMARK    2  A    between atoms: C_2  and  C_9 
REMARK    3  A    between atoms: C_9  and  C_10 
REMARK       I    between atoms: C_10  and  N_11 
REMARK    4  A    between atoms: N_11  and  N_12 
REMARK       I    between atoms: N_12  and  C_13 
REMARK    5  A    between atoms: C_13  and  C_14 
REMARK    6  A    between atoms: C_18  and  C_19 
REMARK    7  A    between atoms: C_22  and  O_23 
ROOT
HETATM    1  N   UNL     1     -11.135   1.032 -32.996  1.00  0.00    -0.262 N 
HETATM    2  C   UNL     1     -12.195   1.378 -33.806  1.00  0.00     0.288 C 
HETATM    3  O   UNL     1     -12.216   1.106 -35.005  1.00  0.00    -0.264 OA
HETATM    4  H   UNL     1     -11.069   1.277 -32.011  1.00  0.00     0.190 HD
ENDROOT
BRANCH   2   5
HETATM    5  C   UNL     1     -13.268   2.065 -33.141  1.00  0.00     0.121 A 
HETATM    6  N   UNL     1     -14.350   1.408 -32.630  1.00  0.00    -0.272 N 
HETATM    7  H   UNL     1     -14.531   0.409 -32.665  1.00  0.00     0.189 HD
HETATM    8  N   UNL     1     -15.233   2.204 -32.006  1.00  0.00    -0.174 NA
HETATM    9  C   UNL     1     -14.728   3.441 -32.138  1.00  0.00     0.089 A 
HETATM   10  C   UNL     1     -13.495   3.394 -32.845  1.00  0.00     0.071 A 
BRANCH   9  11
HETATM   11  C   UNL     1     -15.394   4.620 -31.581  1.00  0.00    -0.005 A 
HETATM   12  C   UNL     1     -16.740   4.881 -31.865  1.00  0.00     0.016 A 
HETATM   13  C   UNL     1     -17.386   5.985 -31.298  1.00  0.00     0.037 A 
HETATM   14  C   UNL     1     -16.700   6.850 -30.443  1.00  0.00     0.068 A 
HETATM   15  C   UNL     1     -15.354   6.611 -30.172  1.00  0.00     0.037 A 
HETATM   16  C   UNL     1     -14.706   5.504 -30.737  1.00  0.00     0.016 A 
BRANCH  14  17
HETATM   17  O   UNL     1     -17.449   7.882 -29.947  1.00  0.00    -0.356 OA
HETATM   18  C   UNL     1     -16.845   9.169 -29.946  1.00  0.00     0.210 C 
ENDBRANCH  14  17
ENDBRANCH   9  11
ENDBRANCH   2   5
BRANCH   1  19
HETATM   19  N   UNL     1     -10.033   0.365 -33.537  1.00  0.00    -0.267 N 
HETATM   20  C   UNL     1      -8.947   1.134 -33.892  1.00  0.00     0.236 C 
HETATM   21  O   UNL     1      -8.879   2.334 -33.613  1.00  0.00    -0.272 OA
HETATM   22  H   UNL     1     -10.200  -0.578 -33.881  1.00  0.00     0.190 HD
BRANCH  20  23
HETATM   23  C   UNL     1      -7.795   0.395 -34.541  1.00  0.00     0.113 C 
BRANCH  23  24
HETATM   24  C   UNL     1      -6.780  -0.220 -33.564  1.00  0.00     0.023 C 
HETATM   25  C   UNL     1      -5.599   0.737 -33.363  1.00  0.00     0.015 C 
BRANCH  24  26
HETATM   26  C   UNL     1      -6.280  -1.589 -33.990  1.00  0.00    -0.054 A 
HETATM   27  C   UNL     1      -7.151  -2.575 -34.480  1.00  0.00     0.007 A 
HETATM   28  C   UNL     1      -6.665  -3.828 -34.861  1.00  0.00     0.001 A 
HETATM   29  C   UNL     1      -5.305  -4.110 -34.762  1.00  0.00     0.000 A 
HETATM   30  C   UNL     1      -4.428  -3.140 -34.284  1.00  0.00     0.001 A 
HETATM   31  C   UNL     1      -4.911  -1.887 -33.901  1.00  0.00     0.007 A 
ENDBRANCH  24  26
ENDBRANCH  23  24
ENDBRANCH  20  23
ENDBRANCH   1  19
TORSDOF 7
ENDMDL
MODEL 10
REMARK VINA RESULT:      -7.7      3.626      4.422
REMARK  7 active torsions:
REMARK  status: ('A' for Active; 'I' for Inactive)
REMARK    1  A    between atoms: C_2  and  C_3 
REMARK    2  A    between atoms: C_2  and  C_9 
REMARK    3  A    between atoms: C_9  and  C_10 
REMARK       I    between atoms: C_10  and  N_11 
REMARK    4  A    between atoms: N_11  and  N_12 
REMARK       I    between atoms: N_12  and  C_13 
REMARK    5  A    between atoms: C_13  and  C_14 
REMARK    6  A    between atoms: C_18  and  C_19 
REMARK    7  A    between atoms: C_22  and  O_23 
ROOT
HETATM    1  N   UNL     1      -4.483   4.678 -31.507  1.00  0.00    -0.262 N 
HETATM    2  C   UNL     1      -5.251   3.544 -31.355  1.00  0.00     0.288 C 
HETATM    3  O   UNL     1      -4.966   2.668 -30.541  1.00  0.00    -0.264 OA
HETATM    4  H   UNL     1      -4.669   5.401 -32.198  1.00  0.00     0.190 HD
ENDROOT
BRANCH   2   5
HETATM    5  C   UNL     1      -6.406   3.474 -32.207  1.00  0.00     0.121 A 
HETATM    6  N   UNL     1      -6.498   4.181 -33.372  1.00  0.00    -0.272 N 
HETATM    7  H   UNL     1      -5.807   4.819 -33.756  1.00  0.00     0.189 HD
HETATM    8  N   UNL     1      -7.629   3.961 -34.061  1.00  0.00    -0.174 NA
HETATM    9  C   UNL     1      -8.325   3.098 -33.305  1.00  0.00     0.089 A 
HETATM   10  C   UNL     1      -7.591   2.769 -32.132  1.00  0.00     0.071 A 
BRANCH   9  11
HETATM   11  C   UNL     1      -9.638   2.589 -33.708  1.00  0.00    -0.005 A 
HETATM   12  C   UNL     1     -10.435   3.304 -34.611  1.00  0.00     0.016 A 
HETATM   13  C   UNL     1     -11.670   2.795 -35.027  1.00  0.00     0.037 A 
HETATM   14  C   UNL     1     -12.133   1.568 -34.548  1.00  0.00     0.068 A 
HETATM   15  C   UNL     1     -11.358   0.861 -33.632  1.00  0.00     0.037 A 
HETATM   16  C   UNL     1     -10.119   1.367 -33.216  1.00  0.00     0.016 A 
BRANCH  14  17
HETATM   17  O   UNL     1     -13.348   1.179 -35.042  1.00  0.00    -0.356 OA
HETATM   18  C   UNL     1     -14.341   0.819 -34.091  1.00  0.00     0.210 C 
ENDBRANCH  14  17
ENDBRANCH   9  11
ENDBRANCH   2   5
BRANCH   1  19
HETATM   19  N   UNL     1      -3.332   4.850 -30.734  1.00  0.00    -0.267 N 
HETATM   20  C   UNL     1      -2.158   5.105 -31.407  1.00  0.00     0.236 C 
HETATM   21  O   UNL     1      -2.136   5.323 -32.620  1.00  0.00    -0.272 OA
HETATM   22  H   UNL     1      -3.377   4.513 -29.775  1.00  0.00     0.190 HD
BRANCH  20  23
HETATM   23  C   UNL     1      -0.914   5.217 -30.549  1.00  0.00     0.113 C 
BRANCH  23  24
HETATM   24  C   UNL     1      -0.367   6.643 -30.374  1.00  0.00     0.023 C 
HETATM   25  C   UNL     1       0.778   6.891 -31.363  1.00  0.00     0.015 C 
BRANCH  24  26
HETATM   26  C   UNL     1       0.087   6.948 -28.957  1.00  0.00    -0.054 A 
HETATM   27  C   UNL     1       1.026   7.955 -28.682  1.00  0.00     0.007 A 
HETATM   28  C   UNL     1       1.430   8.212 -27.370  1.00  0.00     0.001 A 
HETATM   29  C   UNL     1       0.898   7.472 -26.317  1.00  0.00     0.000 A 
HETATM   30  C   UNL     1      -0.039   6.475 -26.573  1.00  0.00     0.001 A 
HETATM   31  C   UNL     1      -0.443   6.214 -27.884  1.00  0.00     0.007 A 
ENDBRANCH  24  26
ENDBRANCH  23  24
ENDBRANCH  20  23
ENDBRANCH   1  19
TORSDOF 7
ENDMDL
