MODEL 1
REMARK VINA RESULT:      -9.7      0.000      0.000
REMARK  8 active torsions:
REMARK  status: ('A' for Active; 'I' for Inactive)
REMARK    1  A    between atoms: C_4  and  S_5 
REMARK    2  A    between atoms: S_5  and  C_6 
REMARK    3  A    between atoms: C_6  and  C_7 
REMARK       I    between atoms: C_7  and  N_8 
REMARK    4  A    between atoms: N_8  and  C_9 
REMARK    5  A    between atoms: C_20  and  C_21 
REMARK    6  A    between atoms: C_27  and  C_28 
REMARK       I    between atoms: C_28  and  N_29 
REMARK    7  A    between atoms: N_29  and  C_30 
REMARK    8  A    between atoms: C_31  and  O_32 
ROOT
HETATM    1  C   UNL     1      -2.772   0.110 -31.094  1.00  0.00     0.069 C 
HETATM    2  C   UNL     1      -3.641   1.207 -31.654  1.00  0.00     0.019 C 
HETATM    3  N   UNL     1      -3.060   2.463 -31.726  1.00  0.00    -0.353 N 
HETATM    4  C   UNL     1      -3.623   3.559 -32.354  1.00  0.00     0.087 C 
HETATM    5  C   UNL     1      -4.907   3.488 -32.779  1.00  0.00     0.055 C 
HETATM    6  C   UNL     1      -5.670   4.721 -33.234  1.00  0.00     0.019 C 
HETATM    7  N   UNL     1      -6.303   5.744 -33.611  1.00  0.00    -0.096 N 
HETATM    8  C   UNL     1      -5.710   2.187 -32.672  1.00  0.00     0.104 C 
HETATM    9  C   UNL     1      -4.902   1.029 -32.110  1.00  0.00     0.046 C 
HETATM   10  H   UNL     1      -2.054   2.517 -31.586  1.00  0.00     0.166 HD
ENDROOT
BRANCH   4  11
HETATM   11  S   UNL     1      -2.618   4.945 -32.707  1.00  0.00    -0.102 SA
BRANCH  11  12
HETATM   12  C   UNL     1      -1.315   4.828 -31.441  1.00  0.00     0.184 C 
BRANCH  12  13
HETATM   13  C   UNL     1      -1.188   6.116 -30.620  1.00  0.00     0.231 C 
HETATM   14  N   UNL     1      -0.589   5.957 -29.384  1.00  0.00    -0.326 N 
HETATM   15  H   UNL     1      -0.364   4.998 -29.137  1.00  0.00     0.169 HD
HETATM   16  O   UNL     1      -1.570   7.183 -31.097  1.00  0.00    -0.272 OA
BRANCH  14  17
HETATM   17  C   UNL     1      -0.334   6.925 -28.395  1.00  0.00     0.036 A 
HETATM   18  C   UNL     1      -1.199   7.217 -27.339  1.00  0.00     0.053 A 
HETATM   19  C   UNL     1      -0.850   8.193 -26.401  1.00  0.00     0.036 A 
HETATM   20 CL   UNL     1      -1.924   8.554 -25.103  1.00  0.00    -0.084 Cl
HETATM   21  C   UNL     1       0.357   8.883 -26.501  1.00  0.00     0.024 A 
HETATM   22  C   UNL     1       1.224   8.597 -27.552  1.00  0.00     0.004 A 
HETATM   23  C   UNL     1       0.878   7.627 -28.494  1.00  0.00     0.029 A 
ENDBRANCH  14  17
ENDBRANCH  12  13
ENDBRANCH  11  12
ENDBRANCH   4  11
BRANCH   8  24
HETATM   24  C   UNL     1      -7.022   2.415 -31.922  1.00  0.00    -0.044 A 
HETATM   25  C   UNL     1      -8.242   2.136 -32.561  1.00  0.00     0.008 A 
HETATM   26  C   UNL     1      -9.454   2.391 -31.920  1.00  0.00     0.001 A 
HETATM   27  C   UNL     1      -9.463   2.924 -30.635  1.00  0.00     0.000 A 
HETATM   28  C   UNL     1      -8.261   3.196 -29.984  1.00  0.00     0.001 A 
HETATM   29  C   UNL     1      -7.045   2.944 -30.621  1.00  0.00     0.008 A 
ENDBRANCH   8  24
BRANCH   9  30
HETATM   30  C   UNL     1      -5.407  -0.351 -32.359  1.00  0.00     0.255 C 
HETATM   31  N   UNL     1      -5.043  -0.859 -33.587  1.00  0.00    -0.321 N 
HETATM   32  H   UNL     1      -4.728  -0.199 -34.285  1.00  0.00     0.169 HD
HETATM   33  O   UNL     1      -6.146  -0.870 -31.529  1.00  0.00    -0.268 OA
BRANCH  31  34
HETATM   34  C   UNL     1      -5.292  -2.178 -34.032  1.00  0.00     0.068 A 
HETATM   35  C   UNL     1      -4.477  -3.287 -33.726  1.00  0.00     0.095 A 
HETATM   36  C   UNL     1      -4.871  -4.564 -34.150  1.00  0.00     0.039 A 
HETATM   37  C   UNL     1      -6.029  -4.733 -34.911  1.00  0.00     0.003 A 
HETATM   38  C   UNL     1      -6.788  -3.628 -35.281  1.00  0.00     0.002 A 
HETATM   39  C   UNL     1      -6.416  -2.354 -34.853  1.00  0.00     0.032 A 
BRANCH  35  40
HETATM   40  O   UNL     1      -3.261  -3.034 -33.145  1.00  0.00    -0.354 OA
HETATM   41  C   UNL     1      -3.035  -3.543 -31.839  1.00  0.00     0.210 C 
ENDBRANCH  35  40
ENDBRANCH  31  34
ENDBRANCH   9  30
TORSDOF 8
ENDMDL
MODEL 2
REMARK VINA RESULT:      -9.6      3.459      4.383
REMARK  8 active torsions:
REMARK  status: ('A' for Active; 'I' for Inactive)
REMARK    1  A    between atoms: C_4  and  S_5 
REMARK    2  A    between atoms: S_5  and  C_6 
REMARK    3  A    between atoms: C_6  and  C_7 
REMARK       I    between atoms: C_7  and  N_8 
REMARK    4  A    between atoms: N_8  and  C_9 
REMARK    5  A    between atoms: C_20  and  C_21 
REMARK    6  A    between atoms: C_27  and  C_28 
REMARK       I    between atoms: C_28  and  N_29 
REMARK    7  A    between atoms: N_29  and  C_30 
REMARK    8  A    between atoms: C_31  and  O_32 
ROOT
HETATM    1  C   UNL     1      -5.884   0.631 -29.683  1.00  0.00     0.069 C 
HETATM    2  C   UNL     1      -6.574   1.841 -30.260  1.00  0.00     0.019 C 
HETATM    3  N   UNL     1      -6.921   2.830 -29.354  1.00  0.00    -0.353 N 
HETATM    4  C   UNL     1      -7.407   4.079 -29.696  1.00  0.00     0.087 C 
HETATM    5  C   UNL     1      -7.753   4.322 -30.982  1.00  0.00     0.055 C 
HETATM    6  C   UNL     1      -8.532   5.565 -31.382  1.00  0.00     0.019 C 
HETATM    7  N   UNL     1      -9.178   6.595 -31.713  1.00  0.00    -0.096 N 
HETATM    8  C   UNL     1      -7.519   3.279 -32.081  1.00  0.00     0.104 C 
HETATM    9  C   UNL     1      -6.829   2.023 -31.575  1.00  0.00     0.046 C 
HETATM   10  H   UNL     1      -6.522   2.765 -28.421  1.00  0.00     0.166 HD
ENDROOT
BRANCH   4  11
HETATM   11  S   UNL     1      -7.423   5.345 -28.489  1.00  0.00    -0.102 SA
BRANCH  11  12
HETATM   12  C   UNL     1      -5.657   5.747 -28.310  1.00  0.00     0.184 C 
BRANCH  12  13
HETATM   13  C   UNL     1      -4.997   6.071 -29.655  1.00  0.00     0.231 C 
HETATM   14  N   UNL     1      -4.259   5.037 -30.201  1.00  0.00    -0.326 N 
HETATM   15  H   UNL     1      -4.186   4.208 -29.617  1.00  0.00     0.169 HD
HETATM   16  O   UNL     1      -5.181   7.169 -30.176  1.00  0.00    -0.272 OA
BRANCH  14  17
HETATM   17  C   UNL     1      -3.529   5.011 -31.404  1.00  0.00     0.036 A 
HETATM   18  C   UNL     1      -4.106   5.063 -32.674  1.00  0.00     0.053 A 
HETATM   19  C   UNL     1      -3.293   5.039 -33.810  1.00  0.00     0.036 A 
HETATM   20 CL   UNL     1      -4.010   5.098 -35.376  1.00  0.00    -0.084 Cl
HETATM   21  C   UNL     1      -1.906   4.966 -33.697  1.00  0.00     0.024 A 
HETATM   22  C   UNL     1      -1.324   4.913 -32.434  1.00  0.00     0.004 A 
HETATM   23  C   UNL     1      -2.132   4.931 -31.295  1.00  0.00     0.029 A 
ENDBRANCH  14  17
ENDBRANCH  12  13
ENDBRANCH  11  12
ENDBRANCH   4  11
BRANCH   8  24
HETATM   24  C   UNL     1      -8.814   2.982 -32.838  1.00  0.00    -0.044 A 
HETATM   25  C   UNL     1      -9.662   1.960 -32.382  1.00  0.00     0.008 A 
HETATM   26  C   UNL     1     -10.819   1.629 -33.087  1.00  0.00     0.001 A 
HETATM   27  C   UNL     1     -11.144   2.317 -34.252  1.00  0.00     0.000 A 
HETATM   28  C   UNL     1     -10.317   3.342 -34.711  1.00  0.00     0.001 A 
HETATM   29  C   UNL     1      -9.158   3.676 -34.010  1.00  0.00     0.008 A 
ENDBRANCH   8  24
BRANCH   9  30
HETATM   30  C   UNL     1      -6.164   1.148 -32.583  1.00  0.00     0.255 C 
HETATM   31  N   UNL     1      -6.449  -0.191 -32.424  1.00  0.00    -0.321 N 
HETATM   32  H   UNL     1      -6.827  -0.481 -31.533  1.00  0.00     0.169 HD
HETATM   33  O   UNL     1      -5.382   1.652 -33.382  1.00  0.00    -0.268 OA
BRANCH  31  34
HETATM   34  C   UNL     1      -6.043  -1.222 -33.303  1.00  0.00     0.068 A 
HETATM   35  C   UNL     1      -4.736  -1.749 -33.361  1.00  0.00     0.095 A 
HETATM   36  C   UNL     1      -4.471  -2.830 -34.212  1.00  0.00     0.039 A 
HETATM   37  C   UNL     1      -5.474  -3.350 -35.033  1.00  0.00     0.003 A 
HETATM   38  C   UNL     1      -6.741  -2.777 -35.034  1.00  0.00     0.002 A 
HETATM   39  C   UNL     1      -7.022  -1.710 -34.181  1.00  0.00     0.032 A 
BRANCH  35  40
HETATM   40  O   UNL     1      -3.755  -1.076 -32.677  1.00  0.00    -0.354 OA
HETATM   41  C   UNL     1      -2.865  -1.841 -31.879  1.00  0.00     0.210 C 
ENDBRANCH  35  40
ENDBRANCH  31  34
ENDBRANCH   9  30
TORSDOF 8
ENDMDL
MODEL 3
REMARK VINA RESULT:      -9.5      5.024      8.780
REMARK  8 active torsions:
REMARK  status: ('A' for Active; 'I' for Inactive)
REMARK    1  A    between atoms: C_4  and  S_5 
REMARK    2  A    between atoms: S_5  and  C_6 
REMARK    3  A    between atoms: C_6  and  C_7 
REMARK       I    between atoms: C_7  and  N_8 
REMARK    4  A    between atoms: N_8  and  C_9 
REMARK    5  A    between atoms: C_20  and  C_21 
REMARK    6  A    between atoms: C_27  and  C_28 
REMARK       I    between atoms: C_28  and  N_29 
REMARK    7  A    between atoms: N_29  and  C_30 
REMARK    8  A    between atoms: C_31  and  O_32 
ROOT
HETATM    1  C   UNL     1      -9.718   1.306 -34.653  1.00  0.00     0.069 C 
HETATM    2  C   UNL     1      -8.819   1.939 -33.621  1.00  0.00     0.019 C 
HETATM    3  N   UNL     1      -9.441   2.779 -32.711  1.00  0.00    -0.353 N 
HETATM    4  C   UNL     1      -8.831   3.324 -31.596  1.00  0.00     0.087 C 
HETATM    5  C   UNL     1      -7.491   3.200 -31.450  1.00  0.00     0.055 C 
HETATM    6  C   UNL     1      -6.721   3.987 -30.402  1.00  0.00     0.019 C 
HETATM    7  N   UNL     1      -6.084   4.640 -29.533  1.00  0.00    -0.096 N 
HETATM    8  C   UNL     1      -6.655   2.379 -32.439  1.00  0.00     0.104 C 
HETATM    9  C   UNL     1      -7.491   1.710 -33.517  1.00  0.00     0.046 C 
HETATM   10  H   UNL     1     -10.457   2.757 -32.678  1.00  0.00     0.166 HD
ENDROOT
BRANCH   4  11
HETATM   11  S   UNL     1      -9.826   4.028 -30.342  1.00  0.00    -0.102 SA
BRANCH  11  12
HETATM   12  C   UNL     1     -10.668   5.385 -31.215  1.00  0.00     0.184 C 
BRANCH  12  13
HETATM   13  C   UNL     1     -11.841   4.886 -32.067  1.00  0.00     0.231 C 
HETATM   14  N   UNL     1     -12.445   3.732 -31.601  1.00  0.00    -0.326 N 
HETATM   15  H   UNL     1     -12.000   3.315 -30.788  1.00  0.00     0.169 HD
HETATM   16  O   UNL     1     -12.195   5.528 -33.053  1.00  0.00    -0.272 OA
BRANCH  14  17
HETATM   17  C   UNL     1     -13.526   3.017 -32.149  1.00  0.00     0.036 A 
HETATM   18  C   UNL     1     -14.848   3.143 -31.720  1.00  0.00     0.053 A 
HETATM   19  C   UNL     1     -15.855   2.393 -32.335  1.00  0.00     0.036 A 
HETATM   20 CL   UNL     1     -17.485   2.548 -31.799  1.00  0.00    -0.084 Cl
HETATM   21  C   UNL     1     -15.559   1.518 -33.379  1.00  0.00     0.024 A 
HETATM   22  C   UNL     1     -14.242   1.387 -33.810  1.00  0.00     0.004 A 
HETATM   23  C   UNL     1     -13.232   2.130 -33.196  1.00  0.00     0.029 A 
ENDBRANCH  14  17
ENDBRANCH  12  13
ENDBRANCH  11  12
ENDBRANCH   4  11
BRANCH   8  24
HETATM   24  C   UNL     1      -5.508   3.214 -33.009  1.00  0.00    -0.044 A 
HETATM   25  C   UNL     1      -4.207   3.033 -32.513  1.00  0.00     0.008 A 
HETATM   26  C   UNL     1      -3.154   3.823 -32.973  1.00  0.00     0.001 A 
HETATM   27  C   UNL     1      -3.387   4.799 -33.937  1.00  0.00     0.000 A 
HETATM   28  C   UNL     1      -4.671   4.984 -34.447  1.00  0.00     0.001 A 
HETATM   29  C   UNL     1      -5.729   4.197 -33.989  1.00  0.00     0.008 A 
ENDBRANCH   8  24
BRANCH   9  30
HETATM   30  C   UNL     1      -6.882   0.564 -34.252  1.00  0.00     0.255 C 
HETATM   31  N   UNL     1      -6.537  -0.493 -33.438  1.00  0.00    -0.321 N 
HETATM   32  H   UNL     1      -6.466  -0.309 -32.447  1.00  0.00     0.169 HD
HETATM   33  O   UNL     1      -6.664   0.680 -35.453  1.00  0.00    -0.268 OA
BRANCH  31  34
HETATM   34  C   UNL     1      -6.047  -1.742 -33.885  1.00  0.00     0.068 A 
HETATM   35  C   UNL     1      -4.698  -2.142 -33.804  1.00  0.00     0.095 A 
HETATM   36  C   UNL     1      -4.343  -3.439 -34.199  1.00  0.00     0.039 A 
HETATM   37  C   UNL     1      -5.303  -4.311 -34.718  1.00  0.00     0.003 A 
HETATM   38  C   UNL     1      -6.619  -3.886 -34.874  1.00  0.00     0.002 A 
HETATM   39  C   UNL     1      -6.987  -2.604 -34.470  1.00  0.00     0.032 A 
BRANCH  35  40
HETATM   40  O   UNL     1      -3.776  -1.183 -33.468  1.00  0.00    -0.354 OA
HETATM   41  C   UNL     1      -3.191  -1.254 -32.177  1.00  0.00     0.210 C 
ENDBRANCH  35  40
ENDBRANCH  31  34
ENDBRANCH   9  30
TORSDOF 8
ENDMDL
MODEL 4
REMARK VINA RESULT:      -9.4      3.346      4.341
REMARK  8 active torsions:
REMARK  status: ('A' for Active; 'I' for Inactive)
REMARK    1  A    between atoms: C_4  and  S_5 
REMARK    2  A    between atoms: S_5  and  C_6 
REMARK    3  A    between atoms: C_6  and  C_7 
REMARK       I    between atoms: C_7  and  N_8 
REMARK    4  A    between atoms: N_8  and  C_9 
REMARK    5  A    between atoms: C_20  and  C_21 
REMARK    6  A    between atoms: C_27  and  C_28 
REMARK       I    between atoms: C_28  and  N_29 
REMARK    7  A    between atoms: N_29  and  C_30 
REMARK    8  A    between atoms: C_31  and  O_32 
ROOT
HETATM    1  C   UNL     1      -5.849   0.702 -29.765  1.00  0.00     0.069 C 
HETATM    2  C   UNL     1      -6.702   1.789 -30.369  1.00  0.00     0.019 C 
HETATM    3  N   UNL     1      -7.134   2.775 -29.497  1.00  0.00    -0.353 N 
HETATM    4  C   UNL     1      -7.781   3.937 -29.877  1.00  0.00     0.087 C 
HETATM    5  C   UNL     1      -8.201   4.069 -31.157  1.00  0.00     0.055 C 
HETATM    6  C   UNL     1      -9.140   5.187 -31.582  1.00  0.00     0.019 C 
HETATM    7  N   UNL     1      -9.919   6.114 -31.933  1.00  0.00    -0.096 N 
HETATM    8  C   UNL     1      -7.881   3.006 -32.214  1.00  0.00     0.104 C 
HETATM    9  C   UNL     1      -7.025   1.870 -31.679  1.00  0.00     0.046 C 
HETATM   10  H   UNL     1      -6.696   2.807 -28.579  1.00  0.00     0.166 HD
ENDROOT
BRANCH   4  11
HETATM   11  S   UNL     1      -7.907   5.252 -28.732  1.00  0.00    -0.102 SA
BRANCH  11  12
HETATM   12  C   UNL     1      -6.171   5.748 -28.500  1.00  0.00     0.184 C 
BRANCH  12  13
HETATM   13  C   UNL     1      -5.454   5.985 -29.834  1.00  0.00     0.231 C 
HETATM   14  N   UNL     1      -4.412   5.113 -30.093  1.00  0.00    -0.326 N 
HETATM   15  H   UNL     1      -4.203   4.461 -29.342  1.00  0.00     0.169 HD
HETATM   16  O   UNL     1      -5.847   6.871 -30.589  1.00  0.00    -0.272 OA
BRANCH  14  17
HETATM   17  C   UNL     1      -3.555   5.066 -31.208  1.00  0.00     0.036 A 
HETATM   18  C   UNL     1      -2.755   6.128 -31.629  1.00  0.00     0.053 A 
HETATM   19  C   UNL     1      -1.930   5.980 -32.747  1.00  0.00     0.036 A 
HETATM   20 CL   UNL     1      -0.948   7.297 -33.267  1.00  0.00    -0.084 Cl
HETATM   21  C   UNL     1      -1.890   4.779 -33.453  1.00  0.00     0.024 A 
HETATM   22  C   UNL     1      -2.687   3.715 -33.039  1.00  0.00     0.004 A 
HETATM   23  C   UNL     1      -3.517   3.860 -31.925  1.00  0.00     0.029 A 
ENDBRANCH  14  17
ENDBRANCH  12  13
ENDBRANCH  11  12
ENDBRANCH   4  11
BRANCH   8  24
HETATM   24  C   UNL     1      -9.157   2.517 -32.900  1.00  0.00    -0.044 A 
HETATM   25  C   UNL     1      -9.770   1.334 -32.456  1.00  0.00     0.008 A 
HETATM   26  C   UNL     1     -10.900   0.833 -33.103  1.00  0.00     0.001 A 
HETATM   27  C   UNL     1     -11.433   1.510 -34.196  1.00  0.00     0.000 A 
HETATM   28  C   UNL     1     -10.842   2.692 -34.641  1.00  0.00     0.001 A 
HETATM   29  C   UNL     1      -9.709   3.196 -33.998  1.00  0.00     0.008 A 
ENDBRANCH   8  24
BRANCH   9  30
HETATM   30  C   UNL     1      -6.295   1.030 -32.672  1.00  0.00     0.255 C 
HETATM   31  N   UNL     1      -6.487  -0.323 -32.496  1.00  0.00    -0.321 N 
HETATM   32  H   UNL     1      -6.849  -0.627 -31.602  1.00  0.00     0.169 HD
HETATM   33  O   UNL     1      -5.546   1.577 -33.474  1.00  0.00    -0.268 OA
BRANCH  31  34
HETATM   34  C   UNL     1      -6.005  -1.335 -33.359  1.00  0.00     0.068 A 
HETATM   35  C   UNL     1      -4.649  -1.701 -33.475  1.00  0.00     0.095 A 
HETATM   36  C   UNL     1      -4.298  -2.779 -34.299  1.00  0.00     0.039 A 
HETATM   37  C   UNL     1      -5.273  -3.453 -35.039  1.00  0.00     0.003 A 
HETATM   38  C   UNL     1      -6.600  -3.039 -34.985  1.00  0.00     0.002 A 
HETATM   39  C   UNL     1      -6.963  -1.977 -34.157  1.00  0.00     0.032 A 
BRANCH  35  40
HETATM   40  O   UNL     1      -3.723  -0.884 -32.877  1.00  0.00    -0.354 OA
HETATM   41  C   UNL     1      -3.045  -1.383 -31.733  1.00  0.00     0.210 C 
ENDBRANCH  35  40
ENDBRANCH  31  34
ENDBRANCH   9  30
TORSDOF 8
ENDMDL
MODEL 5
REMARK VINA RESULT:      -9.3      3.168      5.797
REMARK  8 active torsions:
REMARK  status: ('A' for Active; 'I' for Inactive)
REMARK    1  A    between atoms: C_4  and  S_5 
REMARK    2  A    between atoms: S_5  and  C_6 
REMARK    3  A    between atoms: C_6  and  C_7 
REMARK       I    between atoms: C_7  and  N_8 
REMARK    4  A    between atoms: N_8  and  C_9 
REMARK    5  A    between atoms: C_20  and  C_21 
REMARK    6  A    between atoms: C_27  and  C_28 
REMARK       I    between atoms: C_28  and  N_29 
REMARK    7  A    between atoms: N_29  and  C_30 
REMARK    8  A    between atoms: C_31  and  O_32 
ROOT
HETATM    1  C   UNL     1      -9.444   5.464 -34.437  1.00  0.00     0.069 C 
HETATM    2  C   UNL     1      -8.330   4.628 -33.860  1.00  0.00     0.019 C 
HETATM    3  N   UNL     1      -7.073   5.211 -33.861  1.00  0.00    -0.353 N 
HETATM    4  C   UNL     1      -5.958   4.684 -33.234  1.00  0.00     0.087 C 
HETATM    5  C   UNL     1      -6.015   3.429 -32.731  1.00  0.00     0.055 C 
HETATM    6  C   UNL     1      -4.769   2.692 -32.269  1.00  0.00     0.019 C 
HETATM    7  N   UNL     1      -3.735   2.081 -31.886  1.00  0.00    -0.096 N 
HETATM    8  C   UNL     1      -7.319   2.622 -32.750  1.00  0.00     0.104 C 
HETATM    9  C   UNL     1      -8.494   3.397 -33.324  1.00  0.00     0.046 C 
HETATM   10  H   UNL     1      -7.024   6.207 -34.062  1.00  0.00     0.166 HD
ENDROOT
BRANCH   4  11
HETATM   11  S   UNL     1      -4.562   5.707 -32.984  1.00  0.00    -0.102 SA
BRANCH  11  12
HETATM   12  C   UNL     1      -4.947   6.530 -31.406  1.00  0.00     0.184 C 
BRANCH  12  13
HETATM   13  C   UNL     1      -3.750   7.312 -30.854  1.00  0.00     0.231 C 
HETATM   14  N   UNL     1      -2.895   6.574 -30.057  1.00  0.00    -0.326 N 
HETATM   15  H   UNL     1      -3.193   5.620 -29.877  1.00  0.00     0.169 HD
HETATM   16  O   UNL     1      -3.597   8.491 -31.165  1.00  0.00    -0.272 OA
BRANCH  14  17
HETATM   17  C   UNL     1      -1.724   6.990 -29.395  1.00  0.00     0.036 A 
HETATM   18  C   UNL     1      -1.688   7.460 -28.082  1.00  0.00     0.053 A 
HETATM   19  C   UNL     1      -0.472   7.843 -27.511  1.00  0.00     0.036 A 
HETATM   20 CL   UNL     1      -0.434   8.427 -25.891  1.00  0.00    -0.084 Cl
HETATM   21  C   UNL     1       0.717   7.759 -28.235  1.00  0.00     0.024 A 
HETATM   22  C   UNL     1       0.688   7.292 -29.546  1.00  0.00     0.004 A 
HETATM   23  C   UNL     1      -0.526   6.914 -30.123  1.00  0.00     0.029 A 
ENDBRANCH  14  17
ENDBRANCH  12  13
ENDBRANCH  11  12
ENDBRANCH   4  11
BRANCH   8  24
HETATM   24  C   UNL     1      -7.113   1.267 -33.427  1.00  0.00    -0.044 A 
HETATM   25  C   UNL     1      -7.127   1.186 -34.830  1.00  0.00     0.008 A 
HETATM   26  C   UNL     1      -7.001  -0.046 -35.471  1.00  0.00     0.001 A 
HETATM   27  C   UNL     1      -6.857  -1.209 -34.721  1.00  0.00     0.000 A 
HETATM   28  C   UNL     1      -6.830  -1.143 -33.329  1.00  0.00     0.001 A 
HETATM   29  C   UNL     1      -6.957   0.087 -32.682  1.00  0.00     0.008 A 
ENDBRANCH   8  24
BRANCH   9  30
HETATM   30  C   UNL     1      -9.866   2.910 -33.004  1.00  0.00     0.255 C 
HETATM   31  N   UNL     1     -10.500   2.309 -34.068  1.00  0.00    -0.321 N 
HETATM   32  H   UNL     1     -10.127   2.487 -34.991  1.00  0.00     0.169 HD
HETATM   33  O   UNL     1     -10.335   3.148 -31.896  1.00  0.00    -0.268 OA
BRANCH  31  34
HETATM   34  C   UNL     1     -11.758   1.662 -34.011  1.00  0.00     0.068 A 
HETATM   35  C   UNL     1     -12.978   2.264 -34.379  1.00  0.00     0.095 A 
HETATM   36  C   UNL     1     -14.152   1.498 -34.363  1.00  0.00     0.039 A 
HETATM   37  C   UNL     1     -14.125   0.168 -33.940  1.00  0.00     0.003 A 
HETATM   38  C   UNL     1     -12.934  -0.400 -33.499  1.00  0.00     0.002 A 
HETATM   39  C   UNL     1     -11.757   0.347 -33.524  1.00  0.00     0.032 A 
BRANCH  35  40
HETATM   40  O   UNL     1     -12.971   3.618 -34.600  1.00  0.00    -0.354 OA
HETATM   41  C   UNL     1     -13.330   4.465 -33.519  1.00  0.00     0.210 C 
ENDBRANCH  35  40
ENDBRANCH  31  34
ENDBRANCH   9  30
TORSDOF 8
ENDMDL
MODEL 6
REMARK VINA RESULT:      -9.3      4.531      8.384
REMARK  8 active torsions:
REMARK  status: ('A' for Active; 'I' for Inactive)
REMARK    1  A    between atoms: C_4  and  S_5 
REMARK    2  A    between atoms: S_5  and  C_6 
REMARK    3  A    between atoms: C_6  and  C_7 
REMARK       I    between atoms: C_7  and  N_8 
REMARK    4  A    between atoms: N_8  and  C_9 
REMARK    5  A    between atoms: C_20  and  C_21 
REMARK    6  A    between atoms: C_27  and  C_28 
REMARK       I    between atoms: C_28  and  N_29 
REMARK    7  A    between atoms: N_29  and  C_30 
REMARK    8  A    between atoms: C_31  and  O_32 
ROOT
HETATM    1  C   UNL     1      -9.152   2.222 -34.238  1.00  0.00     0.069 C 
HETATM    2  C   UNL     1      -8.334   3.101 -33.327  1.00  0.00     0.019 C 
HETATM    3  N   UNL     1      -8.827   4.379 -33.115  1.00  0.00    -0.353 N 
HETATM    4  C   UNL     1      -8.321   5.277 -32.194  1.00  0.00     0.087 C 
HETATM    5  C   UNL     1      -7.154   4.995 -31.569  1.00  0.00     0.055 C 
HETATM    6  C   UNL     1      -6.409   6.037 -30.751  1.00  0.00     0.019 C 
HETATM    7  N   UNL     1      -5.791   6.902 -30.074  1.00  0.00    -0.096 N 
HETATM    8  C   UNL     1      -6.440   3.655 -31.784  1.00  0.00     0.104 C 
HETATM    9  C   UNL     1      -7.203   2.711 -32.698  1.00  0.00     0.046 C 
HETATM   10  H   UNL     1      -9.780   4.564 -33.419  1.00  0.00     0.166 HD
ENDROOT
BRANCH   4  11
HETATM   11  S   UNL     1      -9.276   6.677 -31.759  1.00  0.00    -0.102 SA
BRANCH  11  12
HETATM   12  C   UNL     1     -10.299   6.053 -30.390  1.00  0.00     0.184 C 
BRANCH  12  13
HETATM   13  C   UNL     1     -10.966   4.715 -30.728  1.00  0.00     0.231 C 
HETATM   14  N   UNL     1     -12.067   4.811 -31.560  1.00  0.00    -0.326 N 
HETATM   15  H   UNL     1     -12.343   5.759 -31.796  1.00  0.00     0.169 HD
HETATM   16  O   UNL     1     -10.487   3.669 -30.295  1.00  0.00    -0.272 OA
BRANCH  14  17
HETATM   17  C   UNL     1     -12.899   3.785 -32.046  1.00  0.00     0.036 A 
HETATM   18  C   UNL     1     -12.564   2.935 -33.101  1.00  0.00     0.053 A 
HETATM   19  C   UNL     1     -13.457   1.940 -33.506  1.00  0.00     0.036 A 
HETATM   20 CL   UNL     1     -13.041   0.897 -34.813  1.00  0.00    -0.084 Cl
HETATM   21  C   UNL     1     -14.686   1.778 -32.867  1.00  0.00     0.024 A 
HETATM   22  C   UNL     1     -15.027   2.623 -31.814  1.00  0.00     0.004 A 
HETATM   23  C   UNL     1     -14.139   3.622 -31.410  1.00  0.00     0.029 A 
ENDBRANCH  14  17
ENDBRANCH  12  13
ENDBRANCH  11  12
ENDBRANCH   4  11
BRANCH   8  24
HETATM   24  C   UNL     1      -4.993   3.873 -32.228  1.00  0.00    -0.044 A 
HETATM   25  C   UNL     1      -3.944   3.517 -31.365  1.00  0.00     0.008 A 
HETATM   26  C   UNL     1      -2.617   3.760 -31.722  1.00  0.00     0.001 A 
HETATM   27  C   UNL     1      -2.324   4.357 -32.944  1.00  0.00     0.000 A 
HETATM   28  C   UNL     1      -3.354   4.707 -33.815  1.00  0.00     0.001 A 
HETATM   29  C   UNL     1      -4.683   4.467 -33.463  1.00  0.00     0.008 A 
ENDBRANCH   8  24
BRANCH   9  30
HETATM   30  C   UNL     1      -6.855   1.262 -32.639  1.00  0.00     0.255 C 
HETATM   31  N   UNL     1      -6.169   0.814 -33.747  1.00  0.00    -0.321 N 
HETATM   32  H   UNL     1      -6.204   1.390 -34.577  1.00  0.00     0.169 HD
HETATM   33  O   UNL     1      -7.263   0.593 -31.696  1.00  0.00    -0.268 OA
BRANCH  31  34
HETATM   34  C   UNL     1      -5.624  -0.482 -33.901  1.00  0.00     0.068 A 
HETATM   35  C   UNL     1      -4.421  -0.914 -33.306  1.00  0.00     0.095 A 
HETATM   36  C   UNL     1      -4.022  -2.249 -33.458  1.00  0.00     0.039 A 
HETATM   37  C   UNL     1      -4.778  -3.131 -34.232  1.00  0.00     0.003 A 
HETATM   38  C   UNL     1      -5.922  -2.683 -34.885  1.00  0.00     0.002 A 
HETATM   39  C   UNL     1      -6.337  -1.361 -34.729  1.00  0.00     0.032 A 
BRANCH  35  40
HETATM   40  O   UNL     1      -3.628   0.043 -32.722  1.00  0.00    -0.354 OA
HETATM   41  C   UNL     1      -3.322  -0.107 -31.344  1.00  0.00     0.210 C 
ENDBRANCH  35  40
ENDBRANCH  31  34
ENDBRANCH   9  30
TORSDOF 8
ENDMDL
MODEL 7
REMARK VINA RESULT:      -9.1      5.474      8.621
REMARK  8 active torsions:
REMARK  status: ('A' for Active; 'I' for Inactive)
REMARK    1  A    between atoms: C_4  and  S_5 
REMARK    2  A    between atoms: S_5  and  C_6 
REMARK    3  A    between atoms: C_6  and  C_7 
REMARK       I    between atoms: C_7  and  N_8 
REMARK    4  A    between atoms: N_8  and  C_9 
REMARK    5  A    between atoms: C_20  and  C_21 
REMARK    6  A    between atoms: C_27  and  C_28 
REMARK       I    between atoms: C_28  and  N_29 
REMARK    7  A    between atoms: N_29  and  C_30 
REMARK    8  A    between atoms: C_31  and  O_32 
ROOT
HETATM    1  C   UNL     1      -9.167   2.213 -34.269  1.00  0.00     0.069 C 
HETATM    2  C   UNL     1      -8.295   3.286 -33.668  1.00  0.00     0.019 C 
HETATM    3  N   UNL     1      -8.833   4.563 -33.648  1.00  0.00    -0.353 N 
HETATM    4  C   UNL     1      -8.270   5.647 -32.999  1.00  0.00     0.087 C 
HETATM    5  C   UNL     1      -7.020   5.536 -32.492  1.00  0.00     0.055 C 
HETATM    6  C   UNL     1      -6.242   6.747 -32.004  1.00  0.00     0.019 C 
HETATM    7  N   UNL     1      -5.596   7.751 -31.600  1.00  0.00    -0.096 N 
HETATM    8  C   UNL     1      -6.260   4.205 -32.531  1.00  0.00     0.104 C 
HETATM    9  C   UNL     1      -7.074   3.069 -33.130  1.00  0.00     0.046 C 
HETATM   10  H   UNL     1      -9.826   4.651 -33.853  1.00  0.00     0.166 HD
ENDROOT
BRANCH   4  11
HETATM   11  S   UNL     1      -9.244   7.074 -32.727  1.00  0.00    -0.102 SA
BRANCH  11  12
HETATM   12  C   UNL     1     -10.751   6.718 -33.684  1.00  0.00     0.184 C 
BRANCH  12  13
HETATM   13  C   UNL     1     -10.571   7.012 -35.178  1.00  0.00     0.231 C 
HETATM   14  N   UNL     1     -11.143   8.196 -35.607  1.00  0.00    -0.326 N 
HETATM   15  H   UNL     1     -11.670   8.698 -34.899  1.00  0.00     0.169 HD
HETATM   16  O   UNL     1      -9.924   6.237 -35.879  1.00  0.00    -0.272 OA
BRANCH  14  17
HETATM   17  C   UNL     1     -11.168   8.747 -36.902  1.00  0.00     0.036 A 
HETATM   18  C   UNL     1     -12.266   8.687 -37.761  1.00  0.00     0.053 A 
HETATM   19  C   UNL     1     -12.194   9.273 -39.027  1.00  0.00     0.036 A 
HETATM   20 CL   UNL     1     -13.550   9.192 -40.086  1.00  0.00    -0.084 Cl
HETATM   21  C   UNL     1     -11.036   9.926 -39.449  1.00  0.00     0.024 A 
HETATM   22  C   UNL     1      -9.937   9.989 -38.598  1.00  0.00     0.004 A 
HETATM   23  C   UNL     1     -10.002   9.400 -37.333  1.00  0.00     0.029 A 
ENDBRANCH  14  17
ENDBRANCH  12  13
ENDBRANCH  11  12
ENDBRANCH   4  11
BRANCH   8  24
HETATM   24  C   UNL     1      -4.896   4.374 -33.199  1.00  0.00    -0.044 A 
HETATM   25  C   UNL     1      -3.733   4.018 -32.496  1.00  0.00     0.008 A 
HETATM   26  C   UNL     1      -2.472   4.218 -33.059  1.00  0.00     0.001 A 
HETATM   27  C   UNL     1      -2.359   4.772 -34.331  1.00  0.00     0.000 A 
HETATM   28  C   UNL     1      -3.504   5.120 -35.045  1.00  0.00     0.001 A 
HETATM   29  C   UNL     1      -4.768   4.924 -34.486  1.00  0.00     0.008 A 
ENDBRANCH   8  24
BRANCH   9  30
HETATM   30  C   UNL     1      -6.637   1.675 -32.833  1.00  0.00     0.255 C 
HETATM   31  N   UNL     1      -6.100   1.021 -33.920  1.00  0.00    -0.321 N 
HETATM   32  H   UNL     1      -6.292   1.409 -34.834  1.00  0.00     0.169 HD
HETATM   33  O   UNL     1      -6.860   1.210 -31.720  1.00  0.00    -0.268 OA
BRANCH  31  34
HETATM   34  C   UNL     1      -5.508  -0.263 -33.890  1.00  0.00     0.068 A 
HETATM   35  C   UNL     1      -4.315  -0.573 -33.206  1.00  0.00     0.095 A 
HETATM   36  C   UNL     1      -3.869  -1.901 -33.174  1.00  0.00     0.039 A 
HETATM   37  C   UNL     1      -4.568  -2.901 -33.855  1.00  0.00     0.003 A 
HETATM   38  C   UNL     1      -5.700  -2.579 -34.596  1.00  0.00     0.002 A 
HETATM   39  C   UNL     1      -6.162  -1.264 -34.623  1.00  0.00     0.032 A 
BRANCH  35  40
HETATM   40  O   UNL     1      -3.576   0.477 -32.722  1.00  0.00    -0.354 OA
HETATM   41  C   UNL     1      -3.322   0.516 -31.326  1.00  0.00     0.210 C 
ENDBRANCH  35  40
ENDBRANCH  31  34
ENDBRANCH   9  30
TORSDOF 8
ENDMDL
MODEL 8
REMARK VINA RESULT:      -9.0      2.363      5.212
REMARK  8 active torsions:
REMARK  status: ('A' for Active; 'I' for Inactive)
REMARK    1  A    between atoms: C_4  and  S_5 
REMARK    2  A    between atoms: S_5  and  C_6 
REMARK    3  A    between atoms: C_6  and  C_7 
REMARK       I    between atoms: C_7  and  N_8 
REMARK    4  A    between atoms: N_8  and  C_9 
REMARK    5  A    between atoms: C_20  and  C_21 
REMARK    6  A    between atoms: C_27  and  C_28 
REMARK       I    between atoms: C_28  and  N_29 
REMARK    7  A    between atoms: N_29  and  C_30 
REMARK    8  A    between atoms: C_31  and  O_32 
ROOT
HETATM    1  C   UNL     1      -7.242   5.748 -32.958  1.00  0.00     0.069 C 
HETATM    2  C   UNL     1      -6.478   4.487 -32.642  1.00  0.00     0.019 C 
HETATM    3  N   UNL     1      -5.101   4.619 -32.551  1.00  0.00    -0.353 N 
HETATM    4  C   UNL     1      -4.240   3.630 -32.112  1.00  0.00     0.087 C 
HETATM    5  C   UNL     1      -4.716   2.377 -31.926  1.00  0.00     0.055 C 
HETATM    6  C   UNL     1      -3.791   1.192 -31.703  1.00  0.00     0.019 C 
HETATM    7  N   UNL     1      -3.022   0.210 -31.519  1.00  0.00    -0.096 N 
HETATM    8  C   UNL     1      -6.207   2.058 -32.089  1.00  0.00     0.104 C 
HETATM    9  C   UNL     1      -7.047   3.282 -32.414  1.00  0.00     0.046 C 
HETATM   10  H   UNL     1      -4.728   5.565 -32.507  1.00  0.00     0.166 HD
ENDROOT
BRANCH   4  11
HETATM   11  S   UNL     1      -2.603   4.061 -31.676  1.00  0.00    -0.102 SA
BRANCH  11  12
HETATM   12  C   UNL     1      -2.394   5.689 -32.463  1.00  0.00     0.184 C 
BRANCH  12  13
HETATM   13  C   UNL     1      -1.814   6.729 -31.498  1.00  0.00     0.231 C 
HETATM   14  N   UNL     1      -1.407   6.222 -30.278  1.00  0.00    -0.326 N 
HETATM   15  H   UNL     1      -1.599   5.234 -30.139  1.00  0.00     0.169 HD
HETATM   16  O   UNL     1      -1.708   7.900 -31.856  1.00  0.00    -0.272 OA
BRANCH  14  17
HETATM   17  C   UNL     1      -0.848   6.903 -29.180  1.00  0.00     0.036 A 
HETATM   18  C   UNL     1      -1.531   7.174 -27.994  1.00  0.00     0.053 A 
HETATM   19  C   UNL     1      -0.884   7.851 -26.956  1.00  0.00     0.036 A 
HETATM   20 CL   UNL     1      -1.733   8.189 -25.496  1.00  0.00    -0.084 Cl
HETATM   21  C   UNL     1       0.442   8.261 -27.086  1.00  0.00     0.024 A 
HETATM   22  C   UNL     1       1.129   7.995 -28.267  1.00  0.00     0.004 A 
HETATM   23  C   UNL     1       0.485   7.323 -29.308  1.00  0.00     0.029 A 
ENDBRANCH  14  17
ENDBRANCH  12  13
ENDBRANCH  11  12
ENDBRANCH   4  11
BRANCH   8  24
HETATM   24  C   UNL     1      -6.416   0.914 -33.081  1.00  0.00    -0.044 A 
HETATM   25  C   UNL     1      -6.669   1.207 -34.431  1.00  0.00     0.008 A 
HETATM   26  C   UNL     1      -6.922   0.184 -35.345  1.00  0.00     0.001 A 
HETATM   27  C   UNL     1      -6.921  -1.142 -34.922  1.00  0.00     0.000 A 
HETATM   28  C   UNL     1      -6.660  -1.449 -33.587  1.00  0.00     0.001 A 
HETATM   29  C   UNL     1      -6.408  -0.429 -32.669  1.00  0.00     0.008 A 
ENDBRANCH   8  24
BRANCH   9  30
HETATM   30  C   UNL     1      -8.516   3.197 -32.168  1.00  0.00     0.255 C 
HETATM   31  N   UNL     1      -9.270   3.218 -33.321  1.00  0.00    -0.321 N 
HETATM   32  H   UNL     1      -8.820   3.553 -34.162  1.00  0.00     0.169 HD
HETATM   33  O   UNL     1      -8.924   3.203 -31.012  1.00  0.00    -0.268 OA
BRANCH  31  34
HETATM   34  C   UNL     1     -10.672   3.039 -33.383  1.00  0.00     0.068 A 
HETATM   35  C   UNL     1     -11.309   1.788 -33.507  1.00  0.00     0.095 A 
HETATM   36  C   UNL     1     -12.709   1.726 -33.471  1.00  0.00     0.039 A 
HETATM   37  C   UNL     1     -13.468   2.893 -33.366  1.00  0.00     0.003 A 
HETATM   38  C   UNL     1     -12.840   4.133 -33.326  1.00  0.00     0.002 A 
HETATM   39  C   UNL     1     -11.448   4.207 -33.346  1.00  0.00     0.032 A 
BRANCH  35  40
HETATM   40  O   UNL     1     -10.518   0.705 -33.799  1.00  0.00    -0.354 OA
HETATM   41  C   UNL     1     -10.116  -0.126 -32.721  1.00  0.00     0.210 C 
ENDBRANCH  35  40
ENDBRANCH  31  34
ENDBRANCH   9  30
TORSDOF 8
ENDMDL
MODEL 9
REMARK VINA RESULT:      -8.6      3.366      9.211
REMARK  8 active torsions:
REMARK  status: ('A' for Active; 'I' for Inactive)
REMARK    1  A    between atoms: C_4  and  S_5 
REMARK    2  A    between atoms: S_5  and  C_6 
REMARK    3  A    between atoms: C_6  and  C_7 
REMARK       I    between atoms: C_7  and  N_8 
REMARK    4  A    between atoms: N_8  and  C_9 
REMARK    5  A    between atoms: C_20  and  C_21 
REMARK    6  A    between atoms: C_27  and  C_28 
REMARK       I    between atoms: C_28  and  N_29 
REMARK    7  A    between atoms: N_29  and  C_30 
REMARK    8  A    between atoms: C_31  and  O_32 
ROOT
HETATM    1  C   UNL     1      -4.219   4.419 -34.684  1.00  0.00     0.069 C 
HETATM    2  C   UNL     1      -5.240   4.083 -33.626  1.00  0.00     0.019 C 
HETATM    3  N   UNL     1      -6.443   3.573 -34.086  1.00  0.00    -0.353 N 
HETATM    4  C   UNL     1      -7.440   3.053 -33.280  1.00  0.00     0.087 C 
HETATM    5  C   UNL     1      -7.347   3.202 -31.938  1.00  0.00     0.055 C 
HETATM    6  C   UNL     1      -8.515   2.895 -31.014  1.00  0.00     0.019 C 
HETATM    7  N   UNL     1      -9.483   2.641 -30.248  1.00  0.00    -0.096 N 
HETATM    8  C   UNL     1      -6.113   3.841 -31.291  1.00  0.00     0.104 C 
HETATM    9  C   UNL     1      -5.036   4.213 -32.296  1.00  0.00     0.046 C 
HETATM   10  H   UNL     1      -6.482   3.283 -35.060  1.00  0.00     0.166 HD
ENDROOT
BRANCH   4  11
HETATM   11  S   UNL     1      -8.709   2.096 -34.009  1.00  0.00    -0.102 SA
BRANCH  11  12
HETATM   12  C   UNL     1      -7.781   0.932 -35.056  1.00  0.00     0.184 C 
BRANCH  12  13
HETATM   13  C   UNL     1      -7.222  -0.250 -34.255  1.00  0.00     0.231 C 
HETATM   14  N   UNL     1      -6.218  -0.957 -34.891  1.00  0.00    -0.326 N 
HETATM   15  H   UNL     1      -6.014  -0.652 -35.839  1.00  0.00     0.169 HD
HETATM   16  O   UNL     1      -7.647  -0.474 -33.124  1.00  0.00    -0.272 OA
BRANCH  14  17
HETATM   17  C   UNL     1      -5.511  -2.087 -34.440  1.00  0.00     0.036 A 
HETATM   18  C   UNL     1      -4.556  -2.060 -33.423  1.00  0.00     0.053 A 
HETATM   19  C   UNL     1      -3.911  -3.239 -33.040  1.00  0.00     0.036 A 
HETATM   20 CL   UNL     1      -2.729  -3.201 -31.788  1.00  0.00    -0.084 Cl
HETATM   21  C   UNL     1      -4.211  -4.452 -33.659  1.00  0.00     0.024 A 
HETATM   22  C   UNL     1      -5.162  -4.486 -34.675  1.00  0.00     0.004 A 
HETATM   23  C   UNL     1      -5.805  -3.308 -35.065  1.00  0.00     0.029 A 
ENDBRANCH  14  17
ENDBRANCH  12  13
ENDBRANCH  11  12
ENDBRANCH   4  11
BRANCH   8  24
HETATM   24  C   UNL     1      -6.512   5.009 -30.388  1.00  0.00    -0.044 A 
HETATM   25  C   UNL     1      -7.025   6.183 -30.963  1.00  0.00     0.008 A 
HETATM   26  C   UNL     1      -7.341   7.284 -30.167  1.00  0.00     0.001 A 
HETATM   27  C   UNL     1      -7.153   7.224 -28.790  1.00  0.00     0.000 A 
HETATM   28  C   UNL     1      -6.655   6.061 -28.203  1.00  0.00     0.001 A 
HETATM   29  C   UNL     1      -6.335   4.957 -28.995  1.00  0.00     0.008 A 
ENDBRANCH   8  24
BRANCH   9  30
HETATM   30  C   UNL     1      -3.653   4.425 -31.780  1.00  0.00     0.255 C 
HETATM   31  N   UNL     1      -3.301   5.753 -31.674  1.00  0.00    -0.321 N 
HETATM   32  H   UNL     1      -3.861   6.422 -32.185  1.00  0.00     0.169 HD
HETATM   33  O   UNL     1      -2.938   3.448 -31.583  1.00  0.00    -0.268 OA
BRANCH  31  34
HETATM   34  C   UNL     1      -2.097   6.237 -31.111  1.00  0.00     0.068 A 
HETATM   35  C   UNL     1      -0.863   6.279 -31.791  1.00  0.00     0.095 A 
HETATM   36  C   UNL     1       0.246   6.860 -31.162  1.00  0.00     0.039 A 
HETATM   37  C   UNL     1       0.147   7.347 -29.857  1.00  0.00     0.003 A 
HETATM   38  C   UNL     1      -1.050   7.230 -29.158  1.00  0.00     0.002 A 
HETATM   39  C   UNL     1      -2.164   6.667 -29.778  1.00  0.00     0.032 A 
BRANCH  35  40
HETATM   40  O   UNL     1      -0.781   5.617 -32.990  1.00  0.00    -0.354 OA
HETATM   41  C   UNL     1      -1.115   6.339 -34.166  1.00  0.00     0.210 C 
ENDBRANCH  35  40
ENDBRANCH  31  34
ENDBRANCH   9  30
TORSDOF 8
ENDMDL
MODEL 10
REMARK VINA RESULT:      -8.4      3.068      4.905
REMARK  8 active torsions:
REMARK  status: ('A' for Active; 'I' for Inactive)
REMARK    1  A    between atoms: C_4  and  S_5 
REMARK    2  A    between atoms: S_5  and  C_6 
REMARK    3  A    between atoms: C_6  and  C_7 
REMARK       I    between atoms: C_7  and  N_8 
REMARK    4  A    between atoms: N_8  and  C_9 
REMARK    5  A    between atoms: C_20  and  C_21 
REMARK    6  A    between atoms: C_27  and  C_28 
REMARK       I    between atoms: C_28  and  N_29 
REMARK    7  A    between atoms: N_29  and  C_30 
REMARK    8  A    between atoms: C_31  and  O_32 
ROOT
HETATM    1  C   UNL     1      -8.907   4.034 -32.432  1.00  0.00     0.069 C 
HETATM    2  C   UNL     1      -7.634   4.762 -32.080  1.00  0.00     0.019 C 
HETATM    3  N   UNL     1      -7.775   6.099 -31.742  1.00  0.00    -0.353 N 
HETATM    4  C   UNL     1      -6.765   6.895 -31.233  1.00  0.00     0.087 C 
HETATM    5  C   UNL     1      -5.496   6.424 -31.223  1.00  0.00     0.055 C 
HETATM    6  C   UNL     1      -4.308   7.325 -30.928  1.00  0.00     0.019 C 
HETATM    7  N   UNL     1      -3.323   8.073 -30.684  1.00  0.00    -0.096 N 
HETATM    8  C   UNL     1      -5.174   4.991 -31.665  1.00  0.00     0.104 C 
HETATM    9  C   UNL     1      -6.410   4.191 -32.042  1.00  0.00     0.046 C 
HETATM   10  H   UNL     1      -8.718   6.436 -31.566  1.00  0.00     0.166 HD
ENDROOT
BRANCH   4  11
HETATM   11  S   UNL     1      -7.180   8.422 -30.489  1.00  0.00    -0.102 SA
BRANCH  11  12
HETATM   12  C   UNL     1      -7.818   7.913 -28.862  1.00  0.00     0.184 C 
BRANCH  12  13
HETATM   13  C   UNL     1      -6.714   7.357 -27.954  1.00  0.00     0.231 C 
HETATM   14  N   UNL     1      -5.781   8.291 -27.541  1.00  0.00    -0.326 N 
HETATM   15  H   UNL     1      -5.898   9.218 -27.939  1.00  0.00     0.169 HD
HETATM   16  O   UNL     1      -6.735   6.174 -27.623  1.00  0.00    -0.272 OA
BRANCH  14  17
HETATM   17  C   UNL     1      -4.651   8.108 -26.723  1.00  0.00     0.036 A 
HETATM   18  C   UNL     1      -3.494   7.436 -27.120  1.00  0.00     0.053 A 
HETATM   19  C   UNL     1      -2.420   7.314 -26.234  1.00  0.00     0.036 A 
HETATM   20 CL   UNL     1      -0.996   6.478 -26.726  1.00  0.00    -0.084 Cl
HETATM   21  C   UNL     1      -2.483   7.858 -24.952  1.00  0.00     0.024 A 
HETATM   22  C   UNL     1      -3.635   8.529 -24.549  1.00  0.00     0.004 A 
HETATM   23  C   UNL     1      -4.713   8.649 -25.429  1.00  0.00     0.029 A 
ENDBRANCH  14  17
ENDBRANCH  12  13
ENDBRANCH  11  12
ENDBRANCH   4  11
BRANCH   8  24
HETATM   24  C   UNL     1      -4.105   4.984 -32.758  1.00  0.00    -0.044 A 
HETATM   25  C   UNL     1      -4.452   5.357 -34.067  1.00  0.00     0.008 A 
HETATM   26  C   UNL     1      -3.511   5.302 -35.094  1.00  0.00     0.001 A 
HETATM   27  C   UNL     1      -2.212   4.878 -34.826  1.00  0.00     0.000 A 
HETATM   28  C   UNL     1      -1.851   4.515 -33.530  1.00  0.00     0.001 A 
HETATM   29  C   UNL     1      -2.789   4.566 -32.498  1.00  0.00     0.008 A 
ENDBRANCH   8  24
BRANCH   9  30
HETATM   30  C   UNL     1      -6.290   2.704 -32.062  1.00  0.00     0.255 C 
HETATM   31  N   UNL     1      -6.069   2.186 -33.319  1.00  0.00    -0.321 N 
HETATM   32  H   UNL     1      -6.276   2.782 -34.108  1.00  0.00     0.169 HD
HETATM   33  O   UNL     1      -6.476   2.081 -31.022  1.00  0.00    -0.268 OA
BRANCH  31  34
HETATM   34  C   UNL     1      -5.808   0.826 -33.607  1.00  0.00     0.068 A 
HETATM   35  C   UNL     1      -4.675   0.120 -33.153  1.00  0.00     0.095 A 
HETATM   36  C   UNL     1      -4.565  -1.249 -33.428  1.00  0.00     0.039 A 
HETATM   37  C   UNL     1      -5.539  -1.901 -34.188  1.00  0.00     0.003 A 
HETATM   38  C   UNL     1      -6.614  -1.186 -34.705  1.00  0.00     0.002 A 
HETATM   39  C   UNL     1      -6.743   0.174 -34.425  1.00  0.00     0.032 A 
BRANCH  35  40
HETATM   40  O   UNL     1      -3.666   0.852 -32.580  1.00  0.00    -0.354 OA
HETATM   41  C   UNL     1      -3.272   0.511 -31.259  1.00  0.00     0.210 C 
ENDBRANCH  35  40
ENDBRANCH  31  34
ENDBRANCH   9  30
TORSDOF 8
ENDMDL
