MODEL 1
REMARK VINA RESULT:      -9.2      0.000      0.000
REMARK  5 active torsions:
REMARK  status: ('A' for Active; 'I' for Inactive)
REMARK    1  A    between atoms: C_5  and  C_6 
REMARK       I    between atoms: C_6  and  N_7 
REMARK    2  A    between atoms: N_7  and  C_8 
REMARK    3  A    between atoms: C_13  and  O_14 
REMARK    4  A    between atoms: O_14  and  C_15 
REMARK    5  A    between atoms: C_15  and  C_16 
ROOT
HETATM    1  C   UNL     1      -7.632   1.111 -32.024  1.00  0.00     0.163 A 
HETATM    2  N   UNL     1      -7.337   1.890 -30.956  1.00  0.00    -0.241 NA
HETATM    3  C   UNL     1      -6.374   1.449 -30.122  1.00  0.00     0.119 A 
HETATM    4  C   UNL     1      -5.661   0.281 -30.321  1.00  0.00     0.022 A 
HETATM    5  C   UNL     1      -5.922  -0.467 -31.467  1.00  0.00     0.042 A 
HETATM    6  C   UNL     1      -6.905  -0.043 -32.362  1.00  0.00     0.115 A 
ENDROOT
BRANCH   1   7
HETATM    7  N   UNL     1      -8.707   1.598 -32.777  1.00  0.00    -0.305 N 
HETATM    8  C   UNL     1      -9.900   0.934 -32.970  1.00  0.00     0.258 C 
HETATM    9  O   UNL     1     -10.204  -0.161 -32.508  1.00  0.00    -0.267 OA
HETATM   10  H   UNL     1      -8.675   2.595 -32.909  1.00  0.00     0.170 HD
BRANCH   8  11
HETATM   11  C   UNL     1     -10.903   1.639 -33.805  1.00  0.00     0.044 A 
HETATM   12  C   UNL     1     -12.245   1.207 -33.949  1.00  0.00     0.008 A 
HETATM   13  C   UNL     1     -13.104   1.986 -34.735  1.00  0.00     0.043 A 
HETATM   14  C   UNL     1     -13.018   0.086 -33.508  1.00  0.00     0.032 A 
HETATM   15  C   UNL     1     -12.688   3.144 -35.404  1.00  0.00     0.030 A 
HETATM   16  N   UNL     1     -14.347   1.393 -34.705  1.00  0.00    -0.365 N 
HETATM   17  C   UNL     1     -11.352   3.525 -35.281  1.00  0.00     0.003 A 
HETATM   18  C   UNL     1     -10.471   2.788 -34.495  1.00  0.00     0.018 A 
HETATM   19  H   UNL     1     -15.164   1.752 -35.182  1.00  0.00     0.165 HD
HETATM   20  C   UNL     1     -14.306   0.242 -33.969  1.00  0.00     0.089 A 
ENDBRANCH   8  11
ENDBRANCH   1   7
BRANCH   6  21
HETATM   21  O   UNL     1      -7.108  -0.588 -33.600  1.00  0.00    -0.343 OA
BRANCH  21  22
HETATM   22  C   UNL     1      -5.980  -0.817 -34.435  1.00  0.00     0.216 C 
BRANCH  22  23
HETATM   23  C   UNL     1      -5.714  -2.296 -34.483  1.00  0.00    -0.017 A 
HETATM   24  C   UNL     1      -4.446  -2.804 -34.209  1.00  0.00     0.125 A 
HETATM   25  N   UNL     1      -4.132  -4.121 -34.239  1.00  0.00    -0.272 NA
HETATM   26  C   UNL     1      -5.128  -4.976 -34.553  1.00  0.00     0.116 A 
HETATM   27  C   UNL     1      -6.422  -4.576 -34.842  1.00  0.00     0.020 A 
HETATM   28  C   UNL     1      -6.716  -3.216 -34.808  1.00  0.00     0.012 A 
ENDBRANCH  22  23
ENDBRANCH  21  22
ENDBRANCH   6  21
TORSDOF 5
ENDMDL
MODEL 2
REMARK VINA RESULT:      -9.0      1.067      2.004
REMARK  5 active torsions:
REMARK  status: ('A' for Active; 'I' for Inactive)
REMARK    1  A    between atoms: C_5  and  C_6 
REMARK       I    between atoms: C_6  and  N_7 
REMARK    2  A    between atoms: N_7  and  C_8 
REMARK    3  A    between atoms: C_13  and  O_14 
REMARK    4  A    between atoms: O_14  and  C_15 
REMARK    5  A    between atoms: C_15  and  C_16 
ROOT
HETATM    1  C   UNL     1      -7.791   1.008 -31.648  1.00  0.00     0.163 A 
HETATM    2  N   UNL     1      -7.467   1.979 -30.760  1.00  0.00    -0.241 NA
HETATM    3  C   UNL     1      -6.292   1.850 -30.111  1.00  0.00     0.119 A 
HETATM    4  C   UNL     1      -5.404   0.812 -30.329  1.00  0.00     0.022 A 
HETATM    5  C   UNL     1      -5.717  -0.134 -31.303  1.00  0.00     0.042 A 
HETATM    6  C   UNL     1      -6.919  -0.033 -32.006  1.00  0.00     0.115 A 
ENDROOT
BRANCH   1   7
HETATM    7  N   UNL     1      -9.067   1.175 -32.200  1.00  0.00    -0.305 N 
HETATM    8  C   UNL     1      -9.328   1.745 -33.427  1.00  0.00     0.258 C 
HETATM    9  O   UNL     1      -8.496   2.176 -34.219  1.00  0.00    -0.267 OA
HETATM   10  H   UNL     1      -9.756   0.570 -31.784  1.00  0.00     0.170 HD
BRANCH   8  11
HETATM   11  C   UNL     1     -10.758   1.819 -33.814  1.00  0.00     0.044 A 
HETATM   12  C   UNL     1     -11.358   2.971 -34.380  1.00  0.00     0.008 A 
HETATM   13  C   UNL     1     -12.711   2.897 -34.739  1.00  0.00     0.043 A 
HETATM   14  C   UNL     1     -10.942   4.307 -34.677  1.00  0.00     0.032 A 
HETATM   15  C   UNL     1     -13.494   1.754 -34.534  1.00  0.00     0.030 A 
HETATM   16  N   UNL     1     -13.062   4.110 -35.288  1.00  0.00    -0.365 N 
HETATM   17  C   UNL     1     -12.892   0.648 -33.935  1.00  0.00     0.003 A 
HETATM   18  C   UNL     1     -11.546   0.675 -33.581  1.00  0.00     0.018 A 
HETATM   19  H   UNL     1     -13.983   4.332 -35.644  1.00  0.00     0.165 HD
HETATM   20  C   UNL     1     -12.001   4.971 -35.253  1.00  0.00     0.089 A 
ENDBRANCH   8  11
ENDBRANCH   1   7
BRANCH   6  21
HETATM   21  O   UNL     1      -7.236  -0.785 -33.103  1.00  0.00    -0.343 OA
BRANCH  21  22
HETATM   22  C   UNL     1      -6.295  -0.866 -34.166  1.00  0.00     0.216 C 
BRANCH  22  23
HETATM   23  C   UNL     1      -5.876  -2.302 -34.324  1.00  0.00    -0.017 A 
HETATM   24  C   UNL     1      -4.578  -2.706 -34.018  1.00  0.00     0.125 A 
HETATM   25  N   UNL     1      -4.128  -3.977 -34.140  1.00  0.00    -0.272 NA
HETATM   26  C   UNL     1      -5.013  -4.894 -34.586  1.00  0.00     0.116 A 
HETATM   27  C   UNL     1      -6.324  -4.598 -34.919  1.00  0.00     0.020 A 
HETATM   28  C   UNL     1      -6.759  -3.282 -34.787  1.00  0.00     0.012 A 
ENDBRANCH  22  23
ENDBRANCH  21  22
ENDBRANCH   6  21
TORSDOF 5
ENDMDL
MODEL 3
REMARK VINA RESULT:      -8.9      3.249      7.589
REMARK  5 active torsions:
REMARK  status: ('A' for Active; 'I' for Inactive)
REMARK    1  A    between atoms: C_5  and  C_6 
REMARK       I    between atoms: C_6  and  N_7 
REMARK    2  A    between atoms: N_7  and  C_8 
REMARK    3  A    between atoms: C_13  and  O_14 
REMARK    4  A    between atoms: O_14  and  C_15 
REMARK    5  A    between atoms: C_15  and  C_16 
ROOT
HETATM    1  C   UNL     1      -8.383   1.287 -33.419  1.00  0.00     0.163 A 
HETATM    2  N   UNL     1      -9.631   0.761 -33.385  1.00  0.00    -0.241 NA
HETATM    3  C   UNL     1     -10.664   1.628 -33.407  1.00  0.00     0.119 A 
HETATM    4  C   UNL     1     -10.513   3.000 -33.496  1.00  0.00     0.022 A 
HETATM    5  C   UNL     1      -9.225   3.519 -33.611  1.00  0.00     0.042 A 
HETATM    6  C   UNL     1      -8.127   2.656 -33.602  1.00  0.00     0.115 A 
ENDROOT
BRANCH   1   7
HETATM    7  N   UNL     1      -7.377   0.321 -33.294  1.00  0.00    -0.305 N 
HETATM    8  C   UNL     1      -6.688  -0.241 -34.347  1.00  0.00     0.258 C 
HETATM    9  O   UNL     1      -6.836   0.024 -35.536  1.00  0.00    -0.267 OA
HETATM   10  H   UNL     1      -6.974   0.291 -32.373  1.00  0.00     0.170 HD
BRANCH   8  11
HETATM   11  C   UNL     1      -5.661  -1.247 -33.983  1.00  0.00     0.044 A 
HETATM   12  C   UNL     1      -4.669  -1.032 -32.994  1.00  0.00     0.008 A 
HETATM   13  C   UNL     1      -3.782  -2.080 -32.715  1.00  0.00     0.043 A 
HETATM   14  C   UNL     1      -4.267   0.059 -32.160  1.00  0.00     0.032 A 
HETATM   15  C   UNL     1      -3.814  -3.308 -33.389  1.00  0.00     0.030 A 
HETATM   16  N   UNL     1      -2.938  -1.656 -31.713  1.00  0.00    -0.365 N 
HETATM   17  C   UNL     1      -4.772  -3.480 -34.388  1.00  0.00     0.003 A 
HETATM   18  C   UNL     1      -5.683  -2.470 -34.683  1.00  0.00     0.018 A 
HETATM   19  H   UNL     1      -2.201  -2.218 -31.309  1.00  0.00     0.165 HD
HETATM   20  C   UNL     1      -3.220  -0.362 -31.372  1.00  0.00     0.089 A 
ENDBRANCH   8  11
ENDBRANCH   1   7
BRANCH   6  21
HETATM   21  O   UNL     1      -6.847   3.035 -33.898  1.00  0.00    -0.343 OA
BRANCH  21  22
HETATM   22  C   UNL     1      -5.995   3.440 -32.834  1.00  0.00     0.216 C 
BRANCH  22  23
HETATM   23  C   UNL     1      -4.753   4.050 -33.424  1.00  0.00    -0.017 A 
HETATM   24  C   UNL     1      -4.825   4.870 -34.547  1.00  0.00     0.125 A 
HETATM   25  N   UNL     1      -3.751   5.449 -35.136  1.00  0.00    -0.272 NA
HETATM   26  C   UNL     1      -2.547   5.203 -34.578  1.00  0.00     0.116 A 
HETATM   27  C   UNL     1      -2.366   4.402 -33.463  1.00  0.00     0.020 A 
HETATM   28  C   UNL     1      -3.487   3.817 -32.880  1.00  0.00     0.012 A 
ENDBRANCH  22  23
ENDBRANCH  21  22
ENDBRANCH   6  21
TORSDOF 5
ENDMDL
MODEL 4
REMARK VINA RESULT:      -8.9      1.598      7.505
REMARK  5 active torsions:
REMARK  status: ('A' for Active; 'I' for Inactive)
REMARK    1  A    between atoms: C_5  and  C_6 
REMARK       I    between atoms: C_6  and  N_7 
REMARK    2  A    between atoms: N_7  and  C_8 
REMARK    3  A    between atoms: C_13  and  O_14 
REMARK    4  A    between atoms: O_14  and  C_15 
REMARK    5  A    between atoms: C_15  and  C_16 
ROOT
HETATM    1  C   UNL     1      -7.763   1.321 -31.426  1.00  0.00     0.163 A 
HETATM    2  N   UNL     1      -6.965   1.977 -30.549  1.00  0.00    -0.241 NA
HETATM    3  C   UNL     1      -7.446   3.118 -30.015  1.00  0.00     0.119 A 
HETATM    4  C   UNL     1      -8.705   3.621 -30.287  1.00  0.00     0.022 A 
HETATM    5  C   UNL     1      -9.543   2.893 -31.129  1.00  0.00     0.042 A 
HETATM    6  C   UNL     1      -9.088   1.702 -31.697  1.00  0.00     0.115 A 
ENDROOT
BRANCH   1   7
HETATM    7  N   UNL     1      -7.144   0.205 -32.002  1.00  0.00    -0.305 N 
HETATM    8  C   UNL     1      -6.525   0.193 -33.233  1.00  0.00     0.258 C 
HETATM    9  O   UNL     1      -6.411   1.147 -33.997  1.00  0.00    -0.267 OA
HETATM   10  H   UNL     1      -6.906  -0.503 -31.327  1.00  0.00     0.170 HD
BRANCH   8  11
HETATM   11  C   UNL     1      -5.933  -1.103 -33.646  1.00  0.00     0.044 A 
HETATM   12  C   UNL     1      -4.790  -1.672 -33.032  1.00  0.00     0.008 A 
HETATM   13  C   UNL     1      -4.354  -2.923 -33.490  1.00  0.00     0.043 A 
HETATM   14  C   UNL     1      -3.861  -1.276 -32.019  1.00  0.00     0.032 A 
HETATM   15  C   UNL     1      -4.976  -3.611 -34.539  1.00  0.00     0.030 A 
HETATM   16  N   UNL     1      -3.260  -3.284 -32.735  1.00  0.00    -0.365 N 
HETATM   17  C   UNL     1      -6.074  -3.010 -35.156  1.00  0.00     0.003 A 
HETATM   18  C   UNL     1      -6.548  -1.777 -34.718  1.00  0.00     0.018 A 
HETATM   19  H   UNL     1      -2.749  -4.150 -32.846  1.00  0.00     0.165 HD
HETATM   20  C   UNL     1      -2.951  -2.294 -31.844  1.00  0.00     0.089 A 
ENDBRANCH   8  11
ENDBRANCH   1   7
BRANCH   6  21
HETATM   21  O   UNL     1      -9.882   0.818 -32.374  1.00  0.00    -0.343 OA
BRANCH  21  22
HETATM   22  C   UNL     1     -10.378   1.193 -33.654  1.00  0.00     0.216 C 
BRANCH  22  23
HETATM   23  C   UNL     1     -11.879   1.239 -33.589  1.00  0.00    -0.017 A 
HETATM   24  C   UNL     1     -12.550   2.444 -33.401  1.00  0.00     0.125 A 
HETATM   25  N   UNL     1     -13.898   2.561 -33.326  1.00  0.00    -0.272 NA
HETATM   26  C   UNL     1     -14.613   1.423 -33.447  1.00  0.00     0.116 A 
HETATM   27  C   UNL     1     -14.046   0.174 -33.634  1.00  0.00     0.020 A 
HETATM   28  C   UNL     1     -12.658   0.083 -33.704  1.00  0.00     0.012 A 
ENDBRANCH  22  23
ENDBRANCH  21  22
ENDBRANCH   6  21
TORSDOF 5
ENDMDL
MODEL 5
REMARK VINA RESULT:      -8.7      2.022      6.865
REMARK  5 active torsions:
REMARK  status: ('A' for Active; 'I' for Inactive)
REMARK    1  A    between atoms: C_5  and  C_6 
REMARK       I    between atoms: C_6  and  N_7 
REMARK    2  A    between atoms: N_7  and  C_8 
REMARK    3  A    between atoms: C_13  and  O_14 
REMARK    4  A    between atoms: O_14  and  C_15 
REMARK    5  A    between atoms: C_15  and  C_16 
ROOT
HETATM    1  C   UNL     1      -9.125   1.127 -33.451  1.00  0.00     0.163 A 
HETATM    2  N   UNL     1     -10.282   0.421 -33.442  1.00  0.00    -0.241 NA
HETATM    3  C   UNL     1     -11.431   1.127 -33.439  1.00  0.00     0.119 A 
HETATM    4  C   UNL     1     -11.484   2.508 -33.479  1.00  0.00     0.022 A 
HETATM    5  C   UNL     1     -10.287   3.216 -33.568  1.00  0.00     0.042 A 
HETATM    6  C   UNL     1      -9.074   2.525 -33.584  1.00  0.00     0.115 A 
ENDROOT
BRANCH   1   7
HETATM    7  N   UNL     1      -7.988   0.316 -33.354  1.00  0.00    -0.305 N 
HETATM    8  C   UNL     1      -7.289  -0.194 -34.427  1.00  0.00     0.258 C 
HETATM    9  O   UNL     1      -7.543  -0.007 -35.613  1.00  0.00    -0.267 OA
HETATM   10  H   UNL     1      -7.531   0.385 -32.460  1.00  0.00     0.170 HD
BRANCH   8  11
HETATM   11  C   UNL     1      -6.111  -1.030 -34.092  1.00  0.00     0.044 A 
HETATM   12  C   UNL     1      -6.021  -2.412 -34.393  1.00  0.00     0.008 A 
HETATM   13  C   UNL     1      -4.835  -3.080 -34.059  1.00  0.00     0.043 A 
HETATM   14  C   UNL     1      -6.887  -3.402 -34.955  1.00  0.00     0.032 A 
HETATM   15  C   UNL     1      -3.759  -2.452 -33.417  1.00  0.00     0.030 A 
HETATM   16  N   UNL     1      -4.965  -4.389 -34.468  1.00  0.00    -0.365 N 
HETATM   17  C   UNL     1      -3.889  -1.102 -33.093  1.00  0.00     0.003 A 
HETATM   18  C   UNL     1      -5.044  -0.398 -33.424  1.00  0.00     0.018 A 
HETATM   19  H   UNL     1      -4.251  -5.096 -34.359  1.00  0.00     0.165 HD
HETATM   20  C   UNL     1      -6.204  -4.595 -35.008  1.00  0.00     0.089 A 
ENDBRANCH   8  11
ENDBRANCH   1   7
BRANCH   6  21
HETATM   21  O   UNL     1      -7.864   3.098 -33.859  1.00  0.00    -0.343 OA
BRANCH  21  22
HETATM   22  C   UNL     1      -7.312   4.007 -32.915  1.00  0.00     0.216 C 
BRANCH  22  23
HETATM   23  C   UNL     1      -6.061   3.397 -32.342  1.00  0.00    -0.017 A 
HETATM   24  C   UNL     1      -6.098   2.675 -31.152  1.00  0.00     0.125 A 
HETATM   25  N   UNL     1      -5.014   2.104 -30.575  1.00  0.00    -0.272 NA
HETATM   26  C   UNL     1      -3.836   2.257 -31.214  1.00  0.00     0.116 A 
HETATM   27  C   UNL     1      -3.689   2.956 -32.401  1.00  0.00     0.020 A 
HETATM   28  C   UNL     1      -4.820   3.535 -32.970  1.00  0.00     0.012 A 
ENDBRANCH  22  23
ENDBRANCH  21  22
ENDBRANCH   6  21
TORSDOF 5
ENDMDL
MODEL 6
REMARK VINA RESULT:      -8.6      1.794      7.175
REMARK  5 active torsions:
REMARK  status: ('A' for Active; 'I' for Inactive)
REMARK    1  A    between atoms: C_5  and  C_6 
REMARK       I    between atoms: C_6  and  N_7 
REMARK    2  A    between atoms: N_7  and  C_8 
REMARK    3  A    between atoms: C_13  and  O_14 
REMARK    4  A    between atoms: O_14  and  C_15 
REMARK    5  A    between atoms: C_15  and  C_16 
ROOT
HETATM    1  C   UNL     1      -7.998   2.235 -31.147  1.00  0.00     0.163 A 
HETATM    2  N   UNL     1      -7.572   3.191 -30.286  1.00  0.00    -0.241 NA
HETATM    3  C   UNL     1      -8.393   4.240 -30.079  1.00  0.00     0.119 A 
HETATM    4  C   UNL     1      -9.640   4.367 -30.665  1.00  0.00     0.022 A 
HETATM    5  C   UNL     1     -10.095   3.337 -31.485  1.00  0.00     0.042 A 
HETATM    6  C   UNL     1      -9.281   2.227 -31.720  1.00  0.00     0.115 A 
ENDROOT
BRANCH   1   7
HETATM    7  N   UNL     1      -7.042   1.238 -31.375  1.00  0.00    -0.305 N 
HETATM    8  C   UNL     1      -6.226   1.164 -32.483  1.00  0.00     0.258 C 
HETATM    9  O   UNL     1      -6.203   1.955 -33.421  1.00  0.00    -0.267 OA
HETATM   10  H   UNL     1      -6.770   0.756 -30.534  1.00  0.00     0.170 HD
BRANCH   8  11
HETATM   11  C   UNL     1      -5.283   0.019 -32.516  1.00  0.00     0.044 A 
HETATM   12  C   UNL     1      -5.407  -1.073 -33.411  1.00  0.00     0.008 A 
HETATM   13  C   UNL     1      -4.425  -2.071 -33.367  1.00  0.00     0.043 A 
HETATM   14  C   UNL     1      -6.353  -1.490 -34.400  1.00  0.00     0.032 A 
HETATM   15  C   UNL     1      -3.355  -2.051 -32.464  1.00  0.00     0.030 A 
HETATM   16  N   UNL     1      -4.735  -3.002 -34.334  1.00  0.00    -0.365 N 
HETATM   17  C   UNL     1      -3.279  -0.988 -31.564  1.00  0.00     0.003 A 
HETATM   18  C   UNL     1      -4.224   0.033 -31.587  1.00  0.00     0.018 A 
HETATM   19  H   UNL     1      -4.187  -3.829 -34.529  1.00  0.00     0.165 HD
HETATM   20  C   UNL     1      -5.901  -2.662 -34.963  1.00  0.00     0.089 A 
ENDBRANCH   8  11
ENDBRANCH   1   7
BRANCH   6  21
HETATM   21  O   UNL     1      -9.697   1.084 -32.344  1.00  0.00    -0.343 OA
BRANCH  21  22
HETATM   22  C   UNL     1      -9.936   1.123 -33.745  1.00  0.00     0.216 C 
BRANCH  22  23
HETATM   23  C   UNL     1     -11.417   1.003 -33.979  1.00  0.00    -0.017 A 
HETATM   24  C   UNL     1     -12.093   1.931 -34.767  1.00  0.00     0.125 A 
HETATM   25  N   UNL     1     -13.424   1.890 -35.017  1.00  0.00    -0.272 NA
HETATM   26  C   UNL     1     -14.115   0.875 -34.458  1.00  0.00     0.116 A 
HETATM   27  C   UNL     1     -13.540  -0.099 -33.659  1.00  0.00     0.020 A 
HETATM   28  C   UNL     1     -12.171  -0.031 -33.416  1.00  0.00     0.012 A 
ENDBRANCH  22  23
ENDBRANCH  21  22
ENDBRANCH   6  21
TORSDOF 5
ENDMDL
MODEL 7
REMARK VINA RESULT:      -8.5      2.672      7.269
REMARK  5 active torsions:
REMARK  status: ('A' for Active; 'I' for Inactive)
REMARK    1  A    between atoms: C_5  and  C_6 
REMARK       I    between atoms: C_6  and  N_7 
REMARK    2  A    between atoms: N_7  and  C_8 
REMARK    3  A    between atoms: C_13  and  O_14 
REMARK    4  A    between atoms: O_14  and  C_15 
REMARK    5  A    between atoms: C_15  and  C_16 
ROOT
HETATM    1  C   UNL     1      -8.383   1.496 -32.047  1.00  0.00     0.163 A 
HETATM    2  N   UNL     1      -9.487   1.733 -32.797  1.00  0.00    -0.241 NA
HETATM    3  C   UNL     1     -10.294   2.737 -32.400  1.00  0.00     0.119 A 
HETATM    4  C   UNL     1     -10.035   3.545 -31.307  1.00  0.00     0.022 A 
HETATM    5  C   UNL     1      -8.856   3.339 -30.595  1.00  0.00     0.042 A 
HETATM    6  C   UNL     1      -7.987   2.315 -30.976  1.00  0.00     0.115 A 
ENDROOT
BRANCH   1   7
HETATM    7  N   UNL     1      -7.660   0.376 -32.476  1.00  0.00    -0.305 N 
HETATM    8  C   UNL     1      -6.728   0.380 -33.491  1.00  0.00     0.258 C 
HETATM    9  O   UNL     1      -6.384   1.352 -34.156  1.00  0.00    -0.267 OA
HETATM   10  H   UNL     1      -7.634  -0.360 -31.790  1.00  0.00     0.170 HD
BRANCH   8  11
HETATM   11  C   UNL     1      -6.079  -0.923 -33.778  1.00  0.00     0.044 A 
HETATM   12  C   UNL     1      -4.921  -1.386 -33.105  1.00  0.00     0.008 A 
HETATM   13  C   UNL     1      -4.431  -2.655 -33.442  1.00  0.00     0.043 A 
HETATM   14  C   UNL     1      -4.021  -0.861 -32.125  1.00  0.00     0.032 A 
HETATM   15  C   UNL     1      -5.013  -3.462 -34.428  1.00  0.00     0.030 A 
HETATM   16  N   UNL     1      -3.332  -2.900 -32.648  1.00  0.00    -0.365 N 
HETATM   17  C   UNL     1      -6.126  -2.965 -35.106  1.00  0.00     0.003 A 
HETATM   18  C   UNL     1      -6.655  -1.717 -34.788  1.00  0.00     0.018 A 
HETATM   19  H   UNL     1      -2.786  -3.751 -32.675  1.00  0.00     0.165 HD
HETATM   20  C   UNL     1      -3.073  -1.820 -31.851  1.00  0.00     0.089 A 
ENDBRANCH   8  11
ENDBRANCH   1   7
BRANCH   6  21
HETATM   21  O   UNL     1      -6.726   2.148 -30.475  1.00  0.00    -0.343 OA
BRANCH  21  22
HETATM   22  C   UNL     1      -6.050   3.281 -29.944  1.00  0.00     0.216 C 
BRANCH  22  23
HETATM   23  C   UNL     1      -4.871   3.590 -30.826  1.00  0.00    -0.017 A 
HETATM   24  C   UNL     1      -4.348   4.879 -30.895  1.00  0.00     0.125 A 
HETATM   25  N   UNL     1      -3.295   5.232 -31.669  1.00  0.00    -0.272 NA
HETATM   26  C   UNL     1      -2.732   4.255 -32.410  1.00  0.00     0.116 A 
HETATM   27  C   UNL     1      -3.175   2.943 -32.417  1.00  0.00     0.020 A 
HETATM   28  C   UNL     1      -4.262   2.608 -31.613  1.00  0.00     0.012 A 
ENDBRANCH  22  23
ENDBRANCH  21  22
ENDBRANCH   6  21
TORSDOF 5
ENDMDL
MODEL 8
REMARK VINA RESULT:      -8.4      2.647      6.934
REMARK  5 active torsions:
REMARK  status: ('A' for Active; 'I' for Inactive)
REMARK    1  A    between atoms: C_5  and  C_6 
REMARK       I    between atoms: C_6  and  N_7 
REMARK    2  A    between atoms: N_7  and  C_8 
REMARK    3  A    between atoms: C_13  and  O_14 
REMARK    4  A    between atoms: O_14  and  C_15 
REMARK    5  A    between atoms: C_15  and  C_16 
ROOT
HETATM    1  C   UNL     1      -5.031   2.953 -31.355  1.00  0.00     0.163 A 
HETATM    2  N   UNL     1      -3.869   3.612 -31.585  1.00  0.00    -0.241 NA
HETATM    3  C   UNL     1      -3.786   4.882 -31.139  1.00  0.00     0.119 A 
HETATM    4  C   UNL     1      -4.796   5.519 -30.442  1.00  0.00     0.022 A 
HETATM    5  C   UNL     1      -5.952   4.800 -30.146  1.00  0.00     0.042 A 
HETATM    6  C   UNL     1      -6.077   3.480 -30.580  1.00  0.00     0.115 A 
ENDROOT
BRANCH   1   7
HETATM    7  N   UNL     1      -5.062   1.680 -31.937  1.00  0.00    -0.305 N 
HETATM    8  C   UNL     1      -5.632   1.382 -33.156  1.00  0.00     0.258 C 
HETATM    9  O   UNL     1      -6.180   2.177 -33.914  1.00  0.00    -0.267 OA
HETATM   10  H   UNL     1      -4.370   1.057 -31.555  1.00  0.00     0.170 HD
BRANCH   8  11
HETATM   11  C   UNL     1      -5.549  -0.037 -33.579  1.00  0.00     0.044 A 
HETATM   12  C   UNL     1      -4.613  -0.959 -33.048  1.00  0.00     0.008 A 
HETATM   13  C   UNL     1      -4.666  -2.283 -33.504  1.00  0.00     0.043 A 
HETATM   14  C   UNL     1      -3.518  -0.900 -32.129  1.00  0.00     0.032 A 
HETATM   15  C   UNL     1      -5.574  -2.721 -34.476  1.00  0.00     0.030 A 
HETATM   16  N   UNL     1      -3.693  -2.992 -32.834  1.00  0.00    -0.365 N 
HETATM   17  C   UNL     1      -6.457  -1.784 -35.015  1.00  0.00     0.003 A 
HETATM   18  C   UNL     1      -6.449  -0.463 -34.575  1.00  0.00     0.018 A 
HETATM   19  H   UNL     1      -3.515  -3.979 -32.963  1.00  0.00     0.165 HD
HETATM   20  C   UNL     1      -2.992  -2.165 -32.003  1.00  0.00     0.089 A 
ENDBRANCH   8  11
ENDBRANCH   1   7
BRANCH   6  21
HETATM   21  O   UNL     1      -7.072   2.630 -30.185  1.00  0.00    -0.343 OA
BRANCH  21  22
HETATM   22  C   UNL     1      -8.423   3.007 -30.424  1.00  0.00     0.216 C 
BRANCH  22  23
HETATM   23  C   UNL     1      -8.932   2.232 -31.608  1.00  0.00    -0.017 A 
HETATM   24  C   UNL     1      -9.401   2.888 -32.743  1.00  0.00     0.125 A 
HETATM   25  N   UNL     1      -9.880   2.258 -33.843  1.00  0.00    -0.272 NA
HETATM   26  C   UNL     1      -9.889   0.909 -33.813  1.00  0.00     0.116 A 
HETATM   27  C   UNL     1      -9.446   0.160 -32.735  1.00  0.00     0.020 A 
HETATM   28  C   UNL     1      -8.963   0.834 -31.617  1.00  0.00     0.012 A 
ENDBRANCH  22  23
ENDBRANCH  21  22
ENDBRANCH   6  21
TORSDOF 5
ENDMDL
MODEL 9
REMARK VINA RESULT:      -8.4      2.887      6.956
REMARK  5 active torsions:
REMARK  status: ('A' for Active; 'I' for Inactive)
REMARK    1  A    between atoms: C_5  and  C_6 
REMARK       I    between atoms: C_6  and  N_7 
REMARK    2  A    between atoms: N_7  and  C_8 
REMARK    3  A    between atoms: C_13  and  O_14 
REMARK    4  A    between atoms: O_14  and  C_15 
REMARK    5  A    between atoms: C_15  and  C_16 
ROOT
HETATM    1  C   UNL     1      -3.836   2.853 -31.960  1.00  0.00     0.163 A 
HETATM    2  N   UNL     1      -2.555   3.271 -31.814  1.00  0.00    -0.241 NA
HETATM    3  C   UNL     1      -2.367   4.558 -31.455  1.00  0.00     0.119 A 
HETATM    4  C   UNL     1      -3.400   5.442 -31.200  1.00  0.00     0.022 A 
HETATM    5  C   UNL     1      -4.709   4.973 -31.277  1.00  0.00     0.042 A 
HETATM    6  C   UNL     1      -4.949   3.646 -31.637  1.00  0.00     0.115 A 
ENDROOT
BRANCH   1   7
HETATM    7  N   UNL     1      -3.931   1.536 -32.427  1.00  0.00    -0.305 N 
HETATM    8  C   UNL     1      -4.133   0.429 -31.632  1.00  0.00     0.258 C 
HETATM    9  O   UNL     1      -4.271   0.427 -30.413  1.00  0.00    -0.267 OA
HETATM   10  H   UNL     1      -4.156   1.483 -33.407  1.00  0.00     0.170 HD
BRANCH   8  11
HETATM   11  C   UNL     1      -4.203  -0.872 -32.341  1.00  0.00     0.044 A 
HETATM   12  C   UNL     1      -5.121  -1.147 -33.385  1.00  0.00     0.008 A 
HETATM   13  C   UNL     1      -5.057  -2.403 -34.002  1.00  0.00     0.043 A 
HETATM   14  C   UNL     1      -6.207  -0.454 -34.009  1.00  0.00     0.032 A 
HETATM   15  C   UNL     1      -4.154  -3.400 -33.612  1.00  0.00     0.030 A 
HETATM   16  N   UNL     1      -6.013  -2.430 -34.992  1.00  0.00    -0.365 N 
HETATM   17  C   UNL     1      -3.289  -3.121 -32.553  1.00  0.00     0.003 A 
HETATM   18  C   UNL     1      -3.309  -1.878 -31.927  1.00  0.00     0.018 A 
HETATM   19  H   UNL     1      -6.181  -3.217 -35.605  1.00  0.00     0.165 HD
HETATM   20  C   UNL     1      -6.717  -1.257 -35.004  1.00  0.00     0.089 A 
ENDBRANCH   8  11
ENDBRANCH   1   7
BRANCH   6  21
HETATM   21  O   UNL     1      -6.170   3.034 -31.557  1.00  0.00    -0.343 OA
BRANCH  21  22
HETATM   22  C   UNL     1      -7.226   3.516 -32.379  1.00  0.00     0.216 C 
BRANCH  22  23
HETATM   23  C   UNL     1      -8.169   2.378 -32.658  1.00  0.00    -0.017 A 
HETATM   24  C   UNL     1      -8.804   2.263 -33.892  1.00  0.00     0.125 A 
HETATM   25  N   UNL     1      -9.669   1.271 -34.213  1.00  0.00    -0.272 NA
HETATM   26  C   UNL     1      -9.912   0.346 -33.260  1.00  0.00     0.116 A 
HETATM   27  C   UNL     1      -9.334   0.369 -32.002  1.00  0.00     0.020 A 
HETATM   28  C   UNL     1      -8.452   1.402 -31.698  1.00  0.00     0.012 A 
ENDBRANCH  22  23
ENDBRANCH  21  22
ENDBRANCH   6  21
TORSDOF 5
ENDMDL
MODEL 10
REMARK VINA RESULT:      -8.3      2.351      7.061
REMARK  5 active torsions:
REMARK  status: ('A' for Active; 'I' for Inactive)
REMARK    1  A    between atoms: C_5  and  C_6 
REMARK       I    between atoms: C_6  and  N_7 
REMARK    2  A    between atoms: N_7  and  C_8 
REMARK    3  A    between atoms: C_13  and  O_14 
REMARK    4  A    between atoms: O_14  and  C_15 
REMARK    5  A    between atoms: C_15  and  C_16 
ROOT
HETATM    1  C   UNL     1      -5.689  -0.937 -33.537  1.00  0.00     0.163 A 
HETATM    2  N   UNL     1      -4.454  -1.455 -33.744  1.00  0.00    -0.241 NA
HETATM    3  C   UNL     1      -4.389  -2.674 -34.317  1.00  0.00     0.119 A 
HETATM    4  C   UNL     1      -5.498  -3.390 -34.728  1.00  0.00     0.022 A 
HETATM    5  C   UNL     1      -6.756  -2.808 -34.580  1.00  0.00     0.042 A 
HETATM    6  C   UNL     1      -6.869  -1.543 -33.999  1.00  0.00     0.115 A 
ENDROOT
BRANCH   1   7
HETATM    7  N   UNL     1      -5.663   0.284 -32.851  1.00  0.00    -0.305 N 
HETATM    8  C   UNL     1      -5.977   0.447 -31.518  1.00  0.00     0.258 C 
HETATM    9  O   UNL     1      -6.309  -0.439 -30.738  1.00  0.00    -0.267 OA
HETATM   10  H   UNL     1      -5.100   0.980 -33.310  1.00  0.00     0.170 HD
BRANCH   8  11
HETATM   11  C   UNL     1      -5.880   1.832 -30.998  1.00  0.00     0.044 A 
HETATM   12  C   UNL     1      -4.735   2.652 -31.159  1.00  0.00     0.008 A 
HETATM   13  C   UNL     1      -4.787   3.958 -30.654  1.00  0.00     0.043 A 
HETATM   14  C   UNL     1      -3.423   2.490 -31.706  1.00  0.00     0.032 A 
HETATM   15  C   UNL     1      -5.899   4.471 -29.975  1.00  0.00     0.030 A 
HETATM   16  N   UNL     1      -3.587   4.566 -30.950  1.00  0.00    -0.365 N 
HETATM   17  C   UNL     1      -6.997   3.631 -29.791  1.00  0.00     0.003 A 
HETATM   18  C   UNL     1      -6.993   2.333 -30.293  1.00  0.00     0.018 A 
HETATM   19  H   UNL     1      -3.354   5.520 -30.709  1.00  0.00     0.165 HD
HETATM   20  C   UNL     1      -2.754   3.686 -31.584  1.00  0.00     0.089 A 
ENDBRANCH   8  11
ENDBRANCH   1   7
BRANCH   6  21
HETATM   21  O   UNL     1      -8.019  -0.804 -33.981  1.00  0.00    -0.343 OA
BRANCH  21  22
HETATM   22  C   UNL     1      -8.149   0.274 -34.899  1.00  0.00     0.216 C 
BRANCH  22  23
HETATM   23  C   UNL     1      -8.886   1.394 -34.217  1.00  0.00    -0.017 A 
HETATM   24  C   UNL     1     -10.246   1.290 -33.941  1.00  0.00     0.125 A 
HETATM   25  N   UNL     1     -10.976   2.259 -33.336  1.00  0.00    -0.272 NA
HETATM   26  C   UNL     1     -10.319   3.384 -32.987  1.00  0.00     0.116 A 
HETATM   27  C   UNL     1      -8.968   3.589 -33.217  1.00  0.00     0.020 A 
HETATM   28  C   UNL     1      -8.244   2.579 -33.843  1.00  0.00     0.012 A 
ENDBRANCH  22  23
ENDBRANCH  21  22
ENDBRANCH   6  21
TORSDOF 5
ENDMDL
