MODEL 1
REMARK VINA RESULT:      -8.7      0.000      0.000
REMARK  5 active torsions:
REMARK  status: ('A' for Active; 'I' for Inactive)
REMARK    1  A    between atoms: C_9  and  C_10 
REMARK       I    between atoms: C_10  and  N_11 
REMARK    2  A    between atoms: N_11  and  C_12 
REMARK    3  A    between atoms: C_12  and  C_13 
REMARK    4  A    between atoms: C_16  and  N_17 
REMARK       I    between atoms: N_17  and  C_18 
REMARK    5  A    between atoms: C_18  and  O_19 
ROOT
HETATM    1  C   UNL     1      -5.395   0.401 -32.738  1.00  0.00     0.273 C 
HETATM    2  N   UNL     1      -6.339   0.571 -31.749  1.00  0.00    -0.351 N 
HETATM    3  O   UNL     1      -5.259   1.185 -33.673  1.00  0.00    -0.266 OA
HETATM    4  H   UNL     1      -6.288  -0.079 -30.969  1.00  0.00     0.163 HD
ENDROOT
BRANCH   2   5
HETATM    5  C   UNL     1      -7.126   1.769 -31.668  1.00  0.00     0.161 C 
BRANCH   5   6
HETATM    6  C   UNL     1      -8.526   1.547 -32.169  1.00  0.00    -0.040 A 
HETATM    7  C   UNL     1      -8.956   0.271 -32.551  1.00  0.00     0.011 A 
HETATM    8  C   UNL     1     -10.265   0.059 -33.004  1.00  0.00     0.030 A 
HETATM    9  C   UNL     1     -11.168   1.119 -33.093  1.00  0.00     0.036 A 
HETATM   10  C   UNL     1     -10.726   2.401 -32.736  1.00  0.00     0.030 A 
HETATM   11  C   UNL     1      -9.420   2.615 -32.283  1.00  0.00     0.011 A 
BRANCH   9  12
HETATM   12  N   UNL     1     -12.504   1.011 -33.515  1.00  0.00    -0.303 N 
HETATM   13  C   UNL     1     -13.120   1.252 -34.714  1.00  0.00     0.364 C 
HETATM   14  O   UNL     1     -14.328   1.071 -34.833  1.00  0.00    -0.238 OA
HETATM   15  H   UNL     1     -13.172   0.677 -32.832  1.00  0.00     0.171 HD
BRANCH  13  16
HETATM   16  O   UNL     1     -12.314   1.679 -35.717  1.00  0.00    -0.309 OA
HETATM   17  C   UNL     1     -12.377   3.085 -35.963  1.00  0.00     0.215 C 
ENDBRANCH  13  16
ENDBRANCH   9  12
ENDBRANCH   5   6
ENDBRANCH   2   5
BRANCH   1  18
HETATM   18  C   UNL     1      -4.558  -0.795 -32.552  1.00  0.00     0.157 A 
HETATM   19  C   UNL     1      -4.692  -2.051 -33.216  1.00  0.00     0.029 A 
HETATM   20  C   UNL     1      -5.557  -2.603 -34.182  1.00  0.00     0.023 A 
HETATM   21  C   UNL     1      -3.666  -2.839 -32.708  1.00  0.00     0.063 A 
HETATM   22  C   UNL     1      -5.366  -3.929 -34.608  1.00  0.00    -0.061 A 
HETATM   23  C   UNL     1      -6.274  -4.534 -35.639  1.00  0.00     0.048 C 
HETATM   24  C   UNL     1      -4.319  -4.688 -34.070  1.00  0.00     0.009 A 
HETATM   25  C   UNL     1      -3.448  -4.160 -33.109  1.00  0.00     0.032 A 
HETATM   26  N   UNL     1      -3.012  -2.043 -31.810  1.00  0.00    -0.277 N 
HETATM   27  H   UNL     1      -2.207  -2.290 -31.245  1.00  0.00     0.189 HD
HETATM   28  N   UNL     1      -3.515  -0.801 -31.693  1.00  0.00    -0.168 NA
ENDBRANCH   1  18
TORSDOF 5
ENDMDL
MODEL 2
REMARK VINA RESULT:      -8.3      1.458      2.013
REMARK  5 active torsions:
REMARK  status: ('A' for Active; 'I' for Inactive)
REMARK    1  A    between atoms: C_9  and  C_10 
REMARK       I    between atoms: C_10  and  N_11 
REMARK    2  A    between atoms: N_11  and  C_12 
REMARK    3  A    between atoms: C_12  and  C_13 
REMARK    4  A    between atoms: C_16  and  N_17 
REMARK       I    between atoms: N_17  and  C_18 
REMARK    5  A    between atoms: C_18  and  O_19 
ROOT
HETATM    1  C   UNL     1      -6.484   0.996 -33.968  1.00  0.00     0.273 C 
HETATM    2  N   UNL     1      -7.044   1.641 -32.888  1.00  0.00    -0.351 N 
HETATM    3  O   UNL     1      -6.786   1.254 -35.130  1.00  0.00    -0.266 OA
HETATM    4  H   UNL     1      -6.639   1.422 -31.981  1.00  0.00     0.163 HD
ENDROOT
BRANCH   2   5
HETATM    5  C   UNL     1      -7.910   2.773 -33.062  1.00  0.00     0.161 C 
BRANCH   5   6
HETATM    6  C   UNL     1      -9.280   2.356 -33.519  1.00  0.00    -0.040 A 
HETATM    7  C   UNL     1     -10.042   3.187 -34.348  1.00  0.00     0.011 A 
HETATM    8  C   UNL     1     -11.314   2.794 -34.787  1.00  0.00     0.030 A 
HETATM    9  C   UNL     1     -11.852   1.566 -34.401  1.00  0.00     0.036 A 
HETATM   10  C   UNL     1     -11.098   0.747 -33.549  1.00  0.00     0.030 A 
HETATM   11  C   UNL     1      -9.828   1.137 -33.109  1.00  0.00     0.011 A 
BRANCH   9  12
HETATM   12  N   UNL     1     -13.105   1.070 -34.800  1.00  0.00    -0.303 N 
HETATM   13  C   UNL     1     -14.294   0.913 -34.137  1.00  0.00     0.364 C 
HETATM   14  O   UNL     1     -15.268   0.452 -34.723  1.00  0.00    -0.238 OA
HETATM   15  H   UNL     1     -13.193   0.775 -35.764  1.00  0.00     0.171 HD
BRANCH  13  16
HETATM   16  O   UNL     1     -14.303   1.304 -32.839  1.00  0.00    -0.309 OA
HETATM   17  C   UNL     1     -14.863   2.599 -32.619  1.00  0.00     0.215 C 
ENDBRANCH  13  16
ENDBRANCH   9  12
ENDBRANCH   5   6
ENDBRANCH   2   5
BRANCH   1  18
HETATM   18  C   UNL     1      -5.480  -0.013 -33.595  1.00  0.00     0.157 A 
HETATM   19  C   UNL     1      -5.471  -1.394 -33.955  1.00  0.00     0.029 A 
HETATM   20  C   UNL     1      -6.300  -2.254 -34.704  1.00  0.00     0.023 A 
HETATM   21  C   UNL     1      -4.321  -1.912 -33.373  1.00  0.00     0.063 A 
HETATM   22  C   UNL     1      -5.948  -3.607 -34.844  1.00  0.00    -0.061 A 
HETATM   23  C   UNL     1      -6.815  -4.539 -35.640  1.00  0.00     0.048 C 
HETATM   24  C   UNL     1      -4.779  -4.088 -34.241  1.00  0.00     0.009 A 
HETATM   25  C   UNL     1      -3.941  -3.252 -33.492  1.00  0.00     0.032 A 
HETATM   26  N   UNL     1      -3.738  -0.857 -32.727  1.00  0.00    -0.277 N 
HETATM   27  H   UNL     1      -2.879  -0.868 -32.190  1.00  0.00     0.189 HD
HETATM   28  N   UNL     1      -4.403   0.306 -32.843  1.00  0.00    -0.168 NA
ENDBRANCH   1  18
TORSDOF 5
ENDMDL
MODEL 3
REMARK VINA RESULT:      -8.3      3.714      6.284
REMARK  5 active torsions:
REMARK  status: ('A' for Active; 'I' for Inactive)
REMARK    1  A    between atoms: C_9  and  C_10 
REMARK       I    between atoms: C_10  and  N_11 
REMARK    2  A    between atoms: N_11  and  C_12 
REMARK    3  A    between atoms: C_12  and  C_13 
REMARK    4  A    between atoms: C_16  and  N_17 
REMARK       I    between atoms: N_17  and  C_18 
REMARK    5  A    between atoms: C_18  and  O_19 
ROOT
HETATM    1  C   UNL     1      -5.706   0.442 -32.844  1.00  0.00     0.273 C 
HETATM    2  N   UNL     1      -5.957   1.096 -31.659  1.00  0.00    -0.351 N 
HETATM    3  O   UNL     1      -6.184   0.799 -33.918  1.00  0.00    -0.266 OA
HETATM    4  H   UNL     1      -5.422   0.778 -30.854  1.00  0.00     0.163 HD
ENDROOT
BRANCH   2   5
HETATM    5  C   UNL     1      -6.677   2.338 -31.630  1.00  0.00     0.161 C 
BRANCH   5   6
HETATM    6  C   UNL     1      -5.776   3.506 -31.921  1.00  0.00    -0.040 A 
HETATM    7  C   UNL     1      -6.219   4.572 -32.712  1.00  0.00     0.011 A 
HETATM    8  C   UNL     1      -5.386   5.669 -32.972  1.00  0.00     0.030 A 
HETATM    9  C   UNL     1      -4.092   5.718 -32.454  1.00  0.00     0.036 A 
HETATM   10  C   UNL     1      -3.641   4.636 -31.686  1.00  0.00     0.030 A 
HETATM   11  C   UNL     1      -4.470   3.540 -31.424  1.00  0.00     0.011 A 
BRANCH   9  12
HETATM   12  N   UNL     1      -3.185   6.777 -32.638  1.00  0.00    -0.303 N 
HETATM   13  C   UNL     1      -2.329   7.097 -33.658  1.00  0.00     0.364 C 
HETATM   14  O   UNL     1      -1.630   8.103 -33.581  1.00  0.00    -0.238 OA
HETATM   15  H   UNL     1      -3.138   7.469 -31.903  1.00  0.00     0.171 HD
BRANCH  13  16
HETATM   16  O   UNL     1      -2.327   6.251 -34.717  1.00  0.00    -0.309 OA
HETATM   17  C   UNL     1      -1.224   5.345 -34.744  1.00  0.00     0.215 C 
ENDBRANCH  13  16
ENDBRANCH   9  12
ENDBRANCH   5   6
ENDBRANCH   2   5
BRANCH   1  18
HETATM   18  C   UNL     1      -4.798  -0.707 -32.701  1.00  0.00     0.157 A 
HETATM   19  C   UNL     1      -4.903  -1.974 -33.350  1.00  0.00     0.029 A 
HETATM   20  C   UNL     1      -5.792  -2.578 -34.262  1.00  0.00     0.023 A 
HETATM   21  C   UNL     1      -3.810  -2.703 -32.898  1.00  0.00     0.063 A 
HETATM   22  C   UNL     1      -5.556  -3.895 -34.691  1.00  0.00    -0.061 A 
HETATM   23  C   UNL     1      -6.489  -4.555 -35.665  1.00  0.00     0.048 C 
HETATM   24  C   UNL     1      -4.441  -4.594 -34.210  1.00  0.00     0.009 A 
HETATM   25  C   UNL     1      -3.546  -4.014 -33.304  1.00  0.00     0.032 A 
HETATM   26  N   UNL     1      -3.148  -1.866 -32.043  1.00  0.00    -0.277 N 
HETATM   27  H   UNL     1      -2.300  -2.067 -31.525  1.00  0.00     0.189 HD
HETATM   28  N   UNL     1      -3.709  -0.652 -31.904  1.00  0.00    -0.168 NA
ENDBRANCH   1  18
TORSDOF 5
ENDMDL
MODEL 4
REMARK VINA RESULT:      -8.1      4.999      8.063
REMARK  5 active torsions:
REMARK  status: ('A' for Active; 'I' for Inactive)
REMARK    1  A    between atoms: C_9  and  C_10 
REMARK       I    between atoms: C_10  and  N_11 
REMARK    2  A    between atoms: N_11  and  C_12 
REMARK    3  A    between atoms: C_12  and  C_13 
REMARK    4  A    between atoms: C_16  and  N_17 
REMARK       I    between atoms: N_17  and  C_18 
REMARK    5  A    between atoms: C_18  and  O_19 
ROOT
HETATM    1  C   UNL     1      -5.683   4.749 -33.731  1.00  0.00     0.273 C 
HETATM    2  N   UNL     1      -5.652   3.387 -33.529  1.00  0.00    -0.351 N 
HETATM    3  O   UNL     1      -6.710   5.416 -33.631  1.00  0.00    -0.266 OA
HETATM    4  H   UNL     1      -4.731   2.958 -33.531  1.00  0.00     0.163 HD
ENDROOT
BRANCH   2   5
HETATM    5  C   UNL     1      -6.801   2.681 -33.035  1.00  0.00     0.161 C 
BRANCH   5   6
HETATM    6  C   UNL     1      -6.821   1.255 -33.510  1.00  0.00    -0.040 A 
HETATM    7  C   UNL     1      -7.164   0.945 -34.831  1.00  0.00     0.011 A 
HETATM    8  C   UNL     1      -7.169  -0.383 -35.280  1.00  0.00     0.030 A 
HETATM    9  C   UNL     1      -6.840  -1.427 -34.416  1.00  0.00     0.036 A 
HETATM   10  C   UNL     1      -6.524  -1.116 -33.086  1.00  0.00     0.030 A 
HETATM   11  C   UNL     1      -6.518   0.208 -32.635  1.00  0.00     0.011 A 
BRANCH   9  12
HETATM   12  N   UNL     1      -6.796  -2.787 -34.769  1.00  0.00    -0.303 N 
HETATM   13  C   UNL     1      -5.788  -3.715 -34.762  1.00  0.00     0.364 C 
HETATM   14  O   UNL     1      -6.011  -4.868 -35.119  1.00  0.00    -0.238 OA
HETATM   15  H   UNL     1      -7.663  -3.206 -35.078  1.00  0.00     0.171 HD
BRANCH  13  16
HETATM   16  O   UNL     1      -4.580  -3.272 -34.336  1.00  0.00    -0.309 OA
HETATM   17  C   UNL     1      -3.688  -4.307 -33.921  1.00  0.00     0.215 C 
ENDBRANCH  13  16
ENDBRANCH   9  12
ENDBRANCH   5   6
ENDBRANCH   2   5
BRANCH   1  18
HETATM   18  C   UNL     1      -4.368   5.325 -34.056  1.00  0.00     0.157 A 
HETATM   19  C   UNL     1      -3.459   5.957 -33.156  1.00  0.00     0.029 A 
HETATM   20  C   UNL     1      -3.437   6.262 -31.780  1.00  0.00     0.023 A 
HETATM   21  C   UNL     1      -2.368   6.315 -33.938  1.00  0.00     0.063 A 
HETATM   22  C   UNL     1      -2.321   6.916 -31.232  1.00  0.00    -0.061 A 
HETATM   23  C   UNL     1      -2.277   7.246 -29.768  1.00  0.00     0.048 C 
HETATM   24  C   UNL     1      -1.242   7.259 -32.056  1.00  0.00     0.009 A 
HETATM   25  C   UNL     1      -1.242   6.967 -33.426  1.00  0.00     0.032 A 
HETATM   26  N   UNL     1      -2.677   5.896 -35.202  1.00  0.00    -0.277 N 
HETATM   27  H   UNL     1      -2.108   5.993 -36.035  1.00  0.00     0.189 HD
HETATM   28  N   UNL     1      -3.872   5.288 -35.312  1.00  0.00    -0.168 NA
ENDBRANCH   1  18
TORSDOF 5
ENDMDL
MODEL 5
REMARK VINA RESULT:      -8.1      5.983      9.098
REMARK  5 active torsions:
REMARK  status: ('A' for Active; 'I' for Inactive)
REMARK    1  A    between atoms: C_9  and  C_10 
REMARK       I    between atoms: C_10  and  N_11 
REMARK    2  A    between atoms: N_11  and  C_12 
REMARK    3  A    between atoms: C_12  and  C_13 
REMARK    4  A    between atoms: C_16  and  N_17 
REMARK       I    between atoms: N_17  and  C_18 
REMARK    5  A    between atoms: C_18  and  O_19 
ROOT
HETATM    1  C   UNL     1      -3.736   2.331 -31.547  1.00  0.00     0.273 C 
HETATM    2  N   UNL     1      -3.060   3.114 -32.455  1.00  0.00    -0.351 N 
HETATM    3  O   UNL     1      -4.500   2.793 -30.703  1.00  0.00    -0.266 OA
HETATM    4  H   UNL     1      -2.542   2.616 -33.174  1.00  0.00     0.163 HD
ENDROOT
BRANCH   2   5
HETATM    5  C   UNL     1      -3.330   4.520 -32.573  1.00  0.00     0.161 C 
BRANCH   5   6
HETATM    6  C   UNL     1      -2.411   5.334 -31.705  1.00  0.00    -0.040 A 
HETATM    7  C   UNL     1      -2.925   6.202 -30.736  1.00  0.00     0.011 A 
HETATM    8  C   UNL     1      -2.071   6.952 -29.916  1.00  0.00     0.030 A 
HETATM    9  C   UNL     1      -0.686   6.854 -30.054  1.00  0.00     0.036 A 
HETATM   10  C   UNL     1      -0.174   6.004 -31.045  1.00  0.00     0.030 A 
HETATM   11  C   UNL     1      -1.025   5.255 -31.864  1.00  0.00     0.011 A 
BRANCH   9  12
HETATM   12  N   UNL     1       0.257   7.544 -29.273  1.00  0.00    -0.303 N 
HETATM   13  C   UNL     1       0.812   7.287 -28.048  1.00  0.00     0.364 C 
HETATM   14  O   UNL     1       1.639   8.060 -27.573  1.00  0.00    -0.238 OA
HETATM   15  H   UNL     1       0.638   8.395 -29.665  1.00  0.00     0.171 HD
BRANCH  13  16
HETATM   16  O   UNL     1       0.396   6.151 -27.436  1.00  0.00    -0.309 OA
HETATM   17  C   UNL     1      -0.559   6.361 -26.395  1.00  0.00     0.215 C 
ENDBRANCH  13  16
ENDBRANCH   9  12
ENDBRANCH   5   6
ENDBRANCH   2   5
BRANCH   1  18
HETATM   18  C   UNL     1      -3.468   0.891 -31.698  1.00  0.00     0.157 A 
HETATM   19  C   UNL     1      -4.177  -0.034 -32.521  1.00  0.00     0.029 A 
HETATM   20  C   UNL     1      -5.276   0.023 -33.402  1.00  0.00     0.023 A 
HETATM   21  C   UNL     1      -3.539  -1.253 -32.325  1.00  0.00     0.063 A 
HETATM   22  C   UNL     1      -5.700  -1.145 -34.059  1.00  0.00    -0.061 A 
HETATM   23  C   UNL     1      -6.865  -1.104 -35.004  1.00  0.00     0.048 C 
HETATM   24  C   UNL     1      -5.027  -2.353 -33.833  1.00  0.00     0.009 A 
HETATM   25  C   UNL     1      -3.934  -2.433 -32.962  1.00  0.00     0.032 A 
HETATM   26  N   UNL     1      -2.533  -0.994 -31.437  1.00  0.00    -0.277 N 
HETATM   27  H   UNL     1      -1.861  -1.655 -31.063  1.00  0.00     0.189 HD
HETATM   28  N   UNL     1      -2.454   0.288 -31.040  1.00  0.00    -0.168 NA
ENDBRANCH   1  18
TORSDOF 5
ENDMDL
MODEL 6
REMARK VINA RESULT:      -7.6      2.458      7.959
REMARK  5 active torsions:
REMARK  status: ('A' for Active; 'I' for Inactive)
REMARK    1  A    between atoms: C_9  and  C_10 
REMARK       I    between atoms: C_10  and  N_11 
REMARK    2  A    between atoms: N_11  and  C_12 
REMARK    3  A    between atoms: C_12  and  C_13 
REMARK    4  A    between atoms: C_16  and  N_17 
REMARK       I    between atoms: N_17  and  C_18 
REMARK    5  A    between atoms: C_18  and  O_19 
ROOT
HETATM    1  C   UNL     1      -8.488   2.535 -32.666  1.00  0.00     0.273 C 
HETATM    2  N   UNL     1      -7.211   2.605 -33.175  1.00  0.00    -0.351 N 
HETATM    3  O   UNL     1      -8.732   2.155 -31.523  1.00  0.00    -0.266 OA
HETATM    4  H   UNL     1      -7.120   3.036 -34.091  1.00  0.00     0.163 HD
ENDROOT
BRANCH   2   5
HETATM    5  C   UNL     1      -6.063   2.383 -32.341  1.00  0.00     0.161 C 
BRANCH   5   6
HETATM    6  C   UNL     1      -5.492   1.007 -32.541  1.00  0.00    -0.040 A 
HETATM    7  C   UNL     1      -6.326  -0.115 -32.585  1.00  0.00     0.011 A 
HETATM    8  C   UNL     1      -5.797  -1.398 -32.786  1.00  0.00     0.030 A 
HETATM    9  C   UNL     1      -4.423  -1.584 -32.939  1.00  0.00     0.036 A 
HETATM   10  C   UNL     1      -3.587  -0.462 -32.867  1.00  0.00     0.030 A 
HETATM   11  C   UNL     1      -4.112   0.819 -32.667  1.00  0.00     0.011 A 
BRANCH   9  12
HETATM   12  N   UNL     1      -3.794  -2.821 -33.164  1.00  0.00    -0.303 N 
HETATM   13  C   UNL     1      -3.985  -3.802 -34.101  1.00  0.00     0.364 C 
HETATM   14  O   UNL     1      -3.283  -4.809 -34.089  1.00  0.00    -0.238 OA
HETATM   15  H   UNL     1      -3.032  -3.064 -32.544  1.00  0.00     0.171 HD
BRANCH  13  16
HETATM   16  O   UNL     1      -4.966  -3.571 -35.008  1.00  0.00    -0.309 OA
HETATM   17  C   UNL     1      -6.054  -4.494 -34.944  1.00  0.00     0.215 C 
ENDBRANCH  13  16
ENDBRANCH   9  12
ENDBRANCH   5   6
ENDBRANCH   2   5
BRANCH   1  18
HETATM   18  C   UNL     1      -9.524   2.977 -33.613  1.00  0.00     0.157 A 
HETATM   19  C   UNL     1     -10.756   2.320 -33.910  1.00  0.00     0.029 A 
HETATM   20  C   UNL     1     -11.406   1.142 -33.492  1.00  0.00     0.023 A 
HETATM   21  C   UNL     1     -11.380   3.132 -34.850  1.00  0.00     0.063 A 
HETATM   22  C   UNL     1     -12.662   0.815 -34.030  1.00  0.00    -0.061 A 
HETATM   23  C   UNL     1     -13.373  -0.434 -33.594  1.00  0.00     0.048 C 
HETATM   24  C   UNL     1     -13.257   1.662 -34.974  1.00  0.00     0.009 A 
HETATM   25  C   UNL     1     -12.629   2.837 -35.404  1.00  0.00     0.032 A 
HETATM   26  N   UNL     1     -10.522   4.177 -35.049  1.00  0.00    -0.277 N 
HETATM   27  H   UNL     1     -10.652   4.965 -35.674  1.00  0.00     0.189 HD
HETATM   28  N   UNL     1      -9.395   4.123 -34.317  1.00  0.00    -0.168 NA
ENDBRANCH   1  18
TORSDOF 5
ENDMDL
MODEL 7
REMARK VINA RESULT:      -7.5      2.984      8.109
REMARK  5 active torsions:
REMARK  status: ('A' for Active; 'I' for Inactive)
REMARK    1  A    between atoms: C_9  and  C_10 
REMARK       I    between atoms: C_10  and  N_11 
REMARK    2  A    between atoms: N_11  and  C_12 
REMARK    3  A    between atoms: C_12  and  C_13 
REMARK    4  A    between atoms: C_16  and  N_17 
REMARK       I    between atoms: N_17  and  C_18 
REMARK    5  A    between atoms: C_18  and  O_19 
ROOT
HETATM    1  C   UNL     1      -9.497   3.493 -33.593  1.00  0.00     0.273 C 
HETATM    2  N   UNL     1      -8.329   3.290 -32.892  1.00  0.00    -0.351 N 
HETATM    3  O   UNL     1      -9.555   3.453 -34.820  1.00  0.00    -0.266 OA
HETATM    4  H   UNL     1      -8.422   3.239 -31.880  1.00  0.00     0.163 HD
ENDROOT
BRANCH   2   5
HETATM    5  C   UNL     1      -7.128   2.862 -33.552  1.00  0.00     0.161 C 
BRANCH   5   6
HETATM    6  C   UNL     1      -7.109   1.373 -33.754  1.00  0.00    -0.040 A 
HETATM    7  C   UNL     1      -6.867   0.507 -32.682  1.00  0.00     0.011 A 
HETATM    8  C   UNL     1      -6.863  -0.883 -32.866  1.00  0.00     0.030 A 
HETATM    9  C   UNL     1      -7.094  -1.434 -34.127  1.00  0.00     0.036 A 
HETATM   10  C   UNL     1      -7.308  -0.564 -35.205  1.00  0.00     0.030 A 
HETATM   11  C   UNL     1      -7.313   0.823 -35.024  1.00  0.00     0.011 A 
BRANCH   9  12
HETATM   12  N   UNL     1      -7.130  -2.809 -34.415  1.00  0.00    -0.303 N 
HETATM   13  C   UNL     1      -6.155  -3.715 -34.737  1.00  0.00     0.364 C 
HETATM   14  O   UNL     1      -6.449  -4.889 -34.941  1.00  0.00    -0.238 OA
HETATM   15  H   UNL     1      -8.035  -3.260 -34.369  1.00  0.00     0.171 HD
BRANCH  13  16
HETATM   16  O   UNL     1      -4.892  -3.228 -34.799  1.00  0.00    -0.309 OA
HETATM   17  C   UNL     1      -3.937  -3.972 -34.042  1.00  0.00     0.215 C 
ENDBRANCH  13  16
ENDBRANCH   9  12
ENDBRANCH   5   6
ENDBRANCH   2   5
BRANCH   1  18
HETATM   18  C   UNL     1     -10.664   3.743 -32.733  1.00  0.00     0.157 A 
HETATM   19  C   UNL     1     -11.941   3.110 -32.808  1.00  0.00     0.029 A 
HETATM   20  C   UNL     1     -12.542   2.128 -33.620  1.00  0.00     0.023 A 
HETATM   21  C   UNL     1     -12.686   3.677 -31.782  1.00  0.00     0.063 A 
HETATM   22  C   UNL     1     -13.872   1.746 -33.379  1.00  0.00    -0.061 A 
HETATM   23  C   UNL     1     -14.529   0.699 -34.231  1.00  0.00     0.048 C 
HETATM   24  C   UNL     1     -14.588   2.343 -32.333  1.00  0.00     0.009 A 
HETATM   25  C   UNL     1     -14.011   3.321 -31.513  1.00  0.00     0.032 A 
HETATM   26  N   UNL     1     -11.849   4.576 -31.183  1.00  0.00    -0.277 N 
HETATM   27  H   UNL     1     -12.059   5.177 -30.394  1.00  0.00     0.189 HD
HETATM   28  N   UNL     1     -10.619   4.640 -31.723  1.00  0.00    -0.168 NA
ENDBRANCH   1  18
TORSDOF 5
ENDMDL
MODEL 8
REMARK VINA RESULT:      -7.5      3.998      6.856
REMARK  5 active torsions:
REMARK  status: ('A' for Active; 'I' for Inactive)
REMARK    1  A    between atoms: C_9  and  C_10 
REMARK       I    between atoms: C_10  and  N_11 
REMARK    2  A    between atoms: N_11  and  C_12 
REMARK    3  A    between atoms: C_12  and  C_13 
REMARK    4  A    between atoms: C_16  and  N_17 
REMARK       I    between atoms: N_17  and  C_18 
REMARK    5  A    between atoms: C_18  and  O_19 
ROOT
HETATM    1  C   UNL     1      -7.649   1.929 -33.051  1.00  0.00     0.273 C 
HETATM    2  N   UNL     1      -7.177   2.037 -31.762  1.00  0.00    -0.351 N 
HETATM    3  O   UNL     1      -8.285   2.821 -33.606  1.00  0.00    -0.266 OA
HETATM    4  H   UNL     1      -6.572   1.283 -31.445  1.00  0.00     0.163 HD
ENDROOT
BRANCH   2   5
HETATM    5  C   UNL     1      -7.268   3.272 -31.036  1.00  0.00     0.161 C 
BRANCH   5   6
HETATM    6  C   UNL     1      -6.193   4.238 -31.450  1.00  0.00    -0.040 A 
HETATM    7  C   UNL     1      -6.519   5.526 -31.889  1.00  0.00     0.011 A 
HETATM    8  C   UNL     1      -5.517   6.434 -32.262  1.00  0.00     0.030 A 
HETATM    9  C   UNL     1      -4.172   6.068 -32.211  1.00  0.00     0.036 A 
HETATM   10  C   UNL     1      -3.850   4.768 -31.797  1.00  0.00     0.030 A 
HETATM   11  C   UNL     1      -4.848   3.861 -31.424  1.00  0.00     0.011 A 
BRANCH   9  12
HETATM   12  N   UNL     1      -3.092   6.905 -32.543  1.00  0.00    -0.303 N 
HETATM   13  C   UNL     1      -2.346   7.047 -33.683  1.00  0.00     0.364 C 
HETATM   14  O   UNL     1      -1.440   7.874 -33.725  1.00  0.00    -0.238 OA
HETATM   15  H   UNL     1      -2.786   7.558 -31.833  1.00  0.00     0.171 HD
BRANCH  13  16
HETATM   16  O   UNL     1      -2.687   6.240 -34.717  1.00  0.00    -0.309 OA
HETATM   17  C   UNL     1      -1.786   5.153 -34.935  1.00  0.00     0.215 C 
ENDBRANCH  13  16
ENDBRANCH   9  12
ENDBRANCH   5   6
ENDBRANCH   2   5
BRANCH   1  18
HETATM   18  C   UNL     1      -7.301   0.654 -33.699  1.00  0.00     0.157 A 
HETATM   19  C   UNL     1      -6.128  -0.129 -33.485  1.00  0.00     0.029 A 
HETATM   20  C   UNL     1      -4.971  -0.029 -32.686  1.00  0.00     0.023 A 
HETATM   21  C   UNL     1      -6.273  -1.233 -34.317  1.00  0.00     0.063 A 
HETATM   22  C   UNL     1      -3.996  -1.039 -32.747  1.00  0.00    -0.061 A 
HETATM   23  C   UNL     1      -2.759  -0.953 -31.901  1.00  0.00     0.048 C 
HETATM   24  C   UNL     1      -4.183  -2.136 -33.599  1.00  0.00     0.009 A 
HETATM   25  C   UNL     1      -5.324  -2.255 -34.402  1.00  0.00     0.032 A 
HETATM   26  N   UNL     1      -7.470  -1.050 -34.951  1.00  0.00    -0.277 N 
HETATM   27  H   UNL     1      -7.900  -1.662 -35.635  1.00  0.00     0.189 HD
HETATM   28  N   UNL     1      -8.123   0.073 -34.601  1.00  0.00    -0.168 NA
ENDBRANCH   1  18
TORSDOF 5
ENDMDL
MODEL 9
REMARK VINA RESULT:      -7.4      4.669      8.337
REMARK  5 active torsions:
REMARK  status: ('A' for Active; 'I' for Inactive)
REMARK    1  A    between atoms: C_9  and  C_10 
REMARK       I    between atoms: C_10  and  N_11 
REMARK    2  A    between atoms: N_11  and  C_12 
REMARK    3  A    between atoms: C_12  and  C_13 
REMARK    4  A    between atoms: C_16  and  N_17 
REMARK       I    between atoms: N_17  and  C_18 
REMARK    5  A    between atoms: C_18  and  O_19 
ROOT
HETATM    1  C   UNL     1      -7.470   3.865 -33.444  1.00  0.00     0.273 C 
HETATM    2  N   UNL     1      -7.118   3.899 -32.113  1.00  0.00    -0.351 N 
HETATM    3  O   UNL     1      -7.433   4.855 -34.171  1.00  0.00    -0.266 OA
HETATM    4  H   UNL     1      -7.083   3.000 -31.640  1.00  0.00     0.163 HD
ENDROOT
BRANCH   2   5
HETATM    5  C   UNL     1      -6.533   5.072 -31.527  1.00  0.00     0.161 C 
BRANCH   5   6
HETATM    6  C   UNL     1      -5.033   5.043 -31.610  1.00  0.00    -0.040 A 
HETATM    7  C   UNL     1      -4.304   6.221 -31.805  1.00  0.00     0.011 A 
HETATM    8  C   UNL     1      -2.903   6.199 -31.869  1.00  0.00     0.030 A 
HETATM    9  C   UNL     1      -2.205   4.997 -31.746  1.00  0.00     0.036 A 
HETATM   10  C   UNL     1      -2.939   3.815 -31.577  1.00  0.00     0.030 A 
HETATM   11  C   UNL     1      -4.337   3.835 -31.514  1.00  0.00     0.011 A 
BRANCH   9  12
HETATM   12  N   UNL     1      -0.806   4.867 -31.775  1.00  0.00    -0.303 N 
HETATM   13  C   UNL     1       0.160   5.022 -30.817  1.00  0.00     0.364 C 
HETATM   14  O   UNL     1       1.341   4.840 -31.099  1.00  0.00    -0.238 OA
HETATM   15  H   UNL     1      -0.393   4.587 -32.655  1.00  0.00     0.171 HD
BRANCH  13  16
HETATM   16  O   UNL     1      -0.281   5.370 -29.583  1.00  0.00    -0.309 OA
HETATM   17  C   UNL     1       0.016   6.717 -29.211  1.00  0.00     0.215 C 
ENDBRANCH  13  16
ENDBRANCH   9  12
ENDBRANCH   5   6
ENDBRANCH   2   5
BRANCH   1  18
HETATM   18  C   UNL     1      -7.873   2.529 -33.912  1.00  0.00     0.157 A 
HETATM   19  C   UNL     1      -7.081   1.343 -33.915  1.00  0.00     0.029 A 
HETATM   20  C   UNL     1      -5.769   0.995 -33.536  1.00  0.00     0.023 A 
HETATM   21  C   UNL     1      -7.910   0.357 -34.437  1.00  0.00     0.063 A 
HETATM   22  C   UNL     1      -5.329  -0.330 -33.693  1.00  0.00    -0.061 A 
HETATM   23  C   UNL     1      -3.936  -0.721 -33.292  1.00  0.00     0.048 C 
HETATM   24  C   UNL     1      -6.198  -1.293 -34.223  1.00  0.00     0.009 A 
HETATM   25  C   UNL     1      -7.505  -0.970 -34.607  1.00  0.00     0.032 A 
HETATM   26  N   UNL     1      -9.094   0.986 -34.704  1.00  0.00    -0.277 N 
HETATM   27  H   UNL     1      -9.932   0.572 -35.098  1.00  0.00     0.189 HD
HETATM   28  N   UNL     1      -9.113   2.295 -34.395  1.00  0.00    -0.168 NA
ENDBRANCH   1  18
TORSDOF 5
ENDMDL
MODEL 10
REMARK VINA RESULT:      -7.4      4.403      6.381
REMARK  5 active torsions:
REMARK  status: ('A' for Active; 'I' for Inactive)
REMARK    1  A    between atoms: C_9  and  C_10 
REMARK       I    between atoms: C_10  and  N_11 
REMARK    2  A    between atoms: N_11  and  C_12 
REMARK    3  A    between atoms: C_12  and  C_13 
REMARK    4  A    between atoms: C_16  and  N_17 
REMARK       I    between atoms: N_17  and  C_18 
REMARK    5  A    between atoms: C_18  and  O_19 
ROOT
HETATM    1  C   UNL     1      -4.366   3.083 -32.045  1.00  0.00     0.273 C 
HETATM    2  N   UNL     1      -4.800   2.044 -32.838  1.00  0.00    -0.351 N 
HETATM    3  O   UNL     1      -4.402   3.047 -30.817  1.00  0.00    -0.266 OA
HETATM    4  H   UNL     1      -4.622   2.141 -33.834  1.00  0.00     0.163 HD
ENDROOT
BRANCH   2   5
HETATM    5  C   UNL     1      -5.182   0.782 -32.269  1.00  0.00     0.161 C 
BRANCH   5   6
HETATM    6  C   UNL     1      -6.659   0.538 -32.404  1.00  0.00    -0.040 A 
HETATM    7  C   UNL     1      -7.540   0.892 -31.376  1.00  0.00     0.011 A 
HETATM    8  C   UNL     1      -8.919   0.679 -31.505  1.00  0.00     0.030 A 
HETATM    9  C   UNL     1      -9.444   0.100 -32.661  1.00  0.00     0.036 A 
HETATM   10  C   UNL     1      -8.556  -0.280 -33.677  1.00  0.00     0.030 A 
HETATM   11  C   UNL     1      -7.179  -0.068 -33.551  1.00  0.00     0.011 A 
BRANCH   9  12
HETATM   12  N   UNL     1     -10.808  -0.140 -32.899  1.00  0.00    -0.303 N 
HETATM   13  C   UNL     1     -11.789   0.604 -33.499  1.00  0.00     0.364 C 
HETATM   14  O   UNL     1     -12.929   0.159 -33.592  1.00  0.00    -0.238 OA
HETATM   15  H   UNL     1     -11.173  -1.034 -32.599  1.00  0.00     0.171 HD
BRANCH  13  16
HETATM   16  O   UNL     1     -11.407   1.817 -33.970  1.00  0.00    -0.309 OA
HETATM   17  C   UNL     1     -12.205   2.906 -33.503  1.00  0.00     0.215 C 
ENDBRANCH  13  16
ENDBRANCH   9  12
ENDBRANCH   5   6
ENDBRANCH   2   5
BRANCH   1  18
HETATM   18  C   UNL     1      -3.840   4.225 -32.809  1.00  0.00     0.157 A 
HETATM   19  C   UNL     1      -2.648   4.963 -32.544  1.00  0.00     0.029 A 
HETATM   20  C   UNL     1      -1.622   4.924 -31.578  1.00  0.00     0.023 A 
HETATM   21  C   UNL     1      -2.587   5.924 -33.546  1.00  0.00     0.063 A 
HETATM   22  C   UNL     1      -0.568   5.850 -31.648  1.00  0.00    -0.061 A 
HETATM   23  C   UNL     1       0.537   5.823 -30.631  1.00  0.00     0.048 C 
HETATM   24  C   UNL     1      -0.545   6.802 -32.676  1.00  0.00     0.009 A 
HETATM   25  C   UNL     1      -1.554   6.860 -33.645  1.00  0.00     0.032 A 
HETATM   26  N   UNL     1      -3.698   5.713 -34.314  1.00  0.00    -0.277 N 
HETATM   27  H   UNL     1      -3.981   6.233 -35.137  1.00  0.00     0.189 HD
HETATM   28  N   UNL     1      -4.475   4.694 -33.906  1.00  0.00    -0.168 NA
ENDBRANCH   1  18
TORSDOF 5
ENDMDL
