MODEL 1
REMARK VINA RESULT:      -8.5      0.000      0.000
REMARK  6 active torsions:
REMARK  status: ('A' for Active; 'I' for Inactive)
REMARK    1  A    between atoms: C_2  and  O_3 
REMARK    2  A    between atoms: O_3  and  C_4 
REMARK    3  A    between atoms: C_7  and  C_8 
REMARK    4  A    between atoms: C_8  and  N_9 
REMARK       I    between atoms: N_9  and  C_10 
REMARK    5  A    between atoms: C_10  and  C_11 
REMARK    6  A    between atoms: C_15  and  C_16 
ROOT
HETATM    1  N   UNL     1      -2.633   3.516 -32.454  1.00  0.00    -0.347 N 
HETATM    2  C   UNL     1      -3.583   2.937 -31.639  1.00  0.00     0.272 C 
HETATM    3  O   UNL     1      -4.269   3.568 -30.840  1.00  0.00    -0.266 OA
HETATM    4  H   UNL     1      -2.213   2.891 -33.134  1.00  0.00     0.163 HD
ENDROOT
BRANCH   2   5
HETATM    5  C   UNL     1      -3.755   1.493 -31.858  1.00  0.00     0.146 A 
HETATM    6  N   UNL     1      -2.980   0.566 -31.262  1.00  0.00    -0.169 NA
HETATM    7  N   UNL     1      -3.416  -0.598 -31.781  1.00  0.00    -0.277 N 
HETATM    8  H   UNL     1      -2.950  -1.452 -31.495  1.00  0.00     0.189 HD
HETATM    9  C   UNL     1      -4.432  -0.473 -32.694  1.00  0.00     0.063 A 
HETATM   10  C   UNL     1      -4.681   0.885 -32.743  1.00  0.00     0.071 A 
BRANCH   9  11
HETATM   11  C   UNL     1      -5.016  -1.586 -33.443  1.00  0.00    -0.008 A 
HETATM   12  C   UNL     1      -4.262  -2.715 -33.792  1.00  0.00     0.014 A 
HETATM   13  C   UNL     1      -4.838  -3.762 -34.519  1.00  0.00     0.001 A 
HETATM   14  C   UNL     1      -6.175  -3.694 -34.905  1.00  0.00     0.000 A 
HETATM   15  C   UNL     1      -6.939  -2.583 -34.561  1.00  0.00     0.001 A 
HETATM   16  C   UNL     1      -6.362  -1.538 -33.833  1.00  0.00     0.014 A 
ENDBRANCH   9  11
ENDBRANCH   2   5
BRANCH   1  17
HETATM   17  C   UNL     1      -2.594   4.950 -32.645  1.00  0.00     0.114 C 
HETATM   18  C   UNL     1      -2.234   5.294 -34.094  1.00  0.00     0.037 C 
BRANCH  17  19
HETATM   19  C   UNL     1      -1.641   5.632 -31.681  1.00  0.00    -0.036 A 
HETATM   20  C   UNL     1      -0.261   5.381 -31.690  1.00  0.00     0.012 A 
HETATM   21  C   UNL     1       0.606   6.096 -30.852  1.00  0.00     0.037 A 
HETATM   22  C   UNL     1       0.106   7.079 -29.999  1.00  0.00     0.068 A 
HETATM   23  C   UNL     1      -1.270   7.308 -29.957  1.00  0.00     0.037 A 
HETATM   24  C   UNL     1      -2.135   6.596 -30.789  1.00  0.00     0.012 A 
BRANCH  22  25
HETATM   25  O   UNL     1       0.843   7.871 -29.164  1.00  0.00    -0.352 OA
BRANCH  25  26
HETATM   26  C   UNL     1       0.895   7.485 -27.791  1.00  0.00     0.171 C 
HETATM   27  C   UNL     1       1.730   8.512 -27.048  1.00  0.00     0.034 C 
ENDBRANCH  25  26
ENDBRANCH  22  25
ENDBRANCH  17  19
ENDBRANCH   1  17
TORSDOF 6
ENDMDL
MODEL 2
REMARK VINA RESULT:      -8.2      1.654      2.025
REMARK  6 active torsions:
REMARK  status: ('A' for Active; 'I' for Inactive)
REMARK    1  A    between atoms: C_2  and  O_3 
REMARK    2  A    between atoms: O_3  and  C_4 
REMARK    3  A    between atoms: C_7  and  C_8 
REMARK    4  A    between atoms: C_8  and  N_9 
REMARK       I    between atoms: N_9  and  C_10 
REMARK    5  A    between atoms: C_10  and  C_11 
REMARK    6  A    between atoms: C_15  and  C_16 
ROOT
HETATM    1  N   UNL     1      -4.268   3.689 -33.122  1.00  0.00    -0.347 N 
HETATM    2  C   UNL     1      -5.393   3.360 -32.394  1.00  0.00     0.272 C 
HETATM    3  O   UNL     1      -6.101   4.188 -31.827  1.00  0.00    -0.266 OA
HETATM    4  H   UNL     1      -3.837   2.915 -33.617  1.00  0.00     0.163 HD
ENDROOT
BRANCH   2   5
HETATM    5  C   UNL     1      -5.713   1.926 -32.408  1.00  0.00     0.146 A 
HETATM    6  N   UNL     1      -6.238   1.284 -31.345  1.00  0.00    -0.169 NA
HETATM    7  N   UNL     1      -6.306  -0.000 -31.749  1.00  0.00    -0.277 N 
HETATM    8  H   UNL     1      -6.651  -0.689 -31.090  1.00  0.00     0.189 HD
HETATM    9  C   UNL     1      -5.841  -0.226 -33.019  1.00  0.00     0.063 A 
HETATM   10  C   UNL     1      -5.468   1.023 -33.473  1.00  0.00     0.071 A 
BRANCH   9  11
HETATM   11  C   UNL     1      -5.746  -1.546 -33.644  1.00  0.00    -0.008 A 
HETATM   12  C   UNL     1      -4.525  -2.227 -33.747  1.00  0.00     0.014 A 
HETATM   13  C   UNL     1      -4.458  -3.482 -34.360  1.00  0.00     0.001 A 
HETATM   14  C   UNL     1      -5.608  -4.073 -34.877  1.00  0.00     0.000 A 
HETATM   15  C   UNL     1      -6.829  -3.413 -34.777  1.00  0.00     0.001 A 
HETATM   16  C   UNL     1      -6.897  -2.159 -34.164  1.00  0.00     0.014 A 
ENDBRANCH   9  11
ENDBRANCH   2   5
BRANCH   1  17
HETATM   17  C   UNL     1      -4.020   5.056 -33.527  1.00  0.00     0.114 C 
HETATM   18  C   UNL     1      -3.921   5.159 -35.054  1.00  0.00     0.037 C 
BRANCH  17  19
HETATM   19  C   UNL     1      -2.780   5.634 -32.871  1.00  0.00    -0.036 A 
HETATM   20  C   UNL     1      -2.695   6.980 -32.488  1.00  0.00     0.012 A 
HETATM   21  C   UNL     1      -1.573   7.463 -31.799  1.00  0.00     0.037 A 
HETATM   22  C   UNL     1      -0.525   6.603 -31.476  1.00  0.00     0.068 A 
HETATM   23  C   UNL     1      -0.585   5.272 -31.887  1.00  0.00     0.037 A 
HETATM   24  C   UNL     1      -1.700   4.789 -32.574  1.00  0.00     0.012 A 
BRANCH  22  25
HETATM   25  O   UNL     1       0.602   6.935 -30.777  1.00  0.00    -0.352 OA
BRANCH  25  26
HETATM   26  C   UNL     1       0.424   7.305 -29.410  1.00  0.00     0.171 C 
HETATM   27  C   UNL     1       0.532   6.047 -28.568  1.00  0.00     0.034 C 
ENDBRANCH  25  26
ENDBRANCH  22  25
ENDBRANCH  17  19
ENDBRANCH   1  17
TORSDOF 6
ENDMDL
MODEL 3
REMARK VINA RESULT:      -8.1      2.165      2.991
REMARK  6 active torsions:
REMARK  status: ('A' for Active; 'I' for Inactive)
REMARK    1  A    between atoms: C_2  and  O_3 
REMARK    2  A    between atoms: O_3  and  C_4 
REMARK    3  A    between atoms: C_7  and  C_8 
REMARK    4  A    between atoms: C_8  and  N_9 
REMARK       I    between atoms: N_9  and  C_10 
REMARK    5  A    between atoms: C_10  and  C_11 
REMARK    6  A    between atoms: C_15  and  C_16 
ROOT
HETATM    1  N   UNL     1      -5.038   3.302 -32.887  1.00  0.00    -0.347 N 
HETATM    2  C   UNL     1      -6.109   2.473 -32.620  1.00  0.00     0.272 C 
HETATM    3  O   UNL     1      -6.983   2.736 -31.799  1.00  0.00    -0.266 OA
HETATM    4  H   UNL     1      -4.449   3.006 -33.658  1.00  0.00     0.163 HD
ENDROOT
BRANCH   2   5
HETATM    5  C   UNL     1      -6.151   1.266 -33.459  1.00  0.00     0.146 A 
HETATM    6  N   UNL     1      -6.803   1.217 -34.637  1.00  0.00    -0.169 NA
HETATM    7  N   UNL     1      -6.655  -0.063 -35.031  1.00  0.00    -0.277 N 
HETATM    8  H   UNL     1      -7.096  -0.348 -35.898  1.00  0.00     0.189 HD
HETATM    9  C   UNL     1      -5.946  -0.852 -34.162  1.00  0.00     0.063 A 
HETATM   10  C   UNL     1      -5.592   0.004 -33.137  1.00  0.00     0.071 A 
BRANCH   9  11
HETATM   11  C   UNL     1      -5.721  -2.287 -34.340  1.00  0.00    -0.008 A 
HETATM   12  C   UNL     1      -6.739  -3.143 -34.781  1.00  0.00     0.014 A 
HETATM   13  C   UNL     1      -6.503  -4.514 -34.931  1.00  0.00     0.001 A 
HETATM   14  C   UNL     1      -5.248  -5.045 -34.644  1.00  0.00     0.000 A 
HETATM   15  C   UNL     1      -4.225  -4.207 -34.212  1.00  0.00     0.001 A 
HETATM   16  C   UNL     1      -4.461  -2.838 -34.062  1.00  0.00     0.014 A 
ENDBRANCH   9  11
ENDBRANCH   2   5
BRANCH   1  17
HETATM   17  C   UNL     1      -5.038   4.679 -32.442  1.00  0.00     0.114 C 
HETATM   18  C   UNL     1      -5.714   5.583 -33.480  1.00  0.00     0.037 C 
BRANCH  17  19
HETATM   19  C   UNL     1      -3.641   5.180 -32.125  1.00  0.00    -0.036 A 
HETATM   20  C   UNL     1      -3.398   6.136 -31.128  1.00  0.00     0.012 A 
HETATM   21  C   UNL     1      -2.089   6.510 -30.794  1.00  0.00     0.037 A 
HETATM   22  C   UNL     1      -1.004   5.926 -31.446  1.00  0.00     0.068 A 
HETATM   23  C   UNL     1      -1.239   5.003 -32.465  1.00  0.00     0.037 A 
HETATM   24  C   UNL     1      -2.542   4.630 -32.801  1.00  0.00     0.012 A 
BRANCH  22  25
HETATM   25  O   UNL     1       0.315   6.171 -31.190  1.00  0.00    -0.352 OA
BRANCH  25  26
HETATM   26  C   UNL     1       1.118   5.050 -30.820  1.00  0.00     0.171 C 
HETATM   27  C   UNL     1       0.909   4.795 -29.338  1.00  0.00     0.034 C 
ENDBRANCH  25  26
ENDBRANCH  22  25
ENDBRANCH  17  19
ENDBRANCH   1  17
TORSDOF 6
ENDMDL
MODEL 4
REMARK VINA RESULT:      -8.0      2.116      9.904
REMARK  6 active torsions:
REMARK  status: ('A' for Active; 'I' for Inactive)
REMARK    1  A    between atoms: C_2  and  O_3 
REMARK    2  A    between atoms: O_3  and  C_4 
REMARK    3  A    between atoms: C_7  and  C_8 
REMARK    4  A    between atoms: C_8  and  N_9 
REMARK       I    between atoms: N_9  and  C_10 
REMARK    5  A    between atoms: C_10  and  C_11 
REMARK    6  A    between atoms: C_15  and  C_16 
ROOT
HETATM    1  N   UNL     1      -3.410   3.525 -31.129  1.00  0.00    -0.347 N 
HETATM    2  C   UNL     1      -2.759   4.450 -31.919  1.00  0.00     0.272 C 
HETATM    3  O   UNL     1      -3.066   4.684 -33.085  1.00  0.00    -0.266 OA
HETATM    4  H   UNL     1      -3.114   3.507 -30.159  1.00  0.00     0.163 HD
ENDROOT
BRANCH   2   5
HETATM    5  C   UNL     1      -1.695   5.186 -31.221  1.00  0.00     0.146 A 
HETATM    6  N   UNL     1      -0.410   4.782 -31.213  1.00  0.00    -0.169 NA
HETATM    7  N   UNL     1       0.203   5.680 -30.416  1.00  0.00    -0.277 N 
HETATM    8  H   UNL     1       1.193   5.558 -30.235  1.00  0.00     0.189 HD
HETATM    9  C   UNL     1      -0.624   6.643 -29.897  1.00  0.00     0.063 A 
HETATM   10  C   UNL     1      -1.865   6.349 -30.427  1.00  0.00     0.071 A 
BRANCH   9  11
HETATM   11  C   UNL     1      -0.201   7.676 -28.951  1.00  0.00    -0.008 A 
HETATM   12  C   UNL     1       1.104   7.717 -28.440  1.00  0.00     0.014 A 
HETATM   13  C   UNL     1       1.481   8.708 -27.526  1.00  0.00     0.001 A 
HETATM   14  C   UNL     1       0.561   9.668 -27.114  1.00  0.00     0.000 A 
HETATM   15  C   UNL     1      -0.736   9.645 -27.617  1.00  0.00     0.001 A 
HETATM   16  C   UNL     1      -1.113   8.656 -28.530  1.00  0.00     0.014 A 
ENDBRANCH   9  11
ENDBRANCH   2   5
BRANCH   1  17
HETATM   17  C   UNL     1      -4.697   2.991 -31.520  1.00  0.00     0.114 C 
HETATM   18  C   UNL     1      -5.614   2.839 -30.301  1.00  0.00     0.037 C 
BRANCH  17  19
HETATM   19  C   UNL     1      -4.571   1.674 -32.262  1.00  0.00    -0.036 A 
HETATM   20  C   UNL     1      -3.425   0.869 -32.169  1.00  0.00     0.012 A 
HETATM   21  C   UNL     1      -3.375  -0.386 -32.790  1.00  0.00     0.037 A 
HETATM   22  C   UNL     1      -4.474  -0.859 -33.506  1.00  0.00     0.068 A 
HETATM   23  C   UNL     1      -5.603  -0.050 -33.635  1.00  0.00     0.037 A 
HETATM   24  C   UNL     1      -5.654   1.202 -33.019  1.00  0.00     0.012 A 
BRANCH  22  25
HETATM   25  O   UNL     1      -4.570  -2.075 -34.123  1.00  0.00    -0.352 OA
BRANCH  25  26
HETATM   26  C   UNL     1      -5.826  -2.395 -34.721  1.00  0.00     0.171 C 
HETATM   27  C   UNL     1      -5.807  -3.870 -35.083  1.00  0.00     0.034 C 
ENDBRANCH  25  26
ENDBRANCH  22  25
ENDBRANCH  17  19
ENDBRANCH   1  17
TORSDOF 6
ENDMDL
MODEL 5
REMARK VINA RESULT:      -7.9      2.454      9.884
REMARK  6 active torsions:
REMARK  status: ('A' for Active; 'I' for Inactive)
REMARK    1  A    between atoms: C_2  and  O_3 
REMARK    2  A    between atoms: O_3  and  C_4 
REMARK    3  A    between atoms: C_7  and  C_8 
REMARK    4  A    between atoms: C_8  and  N_9 
REMARK       I    between atoms: N_9  and  C_10 
REMARK    5  A    between atoms: C_10  and  C_11 
REMARK    6  A    between atoms: C_15  and  C_16 
ROOT
HETATM    1  N   UNL     1      -4.884   3.312 -33.161  1.00  0.00    -0.347 N 
HETATM    2  C   UNL     1      -4.115   4.416 -33.469  1.00  0.00     0.272 C 
HETATM    3  O   UNL     1      -4.284   5.103 -34.472  1.00  0.00    -0.266 OA
HETATM    4  H   UNL     1      -4.697   2.900 -32.253  1.00  0.00     0.163 HD
ENDROOT
BRANCH   2   5
HETATM    5  C   UNL     1      -3.107   4.742 -32.450  1.00  0.00     0.146 A 
HETATM    6  N   UNL     1      -2.341   3.806 -31.854  1.00  0.00    -0.169 NA
HETATM    7  N   UNL     1      -1.622   4.507 -30.955  1.00  0.00    -0.277 N 
HETATM    8  H   UNL     1      -0.982   3.998 -30.356  1.00  0.00     0.189 HD
HETATM    9  C   UNL     1      -1.890   5.851 -30.930  1.00  0.00     0.063 A 
HETATM   10  C   UNL     1      -2.844   6.027 -31.914  1.00  0.00     0.071 A 
BRANCH   9  11
HETATM   11  C   UNL     1      -1.290   6.799 -29.990  1.00  0.00    -0.008 A 
HETATM   12  C   UNL     1      -2.059   7.763 -29.324  1.00  0.00     0.014 A 
HETATM   13  C   UNL     1      -1.460   8.667 -28.440  1.00  0.00     0.001 A 
HETATM   14  C   UNL     1      -0.087   8.618 -28.210  1.00  0.00     0.000 A 
HETATM   15  C   UNL     1       0.689   7.663 -28.858  1.00  0.00     0.001 A 
HETATM   16  C   UNL     1       0.090   6.759 -29.741  1.00  0.00     0.014 A 
ENDBRANCH   9  11
ENDBRANCH   2   5
BRANCH   1  17
HETATM   17  C   UNL     1      -6.140   3.072 -33.838  1.00  0.00     0.114 C 
HETATM   18  C   UNL     1      -7.285   3.811 -33.135  1.00  0.00     0.037 C 
BRANCH  17  19
HETATM   19  C   UNL     1      -6.454   1.592 -33.959  1.00  0.00    -0.036 A 
HETATM   20  C   UNL     1      -7.414   1.102 -34.856  1.00  0.00     0.012 A 
HETATM   21  C   UNL     1      -7.615  -0.276 -35.013  1.00  0.00     0.037 A 
HETATM   22  C   UNL     1      -6.853  -1.184 -34.279  1.00  0.00     0.068 A 
HETATM   23  C   UNL     1      -5.923  -0.704 -33.357  1.00  0.00     0.037 A 
HETATM   24  C   UNL     1      -5.722   0.668 -33.198  1.00  0.00     0.012 A 
BRANCH  22  25
HETATM   25  O   UNL     1      -6.922  -2.546 -34.365  1.00  0.00    -0.352 OA
BRANCH  25  26
HETATM   26  C   UNL     1      -5.834  -3.205 -35.014  1.00  0.00     0.171 C 
HETATM   27  C   UNL     1      -6.212  -4.665 -35.192  1.00  0.00     0.034 C 
ENDBRANCH  25  26
ENDBRANCH  22  25
ENDBRANCH  17  19
ENDBRANCH   1  17
TORSDOF 6
ENDMDL
MODEL 6
REMARK VINA RESULT:      -7.8      1.317      1.990
REMARK  6 active torsions:
REMARK  status: ('A' for Active; 'I' for Inactive)
REMARK    1  A    between atoms: C_2  and  O_3 
REMARK    2  A    between atoms: O_3  and  C_4 
REMARK    3  A    between atoms: C_7  and  C_8 
REMARK    4  A    between atoms: C_8  and  N_9 
REMARK       I    between atoms: N_9  and  C_10 
REMARK    5  A    between atoms: C_10  and  C_11 
REMARK    6  A    between atoms: C_15  and  C_16 
ROOT
HETATM    1  N   UNL     1      -2.724   4.102 -31.374  1.00  0.00    -0.347 N 
HETATM    2  C   UNL     1      -4.095   3.974 -31.465  1.00  0.00     0.272 C 
HETATM    3  O   UNL     1      -4.865   4.930 -31.515  1.00  0.00    -0.266 OA
HETATM    4  H   UNL     1      -2.208   3.232 -31.441  1.00  0.00     0.163 HD
ENDROOT
BRANCH   2   5
HETATM    5  C   UNL     1      -4.558   2.582 -31.564  1.00  0.00     0.146 A 
HETATM    6  N   UNL     1      -4.779   1.807 -30.484  1.00  0.00    -0.169 NA
HETATM    7  N   UNL     1      -5.113   0.612 -31.011  1.00  0.00    -0.277 N 
HETATM    8  H   UNL     1      -5.300  -0.154 -30.374  1.00  0.00     0.189 HD
HETATM    9  C   UNL     1      -5.111   0.571 -32.382  1.00  0.00     0.063 A 
HETATM   10  C   UNL     1      -4.770   1.854 -32.762  1.00  0.00     0.071 A 
BRANCH   9  11
HETATM   11  C   UNL     1      -5.368  -0.632 -33.175  1.00  0.00    -0.008 A 
HETATM   12  C   UNL     1      -6.660  -0.976 -33.594  1.00  0.00     0.014 A 
HETATM   13  C   UNL     1      -6.883  -2.138 -34.341  1.00  0.00     0.001 A 
HETATM   14  C   UNL     1      -5.817  -2.969 -34.678  1.00  0.00     0.000 A 
HETATM   15  C   UNL     1      -4.527  -2.639 -34.275  1.00  0.00     0.001 A 
HETATM   16  C   UNL     1      -4.305  -1.478 -33.530  1.00  0.00     0.014 A 
ENDBRANCH   9  11
ENDBRANCH   2   5
BRANCH   1  17
HETATM   17  C   UNL     1      -2.079   5.369 -31.644  1.00  0.00     0.114 C 
HETATM   18  C   UNL     1      -1.212   5.277 -32.906  1.00  0.00     0.037 C 
BRANCH  17  19
HETATM   19  C   UNL     1      -1.257   5.858 -30.466  1.00  0.00    -0.036 A 
HETATM   20  C   UNL     1      -1.673   6.923 -29.655  1.00  0.00     0.012 A 
HETATM   21  C   UNL     1      -0.940   7.291 -28.518  1.00  0.00     0.037 A 
HETATM   22  C   UNL     1       0.216   6.592 -28.172  1.00  0.00     0.068 A 
HETATM   23  C   UNL     1       0.657   5.555 -28.994  1.00  0.00     0.037 A 
HETATM   24  C   UNL     1      -0.071   5.188 -30.128  1.00  0.00     0.012 A 
BRANCH  22  25
HETATM   25  O   UNL     1       0.997   6.822 -27.074  1.00  0.00    -0.352 OA
BRANCH  25  26
HETATM   26  C   UNL     1       0.956   8.136 -26.520  1.00  0.00     0.171 C 
HETATM   27  C   UNL     1       2.224   8.341 -25.710  1.00  0.00     0.034 C 
ENDBRANCH  25  26
ENDBRANCH  22  25
ENDBRANCH  17  19
ENDBRANCH   1  17
TORSDOF 6
ENDMDL
MODEL 7
REMARK VINA RESULT:      -7.8      1.674      2.099
REMARK  6 active torsions:
REMARK  status: ('A' for Active; 'I' for Inactive)
REMARK    1  A    between atoms: C_2  and  O_3 
REMARK    2  A    between atoms: O_3  and  C_4 
REMARK    3  A    between atoms: C_7  and  C_8 
REMARK    4  A    between atoms: C_8  and  N_9 
REMARK       I    between atoms: N_9  and  C_10 
REMARK    5  A    between atoms: C_10  and  C_11 
REMARK    6  A    between atoms: C_15  and  C_16 
ROOT
HETATM    1  N   UNL     1      -4.135   3.646 -32.430  1.00  0.00    -0.347 N 
HETATM    2  C   UNL     1      -5.387   3.080 -32.558  1.00  0.00     0.272 C 
HETATM    3  O   UNL     1      -6.432   3.686 -32.336  1.00  0.00    -0.266 OA
HETATM    4  H   UNL     1      -3.367   3.061 -32.741  1.00  0.00     0.163 HD
ENDROOT
BRANCH   2   5
HETATM    5  C   UNL     1      -5.367   1.695 -33.051  1.00  0.00     0.146 A 
HETATM    6  N   UNL     1      -6.293   1.208 -33.900  1.00  0.00    -0.169 NA
HETATM    7  N   UNL     1      -5.953  -0.089 -34.034  1.00  0.00    -0.277 N 
HETATM    8  H   UNL     1      -6.538  -0.676 -34.617  1.00  0.00     0.189 HD
HETATM    9  C   UNL     1      -4.856  -0.471 -33.305  1.00  0.00     0.063 A 
HETATM   10  C   UNL     1      -4.447   0.685 -32.671  1.00  0.00     0.071 A 
BRANCH   9  11
HETATM   11  C   UNL     1      -4.345  -1.841 -33.234  1.00  0.00    -0.008 A 
HETATM   12  C   UNL     1      -4.655  -2.795 -34.214  1.00  0.00     0.014 A 
HETATM   13  C   UNL     1      -4.165  -4.102 -34.117  1.00  0.00     0.001 A 
HETATM   14  C   UNL     1      -3.360  -4.471 -33.042  1.00  0.00     0.000 A 
HETATM   15  C   UNL     1      -3.038  -3.534 -32.065  1.00  0.00     0.001 A 
HETATM   16  C   UNL     1      -3.527  -2.229 -32.162  1.00  0.00     0.014 A 
ENDBRANCH   9  11
ENDBRANCH   2   5
BRANCH   1  17
HETATM   17  C   UNL     1      -3.977   5.081 -32.327  1.00  0.00     0.114 C 
HETATM   18  C   UNL     1      -3.925   5.722 -33.718  1.00  0.00     0.037 C 
BRANCH  17  19
HETATM   19  C   UNL     1      -2.755   5.468 -31.514  1.00  0.00    -0.036 A 
HETATM   20  C   UNL     1      -1.493   4.901 -31.746  1.00  0.00     0.012 A 
HETATM   21  C   UNL     1      -0.364   5.346 -31.044  1.00  0.00     0.037 A 
HETATM   22  C   UNL     1      -0.481   6.371 -30.106  1.00  0.00     0.068 A 
HETATM   23  C   UNL     1      -1.738   6.913 -29.843  1.00  0.00     0.037 A 
HETATM   24  C   UNL     1      -2.864   6.471 -30.540  1.00  0.00     0.012 A 
BRANCH  22  25
HETATM   25  O   UNL     1       0.542   6.921 -29.385  1.00  0.00    -0.352 OA
BRANCH  25  26
HETATM   26  C   UNL     1       0.206   8.003 -28.516  1.00  0.00     0.171 C 
HETATM   27  C   UNL     1       1.486   8.490 -27.860  1.00  0.00     0.034 C 
ENDBRANCH  25  26
ENDBRANCH  22  25
ENDBRANCH  17  19
ENDBRANCH   1  17
TORSDOF 6
ENDMDL
MODEL 8
REMARK VINA RESULT:      -7.8      2.819      9.622
REMARK  6 active torsions:
REMARK  status: ('A' for Active; 'I' for Inactive)
REMARK    1  A    between atoms: C_2  and  O_3 
REMARK    2  A    between atoms: O_3  and  C_4 
REMARK    3  A    between atoms: C_7  and  C_8 
REMARK    4  A    between atoms: C_8  and  N_9 
REMARK       I    between atoms: N_9  and  C_10 
REMARK    5  A    between atoms: C_10  and  C_11 
REMARK    6  A    between atoms: C_15  and  C_16 
ROOT
HETATM    1  N   UNL     1      -5.598   2.973 -32.858  1.00  0.00    -0.347 N 
HETATM    2  C   UNL     1      -5.640   4.165 -33.551  1.00  0.00     0.272 C 
HETATM    3  O   UNL     1      -6.557   4.480 -34.305  1.00  0.00    -0.266 OA
HETATM    4  H   UNL     1      -4.833   2.888 -32.198  1.00  0.00     0.163 HD
ENDROOT
BRANCH   2   5
HETATM    5  C   UNL     1      -4.515   5.064 -33.258  1.00  0.00     0.146 A 
HETATM    6  N   UNL     1      -3.995   5.906 -34.173  1.00  0.00    -0.169 NA
HETATM    7  N   UNL     1      -2.958   6.478 -33.528  1.00  0.00    -0.277 N 
HETATM    8  H   UNL     1      -2.388   7.142 -34.040  1.00  0.00     0.189 HD
HETATM    9  C   UNL     1      -2.773   6.041 -32.242  1.00  0.00     0.063 A 
HETATM   10  C   UNL     1      -3.792   5.131 -32.041  1.00  0.00     0.071 A 
BRANCH   9  11
HETATM   11  C   UNL     1      -1.672   6.462 -31.374  1.00  0.00    -0.008 A 
HETATM   12  C   UNL     1      -1.867   7.372 -30.326  1.00  0.00     0.014 A 
HETATM   13  C   UNL     1      -0.796   7.770 -29.518  1.00  0.00     0.001 A 
HETATM   14  C   UNL     1       0.480   7.262 -29.747  1.00  0.00     0.000 A 
HETATM   15  C   UNL     1       0.689   6.353 -30.779  1.00  0.00     0.001 A 
HETATM   16  C   UNL     1      -0.381   5.956 -31.585  1.00  0.00     0.014 A 
ENDBRANCH   9  11
ENDBRANCH   2   5
BRANCH   1  17
HETATM   17  C   UNL     1      -6.780   2.148 -32.731  1.00  0.00     0.114 C 
HETATM   18  C   UNL     1      -7.212   2.042 -31.263  1.00  0.00     0.037 C 
BRANCH  17  19
HETATM   19  C   UNL     1      -6.585   0.767 -33.330  1.00  0.00    -0.036 A 
HETATM   20  C   UNL     1      -7.273   0.346 -34.478  1.00  0.00     0.012 A 
HETATM   21  C   UNL     1      -7.003  -0.899 -35.063  1.00  0.00     0.037 A 
HETATM   22  C   UNL     1      -6.033  -1.736 -34.513  1.00  0.00     0.068 A 
HETATM   23  C   UNL     1      -5.371  -1.341 -33.351  1.00  0.00     0.037 A 
HETATM   24  C   UNL     1      -5.640  -0.102 -32.765  1.00  0.00     0.012 A 
BRANCH  22  25
HETATM   25  O   UNL     1      -5.647  -2.951 -35.006  1.00  0.00    -0.352 OA
BRANCH  25  26
HETATM   26  C   UNL     1      -4.490  -3.546 -34.416  1.00  0.00     0.171 C 
HETATM   27  C   UNL     1      -4.755  -5.033 -34.267  1.00  0.00     0.034 C 
ENDBRANCH  25  26
ENDBRANCH  22  25
ENDBRANCH  17  19
ENDBRANCH   1  17
TORSDOF 6
ENDMDL
MODEL 9
REMARK VINA RESULT:      -7.4      3.069      9.728
REMARK  6 active torsions:
REMARK  status: ('A' for Active; 'I' for Inactive)
REMARK    1  A    between atoms: C_2  and  O_3 
REMARK    2  A    between atoms: O_3  and  C_4 
REMARK    3  A    between atoms: C_7  and  C_8 
REMARK    4  A    between atoms: C_8  and  N_9 
REMARK       I    between atoms: N_9  and  C_10 
REMARK    5  A    between atoms: C_10  and  C_11 
REMARK    6  A    between atoms: C_15  and  C_16 
ROOT
HETATM    1  N   UNL     1      -3.290   4.692 -32.316  1.00  0.00    -0.347 N 
HETATM    2  C   UNL     1      -2.123   5.393 -32.541  1.00  0.00     0.272 C 
HETATM    3  O   UNL     1      -1.858   5.947 -33.605  1.00  0.00    -0.266 OA
HETATM    4  H   UNL     1      -3.420   4.372 -31.362  1.00  0.00     0.163 HD
ENDROOT
BRANCH   2   5
HETATM    5  C   UNL     1      -1.243   5.478 -31.367  1.00  0.00     0.146 A 
HETATM    6  N   UNL     1      -0.670   4.396 -30.803  1.00  0.00    -0.169 NA
HETATM    7  N   UNL     1      -0.020   4.899 -29.735  1.00  0.00    -0.277 N 
HETATM    8  H   UNL     1       0.472   4.252 -29.129  1.00  0.00     0.189 HD
HETATM    9  C   UNL     1      -0.149   6.254 -29.572  1.00  0.00     0.063 A 
HETATM   10  C   UNL     1      -0.929   6.654 -30.639  1.00  0.00     0.071 A 
BRANCH   9  11
HETATM   11  C   UNL     1       0.404   7.010 -28.447  1.00  0.00    -0.008 A 
HETATM   12  C   UNL     1       1.168   8.169 -28.644  1.00  0.00     0.014 A 
HETATM   13  C   UNL     1       1.697   8.868 -27.553  1.00  0.00     0.001 A 
HETATM   14  C   UNL     1       1.469   8.418 -26.255  1.00  0.00     0.000 A 
HETATM   15  C   UNL     1       0.708   7.273 -26.043  1.00  0.00     0.001 A 
HETATM   16  C   UNL     1       0.179   6.576 -27.133  1.00  0.00     0.014 A 
ENDBRANCH   9  11
ENDBRANCH   2   5
BRANCH   1  17
HETATM   17  C   UNL     1      -4.418   4.823 -33.212  1.00  0.00     0.114 C 
HETATM   18  C   UNL     1      -5.248   6.063 -32.861  1.00  0.00     0.037 C 
BRANCH  17  19
HETATM   19  C   UNL     1      -5.291   3.582 -33.223  1.00  0.00    -0.036 A 
HETATM   20  C   UNL     1      -4.856   2.357 -32.696  1.00  0.00     0.012 A 
HETATM   21  C   UNL     1      -5.718   1.253 -32.635  1.00  0.00     0.037 A 
HETATM   22  C   UNL     1      -7.030   1.362 -33.090  1.00  0.00     0.068 A 
HETATM   23  C   UNL     1      -7.460   2.565 -33.650  1.00  0.00     0.037 A 
HETATM   24  C   UNL     1      -6.603   3.666 -33.714  1.00  0.00     0.012 A 
BRANCH  22  25
HETATM   25  O   UNL     1      -7.980   0.379 -33.051  1.00  0.00    -0.352 OA
BRANCH  25  26
HETATM   26  C   UNL     1      -9.138   0.636 -32.258  1.00  0.00     0.171 C 
HETATM   27  C   UNL     1     -10.290  -0.164 -32.840  1.00  0.00     0.034 C 
ENDBRANCH  25  26
ENDBRANCH  22  25
ENDBRANCH  17  19
ENDBRANCH   1  17
TORSDOF 6
ENDMDL
MODEL 10
REMARK VINA RESULT:      -7.4      5.116      8.524
REMARK  6 active torsions:
REMARK  status: ('A' for Active; 'I' for Inactive)
REMARK    1  A    between atoms: C_2  and  O_3 
REMARK    2  A    between atoms: O_3  and  C_4 
REMARK    3  A    between atoms: C_7  and  C_8 
REMARK    4  A    between atoms: C_8  and  N_9 
REMARK       I    between atoms: N_9  and  C_10 
REMARK    5  A    between atoms: C_10  and  C_11 
REMARK    6  A    between atoms: C_15  and  C_16 
ROOT
HETATM    1  N   UNL     1      -7.301   2.194 -32.369  1.00  0.00    -0.347 N 
HETATM    2  C   UNL     1      -5.939   2.345 -32.531  1.00  0.00     0.272 C 
HETATM    3  O   UNL     1      -5.363   3.427 -32.461  1.00  0.00    -0.266 OA
HETATM    4  H   UNL     1      -7.627   1.233 -32.354  1.00  0.00     0.163 HD
ENDROOT
BRANCH   2   5
HETATM    5  C   UNL     1      -5.219   1.078 -32.731  1.00  0.00     0.146 A 
HETATM    6  N   UNL     1      -3.877   0.982 -32.662  1.00  0.00    -0.169 NA
HETATM    7  N   UNL     1      -3.632  -0.306 -32.972  1.00  0.00    -0.277 N 
HETATM    8  H   UNL     1      -2.666  -0.611 -33.013  1.00  0.00     0.189 HD
HETATM    9  C   UNL     1      -4.750  -1.050 -33.249  1.00  0.00     0.063 A 
HETATM   10  C   UNL     1      -5.798  -0.168 -33.077  1.00  0.00     0.071 A 
BRANCH   9  11
HETATM   11  C   UNL     1      -4.729  -2.449 -33.681  1.00  0.00    -0.008 A 
HETATM   12  C   UNL     1      -3.736  -3.339 -33.247  1.00  0.00     0.014 A 
HETATM   13  C   UNL     1      -3.730  -4.668 -33.683  1.00  0.00     0.001 A 
HETATM   14  C   UNL     1      -4.714  -5.123 -34.557  1.00  0.00     0.000 A 
HETATM   15  C   UNL     1      -5.710  -4.255 -34.992  1.00  0.00     0.001 A 
HETATM   16  C   UNL     1      -5.716  -2.927 -34.555  1.00  0.00     0.014 A 
ENDBRANCH   9  11
ENDBRANCH   2   5
BRANCH   1  17
HETATM   17  C   UNL     1      -8.102   3.256 -31.799  1.00  0.00     0.114 C 
HETATM   18  C   UNL     1      -7.924   3.311 -30.278  1.00  0.00     0.037 C 
BRANCH  17  19
HETATM   19  C   UNL     1      -9.570   3.126 -32.161  1.00  0.00    -0.036 A 
HETATM   20  C   UNL     1     -10.508   4.121 -31.850  1.00  0.00     0.012 A 
HETATM   21  C   UNL     1     -11.838   4.016 -32.280  1.00  0.00     0.037 A 
HETATM   22  C   UNL     1     -12.247   2.918 -33.035  1.00  0.00     0.068 A 
HETATM   23  C   UNL     1     -11.329   1.906 -33.317  1.00  0.00     0.037 A 
HETATM   24  C   UNL     1     -10.004   2.007 -32.889  1.00  0.00     0.012 A 
BRANCH  22  25
HETATM   25  O   UNL     1     -13.497   2.714 -33.548  1.00  0.00    -0.352 OA
BRANCH  25  26
HETATM   26  C   UNL     1     -13.619   1.731 -34.575  1.00  0.00     0.171 C 
HETATM   27  C   UNL     1     -14.801   0.842 -34.233  1.00  0.00     0.034 C 
ENDBRANCH  25  26
ENDBRANCH  22  25
ENDBRANCH  17  19
ENDBRANCH   1  17
TORSDOF 6
ENDMDL
