MODEL 1
REMARK VINA RESULT:      -8.1      0.000      0.000
REMARK  1 active torsions:
REMARK  status: ('A' for Active; 'I' for Inactive)
REMARK    1  A    between atoms: C_6  and  N_7 
ROOT
HETATM    1  N   UNL     1      -5.681   0.615 -32.078  1.00  0.00    -0.320 N 
HETATM    2  C   UNL     1      -6.376   0.833 -30.856  1.00  0.00     0.141 C 
HETATM    3  N   UNL     1      -6.701  -0.145 -30.060  1.00  0.00    -0.380 N 
HETATM    4  H   UNL     1      -7.196   0.050 -29.202  1.00  0.00     0.158 HD
HETATM    5  H   UNL     1      -6.440  -1.089 -30.316  1.00  0.00     0.158 HD
HETATM    6  S   UNL     1      -6.755   2.478 -30.564  1.00  0.00    -0.086 SA
HETATM    7  C   UNL     1      -6.386   2.919 -32.318  1.00  0.00     0.093 C 
HETATM    8  C   UNL     1      -5.344   1.874 -32.788  1.00  0.00     0.121 C 
HETATM    9  C   UNL     1      -5.828   4.311 -32.521  1.00  0.00     0.158 C 
HETATM   10  S   UNL     1      -4.063   4.153 -32.436  1.00  0.00     0.147 S 
HETATM   11  O   UNL     1      -3.604   4.698 -31.178  1.00  0.00    -0.228 OA
HETATM   12  O   UNL     1      -3.514   4.568 -33.710  1.00  0.00    -0.228 OA
HETATM   13  C   UNL     1      -3.972   2.387 -32.351  1.00  0.00     0.167 C 
ENDROOT
BRANCH   1  14
HETATM   14  C   UNL     1      -5.743  -0.557 -32.863  1.00  0.00     0.048 A 
HETATM   15  C   UNL     1      -4.618  -1.412 -32.981  1.00  0.00    -0.034 A 
HETATM   16  C   UNL     1      -4.677  -2.539 -33.821  1.00  0.00     0.015 A 
HETATM   17  C   UNL     1      -3.321  -1.167 -32.254  1.00  0.00     0.050 C 
HETATM   18  C   UNL     1      -5.835  -2.853 -34.532  1.00  0.00    -0.061 A 
HETATM   19  C   UNL     1      -5.896  -4.080 -35.394  1.00  0.00     0.048 C 
HETATM   20  C   UNL     1      -6.953  -2.034 -34.385  1.00  0.00     0.015 A 
HETATM   21  C   UNL     1      -6.916  -0.878 -33.583  1.00  0.00    -0.034 A 
HETATM   22  C   UNL     1      -8.165  -0.041 -33.534  1.00  0.00     0.050 C 
ENDBRANCH   1  14
TORSDOF 1
ENDMDL
MODEL 2
REMARK VINA RESULT:      -8.1      0.110      1.953
REMARK  1 active torsions:
REMARK  status: ('A' for Active; 'I' for Inactive)
REMARK    1  A    between atoms: C_6  and  N_7 
ROOT
HETATM    1  N   UNL     1      -5.729   0.629 -32.171  1.00  0.00    -0.320 N 
HETATM    2  C   UNL     1      -6.426   0.815 -30.945  1.00  0.00     0.141 C 
HETATM    3  N   UNL     1      -6.754  -0.184 -30.176  1.00  0.00    -0.380 N 
HETATM    4  H   UNL     1      -7.251  -0.011 -29.315  1.00  0.00     0.158 HD
HETATM    5  H   UNL     1      -6.495  -1.120 -30.457  1.00  0.00     0.158 HD
HETATM    6  S   UNL     1      -6.803   2.453 -30.610  1.00  0.00    -0.086 SA
HETATM    7  C   UNL     1      -6.429   2.940 -32.350  1.00  0.00     0.093 C 
HETATM    8  C   UNL     1      -5.387   1.906 -32.845  1.00  0.00     0.121 C 
HETATM    9  C   UNL     1      -5.868   4.336 -32.514  1.00  0.00     0.158 C 
HETATM   10  S   UNL     1      -4.103   4.172 -32.429  1.00  0.00     0.147 S 
HETATM   11  O   UNL     1      -3.647   4.683 -31.155  1.00  0.00    -0.228 OA
HETATM   12  O   UNL     1      -3.551   4.621 -33.690  1.00  0.00    -0.228 OA
HETATM   13  C   UNL     1      -4.016   2.405 -32.392  1.00  0.00     0.167 C 
ENDROOT
BRANCH   1  14
HETATM   14  C   UNL     1      -5.790  -0.521 -32.987  1.00  0.00     0.048 A 
HETATM   15  C   UNL     1      -6.965  -0.830 -33.719  1.00  0.00    -0.034 A 
HETATM   16  C   UNL     1      -7.031  -2.016 -34.474  1.00  0.00     0.015 A 
HETATM   17  C   UNL     1      -8.186   0.052 -33.722  1.00  0.00     0.050 C 
HETATM   18  C   UNL     1      -5.951  -2.895 -34.539  1.00  0.00    -0.061 A 
HETATM   19  C   UNL     1      -6.022  -4.136 -35.379  1.00  0.00     0.048 C 
HETATM   20  C   UNL     1      -4.783  -2.572 -33.850  1.00  0.00     0.015 A 
HETATM   21  C   UNL     1      -4.695  -1.413 -33.056  1.00  0.00    -0.034 A 
HETATM   22  C   UNL     1      -3.404  -1.187 -32.317  1.00  0.00     0.050 C 
ENDBRANCH   1  14
TORSDOF 1
ENDMDL
MODEL 3
REMARK VINA RESULT:      -7.7      1.995      2.287
REMARK  1 active torsions:
REMARK  status: ('A' for Active; 'I' for Inactive)
REMARK    1  A    between atoms: C_6  and  N_7 
ROOT
HETATM    1  N   UNL     1      -7.351   1.462 -32.546  1.00  0.00    -0.320 N 
HETATM    2  C   UNL     1      -8.659   1.497 -31.989  1.00  0.00     0.141 C 
HETATM    3  N   UNL     1      -9.162   0.488 -31.337  1.00  0.00    -0.380 N 
HETATM    4  H   UNL     1     -10.095   0.550 -30.957  1.00  0.00     0.158 HD
HETATM    5  H   UNL     1      -8.598  -0.343 -31.216  1.00  0.00     0.158 HD
HETATM    6  S   UNL     1      -9.494   2.965 -32.283  1.00  0.00    -0.086 SA
HETATM    7  C   UNL     1      -8.272   3.449 -33.579  1.00  0.00     0.093 C 
HETATM    8  C   UNL     1      -6.953   2.746 -33.176  1.00  0.00     0.121 C 
HETATM    9  C   UNL     1      -8.030   4.938 -33.703  1.00  0.00     0.158 C 
HETATM   10  S   UNL     1      -6.674   5.309 -32.620  1.00  0.00     0.147 S 
HETATM   11  O   UNL     1      -7.181   5.998 -31.454  1.00  0.00    -0.228 OA
HETATM   12  O   UNL     1      -5.591   5.834 -33.424  1.00  0.00    -0.228 OA
HETATM   13  C   UNL     1      -6.259   3.651 -32.159  1.00  0.00     0.167 C 
ENDROOT
BRANCH   1  14
HETATM   14  C   UNL     1      -6.675   0.303 -32.987  1.00  0.00     0.048 A 
HETATM   15  C   UNL     1      -5.616  -0.254 -32.226  1.00  0.00    -0.034 A 
HETATM   16  C   UNL     1      -4.910  -1.368 -32.714  1.00  0.00     0.015 A 
HETATM   17  C   UNL     1      -5.179   0.304 -30.896  1.00  0.00     0.050 C 
HETATM   18  C   UNL     1      -5.243  -1.959 -33.932  1.00  0.00    -0.061 A 
HETATM   19  C   UNL     1      -4.506  -3.172 -34.423  1.00  0.00     0.048 C 
HETATM   20  C   UNL     1      -6.308  -1.435 -34.662  1.00  0.00     0.015 A 
HETATM   21  C   UNL     1      -7.011  -0.299 -34.221  1.00  0.00    -0.034 A 
HETATM   22  C   UNL     1      -8.113   0.211 -35.111  1.00  0.00     0.050 C 
ENDBRANCH   1  14
TORSDOF 1
ENDMDL
MODEL 4
REMARK VINA RESULT:      -7.4      2.337      3.125
REMARK  1 active torsions:
REMARK  status: ('A' for Active; 'I' for Inactive)
REMARK    1  A    between atoms: C_6  and  N_7 
ROOT
HETATM    1  N   UNL     1      -7.627   1.455 -32.667  1.00  0.00    -0.320 N 
HETATM    2  C   UNL     1      -9.022   1.353 -32.409  1.00  0.00     0.141 C 
HETATM    3  N   UNL     1      -9.555   0.282 -31.894  1.00  0.00    -0.380 N 
HETATM    4  H   UNL     1     -10.550   0.246 -31.728  1.00  0.00     0.158 HD
HETATM    5  H   UNL     1      -8.954  -0.498 -31.661  1.00  0.00     0.158 HD
HETATM    6  S   UNL     1      -9.910   2.746 -32.864  1.00  0.00    -0.086 SA
HETATM    7  C   UNL     1      -8.489   3.380 -33.856  1.00  0.00     0.093 C 
HETATM    8  C   UNL     1      -7.227   2.789 -33.180  1.00  0.00     0.121 C 
HETATM    9  C   UNL     1      -8.370   4.889 -33.907  1.00  0.00     0.158 C 
HETATM   10  S   UNL     1      -7.324   5.348 -32.550  1.00  0.00     0.147 S 
HETATM   11  O   UNL     1      -8.136   5.951 -31.516  1.00  0.00    -0.228 OA
HETATM   12  O   UNL     1      -6.147   5.995 -33.091  1.00  0.00    -0.228 OA
HETATM   13  C   UNL     1      -6.861   3.721 -32.026  1.00  0.00     0.167 C 
ENDROOT
BRANCH   1  14
HETATM   14  C   UNL     1      -6.763   0.378 -32.961  1.00  0.00     0.048 A 
HETATM   15  C   UNL     1      -6.762  -0.222 -34.247  1.00  0.00    -0.034 A 
HETATM   16  C   UNL     1      -5.942  -1.337 -34.501  1.00  0.00     0.015 A 
HETATM   17  C   UNL     1      -7.623   0.267 -35.381  1.00  0.00     0.050 C 
HETATM   18  C   UNL     1      -5.105  -1.861 -33.516  1.00  0.00    -0.061 A 
HETATM   19  C   UNL     1      -4.208  -3.026 -33.813  1.00  0.00     0.048 C 
HETATM   20  C   UNL     1      -5.078  -1.247 -32.264  1.00  0.00     0.015 A 
HETATM   21  C   UNL     1      -5.912  -0.154 -31.965  1.00  0.00    -0.034 A 
HETATM   22  C   UNL     1      -5.836   0.401 -30.568  1.00  0.00     0.050 C 
ENDBRANCH   1  14
TORSDOF 1
ENDMDL
MODEL 5
REMARK VINA RESULT:      -7.1      3.250      3.818
REMARK  1 active torsions:
REMARK  status: ('A' for Active; 'I' for Inactive)
REMARK    1  A    between atoms: C_6  and  N_7 
ROOT
HETATM    1  N   UNL     1      -8.125   2.423 -32.489  1.00  0.00    -0.320 N 
HETATM    2  C   UNL     1      -8.502   2.686 -31.142  1.00  0.00     0.141 C 
HETATM    3  N   UNL     1      -7.884   2.143 -30.132  1.00  0.00    -0.380 N 
HETATM    4  H   UNL     1      -8.183   2.352 -29.190  1.00  0.00     0.158 HD
HETATM    5  H   UNL     1      -7.105   1.523 -30.313  1.00  0.00     0.158 HD
HETATM    6  S   UNL     1      -9.840   3.745 -30.997  1.00  0.00    -0.086 SA
HETATM    7  C   UNL     1     -10.254   3.537 -32.782  1.00  0.00     0.093 C 
HETATM    8  C   UNL     1      -8.909   3.207 -33.475  1.00  0.00     0.121 C 
HETATM    9  C   UNL     1     -10.872   4.752 -33.440  1.00  0.00     0.158 C 
HETATM   10  S   UNL     1      -9.524   5.693 -34.105  1.00  0.00     0.147 S 
HETATM   11  O   UNL     1      -9.320   6.866 -33.283  1.00  0.00    -0.228 OA
HETATM   12  O   UNL     1      -9.696   5.770 -35.540  1.00  0.00    -0.228 OA
HETATM   13  C   UNL     1      -8.223   4.539 -33.772  1.00  0.00     0.167 C 
ENDROOT
BRANCH   1  14
HETATM   14  C   UNL     1      -7.521   1.236 -32.959  1.00  0.00     0.048 A 
HETATM   15  C   UNL     1      -6.134   1.193 -33.252  1.00  0.00    -0.034 A 
HETATM   16  C   UNL     1      -5.564   0.022 -33.783  1.00  0.00     0.015 A 
HETATM   17  C   UNL     1      -5.214   2.367 -33.039  1.00  0.00     0.050 C 
HETATM   18  C   UNL     1      -6.333  -1.119 -34.010  1.00  0.00    -0.061 A 
HETATM   19  C   UNL     1      -5.703  -2.374 -34.541  1.00  0.00     0.048 C 
HETATM   20  C   UNL     1      -7.688  -1.089 -33.686  1.00  0.00     0.015 A 
HETATM   21  C   UNL     1      -8.298   0.078 -33.189  1.00  0.00    -0.034 A 
HETATM   22  C   UNL     1      -9.777   0.013 -32.918  1.00  0.00     0.050 C 
ENDBRANCH   1  14
TORSDOF 1
ENDMDL
MODEL 6
REMARK VINA RESULT:      -6.8      3.740      4.863
REMARK  1 active torsions:
REMARK  status: ('A' for Active; 'I' for Inactive)
REMARK    1  A    between atoms: C_6  and  N_7 
ROOT
HETATM    1  N   UNL     1      -7.458   1.810 -33.468  1.00  0.00    -0.320 N 
HETATM    2  C   UNL     1      -7.182   3.179 -33.740  1.00  0.00     0.141 C 
HETATM    3  N   UNL     1      -6.020   3.578 -34.173  1.00  0.00    -0.380 N 
HETATM    4  H   UNL     1      -5.862   4.559 -34.353  1.00  0.00     0.158 HD
HETATM    5  H   UNL     1      -5.296   2.890 -34.331  1.00  0.00     0.158 HD
HETATM    6  S   UNL     1      -8.501   4.223 -33.417  1.00  0.00    -0.086 SA
HETATM    7  C   UNL     1      -9.366   2.906 -32.458  1.00  0.00     0.093 C 
HETATM    8  C   UNL     1      -8.865   1.570 -33.061  1.00  0.00     0.121 C 
HETATM    9  C   UNL     1     -10.877   2.952 -32.530  1.00  0.00     0.158 C 
HETATM   10  S   UNL     1     -11.338   1.928 -33.903  1.00  0.00     0.147 S 
HETATM   11  O   UNL     1     -11.763   2.774 -34.997  1.00  0.00    -0.228 OA
HETATM   12  O   UNL     1     -12.153   0.843 -33.398  1.00  0.00    -0.228 OA
HETATM   13  C   UNL     1      -9.736   1.278 -34.282  1.00  0.00     0.167 C 
ENDROOT
BRANCH   1  14
HETATM   14  C   UNL     1      -6.510   0.841 -33.071  1.00  0.00     0.048 A 
HETATM   15  C   UNL     1      -5.858   0.935 -31.815  1.00  0.00    -0.034 A 
HETATM   16  C   UNL     1      -4.868  -0.001 -31.465  1.00  0.00     0.015 A 
HETATM   17  C   UNL     1      -6.160   2.019 -30.813  1.00  0.00     0.050 C 
HETATM   18  C   UNL     1      -4.522  -1.044 -32.324  1.00  0.00    -0.061 A 
HETATM   19  C   UNL     1      -3.491  -2.058 -31.921  1.00  0.00     0.048 C 
HETATM   20  C   UNL     1      -5.190  -1.158 -33.542  1.00  0.00     0.015 A 
HETATM   21  C   UNL     1      -6.158  -0.218 -33.939  1.00  0.00    -0.034 A 
HETATM   22  C   UNL     1      -6.781  -0.410 -35.295  1.00  0.00     0.050 C 
ENDBRANCH   1  14
TORSDOF 1
ENDMDL
MODEL 7
REMARK VINA RESULT:      -6.8      5.917      9.090
REMARK  1 active torsions:
REMARK  status: ('A' for Active; 'I' for Inactive)
REMARK    1  A    between atoms: C_6  and  N_7 
ROOT
HETATM    1  N   UNL     1      -2.133   6.569 -30.595  1.00  0.00    -0.320 N 
HETATM    2  C   UNL     1      -3.357   5.954 -30.211  1.00  0.00     0.141 C 
HETATM    3  N   UNL     1      -4.007   6.314 -29.141  1.00  0.00    -0.380 N 
HETATM    4  H   UNL     1      -4.872   5.851 -28.900  1.00  0.00     0.158 HD
HETATM    5  H   UNL     1      -3.633   7.062 -28.572  1.00  0.00     0.158 HD
HETATM    6  S   UNL     1      -3.857   4.700 -31.266  1.00  0.00    -0.086 SA
HETATM    7  C   UNL     1      -2.188   4.634 -32.049  1.00  0.00     0.093 C 
HETATM    8  C   UNL     1      -1.606   6.060 -31.885  1.00  0.00     0.121 C 
HETATM    9  C   UNL     1      -2.185   4.256 -33.515  1.00  0.00     0.158 C 
HETATM   10  S   UNL     1      -2.289   5.779 -34.417  1.00  0.00     0.147 S 
HETATM   11  O   UNL     1      -3.620   5.906 -34.970  1.00  0.00    -0.228 OA
HETATM   12  O   UNL     1      -1.096   5.901 -35.227  1.00  0.00    -0.228 OA
HETATM   13  C   UNL     1      -2.139   6.894 -33.050  1.00  0.00     0.167 C 
ENDROOT
BRANCH   1  14
HETATM   14  C   UNL     1      -1.197   7.159 -29.717  1.00  0.00     0.048 A 
HETATM   15  C   UNL     1      -0.078   6.425 -29.249  1.00  0.00    -0.034 A 
HETATM   16  C   UNL     1       0.807   7.007 -28.322  1.00  0.00     0.015 A 
HETATM   17  C   UNL     1       0.218   5.013 -29.682  1.00  0.00     0.050 C 
HETATM   18  C   UNL     1       0.621   8.311 -27.865  1.00  0.00    -0.061 A 
HETATM   19  C   UNL     1       1.595   8.933 -26.907  1.00  0.00     0.048 C 
HETATM   20  C   UNL     1      -0.457   9.046 -28.355  1.00  0.00     0.015 A 
HETATM   21  C   UNL     1      -1.382   8.482 -29.253  1.00  0.00    -0.034 A 
HETATM   22  C   UNL     1      -2.535   9.348 -29.680  1.00  0.00     0.050 C 
ENDBRANCH   1  14
TORSDOF 1
ENDMDL
MODEL 8
REMARK VINA RESULT:      -6.7      3.479      4.470
REMARK  1 active torsions:
REMARK  status: ('A' for Active; 'I' for Inactive)
REMARK    1  A    between atoms: C_6  and  N_7 
ROOT
HETATM    1  N   UNL     1      -8.371   1.917 -32.810  1.00  0.00    -0.320 N 
HETATM    2  C   UNL     1      -9.546   1.328 -32.264  1.00  0.00     0.141 C 
HETATM    3  N   UNL     1      -9.501   0.487 -31.270  1.00  0.00    -0.380 N 
HETATM    4  H   UNL     1     -10.357   0.089 -30.911  1.00  0.00     0.158 HD
HETATM    5  H   UNL     1      -8.602   0.254 -30.869  1.00  0.00     0.158 HD
HETATM    6  S   UNL     1     -10.988   1.812 -33.052  1.00  0.00    -0.086 SA
HETATM    7  C   UNL     1     -10.032   2.500 -34.473  1.00  0.00     0.093 C 
HETATM    8  C   UNL     1      -8.659   2.904 -33.880  1.00  0.00     0.121 C 
HETATM    9  C   UNL     1     -10.662   3.702 -35.144  1.00  0.00     0.158 C 
HETATM   10  S   UNL     1     -10.007   5.128 -34.317  1.00  0.00     0.147 S 
HETATM   11  O   UNL     1     -11.036   5.693 -33.472  1.00  0.00    -0.228 OA
HETATM   12  O   UNL     1      -9.282   5.916 -35.292  1.00  0.00    -0.228 OA
HETATM   13  C   UNL     1      -8.824   4.304 -33.291  1.00  0.00     0.167 C 
ENDROOT
BRANCH   1  14
HETATM   14  C   UNL     1      -7.084   1.335 -32.814  1.00  0.00     0.048 A 
HETATM   15  C   UNL     1      -6.086   1.775 -31.909  1.00  0.00    -0.034 A 
HETATM   16  C   UNL     1      -4.789   1.231 -31.973  1.00  0.00     0.015 A 
HETATM   17  C   UNL     1      -6.332   2.834 -30.865  1.00  0.00     0.050 C 
HETATM   18  C   UNL     1      -4.464   0.243 -32.901  1.00  0.00    -0.061 A 
HETATM   19  C   UNL     1      -3.088  -0.356 -32.932  1.00  0.00     0.048 C 
HETATM   20  C   UNL     1      -5.457  -0.217 -33.765  1.00  0.00     0.015 A 
HETATM   21  C   UNL     1      -6.752   0.332 -33.753  1.00  0.00    -0.034 A 
HETATM   22  C   UNL     1      -7.731  -0.206 -34.762  1.00  0.00     0.050 C 
ENDBRANCH   1  14
TORSDOF 1
ENDMDL
MODEL 9
REMARK VINA RESULT:      -6.5     15.398     16.735
REMARK  1 active torsions:
REMARK  status: ('A' for Active; 'I' for Inactive)
REMARK    1  A    between atoms: C_6  and  N_7 
ROOT
HETATM    1  N   UNL     1      -4.936 -13.934 -38.275  1.00  0.00    -0.320 N 
HETATM    2  C   UNL     1      -4.109 -13.173 -37.403  1.00  0.00     0.141 C 
HETATM    3  N   UNL     1      -4.594 -12.509 -36.393  1.00  0.00    -0.380 N 
HETATM    4  H   UNL     1      -3.974 -11.979 -35.797  1.00  0.00     0.158 HD
HETATM    5  H   UNL     1      -5.590 -12.544 -36.219  1.00  0.00     0.158 HD
HETATM    6  S   UNL     1      -2.449 -13.202 -37.829  1.00  0.00    -0.086 SA
HETATM    7  C   UNL     1      -2.845 -13.888 -39.496  1.00  0.00     0.093 C 
HETATM    8  C   UNL     1      -4.168 -14.673 -39.308  1.00  0.00     0.121 C 
HETATM    9  C   UNL     1      -1.792 -14.811 -40.072  1.00  0.00     0.158 C 
HETATM   10  S   UNL     1      -2.233 -16.449 -39.552  1.00  0.00     0.147 S 
HETATM   11  O   UNL     1      -1.317 -16.874 -38.517  1.00  0.00    -0.228 OA
HETATM   12  O   UNL     1      -2.489 -17.240 -40.737  1.00  0.00    -0.228 OA
HETATM   13  C   UNL     1      -3.791 -16.065 -38.804  1.00  0.00     0.167 C 
ENDROOT
BRANCH   1  14
HETATM   14  C   UNL     1      -6.292 -13.667 -38.565  1.00  0.00     0.048 A 
HETATM   15  C   UNL     1      -7.328 -14.395 -37.927  1.00  0.00    -0.034 A 
HETATM   16  C   UNL     1      -8.670 -14.162 -38.278  1.00  0.00     0.015 A 
HETATM   17  C   UNL     1      -7.067 -15.446 -36.879  1.00  0.00     0.050 C 
HETATM   18  C   UNL     1      -9.013 -13.206 -39.234  1.00  0.00    -0.061 A 
HETATM   19  C   UNL     1     -10.452 -12.940 -39.570  1.00  0.00     0.048 C 
HETATM   20  C   UNL     1      -7.997 -12.463 -39.833  1.00  0.00     0.015 A 
HETATM   21  C   UNL     1      -6.642 -12.697 -39.532  1.00  0.00    -0.034 A 
HETATM   22  C   UNL     1      -5.626 -11.871 -40.273  1.00  0.00     0.050 C 
ENDBRANCH   1  14
TORSDOF 1
ENDMDL
MODEL 10
REMARK VINA RESULT:      -6.5     15.516     16.860
REMARK  1 active torsions:
REMARK  status: ('A' for Active; 'I' for Inactive)
REMARK    1  A    between atoms: C_6  and  N_7 
ROOT
HETATM    1  N   UNL     1      -5.362 -14.001 -38.618  1.00  0.00    -0.320 N 
HETATM    2  C   UNL     1      -4.601 -13.338 -37.616  1.00  0.00     0.141 C 
HETATM    3  N   UNL     1      -5.161 -12.740 -36.603  1.00  0.00    -0.380 N 
HETATM    4  H   UNL     1      -4.587 -12.279 -35.913  1.00  0.00     0.158 HD
HETATM    5  H   UNL     1      -6.169 -12.757 -36.524  1.00  0.00     0.158 HD
HETATM    6  S   UNL     1      -2.910 -13.387 -37.891  1.00  0.00    -0.086 SA
HETATM    7  C   UNL     1      -3.166 -13.927 -39.636  1.00  0.00     0.093 C 
HETATM    8  C   UNL     1      -4.519 -14.680 -39.634  1.00  0.00     0.121 C 
HETATM    9  C   UNL     1      -2.088 -14.834 -40.188  1.00  0.00     0.158 C 
HETATM   10  S   UNL     1      -2.615 -16.493 -39.846  1.00  0.00     0.147 S 
HETATM   11  O   UNL     1      -1.811 -17.028 -38.769  1.00  0.00    -0.228 OA
HETATM   12  O   UNL     1      -2.779 -17.180 -41.109  1.00  0.00    -0.228 OA
HETATM   13  C   UNL     1      -4.226 -16.120 -39.213  1.00  0.00     0.167 C 
ENDROOT
BRANCH   1  14
HETATM   14  C   UNL     1      -6.678 -13.668 -39.008  1.00  0.00     0.048 A 
HETATM   15  C   UNL     1      -6.922 -12.591 -39.897  1.00  0.00    -0.034 A 
HETATM   16  C   UNL     1      -8.244 -12.232 -40.221  1.00  0.00     0.015 A 
HETATM   17  C   UNL     1      -5.820 -11.774 -40.520  1.00  0.00     0.050 C 
HETATM   18  C   UNL     1      -9.332 -12.931 -39.699  1.00  0.00    -0.061 A 
HETATM   19  C   UNL     1     -10.735 -12.562 -40.083  1.00  0.00     0.048 C 
HETATM   20  C   UNL     1      -9.090 -14.014 -38.855  1.00  0.00     0.015 A 
HETATM   21  C   UNL     1      -7.783 -14.376 -38.482  1.00  0.00    -0.034 A 
HETATM   22  C   UNL     1      -7.640 -15.531 -37.528  1.00  0.00     0.050 C 
ENDBRANCH   1  14
TORSDOF 1
ENDMDL
