MODEL 1
REMARK VINA RESULT:      -8.2      0.000      0.000
REMARK  6 active torsions:
REMARK  status: ('A' for Active; 'I' for Inactive)
REMARK    1  A    between atoms: C_6  and  C_7 
REMARK       I    between atoms: C_7  and  N_8 
REMARK    2  A    between atoms: N_8  and  C_9 
REMARK    3  A    between atoms: C_9  and  C_10 
REMARK    4  A    between atoms: C_10  and  O_11 
REMARK    5  A    between atoms: C_10  and  C_12 
REMARK    6  A    between atoms: C_15  and  O_16 
ROOT
HETATM    1  C   UNL     1      -3.520   2.876 -32.256  1.00  0.00     0.258 C 
HETATM    2  N   UNL     1      -4.791   2.879 -31.728  1.00  0.00    -0.350 N 
HETATM    3  O   UNL     1      -2.859   1.855 -32.407  1.00  0.00    -0.267 OA
HETATM    4  H   UNL     1      -5.277   3.775 -31.748  1.00  0.00     0.163 HD
ENDROOT
BRANCH   2   5
HETATM    5  C   UNL     1      -5.532   1.653 -31.420  1.00  0.00     0.114 C 
HETATM    6  C   UNL     1      -6.299   1.816 -30.102  1.00  0.00     0.035 C 
BRANCH   5   7
HETATM    7  C   UNL     1      -6.468   1.290 -32.611  1.00  0.00     0.173 C 
BRANCH   7   8
HETATM    8  O   UNL     1      -7.846   1.347 -32.221  1.00  0.00    -0.389 OA
HETATM    9  H   UNL     1      -8.061   0.486 -31.821  1.00  0.00     0.210 HD
ENDBRANCH   7   8
BRANCH   7  10
HETATM   10  C   UNL     1      -6.143  -0.053 -33.231  1.00  0.00    -0.028 A 
HETATM   11  C   UNL     1      -7.099  -0.694 -34.032  1.00  0.00     0.012 A 
HETATM   12  C   UNL     1      -6.813  -1.920 -34.638  1.00  0.00     0.037 A 
HETATM   13  C   UNL     1      -5.568  -2.526 -34.466  1.00  0.00     0.068 A 
HETATM   14  C   UNL     1      -4.614  -1.902 -33.665  1.00  0.00     0.037 A 
HETATM   15  C   UNL     1      -4.900  -0.676 -33.052  1.00  0.00     0.012 A 
BRANCH  13  16
HETATM   16  O   UNL     1      -5.416  -3.716 -35.123  1.00  0.00    -0.356 OA
HETATM   17  C   UNL     1      -6.587  -4.501 -35.304  1.00  0.00     0.210 C 
ENDBRANCH  13  16
ENDBRANCH   7  10
ENDBRANCH   5   7
ENDBRANCH   2   5
BRANCH   1  18
HETATM   18  C   UNL     1      -3.024   4.186 -32.646  1.00  0.00     0.105 A 
HETATM   19  C   UNL     1      -3.561   5.070 -33.620  1.00  0.00     0.071 A 
HETATM   20  C   UNL     1      -4.750   4.854 -34.486  1.00  0.00     0.073 C 
HETATM   21  N   UNL     1      -2.865   6.209 -33.715  1.00  0.00    -0.170 NA
HETATM   22  N   UNL     1      -1.877   6.088 -32.802  1.00  0.00    -0.225 N 
HETATM   23  C   UNL     1      -1.928   4.861 -32.134  1.00  0.00     0.168 A 
HETATM   24  C   UNL     1      -0.892   7.018 -32.493  1.00  0.00     0.122 A 
HETATM   25  N   UNL     1      -1.014   4.520 -31.163  1.00  0.00    -0.240 NA
HETATM   26  C   UNL     1      -0.110   5.419 -30.902  1.00  0.00     0.120 A 
HETATM   27  C   UNL     1       0.024   6.751 -31.552  1.00  0.00     0.038 A 
ENDBRANCH   1  18
TORSDOF 6
ENDMDL
MODEL 2
REMARK VINA RESULT:      -8.0      3.553      7.451
REMARK  6 active torsions:
REMARK  status: ('A' for Active; 'I' for Inactive)
REMARK    1  A    between atoms: C_6  and  C_7 
REMARK       I    between atoms: C_7  and  N_8 
REMARK    2  A    between atoms: N_8  and  C_9 
REMARK    3  A    between atoms: C_9  and  C_10 
REMARK    4  A    between atoms: C_10  and  O_11 
REMARK    5  A    between atoms: C_10  and  C_12 
REMARK    6  A    between atoms: C_15  and  O_16 
ROOT
HETATM    1  C   UNL     1      -7.062  -0.147 -34.044  1.00  0.00     0.258 C 
HETATM    2  N   UNL     1      -7.907  -0.103 -32.957  1.00  0.00    -0.350 N 
HETATM    3  O   UNL     1      -7.226   0.535 -35.048  1.00  0.00    -0.267 OA
HETATM    4  H   UNL     1      -7.610  -0.639 -32.142  1.00  0.00     0.163 HD
ENDROOT
BRANCH   2   5
HETATM    5  C   UNL     1      -9.006   0.859 -32.838  1.00  0.00     0.114 C 
HETATM    6  C   UNL     1     -10.354   0.141 -32.979  1.00  0.00     0.035 C 
BRANCH   5   7
HETATM    7  C   UNL     1      -8.883   1.634 -31.492  1.00  0.00     0.173 C 
BRANCH   7   8
HETATM    8  O   UNL     1      -9.968   2.555 -31.326  1.00  0.00    -0.389 OA
HETATM    9  H   UNL     1      -9.924   3.180 -32.071  1.00  0.00     0.210 HD
ENDBRANCH   7   8
BRANCH   7  10
HETATM   10  C   UNL     1      -7.553   2.342 -31.337  1.00  0.00    -0.028 A 
HETATM   11  C   UNL     1      -7.149   3.274 -32.304  1.00  0.00     0.012 A 
HETATM   12  C   UNL     1      -5.940   3.960 -32.169  1.00  0.00     0.037 A 
HETATM   13  C   UNL     1      -5.115   3.739 -31.066  1.00  0.00     0.068 A 
HETATM   14  C   UNL     1      -5.502   2.809 -30.103  1.00  0.00     0.037 A 
HETATM   15  C   UNL     1      -6.711   2.115 -30.239  1.00  0.00     0.012 A 
BRANCH  13  16
HETATM   16  O   UNL     1      -3.968   4.485 -31.051  1.00  0.00    -0.356 OA
HETATM   17  C   UNL     1      -2.826   3.913 -31.673  1.00  0.00     0.210 C 
ENDBRANCH  13  16
ENDBRANCH   7  10
ENDBRANCH   5   7
ENDBRANCH   2   5
BRANCH   1  18
HETATM   18  C   UNL     1      -5.937  -1.057 -33.897  1.00  0.00     0.105 A 
HETATM   19  C   UNL     1      -4.663  -0.789 -33.329  1.00  0.00     0.071 A 
HETATM   20  C   UNL     1      -4.172   0.496 -32.765  1.00  0.00     0.073 C 
HETATM   21  N   UNL     1      -3.865  -1.862 -33.337  1.00  0.00    -0.170 NA
HETATM   22  N   UNL     1      -4.607  -2.842 -33.897  1.00  0.00    -0.225 N 
HETATM   23  C   UNL     1      -5.877  -2.391 -34.267  1.00  0.00     0.168 A 
HETATM   24  C   UNL     1      -4.238  -4.165 -34.113  1.00  0.00     0.122 A 
HETATM   25  N   UNL     1      -6.801  -3.220 -34.861  1.00  0.00    -0.240 NA
HETATM   26  C   UNL     1      -6.418  -4.450 -35.043  1.00  0.00     0.120 A 
HETATM   27  C   UNL     1      -5.094  -5.025 -34.679  1.00  0.00     0.038 A 
ENDBRANCH   1  18
TORSDOF 6
ENDMDL
MODEL 3
REMARK VINA RESULT:      -7.7      2.041      3.127
REMARK  6 active torsions:
REMARK  status: ('A' for Active; 'I' for Inactive)
REMARK    1  A    between atoms: C_6  and  C_7 
REMARK       I    between atoms: C_7  and  N_8 
REMARK    2  A    between atoms: N_8  and  C_9 
REMARK    3  A    between atoms: C_9  and  C_10 
REMARK    4  A    between atoms: C_10  and  O_11 
REMARK    5  A    between atoms: C_10  and  C_12 
REMARK    6  A    between atoms: C_15  and  O_16 
ROOT
HETATM    1  C   UNL     1      -6.563   2.239 -31.202  1.00  0.00     0.258 C 
HETATM    2  N   UNL     1      -7.131   2.200 -32.456  1.00  0.00    -0.350 N 
HETATM    3  O   UNL     1      -6.721   1.356 -30.368  1.00  0.00    -0.267 OA
HETATM    4  H   UNL     1      -6.844   2.940 -33.096  1.00  0.00     0.163 HD
ENDROOT
BRANCH   2   5
HETATM    5  C   UNL     1      -7.868   1.039 -32.965  1.00  0.00     0.114 C 
HETATM    6  C   UNL     1      -9.369   1.348 -33.016  1.00  0.00     0.035 C 
BRANCH   5   7
HETATM    7  C   UNL     1      -7.298   0.622 -34.353  1.00  0.00     0.173 C 
BRANCH   7   8
HETATM    8  O   UNL     1      -8.351   0.432 -35.307  1.00  0.00    -0.389 OA
HETATM    9  H   UNL     1      -7.996   0.695 -36.174  1.00  0.00     0.210 HD
ENDBRANCH   7   8
BRANCH   7  10
HETATM   10  C   UNL     1      -6.412  -0.605 -34.284  1.00  0.00    -0.028 A 
HETATM   11  C   UNL     1      -6.845  -1.803 -34.871  1.00  0.00     0.012 A 
HETATM   12  C   UNL     1      -6.034  -2.941 -34.845  1.00  0.00     0.037 A 
HETATM   13  C   UNL     1      -4.775  -2.905 -34.244  1.00  0.00     0.068 A 
HETATM   14  C   UNL     1      -4.339  -1.722 -33.651  1.00  0.00     0.037 A 
HETATM   15  C   UNL     1      -5.152  -0.582 -33.670  1.00  0.00     0.012 A 
BRANCH  13  16
HETATM   16  O   UNL     1      -4.081  -4.082 -34.300  1.00  0.00    -0.356 OA
HETATM   17  C   UNL     1      -3.380  -4.467 -33.125  1.00  0.00     0.210 C 
ENDBRANCH  13  16
ENDBRANCH   7  10
ENDBRANCH   5   7
ENDBRANCH   2   5
BRANCH   1  18
HETATM   18  C   UNL     1      -5.736   3.407 -30.951  1.00  0.00     0.105 A 
HETATM   19  C   UNL     1      -5.965   4.459 -30.023  1.00  0.00     0.071 A 
HETATM   20  C   UNL     1      -7.120   4.620 -29.100  1.00  0.00     0.073 C 
HETATM   21  N   UNL     1      -4.989   5.374 -30.036  1.00  0.00    -0.170 NA
HETATM   22  N   UNL     1      -4.110   4.929 -30.959  1.00  0.00    -0.225 N 
HETATM   23  C   UNL     1      -4.533   3.736 -31.554  1.00  0.00     0.168 A 
HETATM   24  C   UNL     1      -2.906   5.515 -31.333  1.00  0.00     0.122 A 
HETATM   25  N   UNL     1      -3.793   3.104 -32.527  1.00  0.00    -0.240 NA
HETATM   26  C   UNL     1      -2.673   3.684 -32.847  1.00  0.00     0.120 A 
HETATM   27  C   UNL     1      -2.135   4.946 -32.269  1.00  0.00     0.038 A 
ENDBRANCH   1  18
TORSDOF 6
ENDMDL
MODEL 4
REMARK VINA RESULT:      -7.7      1.620      2.194
REMARK  6 active torsions:
REMARK  status: ('A' for Active; 'I' for Inactive)
REMARK    1  A    between atoms: C_6  and  C_7 
REMARK       I    between atoms: C_7  and  N_8 
REMARK    2  A    between atoms: N_8  and  C_9 
REMARK    3  A    between atoms: C_9  and  C_10 
REMARK    4  A    between atoms: C_10  and  O_11 
REMARK    5  A    between atoms: C_10  and  C_12 
REMARK    6  A    between atoms: C_15  and  O_16 
ROOT
HETATM    1  C   UNL     1      -3.908   3.103 -31.558  1.00  0.00     0.258 C 
HETATM    2  N   UNL     1      -5.203   2.758 -31.876  1.00  0.00    -0.350 N 
HETATM    3  O   UNL     1      -3.063   2.287 -31.211  1.00  0.00    -0.267 OA
HETATM    4  H   UNL     1      -5.783   3.509 -32.248  1.00  0.00     0.163 HD
ENDROOT
BRANCH   2   5
HETATM    5  C   UNL     1      -5.662   1.369 -31.963  1.00  0.00     0.114 C 
HETATM    6  C   UNL     1      -6.868   1.153 -31.040  1.00  0.00     0.035 C 
BRANCH   5   7
HETATM    7  C   UNL     1      -5.975   1.010 -33.446  1.00  0.00     0.173 C 
BRANCH   7   8
HETATM    8  O   UNL     1      -7.332   1.328 -33.778  1.00  0.00    -0.389 OA
HETATM    9  H   UNL     1      -7.860   1.186 -32.973  1.00  0.00     0.210 HD
ENDBRANCH   7   8
BRANCH   7  10
HETATM   10  C   UNL     1      -5.666  -0.434 -33.782  1.00  0.00    -0.028 A 
HETATM   11  C   UNL     1      -4.484  -1.017 -33.303  1.00  0.00     0.012 A 
HETATM   12  C   UNL     1      -4.190  -2.355 -33.576  1.00  0.00     0.037 A 
HETATM   13  C   UNL     1      -5.070  -3.141 -34.321  1.00  0.00     0.068 A 
HETATM   14  C   UNL     1      -6.244  -2.569 -34.809  1.00  0.00     0.037 A 
HETATM   15  C   UNL     1      -6.538  -1.226 -34.542  1.00  0.00     0.012 A 
BRANCH  13  16
HETATM   16  O   UNL     1      -4.668  -4.435 -34.504  1.00  0.00    -0.356 OA
HETATM   17  C   UNL     1      -3.542  -4.866 -33.751  1.00  0.00     0.210 C 
ENDBRANCH  13  16
ENDBRANCH   7  10
ENDBRANCH   5   7
ENDBRANCH   2   5
BRANCH   1  18
HETATM   18  C   UNL     1      -3.612   4.521 -31.687  1.00  0.00     0.105 A 
HETATM   19  C   UNL     1      -4.087   5.591 -30.883  1.00  0.00     0.071 A 
HETATM   20  C   UNL     1      -5.017   5.514 -29.726  1.00  0.00     0.073 C 
HETATM   21  N   UNL     1      -3.600   6.776 -31.270  1.00  0.00    -0.170 NA
HETATM   22  N   UNL     1      -2.798   6.494 -32.319  1.00  0.00    -0.225 N 
HETATM   23  C   UNL     1      -2.785   5.129 -32.618  1.00  0.00     0.168 A 
HETATM   24  C   UNL     1      -2.036   7.386 -33.065  1.00  0.00     0.122 A 
HETATM   25  N   UNL     1      -2.037   4.615 -33.653  1.00  0.00    -0.240 NA
HETATM   26  C   UNL     1      -1.338   5.483 -34.325  1.00  0.00     0.120 A 
HETATM   27  C   UNL     1      -1.281   6.950 -34.082  1.00  0.00     0.038 A 
ENDBRANCH   1  18
TORSDOF 6
ENDMDL
MODEL 5
REMARK VINA RESULT:      -7.6      4.054      7.192
REMARK  6 active torsions:
REMARK  status: ('A' for Active; 'I' for Inactive)
REMARK    1  A    between atoms: C_6  and  C_7 
REMARK       I    between atoms: C_7  and  N_8 
REMARK    2  A    between atoms: N_8  and  C_9 
REMARK    3  A    between atoms: C_9  and  C_10 
REMARK    4  A    between atoms: C_10  and  O_11 
REMARK    5  A    between atoms: C_10  and  C_12 
REMARK    6  A    between atoms: C_15  and  O_16 
ROOT
HETATM    1  C   UNL     1      -6.815   0.825 -32.305  1.00  0.00     0.258 C 
HETATM    2  N   UNL     1      -6.907   2.025 -32.976  1.00  0.00    -0.350 N 
HETATM    3  O   UNL     1      -7.563   0.512 -31.387  1.00  0.00    -0.267 OA
HETATM    4  H   UNL     1      -6.297   2.128 -33.786  1.00  0.00     0.163 HD
ENDROOT
BRANCH   2   5
HETATM    5  C   UNL     1      -7.992   2.985 -32.751  1.00  0.00     0.114 C 
HETATM    6  C   UNL     1      -7.472   4.193 -31.962  1.00  0.00     0.035 C 
BRANCH   5   7
HETATM    7  C   UNL     1      -8.625   3.392 -34.115  1.00  0.00     0.173 C 
BRANCH   7   8
HETATM    8  O   UNL     1      -8.609   4.815 -34.287  1.00  0.00    -0.389 OA
HETATM    9  H   UNL     1      -7.723   5.120 -34.026  1.00  0.00     0.210 HD
ENDBRANCH   7   8
BRANCH   7  10
HETATM   10  C   UNL     1     -10.026   2.847 -34.302  1.00  0.00    -0.028 A 
HETATM   11  C   UNL     1     -10.922   3.521 -35.145  1.00  0.00     0.012 A 
HETATM   12  C   UNL     1     -12.210   3.023 -35.356  1.00  0.00     0.037 A 
HETATM   13  C   UNL     1     -12.627   1.841 -34.742  1.00  0.00     0.068 A 
HETATM   14  C   UNL     1     -11.747   1.168 -33.897  1.00  0.00     0.037 A 
HETATM   15  C   UNL     1     -10.457   1.668 -33.678  1.00  0.00     0.012 A 
BRANCH  13  16
HETATM   16  O   UNL     1     -13.905   1.460 -35.045  1.00  0.00    -0.356 OA
HETATM   17  C   UNL     1     -14.588   0.683 -34.069  1.00  0.00     0.210 C 
ENDBRANCH  13  16
ENDBRANCH   7  10
ENDBRANCH   5   7
ENDBRANCH   2   5
BRANCH   1  18
HETATM   18  C   UNL     1      -5.766  -0.057 -32.789  1.00  0.00     0.105 A 
HETATM   19  C   UNL     1      -4.363   0.068 -32.604  1.00  0.00     0.071 A 
HETATM   20  C   UNL     1      -3.634   1.146 -31.883  1.00  0.00     0.073 C 
HETATM   21  N   UNL     1      -3.681  -0.935 -33.169  1.00  0.00    -0.170 NA
HETATM   22  N   UNL     1      -4.626  -1.728 -33.719  1.00  0.00    -0.225 N 
HETATM   23  C   UNL     1      -5.914  -1.223 -33.522  1.00  0.00     0.168 A 
HETATM   24  C   UNL     1      -4.434  -2.920 -34.408  1.00  0.00     0.122 A 
HETATM   25  N   UNL     1      -7.032  -1.868 -34.001  1.00  0.00    -0.240 NA
HETATM   26  C   UNL     1      -6.809  -2.980 -34.638  1.00  0.00     0.120 A 
HETATM   27  C   UNL     1      -5.480  -3.601 -34.893  1.00  0.00     0.038 A 
ENDBRANCH   1  18
TORSDOF 6
ENDMDL
MODEL 6
REMARK VINA RESULT:      -7.4     16.112     17.548
REMARK  6 active torsions:
REMARK  status: ('A' for Active; 'I' for Inactive)
REMARK    1  A    between atoms: C_6  and  C_7 
REMARK       I    between atoms: C_7  and  N_8 
REMARK    2  A    between atoms: N_8  and  C_9 
REMARK    3  A    between atoms: C_9  and  C_10 
REMARK    4  A    between atoms: C_10  and  O_11 
REMARK    5  A    between atoms: C_10  and  C_12 
REMARK    6  A    between atoms: C_15  and  O_16 
ROOT
HETATM    1  C   UNL     1      -3.777 -12.672 -38.007  1.00  0.00     0.258 C 
HETATM    2  N   UNL     1      -5.037 -13.106 -38.357  1.00  0.00    -0.350 N 
HETATM    3  O   UNL     1      -3.343 -11.566 -38.306  1.00  0.00    -0.267 OA
HETATM    4  H   UNL     1      -5.321 -14.003 -37.964  1.00  0.00     0.163 HD
ENDROOT
BRANCH   2   5
HETATM    5  C   UNL     1      -6.030 -12.242 -39.001  1.00  0.00     0.114 C 
HETATM    6  C   UNL     1      -6.223 -12.660 -40.464  1.00  0.00     0.035 C 
BRANCH   5   7
HETATM    7  C   UNL     1      -7.360 -12.276 -38.192  1.00  0.00     0.173 C 
BRANCH   7   8
HETATM    8  O   UNL     1      -7.194 -12.975 -36.952  1.00  0.00    -0.389 OA
HETATM    9  H   UNL     1      -6.417 -12.587 -36.513  1.00  0.00     0.210 HD
ENDBRANCH   7   8
BRANCH   7  10
HETATM   10  C   UNL     1      -8.517 -12.854 -38.980  1.00  0.00    -0.028 A 
HETATM   11  C   UNL     1      -8.745 -14.238 -38.957  1.00  0.00     0.012 A 
HETATM   12  C   UNL     1      -9.822 -14.793 -39.654  1.00  0.00     0.037 A 
HETATM   13  C   UNL     1     -10.697 -13.981 -40.377  1.00  0.00     0.068 A 
HETATM   14  C   UNL     1     -10.475 -12.606 -40.413  1.00  0.00     0.037 A 
HETATM   15  C   UNL     1      -9.392 -12.048 -39.722  1.00  0.00     0.012 A 
BRANCH  13  16
HETATM   16  O   UNL     1     -11.714 -14.651 -41.000  1.00  0.00    -0.356 OA
HETATM   17  C   UNL     1     -11.343 -15.586 -42.004  1.00  0.00     0.210 C 
ENDBRANCH  13  16
ENDBRANCH   7  10
ENDBRANCH   5   7
ENDBRANCH   2   5
BRANCH   1  18
HETATM   18  C   UNL     1      -3.004 -13.627 -37.230  1.00  0.00     0.105 A 
HETATM   19  C   UNL     1      -1.640 -13.988 -37.394  1.00  0.00     0.071 A 
HETATM   20  C   UNL     1      -0.684 -13.486 -38.416  1.00  0.00     0.073 C 
HETATM   21  N   UNL     1      -1.238 -14.889 -36.491  1.00  0.00    -0.170 NA
HETATM   22  N   UNL     1      -2.325 -15.118 -35.723  1.00  0.00    -0.225 N 
HETATM   23  C   UNL     1      -3.431 -14.377 -36.147  1.00  0.00     0.168 A 
HETATM   24  C   UNL     1      -2.421 -15.964 -34.624  1.00  0.00     0.122 A 
HETATM   25  N   UNL     1      -4.650 -14.457 -35.511  1.00  0.00    -0.240 NA
HETATM   26  C   UNL     1      -4.698 -15.258 -34.487  1.00  0.00     0.120 A 
HETATM   27  C   UNL     1      -3.577 -16.082 -33.957  1.00  0.00     0.038 A 
ENDBRANCH   1  18
TORSDOF 6
ENDMDL
MODEL 7
REMARK VINA RESULT:      -7.3      3.111      7.734
REMARK  6 active torsions:
REMARK  status: ('A' for Active; 'I' for Inactive)
REMARK    1  A    between atoms: C_6  and  C_7 
REMARK       I    between atoms: C_7  and  N_8 
REMARK    2  A    between atoms: N_8  and  C_9 
REMARK    3  A    between atoms: C_9  and  C_10 
REMARK    4  A    between atoms: C_10  and  O_11 
REMARK    5  A    between atoms: C_10  and  C_12 
REMARK    6  A    between atoms: C_15  and  O_16 
ROOT
HETATM    1  C   UNL     1      -6.000   0.099 -32.912  1.00  0.00     0.258 C 
HETATM    2  N   UNL     1      -6.112   0.868 -34.049  1.00  0.00    -0.350 N 
HETATM    3  O   UNL     1      -6.525   0.398 -31.847  1.00  0.00    -0.267 OA
HETATM    4  H   UNL     1      -5.717   0.465 -34.898  1.00  0.00     0.163 HD
ENDROOT
BRANCH   2   5
HETATM    5  C   UNL     1      -6.981   2.045 -34.136  1.00  0.00     0.114 C 
HETATM    6  C   UNL     1      -8.450   1.628 -33.995  1.00  0.00     0.035 C 
BRANCH   5   7
HETATM    7  C   UNL     1      -6.555   3.093 -33.065  1.00  0.00     0.173 C 
BRANCH   7   8
HETATM    8  O   UNL     1      -7.566   4.095 -32.893  1.00  0.00    -0.389 OA
HETATM    9  H   UNL     1      -8.139   4.055 -33.679  1.00  0.00     0.210 HD
ENDBRANCH   7   8
BRANCH   7  10
HETATM   10  C   UNL     1      -5.215   3.732 -33.364  1.00  0.00    -0.028 A 
HETATM   11  C   UNL     1      -4.087   3.349 -32.623  1.00  0.00     0.012 A 
HETATM   12  C   UNL     1      -2.834   3.903 -32.898  1.00  0.00     0.037 A 
HETATM   13  C   UNL     1      -2.678   4.840 -33.920  1.00  0.00     0.068 A 
HETATM   14  C   UNL     1      -3.793   5.233 -34.657  1.00  0.00     0.037 A 
HETATM   15  C   UNL     1      -5.051   4.685 -34.379  1.00  0.00     0.012 A 
BRANCH  13  16
HETATM   16  O   UNL     1      -1.398   5.291 -34.091  1.00  0.00    -0.356 OA
HETATM   17  C   UNL     1      -1.172   6.675 -33.858  1.00  0.00     0.210 C 
ENDBRANCH  13  16
ENDBRANCH   7  10
ENDBRANCH   5   7
ENDBRANCH   2   5
BRANCH   1  18
HETATM   18  C   UNL     1      -5.220  -1.116 -33.080  1.00  0.00     0.105 A 
HETATM   19  C   UNL     1      -3.947  -1.422 -32.529  1.00  0.00     0.071 A 
HETATM   20  C   UNL     1      -3.102  -0.561 -31.660  1.00  0.00     0.073 C 
HETATM   21  N   UNL     1      -3.521  -2.643 -32.872  1.00  0.00    -0.170 NA
HETATM   22  N   UNL     1      -4.510  -3.151 -33.640  1.00  0.00    -0.225 N 
HETATM   23  C   UNL     1      -5.563  -2.246 -33.804  1.00  0.00     0.168 A 
HETATM   24  C   UNL     1      -4.563  -4.409 -34.230  1.00  0.00     0.122 A 
HETATM   25  N   UNL     1      -6.676  -2.551 -34.554  1.00  0.00    -0.240 NA
HETATM   26  C   UNL     1      -6.687  -3.738 -35.087  1.00  0.00     0.120 A 
HETATM   27  C   UNL     1      -5.622  -4.770 -34.965  1.00  0.00     0.038 A 
ENDBRANCH   1  18
TORSDOF 6
ENDMDL
MODEL 8
REMARK VINA RESULT:      -7.2     16.086     17.481
REMARK  6 active torsions:
REMARK  status: ('A' for Active; 'I' for Inactive)
REMARK    1  A    between atoms: C_6  and  C_7 
REMARK       I    between atoms: C_7  and  N_8 
REMARK    2  A    between atoms: N_8  and  C_9 
REMARK    3  A    between atoms: C_9  and  C_10 
REMARK    4  A    between atoms: C_10  and  O_11 
REMARK    5  A    between atoms: C_10  and  C_12 
REMARK    6  A    between atoms: C_15  and  O_16 
ROOT
HETATM    1  C   UNL     1      -3.686 -12.557 -38.152  1.00  0.00     0.258 C 
HETATM    2  N   UNL     1      -4.916 -13.059 -38.517  1.00  0.00    -0.350 N 
HETATM    3  O   UNL     1      -3.326 -11.414 -38.405  1.00  0.00    -0.267 OA
HETATM    4  H   UNL     1      -5.139 -13.987 -38.161  1.00  0.00     0.163 HD
ENDROOT
BRANCH   2   5
HETATM    5  C   UNL     1      -5.966 -12.236 -39.123  1.00  0.00     0.114 C 
HETATM    6  C   UNL     1      -6.221 -12.685 -40.567  1.00  0.00     0.035 C 
BRANCH   5   7
HETATM    7  C   UNL     1      -7.252 -12.294 -38.246  1.00  0.00     0.173 C 
BRANCH   7   8
HETATM    8  O   UNL     1      -7.004 -12.975 -37.010  1.00  0.00    -0.389 OA
HETATM    9  H   UNL     1      -7.151 -13.923 -37.176  1.00  0.00     0.210 HD
ENDBRANCH   7   8
BRANCH   7  10
HETATM   10  C   UNL     1      -8.433 -12.910 -38.968  1.00  0.00    -0.028 A 
HETATM   11  C   UNL     1      -9.335 -12.081 -39.648  1.00  0.00     0.012 A 
HETATM   12  C   UNL     1     -10.416 -12.626 -40.345  1.00  0.00     0.037 A 
HETATM   13  C   UNL     1     -10.614 -14.007 -40.386  1.00  0.00     0.068 A 
HETATM   14  C   UNL     1      -9.727 -14.840 -39.706  1.00  0.00     0.037 A 
HETATM   15  C   UNL     1      -8.647 -14.295 -39.002  1.00  0.00     0.012 A 
BRANCH  13  16
HETATM   16  O   UNL     1     -11.701 -14.408 -41.113  1.00  0.00    -0.356 OA
HETATM   17  C   UNL     1     -11.599 -15.661 -41.776  1.00  0.00     0.210 C 
ENDBRANCH  13  16
ENDBRANCH   7  10
ENDBRANCH   5   7
ENDBRANCH   2   5
BRANCH   1  18
HETATM   18  C   UNL     1      -2.848 -13.491 -37.416  1.00  0.00     0.105 A 
HETATM   19  C   UNL     1      -3.124 -14.124 -36.175  1.00  0.00     0.071 A 
HETATM   20  C   UNL     1      -4.333 -13.966 -35.324  1.00  0.00     0.073 C 
HETATM   21  N   UNL     1      -2.139 -14.943 -35.789  1.00  0.00    -0.170 NA
HETATM   22  N   UNL     1      -1.217 -14.862 -36.772  1.00  0.00    -0.225 N 
HETATM   23  C   UNL     1      -1.603 -13.976 -37.782  1.00  0.00     0.168 A 
HETATM   24  C   UNL     1      -0.008 -15.544 -36.857  1.00  0.00     0.122 A 
HETATM   25  N   UNL     1      -0.813 -13.735 -38.883  1.00  0.00    -0.240 NA
HETATM   26  C   UNL     1       0.308 -14.394 -38.925  1.00  0.00     0.120 A 
HETATM   27  C   UNL     1       0.803 -15.360 -37.907  1.00  0.00     0.038 A 
ENDBRANCH   1  18
TORSDOF 6
ENDMDL
MODEL 9
REMARK VINA RESULT:      -7.0      3.195      7.230
REMARK  6 active torsions:
REMARK  status: ('A' for Active; 'I' for Inactive)
REMARK    1  A    between atoms: C_6  and  C_7 
REMARK       I    between atoms: C_7  and  N_8 
REMARK    2  A    between atoms: N_8  and  C_9 
REMARK    3  A    between atoms: C_9  and  C_10 
REMARK    4  A    between atoms: C_10  and  O_11 
REMARK    5  A    between atoms: C_10  and  C_12 
REMARK    6  A    between atoms: C_15  and  O_16 
ROOT
HETATM    1  C   UNL     1      -6.612  -1.176 -34.430  1.00  0.00     0.258 C 
HETATM    2  N   UNL     1      -7.194  -0.639 -33.303  1.00  0.00    -0.350 N 
HETATM    3  O   UNL     1      -6.760  -0.704 -35.551  1.00  0.00    -0.267 OA
HETATM    4  H   UNL     1      -6.914  -1.059 -32.417  1.00  0.00     0.163 HD
ENDROOT
BRANCH   2   5
HETATM    5  C   UNL     1      -7.936   0.624 -33.312  1.00  0.00     0.114 C 
HETATM    6  C   UNL     1      -9.444   0.350 -33.382  1.00  0.00     0.035 C 
BRANCH   5   7
HETATM    7  C   UNL     1      -7.543   1.474 -32.067  1.00  0.00     0.173 C 
BRANCH   7   8
HETATM    8  O   UNL     1      -8.542   2.460 -31.778  1.00  0.00    -0.389 OA
HETATM    9  H   UNL     1      -8.127   3.329 -31.912  1.00  0.00     0.210 HD
ENDBRANCH   7   8
BRANCH   7  10
HETATM   10  C   UNL     1      -6.179   2.118 -32.198  1.00  0.00    -0.028 A 
HETATM   11  C   UNL     1      -5.986   3.144 -33.135  1.00  0.00     0.012 A 
HETATM   12  C   UNL     1      -4.745   3.773 -33.256  1.00  0.00     0.037 A 
HETATM   13  C   UNL     1      -3.675   3.401 -32.441  1.00  0.00     0.068 A 
HETATM   14  C   UNL     1      -3.853   2.378 -31.512  1.00  0.00     0.037 A 
HETATM   15  C   UNL     1      -5.095   1.741 -31.393  1.00  0.00     0.012 A 
BRANCH  13  16
HETATM   16  O   UNL     1      -2.522   4.105 -32.654  1.00  0.00    -0.356 OA
HETATM   17  C   UNL     1      -1.821   4.548 -31.499  1.00  0.00     0.210 C 
ENDBRANCH  13  16
ENDBRANCH   7  10
ENDBRANCH   5   7
ENDBRANCH   2   5
BRANCH   1  18
HETATM   18  C   UNL     1      -5.781  -2.343 -34.182  1.00  0.00     0.105 A 
HETATM   19  C   UNL     1      -5.859  -3.620 -34.801  1.00  0.00     0.071 A 
HETATM   20  C   UNL     1      -6.824  -4.068 -35.840  1.00  0.00     0.073 C 
HETATM   21  N   UNL     1      -4.926  -4.465 -34.349  1.00  0.00    -0.170 NA
HETATM   22  N   UNL     1      -4.225  -3.752 -33.441  1.00  0.00    -0.225 N 
HETATM   23  C   UNL     1      -4.721  -2.453 -33.298  1.00  0.00     0.168 A 
HETATM   24  C   UNL     1      -3.127  -4.173 -32.699  1.00  0.00     0.122 A 
HETATM   25  N   UNL     1      -4.161  -1.551 -32.422  1.00  0.00    -0.240 NA
HETATM   26  C   UNL     1      -3.136  -1.984 -31.748  1.00  0.00     0.120 A 
HETATM   27  C   UNL     1      -2.531  -3.341 -31.835  1.00  0.00     0.038 A 
ENDBRANCH   1  18
TORSDOF 6
ENDMDL
MODEL 10
REMARK VINA RESULT:      -7.0     16.682     17.949
REMARK  6 active torsions:
REMARK  status: ('A' for Active; 'I' for Inactive)
REMARK    1  A    between atoms: C_6  and  C_7 
REMARK       I    between atoms: C_7  and  N_8 
REMARK    2  A    between atoms: N_8  and  C_9 
REMARK    3  A    between atoms: C_9  and  C_10 
REMARK    4  A    between atoms: C_10  and  O_11 
REMARK    5  A    between atoms: C_10  and  C_12 
REMARK    6  A    between atoms: C_15  and  O_16 
ROOT
HETATM    1  C   UNL     1      -4.253 -13.402 -37.468  1.00  0.00     0.258 C 
HETATM    2  N   UNL     1      -3.709 -14.225 -38.429  1.00  0.00    -0.350 N 
HETATM    3  O   UNL     1      -4.149 -12.181 -37.494  1.00  0.00    -0.267 OA
HETATM    4  H   UNL     1      -3.950 -15.212 -38.355  1.00  0.00     0.163 HD
ENDROOT
BRANCH   2   5
HETATM    5  C   UNL     1      -3.073 -13.718 -39.648  1.00  0.00     0.114 C 
HETATM    6  C   UNL     1      -1.636 -14.245 -39.751  1.00  0.00     0.035 C 
BRANCH   5   7
HETATM    7  C   UNL     1      -3.935 -14.095 -40.889  1.00  0.00     0.173 C 
BRANCH   7   8
HETATM    8  O   UNL     1      -3.375 -13.552 -42.091  1.00  0.00    -0.389 OA
HETATM    9  H   UNL     1      -3.115 -12.635 -41.892  1.00  0.00     0.210 HD
ENDBRANCH   7   8
BRANCH   7  10
HETATM   10  C   UNL     1      -5.387 -13.689 -40.745  1.00  0.00    -0.028 A 
HETATM   11  C   UNL     1      -5.722 -12.328 -40.689  1.00  0.00     0.012 A 
HETATM   12  C   UNL     1      -7.056 -11.928 -40.584  1.00  0.00     0.037 A 
HETATM   13  C   UNL     1      -8.083 -12.873 -40.543  1.00  0.00     0.068 A 
HETATM   14  C   UNL     1      -7.761 -14.228 -40.589  1.00  0.00     0.037 A 
HETATM   15  C   UNL     1      -6.423 -14.632 -40.688  1.00  0.00     0.012 A 
BRANCH  13  16
HETATM   16  O   UNL     1      -9.342 -12.346 -40.453  1.00  0.00    -0.356 OA
HETATM   17  C   UNL     1     -10.324 -13.145 -39.807  1.00  0.00     0.210 C 
ENDBRANCH  13  16
ENDBRANCH   7  10
ENDBRANCH   5   7
ENDBRANCH   2   5
BRANCH   1  18
HETATM   18  C   UNL     1      -4.984 -14.097 -36.421  1.00  0.00     0.105 A 
HETATM   19  C   UNL     1      -6.384 -14.091 -36.179  1.00  0.00     0.071 A 
HETATM   20  C   UNL     1      -7.432 -13.353 -36.932  1.00  0.00     0.073 C 
HETATM   21  N   UNL     1      -6.726 -14.859 -35.139  1.00  0.00    -0.170 NA
HETATM   22  N   UNL     1      -5.562 -15.382 -34.697  1.00  0.00    -0.225 N 
HETATM   23  C   UNL     1      -4.469 -14.933 -35.444  1.00  0.00     0.168 A 
HETATM   24  C   UNL     1      -5.379 -16.268 -33.642  1.00  0.00     0.122 A 
HETATM   25  N   UNL     1      -3.182 -15.335 -35.167  1.00  0.00    -0.240 NA
HETATM   26  C   UNL     1      -3.054 -16.166 -34.174  1.00  0.00     0.120 A 
HETATM   27  C   UNL     1      -4.152 -16.704 -33.326  1.00  0.00     0.038 A 
ENDBRANCH   1  18
TORSDOF 6
ENDMDL
