MODEL 1
REMARK VINA RESULT:      -8.3      0.000      0.000
REMARK  8 active torsions:
REMARK  status: ('A' for Active; 'I' for Inactive)
REMARK    1  A    between atoms: O_2  and  C_3 
REMARK    2  A    between atoms: C_4  and  O_5 
REMARK    3  A    between atoms: C_8  and  C_9 
REMARK       I    between atoms: C_9  and  N_10 
REMARK    4  A    between atoms: N_10  and  N_11 
REMARK       I    between atoms: N_11  and  C_12 
REMARK    5  A    between atoms: C_12  and  C_13 
REMARK    6  A    between atoms: C_13  and  S_14 
REMARK    7  A    between atoms: S_14  and  C_15 
REMARK    8  A    between atoms: C_18  and  C_19 
ROOT
HETATM    1  N   UNL     1      -6.964   3.608 -32.066  1.00  0.00    -0.267 N 
HETATM    2  C   UNL     1      -6.636   3.206 -30.785  1.00  0.00     0.245 C 
HETATM    3  O   UNL     1      -7.477   2.763 -29.998  1.00  0.00    -0.271 OA
HETATM    4  H   UNL     1      -6.235   3.597 -32.795  1.00  0.00     0.190 HD
ENDROOT
BRANCH   2   5
HETATM    5  C   UNL     1      -5.177   3.386 -30.417  1.00  0.00     0.187 C 
BRANCH   5   6
HETATM    6  S   UNL     1      -4.116   3.236 -31.882  1.00  0.00    -0.083 SA
BRANCH   6   7
HETATM    7  C   UNL     1      -3.957   1.526 -31.984  1.00  0.00     0.167 A 
HETATM    8  N   UNL     1      -3.096   0.774 -31.347  1.00  0.00    -0.235 NA
HETATM    9  C   UNL     1      -3.347  -0.499 -31.802  1.00  0.00     0.149 A 
HETATM   10  C   UNL     1      -4.395  -0.520 -32.710  1.00  0.00     0.062 A 
HETATM   11  N   UNL     1      -4.763   0.803 -32.809  1.00  0.00    -0.333 N 
HETATM   12  H   UNL     1      -5.476   1.191 -33.409  1.00  0.00     0.168 HD
BRANCH  10  13
HETATM   13  C   UNL     1      -5.015  -1.607 -33.461  1.00  0.00    -0.008 A 
HETATM   14  C   UNL     1      -6.378  -1.570 -33.797  1.00  0.00     0.017 A 
HETATM   15  C   UNL     1      -6.961  -2.616 -34.516  1.00  0.00     0.043 A 
HETATM   16  C   UNL     1      -6.185  -3.701 -34.900  1.00  0.00     0.116 A 
HETATM   17  F   UNL     1      -6.744  -4.704 -35.590  1.00  0.00    -0.206 F 
HETATM   18  C   UNL     1      -4.835  -3.762 -34.577  1.00  0.00     0.043 A 
HETATM   19  C   UNL     1      -4.252  -2.717 -33.856  1.00  0.00     0.017 A 
ENDBRANCH  10  13
ENDBRANCH   6   7
ENDBRANCH   5   6
ENDBRANCH   2   5
BRANCH   1  20
HETATM   20  N   UNL     1      -8.272   3.352 -32.501  1.00  0.00    -0.263 N 
HETATM   21  C   UNL     1      -8.493   2.299 -33.367  1.00  0.00     0.270 C 
HETATM   22  O   UNL     1      -7.589   1.578 -33.782  1.00  0.00    -0.266 OA
HETATM   23  H   UNL     1      -9.002   3.863 -32.011  1.00  0.00     0.190 HD
BRANCH  21  24
HETATM   24  C   UNL     1      -9.907   2.046 -33.784  1.00  0.00     0.036 A 
HETATM   25  C   UNL     1     -10.572   3.059 -34.497  1.00  0.00     0.056 A 
HETATM   26  C   UNL     1     -11.908   2.914 -34.904  1.00  0.00     0.102 A 
HETATM   27  C   UNL     1     -12.577   1.713 -34.615  1.00  0.00     0.101 A 
HETATM   28  C   UNL     1     -11.920   0.715 -33.883  1.00  0.00     0.040 A 
HETATM   29  C   UNL     1     -10.597   0.874 -33.465  1.00  0.00     0.020 A 
BRANCH  26  30
HETATM   30  O   UNL     1     -12.599   3.897 -35.561  1.00  0.00    -0.353 OA
HETATM   31  C   UNL     1     -12.100   5.227 -35.492  1.00  0.00     0.210 C 
ENDBRANCH  26  30
BRANCH  27  32
HETATM   32  O   UNL     1     -13.869   1.374 -34.921  1.00  0.00    -0.353 OA
HETATM   33  C   UNL     1     -14.758   1.115 -33.842  1.00  0.00     0.210 C 
ENDBRANCH  27  32
ENDBRANCH  21  24
ENDBRANCH   1  20
TORSDOF 8
ENDMDL
MODEL 2
REMARK VINA RESULT:      -8.3      6.112     10.074
REMARK  8 active torsions:
REMARK  status: ('A' for Active; 'I' for Inactive)
REMARK    1  A    between atoms: O_2  and  C_3 
REMARK    2  A    between atoms: C_4  and  O_5 
REMARK    3  A    between atoms: C_8  and  C_9 
REMARK       I    between atoms: C_9  and  N_10 
REMARK    4  A    between atoms: N_10  and  N_11 
REMARK       I    between atoms: N_11  and  C_12 
REMARK    5  A    between atoms: C_12  and  C_13 
REMARK    6  A    between atoms: C_13  and  S_14 
REMARK    7  A    between atoms: S_14  and  C_15 
REMARK    8  A    between atoms: C_18  and  C_19 
ROOT
HETATM    1  N   UNL     1      -2.527   5.614 -30.648  1.00  0.00    -0.267 N 
HETATM    2  C   UNL     1      -1.910   4.676 -31.453  1.00  0.00     0.245 C 
HETATM    3  O   UNL     1      -0.691   4.487 -31.431  1.00  0.00    -0.271 OA
HETATM    4  H   UNL     1      -3.520   5.487 -30.404  1.00  0.00     0.190 HD
ENDROOT
BRANCH   2   5
HETATM    5  C   UNL     1      -2.842   3.928 -32.386  1.00  0.00     0.187 C 
BRANCH   5   6
HETATM    6  S   UNL     1      -4.236   3.212 -31.470  1.00  0.00    -0.083 SA
BRANCH   6   7
HETATM    7  C   UNL     1      -3.968   1.535 -31.747  1.00  0.00     0.167 A 
HETATM    8  N   UNL     1      -2.991   0.804 -31.274  1.00  0.00    -0.235 NA
HETATM    9  C   UNL     1      -3.199  -0.442 -31.818  1.00  0.00     0.149 A 
HETATM   10  C   UNL     1      -4.334  -0.470 -32.613  1.00  0.00     0.062 A 
HETATM   11  N   UNL     1      -4.804   0.824 -32.551  1.00  0.00    -0.333 N 
HETATM   12  H   UNL     1      -5.603   1.202 -33.036  1.00  0.00     0.168 HD
BRANCH  10  13
HETATM   13  C   UNL     1      -4.952  -1.534 -33.396  1.00  0.00    -0.008 A 
HETATM   14  C   UNL     1      -6.288  -1.440 -33.820  1.00  0.00     0.017 A 
HETATM   15  C   UNL     1      -6.870  -2.467 -34.569  1.00  0.00     0.043 A 
HETATM   16  C   UNL     1      -6.120  -3.588 -34.895  1.00  0.00     0.116 A 
HETATM   17  F   UNL     1      -6.678  -4.571 -35.613  1.00  0.00    -0.206 F 
HETATM   18  C   UNL     1      -4.798  -3.706 -34.485  1.00  0.00     0.043 A 
HETATM   19  C   UNL     1      -4.216  -2.681 -33.734  1.00  0.00     0.017 A 
ENDBRANCH  10  13
ENDBRANCH   6   7
ENDBRANCH   5   6
ENDBRANCH   2   5
BRANCH   1  20
HETATM   20  N   UNL     1      -1.732   6.248 -29.682  1.00  0.00    -0.263 N 
HETATM   21  C   UNL     1      -1.412   7.580 -29.852  1.00  0.00     0.270 C 
HETATM   22  O   UNL     1      -1.786   8.236 -30.822  1.00  0.00    -0.266 OA
HETATM   23  H   UNL     1      -1.584   5.720 -28.826  1.00  0.00     0.190 HD
BRANCH  21  24
HETATM   24  C   UNL     1      -0.585   8.223 -28.784  1.00  0.00     0.036 A 
HETATM   25  C   UNL     1      -1.189   9.219 -27.998  1.00  0.00     0.056 A 
HETATM   26  C   UNL     1      -0.478   9.892 -26.991  1.00  0.00     0.102 A 
HETATM   27  C   UNL     1       0.859   9.532 -26.752  1.00  0.00     0.101 A 
HETATM   28  C   UNL     1       1.466   8.557 -27.554  1.00  0.00     0.040 A 
HETATM   29  C   UNL     1       0.757   7.905 -28.566  1.00  0.00     0.020 A 
BRANCH  26  30
HETATM   30  O   UNL     1      -1.022  10.896 -26.236  1.00  0.00    -0.353 OA
HETATM   31  C   UNL     1      -1.647  10.547 -25.007  1.00  0.00     0.210 C 
ENDBRANCH  26  30
BRANCH  27  32
HETATM   32  O   UNL     1       1.721  10.060 -25.826  1.00  0.00    -0.353 OA
HETATM   33  C   UNL     1       1.933   9.326 -24.627  1.00  0.00     0.210 C 
ENDBRANCH  27  32
ENDBRANCH  21  24
ENDBRANCH   1  20
TORSDOF 8
ENDMDL
MODEL 3
REMARK VINA RESULT:      -8.2      3.502      7.040
REMARK  8 active torsions:
REMARK  status: ('A' for Active; 'I' for Inactive)
REMARK    1  A    between atoms: O_2  and  C_3 
REMARK    2  A    between atoms: C_4  and  O_5 
REMARK    3  A    between atoms: C_8  and  C_9 
REMARK       I    between atoms: C_9  and  N_10 
REMARK    4  A    between atoms: N_10  and  N_11 
REMARK       I    between atoms: N_11  and  C_12 
REMARK    5  A    between atoms: C_12  and  C_13 
REMARK    6  A    between atoms: C_13  and  S_14 
REMARK    7  A    between atoms: S_14  and  C_15 
REMARK    8  A    between atoms: C_18  and  C_19 
ROOT
HETATM    1  N   UNL     1      -8.337   4.737 -34.014  1.00  0.00    -0.267 N 
HETATM    2  C   UNL     1      -9.356   4.410 -33.140  1.00  0.00     0.245 C 
HETATM    3  O   UNL     1      -9.142   4.091 -31.968  1.00  0.00    -0.271 OA
HETATM    4  H   UNL     1      -8.543   5.349 -34.817  1.00  0.00     0.190 HD
ENDROOT
BRANCH   2   5
HETATM    5  C   UNL     1     -10.746   4.444 -33.745  1.00  0.00     0.187 C 
BRANCH   5   6
HETATM    6  S   UNL     1     -10.927   3.170 -35.024  1.00  0.00    -0.083 SA
BRANCH   6   7
HETATM    7  C   UNL     1     -10.259   1.808 -34.211  1.00  0.00     0.167 A 
HETATM    8  N   UNL     1     -10.823   1.100 -33.266  1.00  0.00    -0.235 NA
HETATM    9  C   UNL     1      -9.873   0.166 -32.924  1.00  0.00     0.149 A 
HETATM   10  C   UNL     1      -8.727   0.297 -33.692  1.00  0.00     0.062 A 
HETATM   11  N   UNL     1      -9.006   1.370 -34.509  1.00  0.00    -0.333 N 
HETATM   12  H   UNL     1      -8.390   1.792 -35.188  1.00  0.00     0.168 HD
BRANCH  10  13
HETATM   13  C   UNL     1      -7.466  -0.437 -33.698  1.00  0.00    -0.008 A 
HETATM   14  C   UNL     1      -6.518  -0.257 -32.677  1.00  0.00     0.017 A 
HETATM   15  C   UNL     1      -5.313  -0.964 -32.693  1.00  0.00     0.043 A 
HETATM   16  C   UNL     1      -5.052  -1.852 -33.728  1.00  0.00     0.116 A 
HETATM   17  F   UNL     1      -3.897  -2.530 -33.743  1.00  0.00    -0.206 F 
HETATM   18  C   UNL     1      -5.972  -2.045 -34.751  1.00  0.00     0.043 A 
HETATM   19  C   UNL     1      -7.176  -1.336 -34.736  1.00  0.00     0.017 A 
ENDBRANCH  10  13
ENDBRANCH   6   7
ENDBRANCH   5   6
ENDBRANCH   2   5
BRANCH   1  20
HETATM   20  N   UNL     1      -7.044   4.840 -33.478  1.00  0.00    -0.263 N 
HETATM   21  C   UNL     1      -6.129   3.841 -33.748  1.00  0.00     0.270 C 
HETATM   22  O   UNL     1      -6.401   2.857 -34.432  1.00  0.00    -0.266 OA
HETATM   23  H   UNL     1      -6.817   5.738 -33.060  1.00  0.00     0.190 HD
BRANCH  21  24
HETATM   24  C   UNL     1      -4.756   4.005 -33.178  1.00  0.00     0.036 A 
HETATM   25  C   UNL     1      -3.888   4.913 -33.810  1.00  0.00     0.056 A 
HETATM   26  C   UNL     1      -2.574   5.109 -33.357  1.00  0.00     0.102 A 
HETATM   27  C   UNL     1      -2.135   4.399 -32.226  1.00  0.00     0.101 A 
HETATM   28  C   UNL     1      -2.994   3.478 -31.614  1.00  0.00     0.040 A 
HETATM   29  C   UNL     1      -4.295   3.275 -32.082  1.00  0.00     0.020 A 
BRANCH  26  30
HETATM   30  O   UNL     1      -1.688   5.951 -33.974  1.00  0.00    -0.353 OA
HETATM   31  C   UNL     1      -1.796   7.345 -33.711  1.00  0.00     0.210 C 
ENDBRANCH  26  30
BRANCH  27  32
HETATM   32  O   UNL     1      -0.903   4.445 -31.628  1.00  0.00    -0.353 OA
HETATM   33  C   UNL     1      -0.694   5.426 -30.621  1.00  0.00     0.210 C 
ENDBRANCH  27  32
ENDBRANCH  21  24
ENDBRANCH   1  20
TORSDOF 8
ENDMDL
MODEL 4
REMARK VINA RESULT:      -8.1      4.437      7.967
REMARK  8 active torsions:
REMARK  status: ('A' for Active; 'I' for Inactive)
REMARK    1  A    between atoms: O_2  and  C_3 
REMARK    2  A    between atoms: C_4  and  O_5 
REMARK    3  A    between atoms: C_8  and  C_9 
REMARK       I    between atoms: C_9  and  N_10 
REMARK    4  A    between atoms: N_10  and  N_11 
REMARK       I    between atoms: N_11  and  C_12 
REMARK    5  A    between atoms: C_12  and  C_13 
REMARK    6  A    between atoms: C_13  and  S_14 
REMARK    7  A    between atoms: S_14  and  C_15 
REMARK    8  A    between atoms: C_18  and  C_19 
ROOT
HETATM    1  N   UNL     1      -7.844   2.476 -32.059  1.00  0.00    -0.267 N 
HETATM    2  C   UNL     1      -7.177   3.477 -31.380  1.00  0.00     0.245 C 
HETATM    3  O   UNL     1      -6.069   3.301 -30.867  1.00  0.00    -0.271 OA
HETATM    4  H   UNL     1      -8.536   2.734 -32.777  1.00  0.00     0.190 HD
ENDROOT
BRANCH   2   5
HETATM    5  C   UNL     1      -7.928   4.791 -31.290  1.00  0.00     0.187 C 
BRANCH   5   6
HETATM    6  S   UNL     1      -7.938   5.644 -32.891  1.00  0.00    -0.083 SA
BRANCH   6   7
HETATM    7  C   UNL     1      -6.307   5.406 -33.386  1.00  0.00     0.167 A 
HETATM    8  N   UNL     1      -5.888   4.720 -34.418  1.00  0.00    -0.235 NA
HETATM    9  C   UNL     1      -4.517   4.799 -34.350  1.00  0.00     0.149 A 
HETATM   10  C   UNL     1      -4.101   5.567 -33.274  1.00  0.00     0.062 A 
HETATM   11  N   UNL     1      -5.281   5.939 -32.668  1.00  0.00    -0.333 N 
HETATM   12  H   UNL     1      -5.385   6.480 -31.823  1.00  0.00     0.168 HD
BRANCH  10  13
HETATM   13  C   UNL     1      -2.775   5.928 -32.785  1.00  0.00    -0.008 A 
HETATM   14  C   UNL     1      -2.025   5.039 -31.999  1.00  0.00     0.017 A 
HETATM   15  C   UNL     1      -0.756   5.395 -31.536  1.00  0.00     0.043 A 
HETATM   16  C   UNL     1      -0.234   6.640 -31.857  1.00  0.00     0.116 A 
HETATM   17  F   UNL     1       0.983   6.982 -31.414  1.00  0.00    -0.206 F 
HETATM   18  C   UNL     1      -0.957   7.539 -32.632  1.00  0.00     0.043 A 
HETATM   19  C   UNL     1      -2.227   7.183 -33.093  1.00  0.00     0.017 A 
ENDBRANCH  10  13
ENDBRANCH   6   7
ENDBRANCH   5   6
ENDBRANCH   2   5
BRANCH   1  20
HETATM   20  N   UNL     1      -7.147   1.279 -32.278  1.00  0.00    -0.263 N 
HETATM   21  C   UNL     1      -6.994   0.824 -33.573  1.00  0.00     0.270 C 
HETATM   22  O   UNL     1      -7.451   1.420 -34.546  1.00  0.00    -0.266 OA
HETATM   23  H   UNL     1      -6.651   0.910 -31.471  1.00  0.00     0.190 HD
BRANCH  21  24
HETATM   24  C   UNL     1      -6.220  -0.442 -33.763  1.00  0.00     0.036 A 
HETATM   25  C   UNL     1      -5.099  -0.655 -32.943  1.00  0.00     0.056 A 
HETATM   26  C   UNL     1      -4.302  -1.803 -33.072  1.00  0.00     0.102 A 
HETATM   27  C   UNL     1      -4.661  -2.772 -34.025  1.00  0.00     0.101 A 
HETATM   28  C   UNL     1      -5.765  -2.545 -34.858  1.00  0.00     0.040 A 
HETATM   29  C   UNL     1      -6.541  -1.391 -34.736  1.00  0.00     0.020 A 
BRANCH  26  30
HETATM   30  O   UNL     1      -3.179  -2.022 -32.320  1.00  0.00    -0.353 OA
HETATM   31  C   UNL     1      -2.495  -0.892 -31.794  1.00  0.00     0.210 C 
ENDBRANCH  26  30
BRANCH  27  32
HETATM   32  O   UNL     1      -4.025  -3.952 -34.308  1.00  0.00    -0.353 OA
HETATM   33  C   UNL     1      -4.822  -5.124 -34.414  1.00  0.00     0.210 C 
ENDBRANCH  27  32
ENDBRANCH  21  24
ENDBRANCH   1  20
TORSDOF 8
ENDMDL
MODEL 5
REMARK VINA RESULT:      -7.9      4.993      9.070
REMARK  8 active torsions:
REMARK  status: ('A' for Active; 'I' for Inactive)
REMARK    1  A    between atoms: O_2  and  C_3 
REMARK    2  A    between atoms: C_4  and  O_5 
REMARK    3  A    between atoms: C_8  and  C_9 
REMARK       I    between atoms: C_9  and  N_10 
REMARK    4  A    between atoms: N_10  and  N_11 
REMARK       I    between atoms: N_11  and  C_12 
REMARK    5  A    between atoms: C_12  and  C_13 
REMARK    6  A    between atoms: C_13  and  S_14 
REMARK    7  A    between atoms: S_14  and  C_15 
REMARK    8  A    between atoms: C_18  and  C_19 
ROOT
HETATM    1  N   UNL     1      -2.844   4.083 -31.522  1.00  0.00    -0.267 N 
HETATM    2  C   UNL     1      -4.164   3.680 -31.449  1.00  0.00     0.245 C 
HETATM    3  O   UNL     1      -4.933   4.095 -30.578  1.00  0.00    -0.271 OA
HETATM    4  H   UNL     1      -2.359   4.043 -32.430  1.00  0.00     0.190 HD
ENDROOT
BRANCH   2   5
HETATM    5  C   UNL     1      -4.578   2.667 -32.498  1.00  0.00     0.187 C 
BRANCH   5   6
HETATM    6  S   UNL     1      -6.159   3.131 -33.258  1.00  0.00    -0.083 SA
BRANCH   6   7
HETATM    7  C   UNL     1      -6.622   1.631 -33.964  1.00  0.00     0.167 A 
HETATM    8  N   UNL     1      -7.682   1.397 -34.694  1.00  0.00    -0.235 NA
HETATM    9  C   UNL     1      -7.619   0.052 -34.971  1.00  0.00     0.149 A 
HETATM   10  C   UNL     1      -6.488  -0.531 -34.420  1.00  0.00     0.062 A 
HETATM   11  N   UNL     1      -5.870   0.514 -33.772  1.00  0.00    -0.333 N 
HETATM   12  H   UNL     1      -5.027   0.470 -33.218  1.00  0.00     0.168 HD
BRANCH  10  13
HETATM   13  C   UNL     1      -5.994  -1.904 -34.429  1.00  0.00    -0.008 A 
HETATM   14  C   UNL     1      -6.832  -2.973 -34.785  1.00  0.00     0.017 A 
HETATM   15  C   UNL     1      -6.349  -4.285 -34.789  1.00  0.00     0.043 A 
HETATM   16  C   UNL     1      -5.028  -4.530 -34.438  1.00  0.00     0.116 A 
HETATM   17  F   UNL     1      -4.565  -5.787 -34.443  1.00  0.00    -0.206 F 
HETATM   18  C   UNL     1      -4.181  -3.489 -34.080  1.00  0.00     0.043 A 
HETATM   19  C   UNL     1      -4.664  -2.179 -34.073  1.00  0.00     0.017 A 
ENDBRANCH  10  13
ENDBRANCH   6   7
ENDBRANCH   5   6
ENDBRANCH   2   5
BRANCH   1  20
HETATM   20  N   UNL     1      -2.440   5.108 -30.654  1.00  0.00    -0.263 N 
HETATM   21  C   UNL     1      -1.098   5.420 -30.570  1.00  0.00     0.270 C 
HETATM   22  O   UNL     1      -0.236   4.831 -31.219  1.00  0.00    -0.266 OA
HETATM   23  H   UNL     1      -3.193   5.670 -30.265  1.00  0.00     0.190 HD
BRANCH  21  24
HETATM   24  C   UNL     1      -0.714   6.536 -29.652  1.00  0.00     0.036 A 
HETATM   25  C   UNL     1      -1.748   7.248 -29.017  1.00  0.00     0.056 A 
HETATM   26  C   UNL     1      -1.478   8.326 -28.160  1.00  0.00     0.102 A 
HETATM   27  C   UNL     1      -0.139   8.675 -27.913  1.00  0.00     0.101 A 
HETATM   28  C   UNL     1       0.887   7.980 -28.565  1.00  0.00     0.040 A 
HETATM   29  C   UNL     1       0.610   6.920 -29.431  1.00  0.00     0.020 A 
BRANCH  26  30
HETATM   30  O   UNL     1      -2.460   9.068 -27.560  1.00  0.00    -0.353 OA
HETATM   31  C   UNL     1      -3.813   8.679 -27.766  1.00  0.00     0.210 C 
ENDBRANCH  26  30
BRANCH  27  32
HETATM   32  O   UNL     1       0.335   9.685 -27.116  1.00  0.00    -0.353 OA
HETATM   33  C   UNL     1       0.654   9.368 -25.768  1.00  0.00     0.210 C 
ENDBRANCH  27  32
ENDBRANCH  21  24
ENDBRANCH   1  20
TORSDOF 8
ENDMDL
MODEL 6
REMARK VINA RESULT:      -7.9      4.180      7.597
REMARK  8 active torsions:
REMARK  status: ('A' for Active; 'I' for Inactive)
REMARK    1  A    between atoms: O_2  and  C_3 
REMARK    2  A    between atoms: C_4  and  O_5 
REMARK    3  A    between atoms: C_8  and  C_9 
REMARK       I    between atoms: C_9  and  N_10 
REMARK    4  A    between atoms: N_10  and  N_11 
REMARK       I    between atoms: N_11  and  C_12 
REMARK    5  A    between atoms: C_12  and  C_13 
REMARK    6  A    between atoms: C_13  and  S_14 
REMARK    7  A    between atoms: S_14  and  C_15 
REMARK    8  A    between atoms: C_18  and  C_19 
ROOT
HETATM    1  N   UNL     1      -6.584   3.991 -33.925  1.00  0.00    -0.267 N 
HETATM    2  C   UNL     1      -7.781   4.452 -33.413  1.00  0.00     0.245 C 
HETATM    3  O   UNL     1      -7.840   5.144 -32.394  1.00  0.00    -0.271 OA
HETATM    4  H   UNL     1      -6.521   3.770 -34.929  1.00  0.00     0.190 HD
ENDROOT
BRANCH   2   5
HETATM    5  C   UNL     1      -9.011   4.013 -34.183  1.00  0.00     0.187 C 
BRANCH   5   6
HETATM    6  S   UNL     1     -10.083   2.972 -33.153  1.00  0.00    -0.083 SA
BRANCH   6   7
HETATM    7  C   UNL     1      -8.939   1.831 -32.559  1.00  0.00     0.167 A 
HETATM    8  N   UNL     1      -8.563   1.665 -31.317  1.00  0.00    -0.235 NA
HETATM    9  C   UNL     1      -7.611   0.674 -31.376  1.00  0.00     0.149 A 
HETATM   10  C   UNL     1      -7.429   0.216 -32.671  1.00  0.00     0.062 A 
HETATM   11  N   UNL     1      -8.297   0.987 -33.411  1.00  0.00    -0.333 N 
HETATM   12  H   UNL     1      -8.422   0.969 -34.413  1.00  0.00     0.168 HD
BRANCH  10  13
HETATM   13  C   UNL     1      -6.543  -0.798 -33.233  1.00  0.00    -0.008 A 
HETATM   14  C   UNL     1      -5.173  -0.813 -32.927  1.00  0.00     0.017 A 
HETATM   15  C   UNL     1      -4.333  -1.789 -33.472  1.00  0.00     0.043 A 
HETATM   16  C   UNL     1      -4.861  -2.750 -34.323  1.00  0.00     0.116 A 
HETATM   17  F   UNL     1      -4.056  -3.685 -34.844  1.00  0.00    -0.206 F 
HETATM   18  C   UNL     1      -6.212  -2.755 -34.643  1.00  0.00     0.043 A 
HETATM   19  C   UNL     1      -7.052  -1.778 -34.100  1.00  0.00     0.017 A 
ENDBRANCH  10  13
ENDBRANCH   6   7
ENDBRANCH   5   6
ENDBRANCH   2   5
BRANCH   1  20
HETATM   20  N   UNL     1      -5.408   4.466 -33.325  1.00  0.00    -0.263 N 
HETATM   21  C   UNL     1      -4.398   4.952 -34.131  1.00  0.00     0.270 C 
HETATM   22  O   UNL     1      -4.480   4.978 -35.357  1.00  0.00    -0.266 OA
HETATM   23  H   UNL     1      -5.448   4.575 -32.315  1.00  0.00     0.190 HD
BRANCH  21  24
HETATM   24  C   UNL     1      -3.173   5.472 -33.449  1.00  0.00     0.036 A 
HETATM   25  C   UNL     1      -3.098   6.854 -33.199  1.00  0.00     0.056 A 
HETATM   26  C   UNL     1      -1.974   7.429 -32.586  1.00  0.00     0.102 A 
HETATM   27  C   UNL     1      -0.917   6.592 -32.189  1.00  0.00     0.101 A 
HETATM   28  C   UNL     1      -0.984   5.220 -32.461  1.00  0.00     0.040 A 
HETATM   29  C   UNL     1      -2.098   4.657 -33.088  1.00  0.00     0.020 A 
BRANCH  26  30
HETATM   30  O   UNL     1      -1.849   8.775 -32.367  1.00  0.00    -0.353 OA
HETATM   31  C   UNL     1      -2.305   9.297 -31.125  1.00  0.00     0.210 C 
ENDBRANCH  26  30
BRANCH  27  32
HETATM   32  O   UNL     1       0.258   6.950 -31.581  1.00  0.00    -0.353 OA
HETATM   33  C   UNL     1       0.568   6.342 -30.334  1.00  0.00     0.210 C 
ENDBRANCH  27  32
ENDBRANCH  21  24
ENDBRANCH   1  20
TORSDOF 8
ENDMDL
MODEL 7
REMARK VINA RESULT:      -7.9      6.310     10.462
REMARK  8 active torsions:
REMARK  status: ('A' for Active; 'I' for Inactive)
REMARK    1  A    between atoms: O_2  and  C_3 
REMARK    2  A    between atoms: C_4  and  O_5 
REMARK    3  A    between atoms: C_8  and  C_9 
REMARK       I    between atoms: C_9  and  N_10 
REMARK    4  A    between atoms: N_10  and  N_11 
REMARK       I    between atoms: N_11  and  C_12 
REMARK    5  A    between atoms: C_12  and  C_13 
REMARK    6  A    between atoms: C_13  and  S_14 
REMARK    7  A    between atoms: S_14  and  C_15 
REMARK    8  A    between atoms: C_18  and  C_19 
ROOT
HETATM    1  N   UNL     1      -1.557   5.166 -30.501  1.00  0.00    -0.267 N 
HETATM    2  C   UNL     1      -2.750   5.131 -31.198  1.00  0.00     0.245 C 
HETATM    3  O   UNL     1      -3.605   6.013 -31.084  1.00  0.00    -0.271 OA
HETATM    4  H   UNL     1      -0.740   4.669 -30.885  1.00  0.00     0.190 HD
ENDROOT
BRANCH   2   5
HETATM    5  C   UNL     1      -2.934   3.912 -32.080  1.00  0.00     0.187 C 
BRANCH   5   6
HETATM    6  S   UNL     1      -4.540   3.126 -31.771  1.00  0.00    -0.083 SA
BRANCH   6   7
HETATM    7  C   UNL     1      -4.139   1.474 -32.038  1.00  0.00     0.167 A 
HETATM    8  N   UNL     1      -3.062   0.849 -31.638  1.00  0.00    -0.235 NA
HETATM    9  C   UNL     1      -3.197  -0.425 -32.139  1.00  0.00     0.149 A 
HETATM   10  C   UNL     1      -4.388  -0.579 -32.831  1.00  0.00     0.062 A 
HETATM   11  N   UNL     1      -4.970   0.667 -32.752  1.00  0.00    -0.333 N 
HETATM   12  H   UNL     1      -5.840   0.957 -33.173  1.00  0.00     0.168 HD
BRANCH  10  13
HETATM   13  C   UNL     1      -4.968  -1.717 -33.537  1.00  0.00    -0.008 A 
HETATM   14  C   UNL     1      -4.227  -2.890 -33.752  1.00  0.00     0.017 A 
HETATM   15  C   UNL     1      -4.792  -3.973 -34.430  1.00  0.00     0.043 A 
HETATM   16  C   UNL     1      -6.097  -3.886 -34.895  1.00  0.00     0.116 A 
HETATM   17  F   UNL     1      -6.638  -4.925 -35.544  1.00  0.00    -0.206 F 
HETATM   18  C   UNL     1      -6.849  -2.735 -34.697  1.00  0.00     0.043 A 
HETATM   19  C   UNL     1      -6.284  -1.651 -34.021  1.00  0.00     0.017 A 
ENDBRANCH  10  13
ENDBRANCH   6   7
ENDBRANCH   5   6
ENDBRANCH   2   5
BRANCH   1  20
HETATM   20  N   UNL     1      -1.281   6.328 -29.766  1.00  0.00    -0.263 N 
HETATM   21  C   UNL     1      -0.144   6.366 -28.982  1.00  0.00     0.270 C 
HETATM   22  O   UNL     1       0.634   5.420 -28.893  1.00  0.00    -0.266 OA
HETATM   23  H   UNL     1      -1.856   7.135 -29.993  1.00  0.00     0.190 HD
BRANCH  21  24
HETATM   24  C   UNL     1       0.125   7.634 -28.235  1.00  0.00     0.036 A 
HETATM   25  C   UNL     1       1.270   7.685 -27.422  1.00  0.00     0.056 A 
HETATM   26  C   UNL     1       1.584   8.826 -26.667  1.00  0.00     0.102 A 
HETATM   27  C   UNL     1       0.744   9.949 -26.757  1.00  0.00     0.101 A 
HETATM   28  C   UNL     1      -0.409   9.886 -27.549  1.00  0.00     0.040 A 
HETATM   29  C   UNL     1      -0.725   8.741 -28.283  1.00  0.00     0.020 A 
BRANCH  26  30
HETATM   30  O   UNL     1       2.667   8.895 -25.831  1.00  0.00    -0.353 OA
HETATM   31  C   UNL     1       2.451   8.703 -24.438  1.00  0.00     0.210 C 
ENDBRANCH  26  30
BRANCH  27  32
HETATM   32  O   UNL     1       0.871  11.150 -26.109  1.00  0.00    -0.353 OA
HETATM   33  C   UNL     1      -0.145  11.513 -25.185  1.00  0.00     0.210 C 
ENDBRANCH  27  32
ENDBRANCH  21  24
ENDBRANCH   1  20
TORSDOF 8
ENDMDL
MODEL 8
REMARK VINA RESULT:      -7.8      3.300      7.345
REMARK  8 active torsions:
REMARK  status: ('A' for Active; 'I' for Inactive)
REMARK    1  A    between atoms: O_2  and  C_3 
REMARK    2  A    between atoms: C_4  and  O_5 
REMARK    3  A    between atoms: C_8  and  C_9 
REMARK       I    between atoms: C_9  and  N_10 
REMARK    4  A    between atoms: N_10  and  N_11 
REMARK       I    between atoms: N_11  and  C_12 
REMARK    5  A    between atoms: C_12  and  C_13 
REMARK    6  A    between atoms: C_13  and  S_14 
REMARK    7  A    between atoms: S_14  and  C_15 
REMARK    8  A    between atoms: C_18  and  C_19 
ROOT
HETATM    1  N   UNL     1      -8.329   5.988 -33.809  1.00  0.00    -0.267 N 
HETATM    2  C   UNL     1      -9.392   5.471 -33.094  1.00  0.00     0.245 C 
HETATM    3  O   UNL     1      -9.235   4.792 -32.076  1.00  0.00    -0.271 OA
HETATM    4  H   UNL     1      -8.476   6.829 -34.385  1.00  0.00     0.190 HD
ENDROOT
BRANCH   2   5
HETATM    5  C   UNL     1     -10.757   5.775 -33.679  1.00  0.00     0.187 C 
BRANCH   5   6
HETATM    6  S   UNL     1     -11.052   4.799 -35.180  1.00  0.00    -0.083 SA
BRANCH   6   7
HETATM    7  C   UNL     1     -10.730   3.213 -34.594  1.00  0.00     0.167 A 
HETATM    8  N   UNL     1     -11.578   2.395 -34.026  1.00  0.00    -0.235 NA
HETATM    9  C   UNL     1     -10.826   1.289 -33.704  1.00  0.00     0.149 A 
HETATM   10  C   UNL     1      -9.508   1.432 -34.108  1.00  0.00     0.062 A 
HETATM   11  N   UNL     1      -9.478   2.687 -34.674  1.00  0.00    -0.333 N 
HETATM   12  H   UNL     1      -8.672   3.162 -35.052  1.00  0.00     0.168 HD
BRANCH  10  13
HETATM   13  C   UNL     1      -8.349   0.554 -33.985  1.00  0.00    -0.008 A 
HETATM   14  C   UNL     1      -7.755  -0.025 -35.119  1.00  0.00     0.017 A 
HETATM   15  C   UNL     1      -6.645  -0.864 -34.989  1.00  0.00     0.043 A 
HETATM   16  C   UNL     1      -6.127  -1.127 -33.729  1.00  0.00     0.116 A 
HETATM   17  F   UNL     1      -5.063  -1.931 -33.605  1.00  0.00    -0.206 F 
HETATM   18  C   UNL     1      -6.699  -0.569 -32.592  1.00  0.00     0.043 A 
HETATM   19  C   UNL     1      -7.810   0.269 -32.721  1.00  0.00     0.017 A 
ENDBRANCH  10  13
ENDBRANCH   6   7
ENDBRANCH   5   6
ENDBRANCH   2   5
BRANCH   1  20
HETATM   20  N   UNL     1      -7.051   5.841 -33.249  1.00  0.00    -0.263 N 
HETATM   21  C   UNL     1      -6.282   4.755 -33.617  1.00  0.00     0.270 C 
HETATM   22  O   UNL     1      -6.673   3.902 -34.411  1.00  0.00    -0.266 OA
HETATM   23  H   UNL     1      -6.709   6.646 -32.729  1.00  0.00     0.190 HD
BRANCH  21  24
HETATM   24  C   UNL     1      -4.917   4.652 -33.016  1.00  0.00     0.036 A 
HETATM   25  C   UNL     1      -4.552   3.432 -32.422  1.00  0.00     0.056 A 
HETATM   26  C   UNL     1      -3.300   3.258 -31.812  1.00  0.00     0.102 A 
HETATM   27  C   UNL     1      -2.385   4.324 -31.829  1.00  0.00     0.101 A 
HETATM   28  C   UNL     1      -2.760   5.547 -32.400  1.00  0.00     0.040 A 
HETATM   29  C   UNL     1      -4.015   5.718 -32.988  1.00  0.00     0.020 A 
BRANCH  26  30
HETATM   30  O   UNL     1      -2.928   2.098 -31.186  1.00  0.00    -0.353 OA
HETATM   31  C   UNL     1      -3.370   0.866 -31.742  1.00  0.00     0.210 C 
ENDBRANCH  26  30
BRANCH  27  32
HETATM   32  O   UNL     1      -1.123   4.360 -31.295  1.00  0.00    -0.353 OA
HETATM   33  C   UNL     1      -0.328   5.510 -31.555  1.00  0.00     0.210 C 
ENDBRANCH  27  32
ENDBRANCH  21  24
ENDBRANCH   1  20
TORSDOF 8
ENDMDL
MODEL 9
REMARK VINA RESULT:      -7.6      5.865      9.376
REMARK  8 active torsions:
REMARK  status: ('A' for Active; 'I' for Inactive)
REMARK    1  A    between atoms: O_2  and  C_3 
REMARK    2  A    between atoms: C_4  and  O_5 
REMARK    3  A    between atoms: C_8  and  C_9 
REMARK       I    between atoms: C_9  and  N_10 
REMARK    4  A    between atoms: N_10  and  N_11 
REMARK       I    between atoms: N_11  and  C_12 
REMARK    5  A    between atoms: C_12  and  C_13 
REMARK    6  A    between atoms: C_13  and  S_14 
REMARK    7  A    between atoms: S_14  and  C_15 
REMARK    8  A    between atoms: C_18  and  C_19 
ROOT
HETATM    1  N   UNL     1      -4.521   3.456 -32.318  1.00  0.00    -0.267 N 
HETATM    2  C   UNL     1      -5.385   4.034 -31.408  1.00  0.00     0.245 C 
HETATM    3  O   UNL     1      -6.549   3.651 -31.270  1.00  0.00    -0.271 OA
HETATM    4  H   UNL     1      -3.506   3.513 -32.150  1.00  0.00     0.190 HD
ENDROOT
BRANCH   2   5
HETATM    5  C   UNL     1      -4.799   5.191 -30.623  1.00  0.00     0.187 C 
BRANCH   5   6
HETATM    6  S   UNL     1      -3.776   6.244 -31.689  1.00  0.00    -0.083 SA
BRANCH   6   7
HETATM    7  C   UNL     1      -2.234   6.036 -30.954  1.00  0.00     0.167 A 
HETATM    8  N   UNL     1      -1.334   5.134 -31.249  1.00  0.00    -0.235 NA
HETATM    9  C   UNL     1      -0.314   5.360 -30.356  1.00  0.00     0.149 A 
HETATM   10  C   UNL     1      -0.591   6.433 -29.523  1.00  0.00     0.062 A 
HETATM   11  N   UNL     1      -1.840   6.843 -29.931  1.00  0.00    -0.333 N 
HETATM   12  H   UNL     1      -2.395   7.586 -29.532  1.00  0.00     0.168 HD
BRANCH  10  13
HETATM   13  C   UNL     1       0.161   7.042 -28.431  1.00  0.00    -0.008 A 
HETATM   14  C   UNL     1       0.045   6.562 -27.116  1.00  0.00     0.017 A 
HETATM   15  C   UNL     1       0.769   7.153 -26.077  1.00  0.00     0.043 A 
HETATM   16  C   UNL     1       1.609   8.223 -26.349  1.00  0.00     0.116 A 
HETATM   17  F   UNL     1       2.303   8.789 -25.353  1.00  0.00    -0.206 F 
HETATM   18  C   UNL     1       1.738   8.718 -27.641  1.00  0.00     0.043 A 
HETATM   19  C   UNL     1       1.013   8.129 -28.680  1.00  0.00     0.017 A 
ENDBRANCH  10  13
ENDBRANCH   6   7
ENDBRANCH   5   6
ENDBRANCH   2   5
BRANCH   1  20
HETATM   20  N   UNL     1      -4.970   2.305 -32.983  1.00  0.00    -0.263 N 
HETATM   21  C   UNL     1      -4.398   1.088 -32.671  1.00  0.00     0.270 C 
HETATM   22  O   UNL     1      -3.502   0.969 -31.838  1.00  0.00    -0.266 OA
HETATM   23  H   UNL     1      -5.814   2.425 -33.538  1.00  0.00     0.190 HD
BRANCH  21  24
HETATM   24  C   UNL     1      -4.925  -0.115 -33.385  1.00  0.00     0.036 A 
HETATM   25  C   UNL     1      -4.096  -1.248 -33.461  1.00  0.00     0.056 A 
HETATM   26  C   UNL     1      -4.502  -2.411 -34.134  1.00  0.00     0.102 A 
HETATM   27  C   UNL     1      -5.781  -2.444 -34.716  1.00  0.00     0.101 A 
HETATM   28  C   UNL     1      -6.595  -1.305 -34.660  1.00  0.00     0.040 A 
HETATM   29  C   UNL     1      -6.176  -0.146 -34.004  1.00  0.00     0.020 A 
BRANCH  26  30
HETATM   30  O   UNL     1      -3.705  -3.517 -34.265  1.00  0.00    -0.353 OA
HETATM   31  C   UNL     1      -3.523  -4.350 -33.127  1.00  0.00     0.210 C 
ENDBRANCH  26  30
BRANCH  27  32
HETATM   32  O   UNL     1      -6.364  -3.471 -35.412  1.00  0.00    -0.353 OA
HETATM   33  C   UNL     1      -6.929  -4.539 -34.663  1.00  0.00     0.210 C 
ENDBRANCH  27  32
ENDBRANCH  21  24
ENDBRANCH   1  20
TORSDOF 8
ENDMDL
MODEL 10
REMARK VINA RESULT:      -7.5      3.376      7.568
REMARK  8 active torsions:
REMARK  status: ('A' for Active; 'I' for Inactive)
REMARK    1  A    between atoms: O_2  and  C_3 
REMARK    2  A    between atoms: C_4  and  O_5 
REMARK    3  A    between atoms: C_8  and  C_9 
REMARK       I    between atoms: C_9  and  N_10 
REMARK    4  A    between atoms: N_10  and  N_11 
REMARK       I    between atoms: N_11  and  C_12 
REMARK    5  A    between atoms: C_12  and  C_13 
REMARK    6  A    between atoms: C_13  and  S_14 
REMARK    7  A    between atoms: S_14  and  C_15 
REMARK    8  A    between atoms: C_18  and  C_19 
ROOT
HETATM    1  N   UNL     1      -9.486   1.497 -34.892  1.00  0.00    -0.267 N 
HETATM    2  C   UNL     1     -10.537   1.511 -33.995  1.00  0.00     0.245 C 
HETATM    3  O   UNL     1     -10.767   0.568 -33.234  1.00  0.00    -0.271 OA
HETATM    4  H   UNL     1      -9.092   2.393 -35.214  1.00  0.00     0.190 HD
ENDROOT
BRANCH   2   5
HETATM    5  C   UNL     1     -11.399   2.757 -34.047  1.00  0.00     0.187 C 
BRANCH   5   6
HETATM    6  S   UNL     1     -11.372   3.629 -32.456  1.00  0.00    -0.083 SA
BRANCH   6   7
HETATM    7  C   UNL     1      -9.863   4.449 -32.569  1.00  0.00     0.167 A 
HETATM    8  N   UNL     1      -9.649   5.642 -33.061  1.00  0.00    -0.235 NA
HETATM    9  C   UNL     1      -8.288   5.815 -32.964  1.00  0.00     0.149 A 
HETATM   10  C   UNL     1      -7.674   4.718 -32.381  1.00  0.00     0.062 A 
HETATM   11  N   UNL     1      -8.718   3.851 -32.143  1.00  0.00    -0.333 N 
HETATM   12  H   UNL     1      -8.658   2.921 -31.756  1.00  0.00     0.168 HD
BRANCH  10  13
HETATM   13  C   UNL     1      -6.276   4.427 -32.078  1.00  0.00    -0.008 A 
HETATM   14  C   UNL     1      -5.927   3.408 -31.178  1.00  0.00     0.017 A 
HETATM   15  C   UNL     1      -4.585   3.139 -30.895  1.00  0.00     0.043 A 
HETATM   16  C   UNL     1      -3.591   3.887 -31.509  1.00  0.00     0.116 A 
HETATM   17  F   UNL     1      -2.305   3.629 -31.237  1.00  0.00    -0.206 F 
HETATM   18  C   UNL     1      -3.911   4.904 -32.400  1.00  0.00     0.043 A 
HETATM   19  C   UNL     1      -5.253   5.175 -32.682  1.00  0.00     0.017 A 
ENDBRANCH  10  13
ENDBRANCH   6   7
ENDBRANCH   5   6
ENDBRANCH   2   5
BRANCH   1  20
HETATM   20  N   UNL     1      -8.586   0.425 -34.805  1.00  0.00    -0.263 N 
HETATM   21  C   UNL     1      -7.308   0.664 -34.338  1.00  0.00     0.270 C 
HETATM   22  O   UNL     1      -6.920   1.781 -34.004  1.00  0.00    -0.266 OA
HETATM   23  H   UNL     1      -8.994  -0.497 -34.935  1.00  0.00     0.190 HD
BRANCH  21  24
HETATM   24  C   UNL     1      -6.390  -0.513 -34.237  1.00  0.00     0.036 A 
HETATM   25  C   UNL     1      -5.266  -0.397 -33.401  1.00  0.00     0.056 A 
HETATM   26  C   UNL     1      -4.339  -1.443 -33.267  1.00  0.00     0.102 A 
HETATM   27  C   UNL     1      -4.566  -2.641 -33.966  1.00  0.00     0.101 A 
HETATM   28  C   UNL     1      -5.674  -2.744 -34.817  1.00  0.00     0.040 A 
HETATM   29  C   UNL     1      -6.581  -1.692 -34.959  1.00  0.00     0.020 A 
BRANCH  26  30
HETATM   30  O   UNL     1      -3.212  -1.349 -32.496  1.00  0.00    -0.353 OA
HETATM   31  C   UNL     1      -3.179  -0.358 -31.475  1.00  0.00     0.210 C 
ENDBRANCH  26  30
BRANCH  27  32
HETATM   32  O   UNL     1      -3.792  -3.772 -33.972  1.00  0.00    -0.353 OA
HETATM   33  C   UNL     1      -4.452  -5.023 -34.111  1.00  0.00     0.210 C 
ENDBRANCH  27  32
ENDBRANCH  21  24
ENDBRANCH   1  20
TORSDOF 8
ENDMDL
