MODEL 1
REMARK VINA RESULT:      -8.6      0.000      0.000
REMARK  8 active torsions:
REMARK  status: ('A' for Active; 'I' for Inactive)
REMARK    1  A    between atoms: O_2  and  C_3 
REMARK    2  A    between atoms: C_3  and  C_4 
REMARK    3  A    between atoms: C_5  and  C_6 
REMARK    4  A    between atoms: C_6  and  C_7 
REMARK    5  A    between atoms: C_7  and  N_8 
REMARK    6  A    between atoms: N_13  and  C_14 
REMARK    7  A    between atoms: C_14  and  C_15 
REMARK    8  A    between atoms: C_15  and  N_16 
ROOT
HETATM    1  N   UNL     1      -7.480   0.872 -33.152  1.00  0.00    -0.174 N 
HETATM    2  C   UNL     1      -6.628   1.906 -32.850  1.00  0.00     0.681 C 
HETATM    3  N   UNL     1      -5.375   1.734 -32.407  1.00  0.00    -0.234 N 
HETATM    4  H   UNL     1      -4.794   2.496 -32.089  1.00  0.00     0.174 HD
HETATM    5  H   UNL     1      -5.082   0.817 -32.070  1.00  0.00     0.174 HD
HETATM    6  N   UNL     1      -7.206   3.167 -33.054  1.00  0.00    -0.180 N 
HETATM    7  C   UNL     1      -8.592   2.875 -33.270  1.00  0.00     0.079 A 
HETATM    8  C   UNL     1      -8.750   1.481 -33.352  1.00  0.00     0.079 A 
HETATM    9  C   UNL     1      -9.675   3.726 -33.332  1.00  0.00     0.032 A 
HETATM   10  C   UNL     1     -10.938   3.145 -33.486  1.00  0.00     0.002 A 
HETATM   11  C   UNL     1     -11.093   1.748 -33.577  1.00  0.00     0.002 A 
HETATM   12  C   UNL     1      -9.987   0.896 -33.510  1.00  0.00     0.032 A 
ENDROOT
BRANCH   1  13
HETATM   13  C   UNL     1      -7.225  -0.568 -33.055  1.00  0.00     0.231 C 
BRANCH  13  14
HETATM   14  C   UNL     1      -6.604  -1.035 -34.352  1.00  0.00     0.179 C 
HETATM   15  O   UNL     1      -6.689  -0.385 -35.390  1.00  0.00    -0.290 OA
BRANCH  14  16
HETATM   16  C   UNL     1      -5.910  -2.341 -34.349  1.00  0.00     0.028 A 
HETATM   17  C   UNL     1      -4.667  -2.473 -33.716  1.00  0.00     0.053 A 
HETATM   18  C   UNL     1      -4.045  -3.727 -33.655  1.00  0.00     0.018 A 
HETATM   19  C   UNL     1      -4.662  -4.836 -34.236  1.00  0.00     0.001 A 
HETATM   20  C   UNL     1      -5.893  -4.698 -34.880  1.00  0.00     0.001 A 
HETATM   21  C   UNL     1      -6.523  -3.454 -34.937  1.00  0.00     0.016 A 
BRANCH  17  22
HETATM   22  C   UNL     1      -3.967  -1.276 -33.204  1.00  0.00     0.293 C 
HETATM   23  O   UNL     1      -3.377  -0.496 -33.942  1.00  0.00    -0.259 OA
BRANCH  22  24
HETATM   24  O   UNL     1      -4.134  -1.222 -31.869  1.00  0.00    -0.322 OA
HETATM   25  C   UNL     1      -3.219  -0.402 -31.140  1.00  0.00     0.213 C 
ENDBRANCH  22  24
ENDBRANCH  17  22
ENDBRANCH  14  16
ENDBRANCH  13  14
ENDBRANCH   1  13
BRANCH   6  26
HETATM   26  C   UNL     1      -6.616   4.485 -32.787  1.00  0.00     0.175 C 
BRANCH  26  27
HETATM   27  C   UNL     1      -5.795   5.060 -33.966  1.00  0.00     0.255 C 
BRANCH  27  28
HETATM   28  N   UNL     1      -4.312   4.708 -33.918  1.00  0.00    -0.070 N 
HETATM   29  H   UNL     1      -4.209   3.705 -34.124  1.00  0.00     0.279 HD
HETATM   30  C   UNL     1      -3.479   5.483 -34.926  1.00  0.00     0.235 C 
HETATM   31  C   UNL     1      -2.036   5.000 -34.876  1.00  0.00     0.028 C 
HETATM   32  C   UNL     1      -1.443   5.159 -33.482  1.00  0.00     0.003 C 
HETATM   33  C   UNL     1      -2.311   4.466 -32.439  1.00  0.00     0.028 C 
HETATM   34  C   UNL     1      -3.760   4.926 -32.510  1.00  0.00     0.235 C 
ENDBRANCH  27  28
ENDBRANCH  26  27
ENDBRANCH   6  26
TORSDOF 8
ENDMDL
MODEL 2
REMARK VINA RESULT:      -8.4      2.460      7.548
REMARK  8 active torsions:
REMARK  status: ('A' for Active; 'I' for Inactive)
REMARK    1  A    between atoms: O_2  and  C_3 
REMARK    2  A    between atoms: C_3  and  C_4 
REMARK    3  A    between atoms: C_5  and  C_6 
REMARK    4  A    between atoms: C_6  and  C_7 
REMARK    5  A    between atoms: C_7  and  N_8 
REMARK    6  A    between atoms: N_13  and  C_14 
REMARK    7  A    between atoms: C_14  and  C_15 
REMARK    8  A    between atoms: C_15  and  N_16 
ROOT
HETATM    1  N   UNL     1      -6.245   1.231 -31.744  1.00  0.00    -0.174 N 
HETATM    2  C   UNL     1      -7.610   1.221 -31.585  1.00  0.00     0.681 C 
HETATM    3  N   UNL     1      -8.256   1.929 -30.647  1.00  0.00    -0.234 N 
HETATM    4  H   UNL     1      -9.245   1.835 -30.472  1.00  0.00     0.174 HD
HETATM    5  H   UNL     1      -7.731   2.333 -29.872  1.00  0.00     0.174 HD
HETATM    6  N   UNL     1      -8.261   0.394 -32.511  1.00  0.00    -0.180 N 
HETATM    7  C   UNL     1      -7.194  -0.338 -33.123  1.00  0.00     0.079 A 
HETATM    8  C   UNL     1      -5.971   0.188 -32.673  1.00  0.00     0.079 A 
HETATM    9  C   UNL     1      -7.240  -1.428 -33.966  1.00  0.00     0.032 A 
HETATM   10  C   UNL     1      -6.018  -1.986 -34.358  1.00  0.00     0.002 A 
HETATM   11  C   UNL     1      -4.794  -1.451 -33.912  1.00  0.00     0.002 A 
HETATM   12  C   UNL     1      -4.761  -0.347 -33.056  1.00  0.00     0.032 A 
ENDROOT
BRANCH   1  13
HETATM   13  C   UNL     1      -5.249   1.966 -30.961  1.00  0.00     0.231 C 
BRANCH  13  14
HETATM   14  C   UNL     1      -5.303   3.423 -31.361  1.00  0.00     0.179 C 
HETATM   15  O   UNL     1      -6.175   4.184 -30.948  1.00  0.00    -0.290 OA
BRANCH  14  16
HETATM   16  C   UNL     1      -4.283   3.912 -32.313  1.00  0.00     0.028 A 
HETATM   17  C   UNL     1      -4.660   4.307 -33.603  1.00  0.00     0.053 A 
HETATM   18  C   UNL     1      -3.702   4.834 -34.479  1.00  0.00     0.018 A 
HETATM   19  C   UNL     1      -2.375   4.951 -34.066  1.00  0.00     0.001 A 
HETATM   20  C   UNL     1      -1.998   4.541 -32.786  1.00  0.00     0.001 A 
HETATM   21  C   UNL     1      -2.949   4.024 -31.904  1.00  0.00     0.016 A 
BRANCH  17  22
HETATM   22  C   UNL     1      -6.042   4.075 -34.073  1.00  0.00     0.293 C 
HETATM   23  O   UNL     1      -6.429   2.977 -34.456  1.00  0.00    -0.259 OA
BRANCH  22  24
HETATM   24  O   UNL     1      -6.729   5.229 -33.968  1.00  0.00    -0.322 OA
HETATM   25  C   UNL     1      -8.137   5.121 -33.753  1.00  0.00     0.213 C 
ENDBRANCH  22  24
ENDBRANCH  17  22
ENDBRANCH  14  16
ENDBRANCH  13  14
ENDBRANCH   1  13
BRANCH   6  26
HETATM   26  C   UNL     1      -9.697   0.100 -32.605  1.00  0.00     0.175 C 
BRANCH  26  27
HETATM   27  C   UNL     1     -10.499   1.126 -33.441  1.00  0.00     0.255 C 
BRANCH  27  28
HETATM   28  N   UNL     1     -11.986   1.172 -33.107  1.00  0.00    -0.070 N 
HETATM   29  H   UNL     1     -12.110   0.866 -32.133  1.00  0.00     0.279 HD
HETATM   30  C   UNL     1     -12.590   2.560 -33.246  1.00  0.00     0.235 C 
HETATM   31  C   UNL     1     -14.045   2.531 -32.802  1.00  0.00     0.028 C 
HETATM   32  C   UNL     1     -14.856   1.530 -33.614  1.00  0.00     0.003 C 
HETATM   33  C   UNL     1     -14.219   0.147 -33.565  1.00  0.00     0.028 C 
HETATM   34  C   UNL     1     -12.756   0.181 -33.979  1.00  0.00     0.235 C 
ENDBRANCH  27  28
ENDBRANCH  26  27
ENDBRANCH   6  26
TORSDOF 8
ENDMDL
MODEL 3
REMARK VINA RESULT:      -8.4      2.050      5.818
REMARK  8 active torsions:
REMARK  status: ('A' for Active; 'I' for Inactive)
REMARK    1  A    between atoms: O_2  and  C_3 
REMARK    2  A    between atoms: C_3  and  C_4 
REMARK    3  A    between atoms: C_5  and  C_6 
REMARK    4  A    between atoms: C_6  and  C_7 
REMARK    5  A    between atoms: C_7  and  N_8 
REMARK    6  A    between atoms: N_13  and  C_14 
REMARK    7  A    between atoms: C_14  and  C_15 
REMARK    8  A    between atoms: C_15  and  N_16 
ROOT
HETATM    1  N   UNL     1      -7.338   1.849 -34.125  1.00  0.00    -0.174 N 
HETATM    2  C   UNL     1      -8.695   1.830 -34.338  1.00  0.00     0.681 C 
HETATM    3  N   UNL     1      -9.343   0.812 -34.921  1.00  0.00    -0.234 N 
HETATM    4  H   UNL     1     -10.321   0.852 -35.168  1.00  0.00     0.174 HD
HETATM    5  H   UNL     1      -8.814   0.103 -35.428  1.00  0.00     0.174 HD
HETATM    6  N   UNL     1      -9.336   2.989 -33.879  1.00  0.00    -0.180 N 
HETATM    7  C   UNL     1      -8.254   3.880 -33.581  1.00  0.00     0.079 A 
HETATM    8  C   UNL     1      -7.044   3.177 -33.708  1.00  0.00     0.079 A 
HETATM    9  C   UNL     1      -8.276   5.225 -33.278  1.00  0.00     0.032 A 
HETATM   10  C   UNL     1      -7.043   5.861 -33.098  1.00  0.00     0.002 A 
HETATM   11  C   UNL     1      -5.831   5.151 -33.218  1.00  0.00     0.002 A 
HETATM   12  C   UNL     1      -5.823   3.789 -33.528  1.00  0.00     0.032 A 
ENDROOT
BRANCH   1  13
HETATM   13  C   UNL     1      -6.353   0.822 -34.477  1.00  0.00     0.231 C 
BRANCH  13  14
HETATM   14  C   UNL     1      -6.459  -0.308 -33.478  1.00  0.00     0.179 C 
HETATM   15  O   UNL     1      -6.884  -0.137 -32.338  1.00  0.00    -0.290 OA
BRANCH  14  16
HETATM   16  C   UNL     1      -5.990  -1.644 -33.902  1.00  0.00     0.028 A 
HETATM   17  C   UNL     1      -4.687  -2.059 -33.600  1.00  0.00     0.053 A 
HETATM   18  C   UNL     1      -4.268  -3.351 -33.942  1.00  0.00     0.018 A 
HETATM   19  C   UNL     1      -5.149  -4.215 -34.593  1.00  0.00     0.001 A 
HETATM   20  C   UNL     1      -6.443  -3.795 -34.908  1.00  0.00     0.001 A 
HETATM   21  C   UNL     1      -6.870  -2.512 -34.562  1.00  0.00     0.016 A 
BRANCH  17  22
HETATM   22  C   UNL     1      -3.724  -1.103 -33.014  1.00  0.00     0.293 C 
HETATM   23  O   UNL     1      -3.065  -0.331 -33.701  1.00  0.00    -0.259 OA
BRANCH  22  24
HETATM   24  O   UNL     1      -3.752  -1.234 -31.674  1.00  0.00    -0.322 OA
HETATM   25  C   UNL     1      -3.617  -0.037 -30.907  1.00  0.00     0.213 C 
ENDBRANCH  22  24
ENDBRANCH  17  22
ENDBRANCH  14  16
ENDBRANCH  13  14
ENDBRANCH   1  13
BRANCH   6  26
HETATM   26  C   UNL     1     -10.759   3.338 -33.987  1.00  0.00     0.175 C 
BRANCH  26  27
HETATM   27  C   UNL     1     -11.554   3.157 -32.672  1.00  0.00     0.255 C 
BRANCH  27  28
HETATM   28  N   UNL     1     -12.721   2.183 -32.783  1.00  0.00    -0.070 N 
HETATM   29  H   UNL     1     -12.703   1.558 -31.966  1.00  0.00     0.279 HD
HETATM   30  C   UNL     1     -14.077   2.871 -32.819  1.00  0.00     0.235 C 
HETATM   31  C   UNL     1     -15.182   1.825 -32.832  1.00  0.00     0.028 C 
HETATM   32  C   UNL     1     -15.047   0.886 -34.024  1.00  0.00     0.003 C 
HETATM   33  C   UNL     1     -13.662   0.251 -34.061  1.00  0.00     0.028 C 
HETATM   34  C   UNL     1     -12.557   1.296 -34.017  1.00  0.00     0.235 C 
ENDBRANCH  27  28
ENDBRANCH  26  27
ENDBRANCH   6  26
TORSDOF 8
ENDMDL
MODEL 4
REMARK VINA RESULT:      -8.1      2.685      7.447
REMARK  8 active torsions:
REMARK  status: ('A' for Active; 'I' for Inactive)
REMARK    1  A    between atoms: O_2  and  C_3 
REMARK    2  A    between atoms: C_3  and  C_4 
REMARK    3  A    between atoms: C_5  and  C_6 
REMARK    4  A    between atoms: C_6  and  C_7 
REMARK    5  A    between atoms: C_7  and  N_8 
REMARK    6  A    between atoms: N_13  and  C_14 
REMARK    7  A    between atoms: C_14  and  C_15 
REMARK    8  A    between atoms: C_15  and  N_16 
ROOT
HETATM    1  N   UNL     1      -5.231   2.246 -31.730  1.00  0.00    -0.174 N 
HETATM    2  C   UNL     1      -6.596   2.392 -31.784  1.00  0.00     0.681 C 
HETATM    3  N   UNL     1      -7.278   3.293 -31.062  1.00  0.00    -0.234 N 
HETATM    4  H   UNL     1      -8.286   3.322 -31.030  1.00  0.00     0.174 HD
HETATM    5  H   UNL     1      -6.823   3.757 -30.277  1.00  0.00     0.174 HD
HETATM    6  N   UNL     1      -7.206   1.501 -32.679  1.00  0.00    -0.180 N 
HETATM    7  C   UNL     1      -6.157   0.585 -33.014  1.00  0.00     0.079 A 
HETATM    8  C   UNL     1      -4.955   1.053 -32.456  1.00  0.00     0.079 A 
HETATM    9  C   UNL     1      -6.213  -0.610 -33.698  1.00  0.00     0.032 A 
HETATM   10  C   UNL     1      -5.024  -1.337 -33.818  1.00  0.00     0.002 A 
HETATM   11  C   UNL     1      -3.819  -0.860 -33.264  1.00  0.00     0.002 A 
HETATM   12  C   UNL     1      -3.775   0.353 -32.572  1.00  0.00     0.032 A 
ENDROOT
BRANCH   1  13
HETATM   13  C   UNL     1      -4.274   2.993 -30.910  1.00  0.00     0.231 C 
BRANCH  13  14
HETATM   14  C   UNL     1      -4.288   4.439 -31.351  1.00  0.00     0.179 C 
HETATM   15  O   UNL     1      -4.893   5.308 -30.729  1.00  0.00    -0.290 OA
BRANCH  14  16
HETATM   16  C   UNL     1      -3.572   4.782 -32.598  1.00  0.00     0.028 A 
HETATM   17  C   UNL     1      -2.195   5.041 -32.569  1.00  0.00     0.053 A 
HETATM   18  C   UNL     1      -1.508   5.298 -33.761  1.00  0.00     0.018 A 
HETATM   19  C   UNL     1      -2.200   5.306 -34.973  1.00  0.00     0.001 A 
HETATM   20  C   UNL     1      -3.574   5.063 -34.999  1.00  0.00     0.001 A 
HETATM   21  C   UNL     1      -4.265   4.798 -33.815  1.00  0.00     0.016 A 
BRANCH  17  22
HETATM   22  C   UNL     1      -1.491   5.144 -31.273  1.00  0.00     0.293 C 
HETATM   23  O   UNL     1      -0.892   4.198 -30.775  1.00  0.00    -0.259 OA
BRANCH  22  24
HETATM   24  O   UNL     1      -1.616   6.405 -30.817  1.00  0.00    -0.322 OA
HETATM   25  C   UNL     1      -0.408   7.096 -30.497  1.00  0.00     0.213 C 
ENDBRANCH  22  24
ENDBRANCH  17  22
ENDBRANCH  14  16
ENDBRANCH  13  14
ENDBRANCH   1  13
BRANCH   6  26
HETATM   26  C   UNL     1      -8.639   1.336 -32.952  1.00  0.00     0.175 C 
BRANCH  26  27
HETATM   27  C   UNL     1      -9.097   1.935 -34.303  1.00  0.00     0.255 C 
BRANCH  27  28
HETATM   28  N   UNL     1     -10.567   1.688 -34.624  1.00  0.00    -0.070 N 
HETATM   29  H   UNL     1     -10.623   1.114 -35.476  1.00  0.00     0.279 HD
HETATM   30  C   UNL     1     -11.309   0.958 -33.515  1.00  0.00     0.235 C 
HETATM   31  C   UNL     1     -12.736   0.669 -33.959  1.00  0.00     0.028 C 
HETATM   32  C   UNL     1     -13.477   1.949 -34.321  1.00  0.00     0.003 C 
HETATM   33  C   UNL     1     -12.707   2.745 -35.368  1.00  0.00     0.028 C 
HETATM   34  C   UNL     1     -11.271   3.008 -34.938  1.00  0.00     0.235 C 
ENDBRANCH  27  28
ENDBRANCH  26  27
ENDBRANCH   6  26
TORSDOF 8
ENDMDL
MODEL 5
REMARK VINA RESULT:      -8.1      2.536      6.133
REMARK  8 active torsions:
REMARK  status: ('A' for Active; 'I' for Inactive)
REMARK    1  A    between atoms: O_2  and  C_3 
REMARK    2  A    between atoms: C_3  and  C_4 
REMARK    3  A    between atoms: C_5  and  C_6 
REMARK    4  A    between atoms: C_6  and  C_7 
REMARK    5  A    between atoms: C_7  and  N_8 
REMARK    6  A    between atoms: N_13  and  C_14 
REMARK    7  A    between atoms: C_14  and  C_15 
REMARK    8  A    between atoms: C_15  and  N_16 
ROOT
HETATM    1  N   UNL     1      -7.525   0.577 -33.857  1.00  0.00    -0.174 N 
HETATM    2  C   UNL     1      -6.678   1.568 -33.426  1.00  0.00     0.681 C 
HETATM    3  N   UNL     1      -7.015   2.865 -33.372  1.00  0.00    -0.234 N 
HETATM    4  H   UNL     1      -6.354   3.596 -33.154  1.00  0.00     0.174 HD
HETATM    5  H   UNL     1      -7.849   3.188 -33.861  1.00  0.00     0.174 HD
HETATM    6  N   UNL     1      -5.419   1.083 -33.044  1.00  0.00    -0.180 N 
HETATM    7  C   UNL     1      -5.424  -0.274 -33.503  1.00  0.00     0.079 A 
HETATM    8  C   UNL     1      -6.711  -0.585 -33.975  1.00  0.00     0.079 A 
HETATM    9  C   UNL     1      -4.391  -1.184 -33.581  1.00  0.00     0.032 A 
HETATM   10  C   UNL     1      -4.679  -2.432 -34.145  1.00  0.00     0.002 A 
HETATM   11  C   UNL     1      -5.972  -2.743 -34.608  1.00  0.00     0.002 A 
HETATM   12  C   UNL     1      -7.010  -1.811 -34.525  1.00  0.00     0.032 A 
ENDROOT
BRANCH   1  13
HETATM   13  C   UNL     1      -8.904   0.710 -34.335  1.00  0.00     0.231 C 
BRANCH  13  14
HETATM   14  C   UNL     1      -9.835   0.628 -33.147  1.00  0.00     0.179 C 
HETATM   15  O   UNL     1      -9.469   0.199 -32.056  1.00  0.00    -0.290 OA
BRANCH  14  16
HETATM   16  C   UNL     1     -11.238   1.050 -33.345  1.00  0.00     0.028 A 
HETATM   17  C   UNL     1     -11.584   2.404 -33.245  1.00  0.00     0.053 A 
HETATM   18  C   UNL     1     -12.901   2.809 -33.501  1.00  0.00     0.018 A 
HETATM   19  C   UNL     1     -13.864   1.859 -33.843  1.00  0.00     0.001 A 
HETATM   20  C   UNL     1     -13.521   0.509 -33.926  1.00  0.00     0.001 A 
HETATM   21  C   UNL     1     -12.209   0.099 -33.681  1.00  0.00     0.016 A 
BRANCH  17  22
HETATM   22  C   UNL     1     -10.588   3.388 -32.772  1.00  0.00     0.293 C 
HETATM   23  O   UNL     1      -9.818   3.961 -33.534  1.00  0.00    -0.259 OA
BRANCH  22  24
HETATM   24  O   UNL     1     -10.723   3.526 -31.438  1.00  0.00    -0.322 OA
HETATM   25  C   UNL     1      -9.527   3.449 -30.660  1.00  0.00     0.213 C 
ENDBRANCH  22  24
ENDBRANCH  17  22
ENDBRANCH  14  16
ENDBRANCH  13  14
ENDBRANCH   1  13
BRANCH   6  26
HETATM   26  C   UNL     1      -4.255   1.853 -32.588  1.00  0.00     0.175 C 
BRANCH  26  27
HETATM   27  C   UNL     1      -4.112   1.929 -31.049  1.00  0.00     0.255 C 
BRANCH  27  28
HETATM   28  N   UNL     1      -4.401   3.309 -30.468  1.00  0.00    -0.070 N 
HETATM   29  H   UNL     1      -3.790   3.453 -29.652  1.00  0.00     0.279 HD
HETATM   30  C   UNL     1      -4.146   4.440 -31.451  1.00  0.00     0.235 C 
HETATM   31  C   UNL     1      -4.366   5.778 -30.760  1.00  0.00     0.028 C 
HETATM   32  C   UNL     1      -5.776   5.890 -30.196  1.00  0.00     0.003 C 
HETATM   33  C   UNL     1      -6.088   4.716 -29.276  1.00  0.00     0.028 C 
HETATM   34  C   UNL     1      -5.839   3.378 -29.957  1.00  0.00     0.235 C 
ENDBRANCH  27  28
ENDBRANCH  26  27
ENDBRANCH   6  26
TORSDOF 8
ENDMDL
MODEL 6
REMARK VINA RESULT:      -7.8      1.777      2.327
REMARK  8 active torsions:
REMARK  status: ('A' for Active; 'I' for Inactive)
REMARK    1  A    between atoms: O_2  and  C_3 
REMARK    2  A    between atoms: C_3  and  C_4 
REMARK    3  A    between atoms: C_5  and  C_6 
REMARK    4  A    between atoms: C_6  and  C_7 
REMARK    5  A    between atoms: C_7  and  N_8 
REMARK    6  A    between atoms: N_13  and  C_14 
REMARK    7  A    between atoms: C_14  and  C_15 
REMARK    8  A    between atoms: C_15  and  N_16 
ROOT
HETATM    1  N   UNL     1      -9.188   0.982 -32.617  1.00  0.00    -0.174 N 
HETATM    2  C   UNL     1      -8.737   1.792 -31.602  1.00  0.00     0.681 C 
HETATM    3  N   UNL     1      -7.765   1.444 -30.748  1.00  0.00    -0.234 N 
HETATM    4  H   UNL     1      -7.514   2.001 -29.945  1.00  0.00     0.174 HD
HETATM    5  H   UNL     1      -7.474   0.469 -30.687  1.00  0.00     0.174 HD
HETATM    6  N   UNL     1      -9.400   3.026 -31.554  1.00  0.00    -0.180 N 
HETATM    7  C   UNL     1     -10.499   2.858 -32.457  1.00  0.00     0.079 A 
HETATM    8  C   UNL     1     -10.354   1.626 -33.117  1.00  0.00     0.079 A 
HETATM    9  C   UNL     1     -11.597   3.663 -32.671  1.00  0.00     0.032 A 
HETATM   10  C   UNL     1     -12.559   3.206 -33.578  1.00  0.00     0.002 A 
HETATM   11  C   UNL     1     -12.407   1.975 -34.246  1.00  0.00     0.002 A 
HETATM   12  C   UNL     1     -11.290   1.167 -34.018  1.00  0.00     0.032 A 
ENDROOT
BRANCH   1  13
HETATM   13  C   UNL     1      -8.737  -0.368 -32.964  1.00  0.00     0.231 C 
BRANCH  13  14
HETATM   14  C   UNL     1      -7.786  -0.271 -34.135  1.00  0.00     0.179 C 
HETATM   15  O   UNL     1      -7.922   0.567 -35.023  1.00  0.00    -0.290 OA
BRANCH  14  16
HETATM   16  C   UNL     1      -6.686  -1.256 -34.208  1.00  0.00     0.028 A 
HETATM   17  C   UNL     1      -5.501  -1.040 -33.492  1.00  0.00     0.053 A 
HETATM   18  C   UNL     1      -4.489  -2.008 -33.508  1.00  0.00     0.018 A 
HETATM   19  C   UNL     1      -4.661  -3.178 -34.248  1.00  0.00     0.001 A 
HETATM   20  C   UNL     1      -5.835  -3.385 -34.974  1.00  0.00     0.001 A 
HETATM   21  C   UNL     1      -6.852  -2.429 -34.955  1.00  0.00     0.016 A 
BRANCH  17  22
HETATM   22  C   UNL     1      -5.279   0.250 -32.804  1.00  0.00     0.293 C 
HETATM   23  O   UNL     1      -5.128   1.302 -33.415  1.00  0.00    -0.259 OA
BRANCH  22  24
HETATM   24  O   UNL     1      -5.307   0.036 -31.475  1.00  0.00    -0.322 OA
HETATM   25  C   UNL     1      -4.115   0.339 -30.749  1.00  0.00     0.213 C 
ENDBRANCH  22  24
ENDBRANCH  17  22
ENDBRANCH  14  16
ENDBRANCH  13  14
ENDBRANCH   1  13
BRANCH   6  26
HETATM   26  C   UNL     1      -9.221   4.109 -30.578  1.00  0.00     0.175 C 
BRANCH  26  27
HETATM   27  C   UNL     1      -8.328   5.269 -31.080  1.00  0.00     0.255 C 
BRANCH  27  28
HETATM   28  N   UNL     1      -7.091   4.812 -31.845  1.00  0.00    -0.070 N 
HETATM   29  H   UNL     1      -7.221   3.828 -32.116  1.00  0.00     0.279 HD
HETATM   30  C   UNL     1      -6.836   5.618 -33.109  1.00  0.00     0.235 C 
HETATM   31  C   UNL     1      -5.646   5.034 -33.856  1.00  0.00     0.028 C 
HETATM   32  C   UNL     1      -4.394   5.022 -32.989  1.00  0.00     0.003 C 
HETATM   33  C   UNL     1      -4.651   4.296 -31.674  1.00  0.00     0.028 C 
HETATM   34  C   UNL     1      -5.860   4.860 -30.941  1.00  0.00     0.235 C 
ENDBRANCH  27  28
ENDBRANCH  26  27
ENDBRANCH   6  26
TORSDOF 8
ENDMDL
MODEL 7
REMARK VINA RESULT:      -7.7      2.334      6.280
REMARK  8 active torsions:
REMARK  status: ('A' for Active; 'I' for Inactive)
REMARK    1  A    between atoms: O_2  and  C_3 
REMARK    2  A    between atoms: C_3  and  C_4 
REMARK    3  A    between atoms: C_5  and  C_6 
REMARK    4  A    between atoms: C_6  and  C_7 
REMARK    5  A    between atoms: C_7  and  N_8 
REMARK    6  A    between atoms: N_13  and  C_14 
REMARK    7  A    between atoms: C_14  and  C_15 
REMARK    8  A    between atoms: C_15  and  N_16 
ROOT
HETATM    1  N   UNL     1      -7.027   0.747 -33.757  1.00  0.00    -0.174 N 
HETATM    2  C   UNL     1      -6.045   1.570 -33.261  1.00  0.00     0.681 C 
HETATM    3  N   UNL     1      -6.179   2.898 -33.136  1.00  0.00    -0.234 N 
HETATM    4  H   UNL     1      -5.418   3.504 -32.869  1.00  0.00     0.174 HD
HETATM    5  H   UNL     1      -6.943   3.374 -33.614  1.00  0.00     0.174 HD
HETATM    6  N   UNL     1      -4.885   0.874 -32.893  1.00  0.00    -0.180 N 
HETATM    7  C   UNL     1      -5.090  -0.438 -33.430  1.00  0.00     0.079 A 
HETATM    8  C   UNL     1      -6.400  -0.518 -33.933  1.00  0.00     0.079 A 
HETATM    9  C   UNL     1      -4.209  -1.491 -33.549  1.00  0.00     0.032 A 
HETATM   10  C   UNL     1      -4.675  -2.647 -34.186  1.00  0.00     0.002 A 
HETATM   11  C   UNL     1      -5.991  -2.727 -34.681  1.00  0.00     0.002 A 
HETATM   12  C   UNL     1      -6.874  -1.651 -34.556  1.00  0.00     0.032 A 
ENDROOT
BRANCH   1  13
HETATM   13  C   UNL     1      -8.359   1.119 -34.243  1.00  0.00     0.231 C 
BRANCH  13  14
HETATM   14  C   UNL     1      -9.361   0.866 -33.139  1.00  0.00     0.179 C 
HETATM   15  O   UNL     1      -9.763  -0.262 -32.866  1.00  0.00    -0.290 OA
BRANCH  14  16
HETATM   16  C   UNL     1      -9.886   2.039 -32.407  1.00  0.00     0.028 A 
HETATM   17  C   UNL     1     -11.069   2.658 -32.830  1.00  0.00     0.053 A 
HETATM   18  C   UNL     1     -11.600   3.725 -32.095  1.00  0.00     0.018 A 
HETATM   19  C   UNL     1     -10.942   4.173 -30.949  1.00  0.00     0.001 A 
HETATM   20  C   UNL     1      -9.754   3.565 -30.538  1.00  0.00     0.001 A 
HETATM   21  C   UNL     1      -9.223   2.496 -31.261  1.00  0.00     0.016 A 
BRANCH  17  22
HETATM   22  C   UNL     1     -11.699   2.254 -34.105  1.00  0.00     0.293 C 
HETATM   23  O   UNL     1     -12.482   1.314 -34.181  1.00  0.00    -0.259 OA
BRANCH  22  24
HETATM   24  O   UNL     1     -11.282   3.093 -35.073  1.00  0.00    -0.322 OA
HETATM   25  C   UNL     1     -12.296   3.739 -35.844  1.00  0.00     0.213 C 
ENDBRANCH  22  24
ENDBRANCH  17  22
ENDBRANCH  14  16
ENDBRANCH  13  14
ENDBRANCH   1  13
BRANCH   6  26
HETATM   26  C   UNL     1      -3.625   1.428 -32.381  1.00  0.00     0.175 C 
BRANCH  26  27
HETATM   27  C   UNL     1      -3.795   2.349 -31.150  1.00  0.00     0.255 C 
BRANCH  27  28
HETATM   28  N   UNL     1      -3.099   3.699 -31.285  1.00  0.00    -0.070 N 
HETATM   29  H   UNL     1      -2.339   3.745 -30.593  1.00  0.00     0.279 HD
HETATM   30  C   UNL     1      -2.495   3.927 -32.662  1.00  0.00     0.235 C 
HETATM   31  C   UNL     1      -1.742   5.250 -32.677  1.00  0.00     0.028 C 
HETATM   32  C   UNL     1      -2.652   6.415 -32.312  1.00  0.00     0.003 C 
HETATM   33  C   UNL     1      -3.340   6.168 -30.975  1.00  0.00     0.028 C 
HETATM   34  C   UNL     1      -4.068   4.832 -30.949  1.00  0.00     0.235 C 
ENDBRANCH  27  28
ENDBRANCH  26  27
ENDBRANCH   6  26
TORSDOF 8
ENDMDL
MODEL 8
REMARK VINA RESULT:      -7.7      2.772      7.545
REMARK  8 active torsions:
REMARK  status: ('A' for Active; 'I' for Inactive)
REMARK    1  A    between atoms: O_2  and  C_3 
REMARK    2  A    between atoms: C_3  and  C_4 
REMARK    3  A    between atoms: C_5  and  C_6 
REMARK    4  A    between atoms: C_6  and  C_7 
REMARK    5  A    between atoms: C_7  and  N_8 
REMARK    6  A    between atoms: N_13  and  C_14 
REMARK    7  A    between atoms: C_14  and  C_15 
REMARK    8  A    between atoms: C_15  and  N_16 
ROOT
HETATM    1  N   UNL     1      -7.921   2.036 -33.920  1.00  0.00    -0.174 N 
HETATM    2  C   UNL     1      -7.448   0.849 -33.415  1.00  0.00     0.681 C 
HETATM    3  N   UNL     1      -8.203  -0.248 -33.259  1.00  0.00    -0.234 N 
HETATM    4  H   UNL     1      -7.874  -1.079 -32.791  1.00  0.00     0.174 HD
HETATM    5  H   UNL     1      -9.218  -0.170 -33.309  1.00  0.00     0.174 HD
HETATM    6  N   UNL     1      -6.088   0.902 -33.079  1.00  0.00    -0.180 N 
HETATM    7  C   UNL     1      -5.770   2.296 -33.165  1.00  0.00     0.079 A 
HETATM    8  C   UNL     1      -6.878   2.978 -33.698  1.00  0.00     0.079 A 
HETATM    9  C   UNL     1      -4.638   2.970 -32.761  1.00  0.00     0.032 A 
HETATM   10  C   UNL     1      -4.634   4.362 -32.908  1.00  0.00     0.002 A 
HETATM   11  C   UNL     1      -5.742   5.041 -33.451  1.00  0.00     0.002 A 
HETATM   12  C   UNL     1      -6.885   4.346 -33.855  1.00  0.00     0.032 A 
ENDROOT
BRANCH   1  13
HETATM   13  C   UNL     1      -9.280   2.351 -34.367  1.00  0.00     0.231 C 
BRANCH  13  14
HETATM   14  C   UNL     1     -10.223   2.177 -33.197  1.00  0.00     0.179 C 
HETATM   15  O   UNL     1      -9.898   2.460 -32.047  1.00  0.00    -0.290 OA
BRANCH  14  16
HETATM   16  C   UNL     1     -11.560   1.609 -33.472  1.00  0.00     0.028 A 
HETATM   17  C   UNL     1     -12.610   2.447 -33.871  1.00  0.00     0.053 A 
HETATM   18  C   UNL     1     -13.856   1.897 -34.198  1.00  0.00     0.018 A 
HETATM   19  C   UNL     1     -14.049   0.518 -34.112  1.00  0.00     0.001 A 
HETATM   20  C   UNL     1     -13.007  -0.314 -33.699  1.00  0.00     0.001 A 
HETATM   21  C   UNL     1     -11.759   0.226 -33.381  1.00  0.00     0.016 A 
BRANCH  17  22
HETATM   22  C   UNL     1     -12.433   3.914 -33.849  1.00  0.00     0.293 C 
HETATM   23  O   UNL     1     -12.537   4.573 -32.821  1.00  0.00    -0.259 OA
BRANCH  22  24
HETATM   24  O   UNL     1     -12.128   4.327 -35.095  1.00  0.00    -0.322 OA
HETATM   25  C   UNL     1     -12.947   5.357 -35.649  1.00  0.00     0.213 C 
ENDBRANCH  22  24
ENDBRANCH  17  22
ENDBRANCH  14  16
ENDBRANCH  13  14
ENDBRANCH   1  13
BRANCH   6  26
HETATM   26  C   UNL     1      -5.267  -0.152 -32.468  1.00  0.00     0.175 C 
BRANCH  26  27
HETATM   27  C   UNL     1      -4.498  -1.025 -33.488  1.00  0.00     0.255 C 
BRANCH  27  28
HETATM   28  N   UNL     1      -5.119  -2.398 -33.719  1.00  0.00    -0.070 N 
HETATM   29  H   UNL     1      -5.563  -2.707 -32.844  1.00  0.00     0.279 HD
HETATM   30  C   UNL     1      -6.177  -2.402 -34.811  1.00  0.00     0.235 C 
HETATM   31  C   UNL     1      -6.807  -3.784 -34.906  1.00  0.00     0.028 C 
HETATM   32  C   UNL     1      -5.763  -4.855 -35.194  1.00  0.00     0.003 C 
HETATM   33  C   UNL     1      -4.642  -4.812 -34.162  1.00  0.00     0.028 C 
HETATM   34  C   UNL     1      -4.032  -3.423 -34.045  1.00  0.00     0.235 C 
ENDBRANCH  27  28
ENDBRANCH  26  27
ENDBRANCH   6  26
TORSDOF 8
ENDMDL
MODEL 9
REMARK VINA RESULT:      -7.7      2.877      3.205
REMARK  8 active torsions:
REMARK  status: ('A' for Active; 'I' for Inactive)
REMARK    1  A    between atoms: O_2  and  C_3 
REMARK    2  A    between atoms: C_3  and  C_4 
REMARK    3  A    between atoms: C_5  and  C_6 
REMARK    4  A    between atoms: C_6  and  C_7 
REMARK    5  A    between atoms: C_7  and  N_8 
REMARK    6  A    between atoms: N_13  and  C_14 
REMARK    7  A    between atoms: C_14  and  C_15 
REMARK    8  A    between atoms: C_15  and  N_16 
ROOT
HETATM    1  N   UNL     1      -7.936   1.175 -31.681  1.00  0.00    -0.174 N 
HETATM    2  C   UNL     1      -7.804   2.195 -30.770  1.00  0.00     0.681 C 
HETATM    3  N   UNL     1      -6.890   2.204 -29.789  1.00  0.00    -0.234 N 
HETATM    4  H   UNL     1      -6.869   2.905 -29.064  1.00  0.00     0.174 HD
HETATM    5  H   UNL     1      -6.401   1.342 -29.550  1.00  0.00     0.174 HD
HETATM    6  N   UNL     1      -8.723   3.233 -30.975  1.00  0.00    -0.180 N 
HETATM    7  C   UNL     1      -9.639   2.692 -31.935  1.00  0.00     0.079 A 
HETATM    8  C   UNL     1      -9.146   1.453 -32.378  1.00  0.00     0.079 A 
HETATM    9  C   UNL     1     -10.853   3.180 -32.370  1.00  0.00     0.032 A 
HETATM   10  C   UNL     1     -11.571   2.392 -33.276  1.00  0.00     0.002 A 
HETATM   11  C   UNL     1     -11.070   1.154 -33.725  1.00  0.00     0.002 A 
HETATM   12  C   UNL     1      -9.839   0.670 -33.274  1.00  0.00     0.032 A 
ENDROOT
BRANCH   1  13
HETATM   13  C   UNL     1      -7.160  -0.065 -31.770  1.00  0.00     0.231 C 
BRANCH  13  14
HETATM   14  C   UNL     1      -6.370  -0.045 -33.059  1.00  0.00     0.179 C 
HETATM   15  O   UNL     1      -6.054   1.002 -33.617  1.00  0.00    -0.290 OA
BRANCH  14  16
HETATM   16  C   UNL     1      -6.015  -1.346 -33.665  1.00  0.00     0.028 A 
HETATM   17  C   UNL     1      -4.708  -1.840 -33.551  1.00  0.00     0.053 A 
HETATM   18  C   UNL     1      -4.392  -3.103 -34.065  1.00  0.00     0.018 A 
HETATM   19  C   UNL     1      -5.378  -3.860 -34.700  1.00  0.00     0.001 A 
HETATM   20  C   UNL     1      -6.675  -3.360 -34.827  1.00  0.00     0.001 A 
HETATM   21  C   UNL     1      -7.000  -2.105 -34.308  1.00  0.00     0.016 A 
BRANCH  17  22
HETATM   22  C   UNL     1      -3.644  -0.988 -32.980  1.00  0.00     0.293 C 
HETATM   23  O   UNL     1      -2.949  -0.253 -33.673  1.00  0.00    -0.259 OA
BRANCH  22  24
HETATM   24  O   UNL     1      -3.629  -1.159 -31.644  1.00  0.00    -0.322 OA
HETATM   25  C   UNL     1      -3.498   0.019 -30.846  1.00  0.00     0.213 C 
ENDBRANCH  22  24
ENDBRANCH  17  22
ENDBRANCH  14  16
ENDBRANCH  13  14
ENDBRANCH   1  13
BRANCH   6  26
HETATM   26  C   UNL     1      -8.908   4.448 -30.170  1.00  0.00     0.175 C 
BRANCH  26  27
HETATM   27  C   UNL     1      -8.123   5.676 -30.691  1.00  0.00     0.255 C 
BRANCH  27  28
HETATM   28  N   UNL     1      -6.903   6.032 -29.849  1.00  0.00    -0.070 N 
HETATM   29  H   UNL     1      -6.084   5.548 -30.242  1.00  0.00     0.279 HD
HETATM   30  C   UNL     1      -6.603   7.523 -29.829  1.00  0.00     0.235 C 
HETATM   31  C   UNL     1      -5.319   7.775 -29.051  1.00  0.00     0.028 C 
HETATM   32  C   UNL     1      -5.419   7.248 -27.625  1.00  0.00     0.003 C 
HETATM   33  C   UNL     1      -5.808   5.775 -27.617  1.00  0.00     0.028 C 
HETATM   34  C   UNL     1      -7.074   5.517 -28.421  1.00  0.00     0.235 C 
ENDBRANCH  27  28
ENDBRANCH  26  27
ENDBRANCH   6  26
TORSDOF 8
ENDMDL
MODEL 10
REMARK VINA RESULT:      -7.6      3.338      7.957
REMARK  8 active torsions:
REMARK  status: ('A' for Active; 'I' for Inactive)
REMARK    1  A    between atoms: O_2  and  C_3 
REMARK    2  A    between atoms: C_3  and  C_4 
REMARK    3  A    between atoms: C_5  and  C_6 
REMARK    4  A    between atoms: C_6  and  C_7 
REMARK    5  A    between atoms: C_7  and  N_8 
REMARK    6  A    between atoms: N_13  and  C_14 
REMARK    7  A    between atoms: C_14  and  C_15 
REMARK    8  A    between atoms: C_15  and  N_16 
ROOT
HETATM    1  N   UNL     1      -5.611   3.809 -31.822  1.00  0.00    -0.174 N 
HETATM    2  C   UNL     1      -6.969   3.654 -31.963  1.00  0.00     0.681 C 
HETATM    3  N   UNL     1      -7.868   4.561 -31.555  1.00  0.00    -0.234 N 
HETATM    4  H   UNL     1      -8.863   4.393 -31.568  1.00  0.00     0.174 HD
HETATM    5  H   UNL     1      -7.579   5.306 -30.921  1.00  0.00     0.174 HD
HETATM    6  N   UNL     1      -7.319   2.447 -32.584  1.00  0.00    -0.180 N 
HETATM    7  C   UNL     1      -6.093   1.707 -32.605  1.00  0.00     0.079 A 
HETATM    8  C   UNL     1      -5.055   2.544 -32.164  1.00  0.00     0.079 A 
HETATM    9  C   UNL     1      -5.866   0.384 -32.918  1.00  0.00     0.032 A 
HETATM   10  C   UNL     1      -4.557  -0.090 -32.783  1.00  0.00     0.002 A 
HETATM   11  C   UNL     1      -3.516   0.754 -32.348  1.00  0.00     0.002 A 
HETATM   12  C   UNL     1      -3.760   2.093 -32.032  1.00  0.00     0.032 A 
ENDROOT
BRANCH   1  13
HETATM   13  C   UNL     1      -4.886   4.930 -31.218  1.00  0.00     0.231 C 
BRANCH  13  14
HETATM   14  C   UNL     1      -4.729   6.016 -32.258  1.00  0.00     0.179 C 
HETATM   15  O   UNL     1      -5.596   6.863 -32.457  1.00  0.00    -0.290 OA
BRANCH  14  16
HETATM   16  C   UNL     1      -3.497   6.010 -33.075  1.00  0.00     0.028 A 
HETATM   17  C   UNL     1      -2.403   6.802 -32.701  1.00  0.00     0.053 A 
HETATM   18  C   UNL     1      -1.213   6.742 -33.437  1.00  0.00     0.018 A 
HETATM   19  C   UNL     1      -1.127   5.901 -34.548  1.00  0.00     0.001 A 
HETATM   20  C   UNL     1      -2.223   5.125 -34.929  1.00  0.00     0.001 A 
HETATM   21  C   UNL     1      -3.409   5.173 -34.194  1.00  0.00     0.016 A 
BRANCH  17  22
HETATM   22  C   UNL     1      -2.538   7.773 -31.595  1.00  0.00     0.293 C 
HETATM   23  O   UNL     1      -2.948   8.915 -31.770  1.00  0.00    -0.259 OA
BRANCH  22  24
HETATM   24  O   UNL     1      -2.172   7.169 -30.448  1.00  0.00    -0.322 OA
HETATM   25  C   UNL     1      -1.302   7.902 -29.584  1.00  0.00     0.213 C 
ENDBRANCH  22  24
ENDBRANCH  17  22
ENDBRANCH  14  16
ENDBRANCH  13  14
ENDBRANCH   1  13
BRANCH   6  26
HETATM   26  C   UNL     1      -8.667   1.926 -32.849  1.00  0.00     0.175 C 
BRANCH  26  27
HETATM   27  C   UNL     1      -8.992   1.748 -34.351  1.00  0.00     0.255 C 
BRANCH  27  28
HETATM   28  N   UNL     1     -10.482   1.644 -34.654  1.00  0.00    -0.070 N 
HETATM   29  H   UNL     1     -10.601   1.108 -35.524  1.00  0.00     0.279 HD
HETATM   30  C   UNL     1     -11.269   0.942 -33.559  1.00  0.00     0.235 C 
HETATM   31  C   UNL     1     -12.723   0.796 -33.987  1.00  0.00     0.028 C 
HETATM   32  C   UNL     1     -13.353   2.149 -34.292  1.00  0.00     0.003 C 
HETATM   33  C   UNL     1     -12.530   2.912 -35.323  1.00  0.00     0.028 C 
HETATM   34  C   UNL     1     -11.070   3.031 -34.910  1.00  0.00     0.235 C 
ENDBRANCH  27  28
ENDBRANCH  26  27
ENDBRANCH   6  26
TORSDOF 8
ENDMDL
