MODEL 1
REMARK VINA RESULT:      -8.7      0.000      0.000
REMARK  8 active torsions:
REMARK  status: ('A' for Active; 'I' for Inactive)
REMARK    1  A    between atoms: C_3  and  C_4 
REMARK    2  A    between atoms: C_4  and  C_5 
REMARK    3  A    between atoms: C_5  and  N_6 
REMARK       I    between atoms: N_6  and  C_7 
REMARK    4  A    between atoms: C_7  and  C_8 
REMARK    5  A    between atoms: C_8  and  S_9 
REMARK    6  A    between atoms: S_9  and  C_10 
REMARK    7  A    between atoms: C_13  and  C_14 
REMARK    8  A    between atoms: C_15  and  O_16 
ROOT
HETATM    1  S   UNL     1      -5.882   1.630 -30.183  1.00  0.00    -0.081 SA
ENDROOT
BRANCH   1   2
HETATM    2  C   UNL     1      -7.302   1.962 -31.262  1.00  0.00     0.185 C 
BRANCH   2   3
HETATM    3  C   UNL     1      -7.831   0.689 -31.916  1.00  0.00     0.227 C 
HETATM    4  N   UNL     1      -6.892   0.058 -32.717  1.00  0.00    -0.360 N 
HETATM    5  H   UNL     1      -6.062   0.573 -32.985  1.00  0.00     0.162 HD
HETATM    6  O   UNL     1      -8.961   0.236 -31.751  1.00  0.00    -0.273 OA
BRANCH   4   7
HETATM    7  C   UNL     1      -7.243  -1.130 -33.477  1.00  0.00     0.127 C 
BRANCH   7   8
HETATM    8  C   UNL     1      -6.209  -1.438 -34.560  1.00  0.00     0.058 C 
BRANCH   8   9
HETATM    9  C   UNL     1      -5.325  -2.609 -34.195  1.00  0.00    -0.051 A 
HETATM   10  C   UNL     1      -5.554  -3.922 -34.656  1.00  0.00    -0.056 A 
HETATM   11  C   UNL     1      -6.694  -4.308 -35.557  1.00  0.00     0.049 C 
HETATM   12  C   UNL     1      -4.687  -4.951 -34.241  1.00  0.00     0.007 A 
HETATM   13  C   UNL     1      -3.613  -4.692 -33.391  1.00  0.00     0.001 A 
HETATM   14  C   UNL     1      -3.389  -3.400 -32.936  1.00  0.00     0.001 A 
HETATM   15  C   UNL     1      -4.239  -2.368 -33.332  1.00  0.00     0.007 A 
ENDBRANCH   8   9
ENDBRANCH   7   8
ENDBRANCH   4   7
ENDBRANCH   2   3
ENDBRANCH   1   2
BRANCH   1  16
HETATM   16  C   UNL     1      -4.615   2.196 -31.211  1.00  0.00     0.191 A 
HETATM   17  N   UNL     1      -4.256   3.506 -31.345  1.00  0.00    -0.312 N 
HETATM   18  C   UNL     1      -4.841   4.657 -30.708  1.00  0.00     0.160 C 
HETATM   19  C   UNL     1      -3.173   3.508 -32.198  1.00  0.00     0.166 A 
HETATM   20  N   UNL     1      -2.929   2.264 -32.571  1.00  0.00    -0.128 NA
HETATM   21  N   UNL     1      -3.831   1.438 -31.940  1.00  0.00    -0.122 NA
BRANCH  19  22
HETATM   22  C   UNL     1      -2.414   4.690 -32.590  1.00  0.00     0.045 A 
HETATM   23  C   UNL     1      -1.290   5.112 -31.867  1.00  0.00     0.082 A 
HETATM   24  C   UNL     1      -0.560   6.232 -32.276  1.00  0.00     0.038 A 
HETATM   25  C   UNL     1      -0.970   6.960 -33.392  1.00  0.00     0.003 A 
HETATM   26  C   UNL     1      -2.100   6.563 -34.106  1.00  0.00     0.001 A 
HETATM   27  C   UNL     1      -2.819   5.433 -33.708  1.00  0.00     0.018 A 
BRANCH  23  28
HETATM   28  O   UNL     1      -0.842   4.371 -30.802  1.00  0.00    -0.355 OA
HETATM   29  C   UNL     1       0.081   5.132 -30.021  1.00  0.00     0.210 C 
ENDBRANCH  23  28
ENDBRANCH  19  22
ENDBRANCH   1  16
TORSDOF 8
ENDMDL
MODEL 2
REMARK VINA RESULT:      -8.5      1.097      1.712
REMARK  8 active torsions:
REMARK  status: ('A' for Active; 'I' for Inactive)
REMARK    1  A    between atoms: C_3  and  C_4 
REMARK    2  A    between atoms: C_4  and  C_5 
REMARK    3  A    between atoms: C_5  and  N_6 
REMARK       I    between atoms: N_6  and  C_7 
REMARK    4  A    between atoms: C_7  and  C_8 
REMARK    5  A    between atoms: C_8  and  S_9 
REMARK    6  A    between atoms: S_9  and  C_10 
REMARK    7  A    between atoms: C_13  and  C_14 
REMARK    8  A    between atoms: C_15  and  O_16 
ROOT
HETATM    1  S   UNL     1      -6.512   2.744 -30.141  1.00  0.00    -0.081 SA
ENDROOT
BRANCH   1   2
HETATM    2  C   UNL     1      -6.723   0.960 -30.393  1.00  0.00     0.185 C 
BRANCH   2   3
HETATM    3  C   UNL     1      -7.603   0.654 -31.600  1.00  0.00     0.227 C 
HETATM    4  N   UNL     1      -7.078  -0.334 -32.420  1.00  0.00    -0.360 N 
HETATM    5  H   UNL     1      -6.107  -0.594 -32.302  1.00  0.00     0.162 HD
HETATM    6  O   UNL     1      -8.680   1.196 -31.836  1.00  0.00    -0.273 OA
BRANCH   4   7
HETATM    7  C   UNL     1      -7.747  -0.705 -33.656  1.00  0.00     0.127 C 
BRANCH   7   8
HETATM    8  C   UNL     1      -6.749  -0.991 -34.778  1.00  0.00     0.058 C 
BRANCH   8   9
HETATM    9  C   UNL     1      -6.052  -2.321 -34.602  1.00  0.00    -0.051 A 
HETATM   10  C   UNL     1      -4.748  -2.446 -34.078  1.00  0.00    -0.056 A 
HETATM   11  C   UNL     1      -3.906  -1.280 -33.636  1.00  0.00     0.049 C 
HETATM   12  C   UNL     1      -4.174  -3.726 -33.975  1.00  0.00     0.007 A 
HETATM   13  C   UNL     1      -4.871  -4.865 -34.378  1.00  0.00     0.001 A 
HETATM   14  C   UNL     1      -6.153  -4.742 -34.895  1.00  0.00     0.001 A 
HETATM   15  C   UNL     1      -6.738  -3.481 -35.010  1.00  0.00     0.007 A 
ENDBRANCH   8   9
ENDBRANCH   7   8
ENDBRANCH   4   7
ENDBRANCH   2   3
ENDBRANCH   1   2
BRANCH   1  16
HETATM   16  C   UNL     1      -4.964   2.947 -30.882  1.00  0.00     0.191 A 
HETATM   17  N   UNL     1      -4.562   4.076 -31.535  1.00  0.00    -0.312 N 
HETATM   18  C   UNL     1      -5.311   5.285 -31.762  1.00  0.00     0.160 C 
HETATM   19  C   UNL     1      -3.256   3.844 -31.908  1.00  0.00     0.166 A 
HETATM   20  N   UNL     1      -2.918   2.625 -31.521  1.00  0.00    -0.128 NA
HETATM   21  N   UNL     1      -3.992   2.067 -30.866  1.00  0.00    -0.122 NA
BRANCH  19  22
HETATM   22  C   UNL     1      -2.392   4.802 -32.588  1.00  0.00     0.045 A 
HETATM   23  C   UNL     1      -1.708   5.801 -31.882  1.00  0.00     0.082 A 
HETATM   24  C   UNL     1      -0.863   6.692 -32.549  1.00  0.00     0.038 A 
HETATM   25  C   UNL     1      -0.724   6.615 -33.934  1.00  0.00     0.003 A 
HETATM   26  C   UNL     1      -1.418   5.640 -34.651  1.00  0.00     0.001 A 
HETATM   27  C   UNL     1      -2.247   4.736 -33.981  1.00  0.00     0.018 A 
BRANCH  23  28
HETATM   28  O   UNL     1      -1.790   5.852 -30.513  1.00  0.00    -0.355 OA
HETATM   29  C   UNL     1      -2.462   7.043 -30.099  1.00  0.00     0.210 C 
ENDBRANCH  23  28
ENDBRANCH  19  22
ENDBRANCH   1  16
TORSDOF 8
ENDMDL
MODEL 3
REMARK VINA RESULT:      -8.5      1.208      2.242
REMARK  8 active torsions:
REMARK  status: ('A' for Active; 'I' for Inactive)
REMARK    1  A    between atoms: C_3  and  C_4 
REMARK    2  A    between atoms: C_4  and  C_5 
REMARK    3  A    between atoms: C_5  and  N_6 
REMARK       I    between atoms: N_6  and  C_7 
REMARK    4  A    between atoms: C_7  and  C_8 
REMARK    5  A    between atoms: C_8  and  S_9 
REMARK    6  A    between atoms: S_9  and  C_10 
REMARK    7  A    between atoms: C_13  and  C_14 
REMARK    8  A    between atoms: C_15  and  O_16 
ROOT
HETATM    1  S   UNL     1      -6.432   2.466 -30.050  1.00  0.00    -0.081 SA
ENDROOT
BRANCH   1   2
HETATM    2  C   UNL     1      -6.519   0.685 -30.377  1.00  0.00     0.185 C 
BRANCH   2   3
HETATM    3  C   UNL     1      -7.479   0.360 -31.517  1.00  0.00     0.227 C 
HETATM    4  N   UNL     1      -6.891  -0.381 -32.530  1.00  0.00    -0.360 N 
HETATM    5  H   UNL     1      -5.881  -0.445 -32.558  1.00  0.00     0.162 HD
HETATM    6  O   UNL     1      -8.662   0.690 -31.550  1.00  0.00    -0.273 OA
BRANCH   4   7
HETATM    7  C   UNL     1      -7.637  -0.721 -33.730  1.00  0.00     0.127 C 
BRANCH   7   8
HETATM    8  C   UNL     1      -6.711  -1.081 -34.892  1.00  0.00     0.058 C 
BRANCH   8   9
HETATM    9  C   UNL     1      -6.010  -2.403 -34.680  1.00  0.00    -0.051 A 
HETATM   10  C   UNL     1      -4.720  -2.512 -34.122  1.00  0.00    -0.056 A 
HETATM   11  C   UNL     1      -3.897  -1.334 -33.674  1.00  0.00     0.049 C 
HETATM   12  C   UNL     1      -4.140  -3.787 -33.986  1.00  0.00     0.007 A 
HETATM   13  C   UNL     1      -4.819  -4.936 -34.390  1.00  0.00     0.001 A 
HETATM   14  C   UNL     1      -6.088  -4.829 -34.942  1.00  0.00     0.001 A 
HETATM   15  C   UNL     1      -6.678  -3.574 -35.088  1.00  0.00     0.007 A 
ENDBRANCH   8   9
ENDBRANCH   7   8
ENDBRANCH   4   7
ENDBRANCH   2   3
ENDBRANCH   1   2
BRANCH   1  16
HETATM   16  C   UNL     1      -4.883   2.799 -30.740  1.00  0.00     0.191 A 
HETATM   17  N   UNL     1      -4.435   4.045 -31.069  1.00  0.00    -0.312 N 
HETATM   18  C   UNL     1      -5.129   5.301 -30.942  1.00  0.00     0.160 C 
HETATM   19  C   UNL     1      -3.144   3.869 -31.518  1.00  0.00     0.166 A 
HETATM   20  N   UNL     1      -2.859   2.579 -31.485  1.00  0.00    -0.128 NA
HETATM   21  N   UNL     1      -3.952   1.908 -30.985  1.00  0.00    -0.122 NA
BRANCH  19  22
HETATM   22  C   UNL     1      -2.244   4.940 -31.930  1.00  0.00     0.045 A 
HETATM   23  C   UNL     1      -2.026   5.234 -33.283  1.00  0.00     0.082 A 
HETATM   24  C   UNL     1      -1.180   6.282 -33.656  1.00  0.00     0.038 A 
HETATM   25  C   UNL     1      -0.516   7.022 -32.679  1.00  0.00     0.003 A 
HETATM   26  C   UNL     1      -0.707   6.725 -31.330  1.00  0.00     0.001 A 
HETATM   27  C   UNL     1      -1.567   5.689 -30.957  1.00  0.00     0.018 A 
BRANCH  23  28
HETATM   28  O   UNL     1      -2.717   4.552 -34.253  1.00  0.00    -0.355 OA
HETATM   29  C   UNL     1      -3.651   5.418 -34.900  1.00  0.00     0.210 C 
ENDBRANCH  23  28
ENDBRANCH  19  22
ENDBRANCH   1  16
TORSDOF 8
ENDMDL
MODEL 4
REMARK VINA RESULT:      -8.3      3.395      6.841
REMARK  8 active torsions:
REMARK  status: ('A' for Active; 'I' for Inactive)
REMARK    1  A    between atoms: C_3  and  C_4 
REMARK    2  A    between atoms: C_4  and  C_5 
REMARK    3  A    between atoms: C_5  and  N_6 
REMARK       I    between atoms: N_6  and  C_7 
REMARK    4  A    between atoms: C_7  and  C_8 
REMARK    5  A    between atoms: C_8  and  S_9 
REMARK    6  A    between atoms: S_9  and  C_10 
REMARK    7  A    between atoms: C_13  and  C_14 
REMARK    8  A    between atoms: C_15  and  O_16 
ROOT
HETATM    1  S   UNL     1      -5.867   3.304 -31.920  1.00  0.00    -0.081 SA
ENDROOT
BRANCH   1   2
HETATM    2  C   UNL     1      -5.157   2.319 -30.574  1.00  0.00     0.185 C 
BRANCH   2   3
HETATM    3  C   UNL     1      -4.206   1.244 -31.093  1.00  0.00     0.227 C 
HETATM    4  N   UNL     1      -4.855   0.076 -31.463  1.00  0.00    -0.360 N 
HETATM    5  H   UNL     1      -5.811  -0.062 -31.160  1.00  0.00     0.162 HD
HETATM    6  O   UNL     1      -2.990   1.381 -31.203  1.00  0.00    -0.273 OA
BRANCH   4   7
HETATM    7  C   UNL     1      -4.099  -1.081 -31.913  1.00  0.00     0.127 C 
BRANCH   7   8
HETATM    8  C   UNL     1      -4.052  -1.170 -33.438  1.00  0.00     0.058 C 
BRANCH   8   9
HETATM    9  C   UNL     1      -4.838  -2.348 -33.970  1.00  0.00    -0.051 A 
HETATM   10  C   UNL     1      -6.179  -2.253 -34.393  1.00  0.00    -0.056 A 
HETATM   11  C   UNL     1      -6.980  -0.979 -34.366  1.00  0.00     0.049 C 
HETATM   12  C   UNL     1      -6.834  -3.411 -34.851  1.00  0.00     0.007 A 
HETATM   13  C   UNL     1      -6.179  -4.642 -34.896  1.00  0.00     0.001 A 
HETATM   14  C   UNL     1      -4.859  -4.736 -34.477  1.00  0.00     0.001 A 
HETATM   15  C   UNL     1      -4.194  -3.599 -34.016  1.00  0.00     0.007 A 
ENDBRANCH   8   9
ENDBRANCH   7   8
ENDBRANCH   4   7
ENDBRANCH   2   3
ENDBRANCH   1   2
BRANCH   1  16
HETATM   16  C   UNL     1      -7.432   2.575 -32.001  1.00  0.00     0.191 A 
HETATM   17  N   UNL     1      -8.460   3.036 -32.771  1.00  0.00    -0.312 N 
HETATM   18  C   UNL     1      -8.478   4.193 -33.629  1.00  0.00     0.160 C 
HETATM   19  C   UNL     1      -9.488   2.136 -32.594  1.00  0.00     0.166 A 
HETATM   20  N   UNL     1      -9.094   1.209 -31.738  1.00  0.00    -0.128 NA
HETATM   21  N   UNL     1      -7.794   1.482 -31.374  1.00  0.00    -0.122 NA
BRANCH  19  22
HETATM   22  C   UNL     1     -10.780   2.192 -33.268  1.00  0.00     0.045 A 
HETATM   23  C   UNL     1     -11.829   2.981 -32.778  1.00  0.00     0.082 A 
HETATM   24  C   UNL     1     -13.051   3.042 -33.454  1.00  0.00     0.038 A 
HETATM   25  C   UNL     1     -13.245   2.286 -34.609  1.00  0.00     0.003 A 
HETATM   26  C   UNL     1     -12.217   1.479 -35.095  1.00  0.00     0.001 A 
HETATM   27  C   UNL     1     -10.989   1.432 -34.428  1.00  0.00     0.018 A 
BRANCH  23  28
HETATM   28  O   UNL     1     -11.632   3.775 -31.675  1.00  0.00    -0.355 OA
HETATM   29  C   UNL     1     -12.886   4.195 -31.135  1.00  0.00     0.210 C 
ENDBRANCH  23  28
ENDBRANCH  19  22
ENDBRANCH   1  16
TORSDOF 8
ENDMDL
MODEL 5
REMARK VINA RESULT:      -8.3      1.894      7.881
REMARK  8 active torsions:
REMARK  status: ('A' for Active; 'I' for Inactive)
REMARK    1  A    between atoms: C_3  and  C_4 
REMARK    2  A    between atoms: C_4  and  C_5 
REMARK    3  A    between atoms: C_5  and  N_6 
REMARK       I    between atoms: N_6  and  C_7 
REMARK    4  A    between atoms: C_7  and  C_8 
REMARK    5  A    between atoms: C_8  and  S_9 
REMARK    6  A    between atoms: S_9  and  C_10 
REMARK    7  A    between atoms: C_13  and  C_14 
REMARK    8  A    between atoms: C_15  and  O_16 
ROOT
HETATM    1  S   UNL     1      -7.987   3.227 -31.357  1.00  0.00    -0.081 SA
ENDROOT
BRANCH   1   2
HETATM    2  C   UNL     1      -6.640   4.429 -31.180  1.00  0.00     0.185 C 
BRANCH   2   3
HETATM    3  C   UNL     1      -5.274   3.752 -31.129  1.00  0.00     0.227 C 
HETATM    4  N   UNL     1      -4.495   4.013 -32.246  1.00  0.00    -0.360 N 
HETATM    5  H   UNL     1      -4.942   4.405 -33.065  1.00  0.00     0.162 HD
HETATM    6  O   UNL     1      -4.871   3.059 -30.197  1.00  0.00    -0.273 OA
BRANCH   4   7
HETATM    7  C   UNL     1      -3.190   3.392 -32.402  1.00  0.00     0.127 C 
BRANCH   7   8
HETATM    8  C   UNL     1      -2.225   4.285 -33.182  1.00  0.00     0.058 C 
BRANCH   8   9
HETATM    9  C   UNL     1      -1.446   5.215 -32.280  1.00  0.00    -0.051 A 
HETATM   10  C   UNL     1      -1.258   6.584 -32.560  1.00  0.00    -0.056 A 
HETATM   11  C   UNL     1      -1.808   7.275 -33.778  1.00  0.00     0.049 C 
HETATM   12  C   UNL     1      -0.496   7.365 -31.670  1.00  0.00     0.007 A 
HETATM   13  C   UNL     1       0.069   6.808 -30.523  1.00  0.00     0.001 A 
HETATM   14  C   UNL     1      -0.114   5.460 -30.249  1.00  0.00     0.001 A 
HETATM   15  C   UNL     1      -0.862   4.669 -31.121  1.00  0.00     0.007 A 
ENDBRANCH   8   9
ENDBRANCH   7   8
ENDBRANCH   4   7
ENDBRANCH   2   3
ENDBRANCH   1   2
BRANCH   1  16
HETATM   16  C   UNL     1      -7.308   2.231 -32.595  1.00  0.00     0.191 A 
HETATM   17  N   UNL     1      -6.931   0.931 -32.421  1.00  0.00    -0.312 N 
HETATM   18  C   UNL     1      -6.991   0.142 -31.217  1.00  0.00     0.160 C 
HETATM   19  C   UNL     1      -6.511   0.497 -33.660  1.00  0.00     0.166 A 
HETATM   20  N   UNL     1      -6.606   1.503 -34.512  1.00  0.00    -0.128 NA
HETATM   21  N   UNL     1      -7.118   2.591 -33.842  1.00  0.00    -0.122 NA
BRANCH  19  22
HETATM   22  C   UNL     1      -6.067  -0.857 -33.971  1.00  0.00     0.045 A 
HETATM   23  C   UNL     1      -4.737  -1.254 -33.778  1.00  0.00     0.082 A 
HETATM   24  C   UNL     1      -4.337  -2.563 -34.057  1.00  0.00     0.038 A 
HETATM   25  C   UNL     1      -5.258  -3.479 -34.564  1.00  0.00     0.003 A 
HETATM   26  C   UNL     1      -6.580  -3.090 -34.782  1.00  0.00     0.001 A 
HETATM   27  C   UNL     1      -6.983  -1.785 -34.486  1.00  0.00     0.018 A 
BRANCH  23  28
HETATM   28  O   UNL     1      -3.834  -0.380 -33.224  1.00  0.00    -0.355 OA
HETATM   29  C   UNL     1      -3.323  -0.905 -31.998  1.00  0.00     0.210 C 
ENDBRANCH  23  28
ENDBRANCH  19  22
ENDBRANCH   1  16
TORSDOF 8
ENDMDL
MODEL 6
REMARK VINA RESULT:      -8.2      1.640      2.075
REMARK  8 active torsions:
REMARK  status: ('A' for Active; 'I' for Inactive)
REMARK    1  A    between atoms: C_3  and  C_4 
REMARK    2  A    between atoms: C_4  and  C_5 
REMARK    3  A    between atoms: C_5  and  N_6 
REMARK       I    between atoms: N_6  and  C_7 
REMARK    4  A    between atoms: C_7  and  C_8 
REMARK    5  A    between atoms: C_8  and  S_9 
REMARK    6  A    between atoms: S_9  and  C_10 
REMARK    7  A    between atoms: C_13  and  C_14 
REMARK    8  A    between atoms: C_15  and  O_16 
ROOT
HETATM    1  S   UNL     1      -5.823   3.021 -33.477  1.00  0.00    -0.081 SA
ENDROOT
BRANCH   1   2
HETATM    2  C   UNL     1      -6.825   2.268 -32.166  1.00  0.00     0.185 C 
BRANCH   2   3
HETATM    3  C   UNL     1      -6.852   0.747 -32.271  1.00  0.00     0.227 C 
HETATM    4  N   UNL     1      -7.209   0.295 -33.533  1.00  0.00    -0.360 N 
HETATM    5  H   UNL     1      -7.630   0.950 -34.179  1.00  0.00     0.162 HD
HETATM    6  O   UNL     1      -6.571  -0.023 -31.356  1.00  0.00    -0.273 OA
BRANCH   4   7
HETATM    7  C   UNL     1      -7.357  -1.127 -33.797  1.00  0.00     0.127 C 
BRANCH   7   8
HETATM    8  C   UNL     1      -6.387  -1.608 -34.877  1.00  0.00     0.058 C 
BRANCH   8   9
HETATM    9  C   UNL     1      -5.421  -2.649 -34.360  1.00  0.00    -0.051 A 
HETATM   10  C   UNL     1      -5.502  -4.015 -34.702  1.00  0.00    -0.056 A 
HETATM   11  C   UNL     1      -6.550  -4.590 -35.616  1.00  0.00     0.049 C 
HETATM   12  C   UNL     1      -4.570  -4.913 -34.151  1.00  0.00     0.007 A 
HETATM   13  C   UNL     1      -3.573  -4.476 -33.279  1.00  0.00     0.001 A 
HETATM   14  C   UNL     1      -3.494  -3.132 -32.940  1.00  0.00     0.001 A 
HETATM   15  C   UNL     1      -4.412  -2.227 -33.473  1.00  0.00     0.007 A 
ENDBRANCH   8   9
ENDBRANCH   7   8
ENDBRANCH   4   7
ENDBRANCH   2   3
ENDBRANCH   1   2
BRANCH   1  16
HETATM   16  C   UNL     1      -4.366   3.295 -32.588  1.00  0.00     0.191 A 
HETATM   17  N   UNL     1      -3.715   4.492 -32.522  1.00  0.00    -0.312 N 
HETATM   18  C   UNL     1      -4.067   5.732 -33.165  1.00  0.00     0.160 C 
HETATM   19  C   UNL     1      -2.654   4.291 -31.666  1.00  0.00     0.166 A 
HETATM   20  N   UNL     1      -2.663   3.028 -31.274  1.00  0.00    -0.128 NA
HETATM   21  N   UNL     1      -3.749   2.405 -31.848  1.00  0.00    -0.122 NA
BRANCH  19  22
HETATM   22  C   UNL     1      -1.706   5.316 -31.247  1.00  0.00     0.045 A 
HETATM   23  C   UNL     1      -2.074   6.337 -30.361  1.00  0.00     0.082 A 
HETATM   24  C   UNL     1      -1.143   7.294 -29.950  1.00  0.00     0.038 A 
HETATM   25  C   UNL     1       0.158   7.258 -30.450  1.00  0.00     0.003 A 
HETATM   26  C   UNL     1       0.531   6.261 -31.350  1.00  0.00     0.001 A 
HETATM   27  C   UNL     1      -0.396   5.293 -31.746  1.00  0.00     0.018 A 
BRANCH  23  28
HETATM   28  O   UNL     1      -3.334   6.350 -29.815  1.00  0.00    -0.355 OA
HETATM   29  C   UNL     1      -3.632   7.641 -29.282  1.00  0.00     0.210 C 
ENDBRANCH  23  28
ENDBRANCH  19  22
ENDBRANCH   1  16
TORSDOF 8
ENDMDL
MODEL 7
REMARK VINA RESULT:      -8.2      3.009      4.208
REMARK  8 active torsions:
REMARK  status: ('A' for Active; 'I' for Inactive)
REMARK    1  A    between atoms: C_3  and  C_4 
REMARK    2  A    between atoms: C_4  and  C_5 
REMARK    3  A    between atoms: C_5  and  N_6 
REMARK       I    between atoms: N_6  and  C_7 
REMARK    4  A    between atoms: C_7  and  C_8 
REMARK    5  A    between atoms: C_8  and  S_9 
REMARK    6  A    between atoms: S_9  and  C_10 
REMARK    7  A    between atoms: C_13  and  C_14 
REMARK    8  A    between atoms: C_15  and  O_16 
ROOT
HETATM    1  S   UNL     1      -3.683   5.157 -34.437  1.00  0.00    -0.081 SA
ENDROOT
BRANCH   1   2
HETATM    2  C   UNL     1      -5.341   5.535 -33.806  1.00  0.00     0.185 C 
BRANCH   2   3
HETATM    3  C   UNL     1      -6.261   4.320 -33.854  1.00  0.00     0.227 C 
HETATM    4  N   UNL     1      -5.640   3.151 -33.440  1.00  0.00    -0.360 N 
HETATM    5  H   UNL     1      -4.630   3.139 -33.371  1.00  0.00     0.162 HD
HETATM    6  O   UNL     1      -7.440   4.348 -34.199  1.00  0.00    -0.273 OA
BRANCH   4   7
HETATM    7  C   UNL     1      -6.344   1.880 -33.489  1.00  0.00     0.127 C 
BRANCH   7   8
HETATM    8  C   UNL     1      -5.663   0.820 -32.622  1.00  0.00     0.058 C 
BRANCH   8   9
HETATM    9  C   UNL     1      -5.599  -0.527 -33.304  1.00  0.00    -0.051 A 
HETATM   10  C   UNL     1      -4.486  -1.387 -33.211  1.00  0.00    -0.056 A 
HETATM   11  C   UNL     1      -3.242  -1.068 -32.428  1.00  0.00     0.049 C 
HETATM   12  C   UNL     1      -4.511  -2.613 -33.902  1.00  0.00     0.007 A 
HETATM   13  C   UNL     1      -5.614  -2.988 -34.669  1.00  0.00     0.001 A 
HETATM   14  C   UNL     1      -6.709  -2.140 -34.762  1.00  0.00     0.001 A 
HETATM   15  C   UNL     1      -6.701  -0.919 -34.088  1.00  0.00     0.007 A 
ENDBRANCH   8   9
ENDBRANCH   7   8
ENDBRANCH   4   7
ENDBRANCH   2   3
ENDBRANCH   1   2
BRANCH   1  16
HETATM   16  C   UNL     1      -2.781   6.358 -33.582  1.00  0.00     0.191 A 
HETATM   17  N   UNL     1      -2.544   6.334 -32.238  1.00  0.00    -0.312 N 
HETATM   18  C   UNL     1      -2.991   5.362 -31.274  1.00  0.00     0.160 C 
HETATM   19  C   UNL     1      -1.741   7.424 -31.984  1.00  0.00     0.166 A 
HETATM   20  N   UNL     1      -1.543   8.075 -33.118  1.00  0.00    -0.128 NA
HETATM   21  N   UNL     1      -2.191   7.395 -34.125  1.00  0.00    -0.122 NA
BRANCH  19  22
HETATM   22  C   UNL     1      -1.185   7.774 -30.683  1.00  0.00     0.045 A 
HETATM   23  C   UNL     1      -0.003   7.188 -30.210  1.00  0.00     0.082 A 
HETATM   24  C   UNL     1       0.529   7.556 -28.971  1.00  0.00     0.038 A 
HETATM   25  C   UNL     1      -0.137   8.490 -28.179  1.00  0.00     0.003 A 
HETATM   26  C   UNL     1      -1.326   9.065 -28.628  1.00  0.00     0.001 A 
HETATM   27  C   UNL     1      -1.847   8.709 -29.875  1.00  0.00     0.018 A 
BRANCH  23  28
HETATM   28  O   UNL     1       0.693   6.311 -31.004  1.00  0.00    -0.355 OA
HETATM   29  C   UNL     1       0.720   5.013 -30.408  1.00  0.00     0.210 C 
ENDBRANCH  23  28
ENDBRANCH  19  22
ENDBRANCH   1  16
TORSDOF 8
ENDMDL
MODEL 8
REMARK VINA RESULT:      -8.2      3.387      5.130
REMARK  8 active torsions:
REMARK  status: ('A' for Active; 'I' for Inactive)
REMARK    1  A    between atoms: C_3  and  C_4 
REMARK    2  A    between atoms: C_4  and  C_5 
REMARK    3  A    between atoms: C_5  and  N_6 
REMARK       I    between atoms: N_6  and  C_7 
REMARK    4  A    between atoms: C_7  and  C_8 
REMARK    5  A    between atoms: C_8  and  S_9 
REMARK    6  A    between atoms: S_9  and  C_10 
REMARK    7  A    between atoms: C_13  and  C_14 
REMARK    8  A    between atoms: C_15  and  O_16 
ROOT
HETATM    1  S   UNL     1      -1.504   5.219 -32.515  1.00  0.00    -0.081 SA
ENDROOT
BRANCH   1   2
HETATM    2  C   UNL     1      -3.141   4.869 -31.816  1.00  0.00     0.185 C 
BRANCH   2   3
HETATM    3  C   UNL     1      -3.386   3.371 -31.660  1.00  0.00     0.227 C 
HETATM    4  N   UNL     1      -4.612   2.965 -32.165  1.00  0.00    -0.360 N 
HETATM    5  H   UNL     1      -5.308   3.670 -32.368  1.00  0.00     0.162 HD
HETATM    6  O   UNL     1      -2.589   2.580 -31.161  1.00  0.00    -0.273 OA
BRANCH   4   7
HETATM    7  C   UNL     1      -5.045   1.583 -32.037  1.00  0.00     0.127 C 
BRANCH   7   8
HETATM    8  C   UNL     1      -6.030   1.193 -33.140  1.00  0.00     0.058 C 
BRANCH   8   9
HETATM    9  C   UNL     1      -5.774  -0.198 -33.673  1.00  0.00    -0.051 A 
HETATM   10  C   UNL     1      -6.599  -0.821 -34.632  1.00  0.00    -0.056 A 
HETATM   11  C   UNL     1      -7.821  -0.180 -35.232  1.00  0.00     0.049 C 
HETATM   12  C   UNL     1      -6.292  -2.129 -35.050  1.00  0.00     0.007 A 
HETATM   13  C   UNL     1      -5.189  -2.812 -34.537  1.00  0.00     0.001 A 
HETATM   14  C   UNL     1      -4.378  -2.200 -33.592  1.00  0.00     0.001 A 
HETATM   15  C   UNL     1      -4.669  -0.905 -33.161  1.00  0.00     0.007 A 
ENDBRANCH   8   9
ENDBRANCH   7   8
ENDBRANCH   4   7
ENDBRANCH   2   3
ENDBRANCH   1   2
BRANCH   1  16
HETATM   16  C   UNL     1      -0.638   5.521 -31.051  1.00  0.00     0.191 A 
HETATM   17  N   UNL     1      -0.697   6.688 -30.345  1.00  0.00    -0.312 N 
HETATM   18  C   UNL     1      -1.441   7.880 -30.660  1.00  0.00     0.160 C 
HETATM   19  C   UNL     1       0.080   6.483 -29.225  1.00  0.00     0.166 A 
HETATM   20  N   UNL     1       0.595   5.267 -29.287  1.00  0.00    -0.128 NA
HETATM   21  N   UNL     1       0.133   4.659 -30.432  1.00  0.00    -0.122 NA
BRANCH  19  22
HETATM   22  C   UNL     1       0.268   7.445 -28.145  1.00  0.00     0.045 A 
HETATM   23  C   UNL     1      -0.659   7.566 -27.102  1.00  0.00     0.082 A 
HETATM   24  C   UNL     1      -0.447   8.475 -26.062  1.00  0.00     0.038 A 
HETATM   25  C   UNL     1       0.680   9.296 -26.075  1.00  0.00     0.003 A 
HETATM   26  C   UNL     1       1.599   9.201 -27.120  1.00  0.00     0.001 A 
HETATM   27  C   UNL     1       1.395   8.279 -28.150  1.00  0.00     0.018 A 
BRANCH  23  28
HETATM   28  O   UNL     1      -1.742   6.723 -27.045  1.00  0.00    -0.355 OA
HETATM   29  C   UNL     1      -2.269   6.680 -25.719  1.00  0.00     0.210 C 
ENDBRANCH  23  28
ENDBRANCH  19  22
ENDBRANCH   1  16
TORSDOF 8
ENDMDL
MODEL 9
REMARK VINA RESULT:      -8.2      2.097      8.018
REMARK  8 active torsions:
REMARK  status: ('A' for Active; 'I' for Inactive)
REMARK    1  A    between atoms: C_3  and  C_4 
REMARK    2  A    between atoms: C_4  and  C_5 
REMARK    3  A    between atoms: C_5  and  N_6 
REMARK       I    between atoms: N_6  and  C_7 
REMARK    4  A    between atoms: C_7  and  C_8 
REMARK    5  A    between atoms: C_8  and  S_9 
REMARK    6  A    between atoms: S_9  and  C_10 
REMARK    7  A    between atoms: C_13  and  C_14 
REMARK    8  A    between atoms: C_15  and  O_16 
ROOT
HETATM    1  S   UNL     1      -7.872   2.429 -32.278  1.00  0.00    -0.081 SA
ENDROOT
BRANCH   1   2
HETATM    2  C   UNL     1      -7.437   3.926 -33.205  1.00  0.00     0.185 C 
BRANCH   2   3
HETATM    3  C   UNL     1      -6.195   4.607 -32.638  1.00  0.00     0.227 C 
HETATM    4  N   UNL     1      -5.555   3.851 -31.667  1.00  0.00    -0.360 N 
HETATM    5  H   UNL     1      -6.052   3.069 -31.259  1.00  0.00     0.162 HD
HETATM    6  O   UNL     1      -5.770   5.701 -33.001  1.00  0.00    -0.273 OA
BRANCH   4   7
HETATM    7  C   UNL     1      -4.394   4.373 -30.966  1.00  0.00     0.127 C 
BRANCH   7   8
HETATM    8  C   UNL     1      -3.097   3.731 -31.457  1.00  0.00     0.058 C 
BRANCH   8   9
HETATM    9  C   UNL     1      -2.378   4.589 -32.473  1.00  0.00    -0.051 A 
HETATM   10  C   UNL     1      -1.512   5.643 -32.118  1.00  0.00    -0.056 A 
HETATM   11  C   UNL     1      -1.202   6.033 -30.698  1.00  0.00     0.049 C 
HETATM   12  C   UNL     1      -0.907   6.402 -33.137  1.00  0.00     0.007 A 
HETATM   13  C   UNL     1      -1.147   6.127 -34.482  1.00  0.00     0.001 A 
HETATM   14  C   UNL     1      -2.002   5.091 -34.832  1.00  0.00     0.001 A 
HETATM   15  C   UNL     1      -2.615   4.330 -33.836  1.00  0.00     0.007 A 
ENDBRANCH   8   9
ENDBRANCH   7   8
ENDBRANCH   4   7
ENDBRANCH   2   3
ENDBRANCH   1   2
BRANCH   1  16
HETATM   16  C   UNL     1      -7.290   1.238 -33.386  1.00  0.00     0.191 A 
HETATM   17  N   UNL     1      -6.800   0.018 -33.022  1.00  0.00    -0.312 N 
HETATM   18  C   UNL     1      -6.645  -0.517 -31.694  1.00  0.00     0.160 C 
HETATM   19  C   UNL     1      -6.515  -0.635 -34.202  1.00  0.00     0.166 A 
HETATM   20  N   UNL     1      -6.793   0.176 -35.209  1.00  0.00    -0.128 NA
HETATM   21  N   UNL     1      -7.291   1.351 -34.693  1.00  0.00    -0.122 NA
BRANCH  19  22
HETATM   22  C   UNL     1      -6.018  -2.001 -34.308  1.00  0.00     0.045 A 
HETATM   23  C   UNL     1      -4.680  -2.318 -34.035  1.00  0.00     0.082 A 
HETATM   24  C   UNL     1      -4.229  -3.638 -34.116  1.00  0.00     0.038 A 
HETATM   25  C   UNL     1      -5.106  -4.649 -34.506  1.00  0.00     0.003 A 
HETATM   26  C   UNL     1      -6.435  -4.344 -34.803  1.00  0.00     0.001 A 
HETATM   27  C   UNL     1      -6.889  -3.026 -34.703  1.00  0.00     0.018 A 
BRANCH  23  28
HETATM   28  O   UNL     1      -3.821  -1.342 -33.594  1.00  0.00    -0.355 OA
HETATM   29  C   UNL     1      -3.321  -1.669 -32.296  1.00  0.00     0.210 C 
ENDBRANCH  23  28
ENDBRANCH  19  22
ENDBRANCH   1  16
TORSDOF 8
ENDMDL
MODEL 10
REMARK VINA RESULT:      -8.0      2.073      8.598
REMARK  8 active torsions:
REMARK  status: ('A' for Active; 'I' for Inactive)
REMARK    1  A    between atoms: C_3  and  C_4 
REMARK    2  A    between atoms: C_4  and  C_5 
REMARK    3  A    between atoms: C_5  and  N_6 
REMARK       I    between atoms: N_6  and  C_7 
REMARK    4  A    between atoms: C_7  and  C_8 
REMARK    5  A    between atoms: C_8  and  S_9 
REMARK    6  A    between atoms: S_9  and  C_10 
REMARK    7  A    between atoms: C_13  and  C_14 
REMARK    8  A    between atoms: C_15  and  O_16 
ROOT
HETATM    1  S   UNL     1      -7.400   2.884 -31.507  1.00  0.00    -0.081 SA
ENDROOT
BRANCH   1   2
HETATM    2  C   UNL     1      -6.186   4.196 -31.811  1.00  0.00     0.185 C 
BRANCH   2   3
HETATM    3  C   UNL     1      -4.776   3.774 -31.407  1.00  0.00     0.227 C 
HETATM    4  N   UNL     1      -3.787   4.542 -32.002  1.00  0.00    -0.360 N 
HETATM    5  H   UNL     1      -4.038   5.127 -32.789  1.00  0.00     0.162 HD
HETATM    6  O   UNL     1      -4.517   2.867 -30.621  1.00  0.00    -0.273 OA
BRANCH   4   7
HETATM    7  C   UNL     1      -2.382   4.237 -31.788  1.00  0.00     0.127 C 
BRANCH   7   8
HETATM    8  C   UNL     1      -1.475   5.366 -32.277  1.00  0.00     0.058 C 
BRANCH   8   9
HETATM    9  C   UNL     1      -1.021   6.268 -31.152  1.00  0.00    -0.051 A 
HETATM   10  C   UNL     1       0.173   6.062 -30.430  1.00  0.00    -0.056 A 
HETATM   11  C   UNL     1       1.128   4.930 -30.695  1.00  0.00     0.049 C 
HETATM   12  C   UNL     1       0.498   6.943 -29.382  1.00  0.00     0.007 A 
HETATM   13  C   UNL     1      -0.335   8.011 -29.052  1.00  0.00     0.001 A 
HETATM   14  C   UNL     1      -1.512   8.213 -29.760  1.00  0.00     0.001 A 
HETATM   15  C   UNL     1      -1.854   7.348 -30.799  1.00  0.00     0.007 A 
ENDBRANCH   8   9
ENDBRANCH   7   8
ENDBRANCH   4   7
ENDBRANCH   2   3
ENDBRANCH   1   2
BRANCH   1  16
HETATM   16  C   UNL     1      -6.941   1.787 -32.761  1.00  0.00     0.191 A 
HETATM   17  N   UNL     1      -6.571   0.489 -32.554  1.00  0.00    -0.312 N 
HETATM   18  C   UNL     1      -6.463  -0.216 -31.303  1.00  0.00     0.160 C 
HETATM   19  C   UNL     1      -6.355  -0.039 -33.809  1.00  0.00     0.166 A 
HETATM   20  N   UNL     1      -6.558   0.911 -34.706  1.00  0.00    -0.128 NA
HETATM   21  N   UNL     1      -6.937   2.057 -34.044  1.00  0.00    -0.122 NA
BRANCH  19  22
HETATM   22  C   UNL     1      -5.994  -1.424 -34.087  1.00  0.00     0.045 A 
HETATM   23  C   UNL     1      -4.686  -1.892 -33.902  1.00  0.00     0.082 A 
HETATM   24  C   UNL     1      -4.366  -3.229 -34.148  1.00  0.00     0.038 A 
HETATM   25  C   UNL     1      -5.346  -4.104 -34.618  1.00  0.00     0.003 A 
HETATM   26  C   UNL     1      -6.646  -3.645 -34.828  1.00  0.00     0.001 A 
HETATM   27  C   UNL     1      -6.969  -2.312 -34.564  1.00  0.00     0.018 A 
BRANCH  23  28
HETATM   28  O   UNL     1      -3.727  -1.057 -33.385  1.00  0.00    -0.355 OA
HETATM   29  C   UNL     1      -3.179  -1.610 -32.187  1.00  0.00     0.210 C 
ENDBRANCH  23  28
ENDBRANCH  19  22
ENDBRANCH   1  16
TORSDOF 8
ENDMDL
