MODEL 1
REMARK VINA RESULT:      -8.0      0.000      0.000
REMARK  6 active torsions:
REMARK  status: ('A' for Active; 'I' for Inactive)
REMARK    1  A    between atoms: C_2  and  C_3 
REMARK    2  A    between atoms: C_7  and  C_8 
REMARK       I    between atoms: C_8  and  N_9 
REMARK    3  A    between atoms: N_9  and  C_10 
REMARK    4  A    between atoms: C_11  and  O_12 
REMARK    5  A    between atoms: O_12  and  C_13 
REMARK    6  A    between atoms: C_13  and  C_14 
ROOT
HETATM    1  C   UNL     1      -6.795  -0.239 -32.863  1.00  0.00     0.068 A 
HETATM    2  C   UNL     1      -6.063  -1.190 -33.594  1.00  0.00     0.096 A 
HETATM    3  C   UNL     1      -4.763  -1.541 -33.224  1.00  0.00     0.046 A 
HETATM    4  C   UNL     1      -4.152  -0.902 -32.140  1.00  0.00    -0.059 A 
HETATM    5  C   UNL     1      -2.770  -1.291 -31.704  1.00  0.00     0.048 C 
HETATM    6  C   UNL     1      -4.874   0.059 -31.420  1.00  0.00     0.009 A 
HETATM    7  C   UNL     1      -6.187   0.389 -31.779  1.00  0.00     0.033 A 
ENDROOT
BRANCH   1   8
HETATM    8  N   UNL     1      -8.125  -0.001 -33.271  1.00  0.00    -0.319 N 
HETATM    9  C   UNL     1      -8.656   1.154 -33.808  1.00  0.00     0.274 C 
HETATM   10  O   UNL     1      -8.008   2.135 -34.152  1.00  0.00    -0.266 OA
HETATM   11  H   UNL     1      -8.710  -0.829 -33.262  1.00  0.00     0.169 HD
BRANCH   9  12
HETATM   12  C   UNL     1     -10.087   1.086 -33.983  1.00  0.00     0.120 A 
HETATM   13  N   UNL     1     -10.804   1.775 -34.924  1.00  0.00    -0.273 N 
HETATM   14  N   UNL     1     -12.127   1.560 -34.868  1.00  0.00    -0.179 NA
HETATM   15  H   UNL     1     -10.452   2.398 -35.642  1.00  0.00     0.189 HD
HETATM   16  C   UNL     1     -12.267   0.655 -33.892  1.00  0.00     0.056 A 
HETATM   17  C   UNL     1     -11.018   0.305 -33.329  1.00  0.00     0.065 A 
BRANCH  16  18
HETATM   18  C   UNL     1     -13.618   0.151 -33.518  1.00  0.00     0.056 C 
HETATM   19  C   UNL     1     -14.725   0.829 -34.312  1.00  0.00     0.011 C 
ENDBRANCH  16  18
ENDBRANCH   9  12
ENDBRANCH   1   8
BRANCH   2  20
HETATM   20  O   UNL     1      -6.692  -1.798 -34.656  1.00  0.00    -0.340 OA
BRANCH  20  21
HETATM   21  C   UNL     1      -5.912  -2.887 -35.189  1.00  0.00     0.293 C 
BRANCH  21  22
HETATM   22  C   UNL     1      -6.590  -4.212 -34.878  1.00  0.00     0.408 C 
HETATM   23  F   UNL     1      -7.634  -4.041 -34.034  1.00  0.00    -0.169 F 
HETATM   24  F   UNL     1      -7.067  -4.782 -36.007  1.00  0.00    -0.169 F 
HETATM   25  F   UNL     1      -5.735  -5.087 -34.308  1.00  0.00    -0.169 F 
ENDBRANCH  21  22
ENDBRANCH  20  21
ENDBRANCH   2  20
TORSDOF 6
ENDMDL
MODEL 2
REMARK VINA RESULT:      -7.6      3.938      6.797
REMARK  6 active torsions:
REMARK  status: ('A' for Active; 'I' for Inactive)
REMARK    1  A    between atoms: C_2  and  C_3 
REMARK    2  A    between atoms: C_7  and  C_8 
REMARK       I    between atoms: C_8  and  N_9 
REMARK    3  A    between atoms: N_9  and  C_10 
REMARK    4  A    between atoms: C_11  and  O_12 
REMARK    5  A    between atoms: O_12  and  C_13 
REMARK    6  A    between atoms: C_13  and  C_14 
ROOT
HETATM    1  C   UNL     1      -5.032  -0.765 -33.667  1.00  0.00     0.068 A 
HETATM    2  C   UNL     1      -6.360  -0.859 -34.115  1.00  0.00     0.096 A 
HETATM    3  C   UNL     1      -6.870  -2.060 -34.613  1.00  0.00     0.046 A 
HETATM    4  C   UNL     1      -6.038  -3.179 -34.719  1.00  0.00    -0.059 A 
HETATM    5  C   UNL     1      -6.577  -4.488 -35.217  1.00  0.00     0.048 C 
HETATM    6  C   UNL     1      -4.709  -3.083 -34.288  1.00  0.00     0.009 A 
HETATM    7  C   UNL     1      -4.208  -1.884 -33.766  1.00  0.00     0.033 A 
ENDROOT
BRANCH   1   8
HETATM    8  N   UNL     1      -4.626   0.470 -33.117  1.00  0.00    -0.319 N 
HETATM    9  C   UNL     1      -4.392   0.776 -31.792  1.00  0.00     0.274 C 
HETATM   10  O   UNL     1      -4.367  -0.037 -30.875  1.00  0.00    -0.266 OA
HETATM   11  H   UNL     1      -4.375   1.164 -33.812  1.00  0.00     0.169 HD
BRANCH   9  12
HETATM   12  C   UNL     1      -4.121   2.176 -31.577  1.00  0.00     0.120 A 
HETATM   13  N   UNL     1      -4.812   2.997 -30.727  1.00  0.00    -0.273 N 
HETATM   14  N   UNL     1      -4.383   4.267 -30.723  1.00  0.00    -0.179 NA
HETATM   15  H   UNL     1      -5.581   2.751 -30.113  1.00  0.00     0.189 HD
HETATM   16  C   UNL     1      -3.337   4.258 -31.558  1.00  0.00     0.056 A 
HETATM   17  C   UNL     1      -3.115   2.968 -32.093  1.00  0.00     0.065 A 
BRANCH  16  18
HETATM   18  C   UNL     1      -2.573   5.509 -31.827  1.00  0.00     0.056 C 
HETATM   19  C   UNL     1      -1.327   5.253 -32.662  1.00  0.00     0.011 C 
ENDBRANCH  16  18
ENDBRANCH   9  12
ENDBRANCH   1   8
BRANCH   2  20
HETATM   20  O   UNL     1      -7.151   0.261 -34.000  1.00  0.00    -0.340 OA
BRANCH  20  21
HETATM   21  C   UNL     1      -8.322   0.009 -33.199  1.00  0.00     0.293 C 
BRANCH  21  22
HETATM   22  C   UNL     1      -8.181   0.686 -31.845  1.00  0.00     0.408 C 
HETATM   23  F   UNL     1      -7.562   1.884 -31.960  1.00  0.00    -0.169 F 
HETATM   24  F   UNL     1      -9.394   0.905 -31.290  1.00  0.00    -0.169 F 
HETATM   25  F   UNL     1      -7.467  -0.069 -30.982  1.00  0.00    -0.169 F 
ENDBRANCH  21  22
ENDBRANCH  20  21
ENDBRANCH   2  20
TORSDOF 6
ENDMDL
MODEL 3
REMARK VINA RESULT:      -7.3      4.267      5.909
REMARK  6 active torsions:
REMARK  status: ('A' for Active; 'I' for Inactive)
REMARK    1  A    between atoms: C_2  and  C_3 
REMARK    2  A    between atoms: C_7  and  C_8 
REMARK       I    between atoms: C_8  and  N_9 
REMARK    3  A    between atoms: N_9  and  C_10 
REMARK    4  A    between atoms: C_11  and  O_12 
REMARK    5  A    between atoms: O_12  and  C_13 
REMARK    6  A    between atoms: C_13  and  C_14 
ROOT
HETATM    1  C   UNL     1      -5.893  -0.692 -34.141  1.00  0.00     0.068 A 
HETATM    2  C   UNL     1      -4.696  -1.400 -33.942  1.00  0.00     0.096 A 
HETATM    3  C   UNL     1      -4.617  -2.771 -34.196  1.00  0.00     0.046 A 
HETATM    4  C   UNL     1      -5.758  -3.469 -34.607  1.00  0.00    -0.059 A 
HETATM    5  C   UNL     1      -5.684  -4.934 -34.921  1.00  0.00     0.048 C 
HETATM    6  C   UNL     1      -6.956  -2.768 -34.791  1.00  0.00     0.009 A 
HETATM    7  C   UNL     1      -7.024  -1.388 -34.559  1.00  0.00     0.033 A 
ENDROOT
BRANCH   1   8
HETATM    8  N   UNL     1      -5.858   0.702 -33.924  1.00  0.00    -0.319 N 
HETATM    9  C   UNL     1      -6.475   1.423 -32.922  1.00  0.00     0.274 C 
HETATM   10  O   UNL     1      -7.053   0.937 -31.957  1.00  0.00    -0.266 OA
HETATM   11  H   UNL     1      -5.204   1.193 -34.523  1.00  0.00     0.169 HD
BRANCH   9  12
HETATM   12  C   UNL     1      -6.333   2.850 -33.087  1.00  0.00     0.120 A 
HETATM   13  N   UNL     1      -7.036   3.619 -33.974  1.00  0.00    -0.273 N 
HETATM   14  N   UNL     1      -6.705   4.918 -33.953  1.00  0.00    -0.179 NA
HETATM   15  H   UNL     1      -7.765   3.323 -34.614  1.00  0.00     0.189 HD
HETATM   16  C   UNL     1      -5.794   5.005 -32.977  1.00  0.00     0.056 A 
HETATM   17  C   UNL     1      -5.551   3.744 -32.385  1.00  0.00     0.065 A 
BRANCH  16  18
HETATM   18  C   UNL     1      -5.169   6.315 -32.640  1.00  0.00     0.056 C 
HETATM   19  C   UNL     1      -3.659   6.296 -32.826  1.00  0.00     0.011 C 
ENDBRANCH  16  18
ENDBRANCH   9  12
ENDBRANCH   1   8
BRANCH   2  20
HETATM   20  O   UNL     1      -3.594  -0.684 -33.534  1.00  0.00    -0.340 OA
BRANCH  20  21
HETATM   21  C   UNL     1      -3.161  -1.073 -32.215  1.00  0.00     0.293 C 
BRANCH  21  22
HETATM   22  C   UNL     1      -3.191   0.127 -31.283  1.00  0.00     0.408 C 
HETATM   23  F   UNL     1      -2.066   0.194 -30.535  1.00  0.00    -0.169 F 
HETATM   24  F   UNL     1      -3.281   1.278 -31.988  1.00  0.00    -0.169 F 
HETATM   25  F   UNL     1      -4.246   0.079 -30.442  1.00  0.00    -0.169 F 
ENDBRANCH  21  22
ENDBRANCH  20  21
ENDBRANCH   2  20
TORSDOF 6
ENDMDL
MODEL 4
REMARK VINA RESULT:      -7.2      3.033      4.074
REMARK  6 active torsions:
REMARK  status: ('A' for Active; 'I' for Inactive)
REMARK    1  A    between atoms: C_2  and  C_3 
REMARK    2  A    between atoms: C_7  and  C_8 
REMARK       I    between atoms: C_8  and  N_9 
REMARK    3  A    between atoms: N_9  and  C_10 
REMARK    4  A    between atoms: C_11  and  O_12 
REMARK    5  A    between atoms: O_12  and  C_13 
REMARK    6  A    between atoms: C_13  and  C_14 
ROOT
HETATM    1  C   UNL     1      -6.577  -1.709 -33.991  1.00  0.00     0.068 A 
HETATM    2  C   UNL     1      -5.330  -1.461 -33.394  1.00  0.00     0.096 A 
HETATM    3  C   UNL     1      -4.293  -2.393 -33.473  1.00  0.00     0.046 A 
HETATM    4  C   UNL     1      -4.506  -3.619 -34.112  1.00  0.00    -0.059 A 
HETATM    5  C   UNL     1      -3.393  -4.617 -34.240  1.00  0.00     0.048 C 
HETATM    6  C   UNL     1      -5.754  -3.875 -34.695  1.00  0.00     0.009 A 
HETATM    7  C   UNL     1      -6.784  -2.928 -34.635  1.00  0.00     0.033 A 
ENDROOT
BRANCH   1   8
HETATM    8  N   UNL     1      -7.541  -0.681 -33.918  1.00  0.00    -0.319 N 
HETATM    9  C   UNL     1      -7.699   0.400 -34.761  1.00  0.00     0.274 C 
HETATM   10  O   UNL     1      -7.095   0.566 -35.814  1.00  0.00    -0.266 OA
HETATM   11  H   UNL     1      -8.258  -0.843 -33.220  1.00  0.00     0.169 HD
BRANCH   9  12
HETATM   12  C   UNL     1      -8.706   1.326 -34.305  1.00  0.00     0.120 A 
HETATM   13  N   UNL     1      -8.495   2.646 -34.010  1.00  0.00    -0.273 N 
HETATM   14  N   UNL     1      -9.588   3.293 -33.582  1.00  0.00    -0.179 NA
HETATM   15  H   UNL     1      -7.631   3.171 -34.090  1.00  0.00     0.189 HD
HETATM   16  C   UNL     1     -10.558   2.373 -33.656  1.00  0.00     0.056 A 
HETATM   17  C   UNL     1     -10.062   1.138 -34.131  1.00  0.00     0.065 A 
BRANCH  16  18
HETATM   18  C   UNL     1     -11.953   2.712 -33.255  1.00  0.00     0.056 C 
HETATM   19  C   UNL     1     -12.946   1.634 -33.664  1.00  0.00     0.011 C 
ENDBRANCH  16  18
ENDBRANCH   9  12
ENDBRANCH   1   8
BRANCH   2  20
HETATM   20  O   UNL     1      -5.154  -0.247 -32.770  1.00  0.00    -0.340 OA
BRANCH  20  21
HETATM   21  C   UNL     1      -3.760   0.099 -32.656  1.00  0.00     0.293 C 
BRANCH  21  22
HETATM   22  C   UNL     1      -3.430   0.457 -31.216  1.00  0.00     0.408 C 
HETATM   23  F   UNL     1      -4.406   0.046 -30.374  1.00  0.00    -0.169 F 
HETATM   24  F   UNL     1      -2.278  -0.136 -30.827  1.00  0.00    -0.169 F 
HETATM   25  F   UNL     1      -3.278   1.789 -31.056  1.00  0.00    -0.169 F 
ENDBRANCH  21  22
ENDBRANCH  20  21
ENDBRANCH   2  20
TORSDOF 6
ENDMDL
MODEL 5
REMARK VINA RESULT:      -7.2     13.223     15.569
REMARK  6 active torsions:
REMARK  status: ('A' for Active; 'I' for Inactive)
REMARK    1  A    between atoms: C_2  and  C_3 
REMARK    2  A    between atoms: C_7  and  C_8 
REMARK       I    between atoms: C_8  and  N_9 
REMARK    3  A    between atoms: N_9  and  C_10 
REMARK    4  A    between atoms: C_11  and  O_12 
REMARK    5  A    between atoms: O_12  and  C_13 
REMARK    6  A    between atoms: C_13  and  C_14 
ROOT
HETATM    1  C   UNL     1      -5.529 -13.070 -39.113  1.00  0.00     0.068 A 
HETATM    2  C   UNL     1      -6.491 -13.064 -38.089  1.00  0.00     0.096 A 
HETATM    3  C   UNL     1      -7.826 -12.750 -38.353  1.00  0.00     0.046 A 
HETATM    4  C   UNL     1      -8.211 -12.383 -39.647  1.00  0.00    -0.059 A 
HETATM    5  C   UNL     1      -9.647 -12.079 -39.959  1.00  0.00     0.048 C 
HETATM    6  C   UNL     1      -7.251 -12.372 -40.666  1.00  0.00     0.009 A 
HETATM    7  C   UNL     1      -5.918 -12.713 -40.402  1.00  0.00     0.033 A 
ENDROOT
BRANCH   1   8
HETATM    8  N   UNL     1      -4.221 -13.466 -38.763  1.00  0.00    -0.319 N 
HETATM    9  C   UNL     1      -3.136 -12.664 -38.478  1.00  0.00     0.274 C 
HETATM   10  O   UNL     1      -3.174 -11.446 -38.346  1.00  0.00    -0.266 OA
HETATM   11  H   UNL     1      -4.126 -14.462 -38.599  1.00  0.00     0.169 HD
BRANCH   9  12
HETATM   12  C   UNL     1      -1.916 -13.412 -38.292  1.00  0.00     0.120 A 
HETATM   13  N   UNL     1      -1.715 -14.377 -37.342  1.00  0.00    -0.273 N 
HETATM   14  N   UNL     1      -0.485 -14.911 -37.357  1.00  0.00    -0.179 NA
HETATM   15  H   UNL     1      -2.379 -14.727 -36.660  1.00  0.00     0.189 HD
HETATM   16  C   UNL     1       0.116 -14.311 -38.392  1.00  0.00     0.056 A 
HETATM   17  C   UNL     1      -0.748 -13.389 -39.026  1.00  0.00     0.065 A 
BRANCH  16  18
HETATM   18  C   UNL     1       1.526 -14.642 -38.742  1.00  0.00     0.056 C 
HETATM   19  C   UNL     1       1.870 -16.092 -38.434  1.00  0.00     0.011 C 
ENDBRANCH  16  18
ENDBRANCH   9  12
ENDBRANCH   1   8
BRANCH   2  20
HETATM   20  O   UNL     1      -6.078 -13.426 -36.827  1.00  0.00    -0.340 OA
BRANCH  20  21
HETATM   21  C   UNL     1      -7.195 -13.702 -35.957  1.00  0.00     0.293 C 
BRANCH  21  22
HETATM   22  C   UNL     1      -6.796 -13.463 -34.510  1.00  0.00     0.408 C 
HETATM   23  F   UNL     1      -5.455 -13.340 -34.386  1.00  0.00    -0.169 F 
HETATM   24  F   UNL     1      -7.356 -12.325 -34.040  1.00  0.00    -0.169 F 
HETATM   25  F   UNL     1      -7.196 -14.475 -33.710  1.00  0.00    -0.169 F 
ENDBRANCH  21  22
ENDBRANCH  20  21
ENDBRANCH   2  20
TORSDOF 6
ENDMDL
MODEL 6
REMARK VINA RESULT:      -7.1      3.775      6.286
REMARK  6 active torsions:
REMARK  status: ('A' for Active; 'I' for Inactive)
REMARK    1  A    between atoms: C_2  and  C_3 
REMARK    2  A    between atoms: C_7  and  C_8 
REMARK       I    between atoms: C_8  and  N_9 
REMARK    3  A    between atoms: N_9  and  C_10 
REMARK    4  A    between atoms: C_11  and  O_12 
REMARK    5  A    between atoms: O_12  and  C_13 
REMARK    6  A    between atoms: C_13  and  C_14 
ROOT
HETATM    1  C   UNL     1      -5.506  -0.438 -33.279  1.00  0.00     0.068 A 
HETATM    2  C   UNL     1      -6.823  -0.901 -33.432  1.00  0.00     0.096 A 
HETATM    3  C   UNL     1      -7.091  -2.132 -34.036  1.00  0.00     0.046 A 
HETATM    4  C   UNL     1      -6.039  -2.899 -34.547  1.00  0.00    -0.059 A 
HETATM    5  C   UNL     1      -6.303  -4.240 -35.167  1.00  0.00     0.048 C 
HETATM    6  C   UNL     1      -4.726  -2.432 -34.411  1.00  0.00     0.009 A 
HETATM    7  C   UNL     1      -4.460  -1.209 -33.782  1.00  0.00     0.033 A 
ENDROOT
BRANCH   1   8
HETATM    8  N   UNL     1      -5.329   0.784 -32.595  1.00  0.00    -0.319 N 
HETATM    9  C   UNL     1      -4.891   0.980 -31.302  1.00  0.00     0.274 C 
HETATM   10  O   UNL     1      -4.443   0.106 -30.569  1.00  0.00    -0.266 OA
HETATM   11  H   UNL     1      -5.437   1.601 -33.185  1.00  0.00     0.169 HD
BRANCH   9  12
HETATM   12  C   UNL     1      -4.962   2.360 -30.887  1.00  0.00     0.120 A 
HETATM   13  N   UNL     1      -5.394   2.800 -29.665  1.00  0.00    -0.273 N 
HETATM   14  N   UNL     1      -5.388   4.134 -29.530  1.00  0.00    -0.179 NA
HETATM   15  H   UNL     1      -5.695   2.241 -28.874  1.00  0.00     0.189 HD
HETATM   16  C   UNL     1      -4.879   4.574 -30.688  1.00  0.00     0.056 A 
HETATM   17  C   UNL     1      -4.569   3.502 -31.556  1.00  0.00     0.065 A 
BRANCH  16  18
HETATM   18  C   UNL     1      -4.710   6.034 -30.932  1.00  0.00     0.056 C 
HETATM   19  C   UNL     1      -5.420   6.490 -32.199  1.00  0.00     0.011 C 
ENDBRANCH  16  18
ENDBRANCH   9  12
ENDBRANCH   1   8
BRANCH   2  20
HETATM   20  O   UNL     1      -7.835  -0.120 -32.921  1.00  0.00    -0.340 OA
BRANCH  20  21
HETATM   21  C   UNL     1      -8.738   0.328 -33.952  1.00  0.00     0.293 C 
BRANCH  21  22
HETATM   22  C   UNL     1     -10.107   0.610 -33.356  1.00  0.00     0.408 C 
HETATM   23  F   UNL     1     -10.579  -0.466 -32.684  1.00  0.00    -0.169 F 
HETATM   24  F   UNL     1     -10.047   1.642 -32.484  1.00  0.00    -0.169 F 
HETATM   25  F   UNL     1     -11.009   0.932 -34.308  1.00  0.00    -0.169 F 
ENDBRANCH  21  22
ENDBRANCH  20  21
ENDBRANCH   2  20
TORSDOF 6
ENDMDL
MODEL 7
REMARK VINA RESULT:      -7.1     14.017     16.471
REMARK  6 active torsions:
REMARK  status: ('A' for Active; 'I' for Inactive)
REMARK    1  A    between atoms: C_2  and  C_3 
REMARK    2  A    between atoms: C_7  and  C_8 
REMARK       I    between atoms: C_8  and  N_9 
REMARK    3  A    between atoms: N_9  and  C_10 
REMARK    4  A    between atoms: C_11  and  O_12 
REMARK    5  A    between atoms: O_12  and  C_13 
REMARK    6  A    between atoms: C_13  and  C_14 
ROOT
HETATM    1  C   UNL     1      -5.267 -13.252 -39.421  1.00  0.00     0.068 A 
HETATM    2  C   UNL     1      -5.833 -13.042 -40.689  1.00  0.00     0.096 A 
HETATM    3  C   UNL     1      -7.168 -12.656 -40.830  1.00  0.00     0.046 A 
HETATM    4  C   UNL     1      -7.977 -12.524 -39.696  1.00  0.00    -0.059 A 
HETATM    5  C   UNL     1      -9.403 -12.074 -39.824  1.00  0.00     0.048 C 
HETATM    6  C   UNL     1      -7.419 -12.748 -38.431  1.00  0.00     0.009 A 
HETATM    7  C   UNL     1      -6.073 -13.111 -38.293  1.00  0.00     0.033 A 
ENDROOT
BRANCH   1   8
HETATM    8  N   UNL     1      -3.894 -13.573 -39.375  1.00  0.00    -0.319 N 
HETATM    9  C   UNL     1      -2.857 -12.808 -38.882  1.00  0.00     0.274 C 
HETATM   10  O   UNL     1      -2.987 -11.758 -38.264  1.00  0.00    -0.266 OA
HETATM   11  H   UNL     1      -3.689 -14.530 -39.639  1.00  0.00     0.169 HD
BRANCH   9  12
HETATM   12  C   UNL     1      -1.561 -13.396 -39.121  1.00  0.00     0.120 A 
HETATM   13  N   UNL     1      -1.042 -13.697 -40.352  1.00  0.00    -0.273 N 
HETATM   14  N   UNL     1       0.174 -14.260 -40.309  1.00  0.00    -0.179 NA
HETATM   15  H   UNL     1      -1.461 -13.533 -41.261  1.00  0.00     0.189 HD
HETATM   16  C   UNL     1       0.480 -14.273 -39.006  1.00  0.00     0.056 A 
HETATM   17  C   UNL     1      -0.560 -13.715 -38.227  1.00  0.00     0.065 A 
BRANCH  16  18
HETATM   18  C   UNL     1       1.779 -14.835 -38.540  1.00  0.00     0.056 C 
HETATM   19  C   UNL     1       1.597 -15.855 -37.427  1.00  0.00     0.011 C 
ENDBRANCH  16  18
ENDBRANCH   9  12
ENDBRANCH   1   8
BRANCH   2  20
HETATM   20  O   UNL     1      -5.011 -13.184 -41.784  1.00  0.00    -0.340 OA
BRANCH  20  21
HETATM   21  C   UNL     1      -5.400 -14.305 -42.604  1.00  0.00     0.293 C 
BRANCH  21  22
HETATM   22  C   UNL     1      -4.194 -14.839 -43.359  1.00  0.00     0.408 C 
HETATM   23  F   UNL     1      -3.041 -14.506 -42.736  1.00  0.00    -0.169 F 
HETATM   24  F   UNL     1      -4.240 -16.188 -43.440  1.00  0.00    -0.169 F 
HETATM   25  F   UNL     1      -4.141 -14.356 -44.618  1.00  0.00    -0.169 F 
ENDBRANCH  21  22
ENDBRANCH  20  21
ENDBRANCH   2  20
TORSDOF 6
ENDMDL
MODEL 8
REMARK VINA RESULT:      -7.0      3.072      4.244
REMARK  6 active torsions:
REMARK  status: ('A' for Active; 'I' for Inactive)
REMARK    1  A    between atoms: C_2  and  C_3 
REMARK    2  A    between atoms: C_7  and  C_8 
REMARK       I    between atoms: C_8  and  N_9 
REMARK    3  A    between atoms: N_9  and  C_10 
REMARK    4  A    between atoms: C_11  and  O_12 
REMARK    5  A    between atoms: O_12  and  C_13 
REMARK    6  A    between atoms: C_13  and  C_14 
ROOT
HETATM    1  C   UNL     1      -7.214  -0.510 -34.016  1.00  0.00     0.068 A 
HETATM    2  C   UNL     1      -5.971  -0.251 -33.414  1.00  0.00     0.096 A 
HETATM    3  C   UNL     1      -4.932  -1.183 -33.472  1.00  0.00     0.046 A 
HETATM    4  C   UNL     1      -5.140  -2.419 -34.094  1.00  0.00    -0.059 A 
HETATM    5  C   UNL     1      -4.026  -3.418 -34.199  1.00  0.00     0.048 C 
HETATM    6  C   UNL     1      -6.384  -2.685 -34.681  1.00  0.00     0.009 A 
HETATM    7  C   UNL     1      -7.414  -1.738 -34.642  1.00  0.00     0.033 A 
ENDROOT
BRANCH   1   8
HETATM    8  N   UNL     1      -8.178   0.519 -33.964  1.00  0.00    -0.319 N 
HETATM    9  C   UNL     1      -9.305   0.590 -33.171  1.00  0.00     0.274 C 
HETATM   10  O   UNL     1      -9.578  -0.186 -32.263  1.00  0.00    -0.266 OA
HETATM   11  H   UNL     1      -7.928   1.341 -34.502  1.00  0.00     0.169 HD
BRANCH   9  12
HETATM   12  C   UNL     1     -10.139   1.726 -33.480  1.00  0.00     0.120 A 
HETATM   13  N   UNL     1     -11.336   2.016 -32.883  1.00  0.00    -0.273 N 
HETATM   14  N   UNL     1     -11.934   3.117 -33.362  1.00  0.00    -0.179 NA
HETATM   15  H   UNL     1     -11.797   1.511 -32.133  1.00  0.00     0.189 HD
HETATM   16  C   UNL     1     -11.066   3.590 -34.263  1.00  0.00     0.056 A 
HETATM   17  C   UNL     1      -9.916   2.773 -34.351  1.00  0.00     0.065 A 
BRANCH  16  18
HETATM   18  C   UNL     1     -11.374   4.829 -35.031  1.00  0.00     0.056 C 
HETATM   19  C   UNL     1     -10.126   5.649 -35.324  1.00  0.00     0.011 C 
ENDBRANCH  16  18
ENDBRANCH   9  12
ENDBRANCH   1   8
BRANCH   2  20
HETATM   20  O   UNL     1      -5.800   0.973 -32.808  1.00  0.00    -0.340 OA
BRANCH  20  21
HETATM   21  C   UNL     1      -5.206   0.844 -31.500  1.00  0.00     0.293 C 
BRANCH  21  22
HETATM   22  C   UNL     1      -6.293   0.710 -30.447  1.00  0.00     0.408 C 
HETATM   23  F   UNL     1      -5.823   1.022 -29.217  1.00  0.00    -0.169 F 
HETATM   24  F   UNL     1      -7.324   1.543 -30.714  1.00  0.00    -0.169 F 
HETATM   25  F   UNL     1      -6.786  -0.546 -30.396  1.00  0.00    -0.169 F 
ENDBRANCH  21  22
ENDBRANCH  20  21
ENDBRANCH   2  20
TORSDOF 6
ENDMDL
MODEL 9
REMARK VINA RESULT:      -7.0      9.196     10.766
REMARK  6 active torsions:
REMARK  status: ('A' for Active; 'I' for Inactive)
REMARK    1  A    between atoms: C_2  and  C_3 
REMARK    2  A    between atoms: C_7  and  C_8 
REMARK       I    between atoms: C_8  and  N_9 
REMARK    3  A    between atoms: N_9  and  C_10 
REMARK    4  A    between atoms: C_11  and  O_12 
REMARK    5  A    between atoms: O_12  and  C_13 
REMARK    6  A    between atoms: C_13  and  C_14 
ROOT
HETATM    1  C   UNL     1      -2.144   8.261 -30.211  1.00  0.00     0.068 A 
HETATM    2  C   UNL     1      -1.377   7.654 -29.202  1.00  0.00     0.096 A 
HETATM    3  C   UNL     1      -0.911   8.388 -28.108  1.00  0.00     0.046 A 
HETATM    4  C   UNL     1      -1.164   9.762 -28.034  1.00  0.00    -0.059 A 
HETATM    5  C   UNL     1      -0.704  10.560 -26.850  1.00  0.00     0.048 C 
HETATM    6  C   UNL     1      -1.915  10.372 -29.047  1.00  0.00     0.009 A 
HETATM    7  C   UNL     1      -2.401   9.627 -30.129  1.00  0.00     0.033 A 
ENDROOT
BRANCH   1   8
HETATM    8  N   UNL     1      -2.628   7.425 -31.240  1.00  0.00    -0.319 N 
HETATM    9  C   UNL     1      -2.379   7.512 -32.594  1.00  0.00     0.274 C 
HETATM   10  O   UNL     1      -1.566   8.266 -33.115  1.00  0.00    -0.266 OA
HETATM   11  H   UNL     1      -3.122   6.607 -30.903  1.00  0.00     0.169 HD
BRANCH   9  12
HETATM   12  C   UNL     1      -3.150   6.569 -33.369  1.00  0.00     0.120 A 
HETATM   13  N   UNL     1      -2.914   6.236 -34.675  1.00  0.00    -0.273 N 
HETATM   14  N   UNL     1      -3.786   5.352 -35.181  1.00  0.00    -0.179 NA
HETATM   15  H   UNL     1      -2.167   6.567 -35.277  1.00  0.00     0.189 HD
HETATM   16  C   UNL     1      -4.583   5.058 -34.147  1.00  0.00     0.056 A 
HETATM   17  C   UNL     1      -4.207   5.770 -32.985  1.00  0.00     0.065 A 
BRANCH  16  18
HETATM   18  C   UNL     1      -5.705   4.091 -34.310  1.00  0.00     0.056 C 
HETATM   19  C   UNL     1      -7.033   4.667 -33.842  1.00  0.00     0.011 C 
ENDBRANCH  16  18
ENDBRANCH   9  12
ENDBRANCH   1   8
BRANCH   2  20
HETATM   20  O   UNL     1      -1.143   6.302 -29.307  1.00  0.00    -0.340 OA
BRANCH  20  21
HETATM   21  C   UNL     1       0.262   6.011 -29.453  1.00  0.00     0.293 C 
BRANCH  21  22
HETATM   22  C   UNL     1       0.580   5.706 -30.908  1.00  0.00     0.408 C 
HETATM   23  F   UNL     1       0.906   6.832 -31.584  1.00  0.00    -0.169 F 
HETATM   24  F   UNL     1       1.628   4.857 -31.000  1.00  0.00    -0.169 F 
HETATM   25  F   UNL     1      -0.467   5.132 -31.538  1.00  0.00    -0.169 F 
ENDBRANCH  21  22
ENDBRANCH  20  21
ENDBRANCH   2  20
TORSDOF 6
ENDMDL
MODEL 10
REMARK VINA RESULT:      -6.9     13.564     15.115
REMARK  6 active torsions:
REMARK  status: ('A' for Active; 'I' for Inactive)
REMARK    1  A    between atoms: C_2  and  C_3 
REMARK    2  A    between atoms: C_7  and  C_8 
REMARK       I    between atoms: C_8  and  N_9 
REMARK    3  A    between atoms: N_9  and  C_10 
REMARK    4  A    between atoms: C_11  and  O_12 
REMARK    5  A    between atoms: O_12  and  C_13 
REMARK    6  A    between atoms: C_13  and  C_14 
ROOT
HETATM    1  C   UNL     1      -2.273 -13.926 -39.303  1.00  0.00     0.068 A 
HETATM    2  C   UNL     1      -1.637 -14.067 -40.548  1.00  0.00     0.096 A 
HETATM    3  C   UNL     1      -0.312 -14.498 -40.638  1.00  0.00     0.046 A 
HETATM    4  C   UNL     1       0.419 -14.746 -39.471  1.00  0.00    -0.059 A 
HETATM    5  C   UNL     1       1.832 -15.245 -39.547  1.00  0.00     0.048 C 
HETATM    6  C   UNL     1      -0.208 -14.591 -38.228  1.00  0.00     0.009 A 
HETATM    7  C   UNL     1      -1.545 -14.184 -38.144  1.00  0.00     0.033 A 
ENDROOT
BRANCH   1   8
HETATM    8  N   UNL     1      -3.634 -13.552 -39.316  1.00  0.00    -0.319 N 
HETATM    9  C   UNL     1      -4.256 -12.579 -38.561  1.00  0.00     0.274 C 
HETATM   10  O   UNL     1      -3.682 -11.772 -37.840  1.00  0.00    -0.266 OA
HETATM   11  H   UNL     1      -4.171 -13.989 -40.057  1.00  0.00     0.169 HD
BRANCH   9  12
HETATM   12  C   UNL     1      -5.688 -12.561 -38.737  1.00  0.00     0.120 A 
HETATM   13  N   UNL     1      -6.612 -12.579 -37.727  1.00  0.00    -0.273 N 
HETATM   14  N   UNL     1      -7.884 -12.580 -38.149  1.00  0.00    -0.179 NA
HETATM   15  H   UNL     1      -6.441 -12.578 -36.727  1.00  0.00     0.189 HD
HETATM   16  C   UNL     1      -7.783 -12.502 -39.482  1.00  0.00     0.056 A 
HETATM   17  C   UNL     1      -6.432 -12.457 -39.895  1.00  0.00     0.065 A 
BRANCH  16  18
HETATM   18  C   UNL     1      -9.006 -12.480 -40.332  1.00  0.00     0.056 C 
HETATM   19  C   UNL     1     -10.242 -12.944 -39.575  1.00  0.00     0.011 C 
ENDBRANCH  16  18
ENDBRANCH   9  12
ENDBRANCH   1   8
BRANCH   2  20
HETATM   20  O   UNL     1      -2.384 -13.811 -41.676  1.00  0.00    -0.340 OA
BRANCH  20  21
HETATM   21  C   UNL     1      -2.791 -15.027 -42.335  1.00  0.00     0.293 C 
BRANCH  21  22
HETATM   22  C   UNL     1      -4.293 -15.013 -42.568  1.00  0.00     0.408 C 
HETATM   23  F   UNL     1      -4.753 -13.750 -42.721  1.00  0.00    -0.169 F 
HETATM   24  F   UNL     1      -4.610 -15.702 -43.688  1.00  0.00    -0.169 F 
HETATM   25  F   UNL     1      -4.962 -15.575 -41.539  1.00  0.00    -0.169 F 
ENDBRANCH  21  22
ENDBRANCH  20  21
ENDBRANCH   2  20
TORSDOF 6
ENDMDL
