MODEL 1
REMARK VINA RESULT:      -8.0      0.000      0.000
REMARK  5 active torsions:
REMARK  status: ('A' for Active; 'I' for Inactive)
REMARK    1  A    between atoms: O_2  and  C_3 
REMARK    2  A    between atoms: C_4  and  C_5 
REMARK       I    between atoms: C_5  and  N_6 
REMARK    3  A    between atoms: N_6  and  C_7 
REMARK    4  A    between atoms: C_7  and  C_8 
REMARK    5  A    between atoms: C_8  and  C_9 
ROOT
HETATM    1  C   UNL     1      -4.943   0.720 -31.650  1.00  0.00     0.256 C 
HETATM    2  N   UNL     1      -4.147   1.663 -32.267  1.00  0.00    -0.356 N 
HETATM    3  O   UNL     1      -5.072   0.637 -30.435  1.00  0.00    -0.268 OA
HETATM    4  H   UNL     1      -3.982   1.609 -33.265  1.00  0.00     0.162 HD
ENDROOT
BRANCH   2   5
HETATM    5  C   UNL     1      -3.340   2.591 -31.494  1.00  0.00     0.130 C 
BRANCH   5   6
HETATM    6  C   UNL     1      -2.735   3.701 -32.355  1.00  0.00     0.098 C 
BRANCH   6   7
HETATM    7  C   UNL     1      -2.043   4.709 -31.509  1.00  0.00     0.106 A 
HETATM    8  N   UNL     1      -0.741   4.870 -31.388  1.00  0.00    -0.233 NA
HETATM    9  C   UNL     1      -0.580   5.911 -30.507  1.00  0.00     0.085 A 
HETATM   10  C   UNL     1      -1.810   6.405 -30.089  1.00  0.00     0.062 A 
HETATM   11  C   UNL     1       0.597   6.496 -30.015  1.00  0.00     0.034 A 
HETATM   12  N   UNL     1      -2.727   5.621 -30.741  1.00  0.00    -0.343 N 
HETATM   13  C   UNL     1      -1.945   7.468 -29.194  1.00  0.00     0.032 A 
HETATM   14  H   UNL     1      -3.732   5.697 -30.671  1.00  0.00     0.167 HD
HETATM   15  C   UNL     1      -0.761   8.039 -28.713  1.00  0.00     0.002 A 
HETATM   16  C   UNL     1       0.491   7.563 -29.114  1.00  0.00     0.002 A 
ENDBRANCH   6   7
ENDBRANCH   5   6
ENDBRANCH   2   5
BRANCH   1  17
HETATM   17  C   UNL     1      -5.670  -0.199 -32.555  1.00  0.00     0.088 A 
HETATM   18  C   UNL     1      -4.956  -1.207 -33.230  1.00  0.00     0.107 A 
HETATM   19  C   UNL     1      -5.623  -2.050 -34.132  1.00  0.00     0.068 A 
HETATM   20  C   UNL     1      -6.996  -1.918 -34.336  1.00  0.00     0.028 A 
HETATM   21 CL   UNL     1      -4.785  -3.281 -35.006  1.00  0.00    -0.081 Cl
HETATM   22  C   UNL     1      -7.708  -0.929 -33.658  1.00  0.00     0.027 A 
HETATM   23  C   UNL     1      -7.050  -0.065 -32.776  1.00  0.00     0.052 A 
HETATM   24 CL   UNL     1      -8.010   1.164 -32.027  1.00  0.00    -0.083 Cl
BRANCH  18  25
HETATM   25  O   UNL     1      -3.597  -1.346 -33.082  1.00  0.00    -0.353 OA
HETATM   26  C   UNL     1      -3.278  -2.326 -32.094  1.00  0.00     0.210 C 
ENDBRANCH  18  25
ENDBRANCH   1  17
TORSDOF 5
ENDMDL
MODEL 2
REMARK VINA RESULT:      -7.8      2.954      4.145
REMARK  5 active torsions:
REMARK  status: ('A' for Active; 'I' for Inactive)
REMARK    1  A    between atoms: O_2  and  C_3 
REMARK    2  A    between atoms: C_4  and  C_5 
REMARK       I    between atoms: C_5  and  N_6 
REMARK    3  A    between atoms: N_6  and  C_7 
REMARK    4  A    between atoms: C_7  and  C_8 
REMARK    5  A    between atoms: C_8  and  C_9 
ROOT
HETATM    1  C   UNL     1      -7.403   1.985 -33.176  1.00  0.00     0.256 C 
HETATM    2  N   UNL     1      -6.979   3.190 -33.695  1.00  0.00    -0.356 N 
HETATM    3  O   UNL     1      -8.541   1.790 -32.764  1.00  0.00    -0.268 OA
HETATM    4  H   UNL     1      -5.999   3.332 -33.907  1.00  0.00     0.162 HD
ENDROOT
BRANCH   2   5
HETATM    5  C   UNL     1      -7.854   4.349 -33.723  1.00  0.00     0.130 C 
BRANCH   5   6
HETATM    6  C   UNL     1      -7.187   5.603 -33.157  1.00  0.00     0.098 C 
BRANCH   6   7
HETATM    7  C   UNL     1      -5.713   5.553 -33.352  1.00  0.00     0.106 A 
HETATM    8  N   UNL     1      -5.079   5.377 -34.493  1.00  0.00    -0.233 NA
HETATM    9  C   UNL     1      -3.742   5.403 -34.179  1.00  0.00     0.085 A 
HETATM   10  C   UNL     1      -3.555   5.611 -32.818  1.00  0.00     0.062 A 
HETATM   11  C   UNL     1      -2.623   5.256 -35.012  1.00  0.00     0.034 A 
HETATM   12  N   UNL     1      -4.827   5.703 -32.313  1.00  0.00    -0.343 N 
HETATM   13  C   UNL     1      -2.295   5.687 -32.220  1.00  0.00     0.032 A 
HETATM   14  H   UNL     1      -5.073   5.854 -31.344  1.00  0.00     0.167 HD
HETATM   15  C   UNL     1      -1.190   5.538 -33.066  1.00  0.00     0.002 A 
HETATM   16  C   UNL     1      -1.347   5.325 -34.438  1.00  0.00     0.002 A 
ENDBRANCH   6   7
ENDBRANCH   5   6
ENDBRANCH   2   5
BRANCH   1  17
HETATM   17  C   UNL     1      -6.394   0.902 -33.157  1.00  0.00     0.088 A 
HETATM   18  C   UNL     1      -5.364   0.937 -32.199  1.00  0.00     0.107 A 
HETATM   19  C   UNL     1      -4.370  -0.053 -32.205  1.00  0.00     0.068 A 
HETATM   20  C   UNL     1      -4.416  -1.092 -33.134  1.00  0.00     0.028 A 
HETATM   21 CL   UNL     1      -3.069  -0.035 -31.069  1.00  0.00    -0.081 Cl
HETATM   22  C   UNL     1      -5.443  -1.137 -34.076  1.00  0.00     0.027 A 
HETATM   23  C   UNL     1      -6.426  -0.141 -34.097  1.00  0.00     0.052 A 
HETATM   24 CL   UNL     1      -7.624  -0.255 -35.339  1.00  0.00    -0.083 Cl
BRANCH  18  25
HETATM   25  O   UNL     1      -5.263   1.963 -31.290  1.00  0.00    -0.353 OA
HETATM   26  C   UNL     1      -5.895   1.628 -30.055  1.00  0.00     0.210 C 
ENDBRANCH  18  25
ENDBRANCH   1  17
TORSDOF 5
ENDMDL
MODEL 3
REMARK VINA RESULT:      -7.7     17.306     19.052
REMARK  5 active torsions:
REMARK  status: ('A' for Active; 'I' for Inactive)
REMARK    1  A    between atoms: O_2  and  C_3 
REMARK    2  A    between atoms: C_4  and  C_5 
REMARK       I    between atoms: C_5  and  N_6 
REMARK    3  A    between atoms: N_6  and  C_7 
REMARK    4  A    between atoms: C_7  and  C_8 
REMARK    5  A    between atoms: C_8  and  C_9 
ROOT
HETATM    1  C   UNL     1      -3.957 -13.154 -37.932  1.00  0.00     0.256 C 
HETATM    2  N   UNL     1      -4.695 -14.124 -37.287  1.00  0.00    -0.356 N 
HETATM    3  O   UNL     1      -3.745 -12.043 -37.461  1.00  0.00    -0.268 OA
HETATM    4  H   UNL     1      -4.941 -14.978 -37.772  1.00  0.00     0.162 HD
ENDROOT
BRANCH   2   5
HETATM    5  C   UNL     1      -5.338 -13.860 -36.011  1.00  0.00     0.130 C 
BRANCH   5   6
HETATM    6  C   UNL     1      -6.654 -14.621 -35.847  1.00  0.00     0.098 C 
BRANCH   6   7
HETATM    7  C   UNL     1      -7.569 -14.349 -36.988  1.00  0.00     0.106 A 
HETATM    8  N   UNL     1      -7.886 -13.167 -37.474  1.00  0.00    -0.233 NA
HETATM    9  C   UNL     1      -8.753 -13.416 -38.510  1.00  0.00     0.085 A 
HETATM   10  C   UNL     1      -8.961 -14.781 -38.668  1.00  0.00     0.062 A 
HETATM   11  C   UNL     1      -9.404 -12.518 -39.369  1.00  0.00     0.034 A 
HETATM   12  N   UNL     1      -8.196 -15.354 -37.685  1.00  0.00    -0.343 N 
HETATM   13  C   UNL     1      -9.794 -15.320 -39.650  1.00  0.00     0.032 A 
HETATM   14  H   UNL     1      -8.107 -16.344 -37.501  1.00  0.00     0.167 HD
HETATM   15  C   UNL     1     -10.437 -14.410 -40.497  1.00  0.00     0.002 A 
HETATM   16  C   UNL     1     -10.248 -13.032 -40.362  1.00  0.00     0.002 A 
ENDBRANCH   6   7
ENDBRANCH   5   6
ENDBRANCH   2   5
BRANCH   1  17
HETATM   17  C   UNL     1      -3.403 -13.538 -39.251  1.00  0.00     0.088 A 
HETATM   18  C   UNL     1      -4.268 -13.647 -40.355  1.00  0.00     0.107 A 
HETATM   19  C   UNL     1      -3.765 -14.063 -41.597  1.00  0.00     0.068 A 
HETATM   20  C   UNL     1      -2.406 -14.336 -41.752  1.00  0.00     0.028 A 
HETATM   21 CL   UNL     1      -4.792 -14.240 -42.975  1.00  0.00    -0.081 Cl
HETATM   22  C   UNL     1      -1.544 -14.216 -40.662  1.00  0.00     0.027 A 
HETATM   23  C   UNL     1      -2.038 -13.827 -39.412  1.00  0.00     0.052 A 
HETATM   24 CL   UNL     1      -0.901 -13.763 -38.110  1.00  0.00    -0.083 Cl
BRANCH  18  25
HETATM   25  O   UNL     1      -5.618 -13.421 -40.236  1.00  0.00    -0.353 OA
HETATM   26  C   UNL     1      -5.950 -12.070 -40.555  1.00  0.00     0.210 C 
ENDBRANCH  18  25
ENDBRANCH   1  17
TORSDOF 5
ENDMDL
MODEL 4
REMARK VINA RESULT:      -7.7      2.943      4.080
REMARK  5 active torsions:
REMARK  status: ('A' for Active; 'I' for Inactive)
REMARK    1  A    between atoms: O_2  and  C_3 
REMARK    2  A    between atoms: C_4  and  C_5 
REMARK       I    between atoms: C_5  and  N_6 
REMARK    3  A    between atoms: N_6  and  C_7 
REMARK    4  A    between atoms: C_7  and  C_8 
REMARK    5  A    between atoms: C_8  and  C_9 
ROOT
HETATM    1  C   UNL     1      -6.484   1.452 -31.511  1.00  0.00     0.256 C 
HETATM    2  N   UNL     1      -6.968   2.526 -32.227  1.00  0.00    -0.356 N 
HETATM    3  O   UNL     1      -6.643   1.319 -30.304  1.00  0.00    -0.268 OA
HETATM    4  H   UNL     1      -6.703   2.648 -33.197  1.00  0.00     0.162 HD
ENDROOT
BRANCH   2   5
HETATM    5  C   UNL     1      -7.652   3.625 -31.569  1.00  0.00     0.130 C 
BRANCH   5   6
HETATM    6  C   UNL     1      -7.281   4.987 -32.159  1.00  0.00     0.098 C 
BRANCH   6   7
HETATM    7  C   UNL     1      -5.868   4.996 -32.623  1.00  0.00     0.106 A 
HETATM    8  N   UNL     1      -4.800   4.773 -31.886  1.00  0.00    -0.233 NA
HETATM    9  C   UNL     1      -3.732   4.888 -32.743  1.00  0.00     0.085 A 
HETATM   10  C   UNL     1      -4.159   5.177 -34.034  1.00  0.00     0.062 A 
HETATM   11  C   UNL     1      -2.359   4.756 -32.487  1.00  0.00     0.034 A 
HETATM   12  N   UNL     1      -5.524   5.241 -33.931  1.00  0.00    -0.343 N 
HETATM   13  C   UNL     1      -3.285   5.343 -35.110  1.00  0.00     0.032 A 
HETATM   14  H   UNL     1      -6.169   5.436 -34.684  1.00  0.00     0.167 HD
HETATM   15  C   UNL     1      -1.919   5.208 -34.836  1.00  0.00     0.002 A 
HETATM   16  C   UNL     1      -1.460   4.920 -33.548  1.00  0.00     0.002 A 
ENDBRANCH   6   7
ENDBRANCH   5   6
ENDBRANCH   2   5
BRANCH   1  17
HETATM   17  C   UNL     1      -5.758   0.429 -32.299  1.00  0.00     0.088 A 
HETATM   18  C   UNL     1      -6.489  -0.499 -33.063  1.00  0.00     0.107 A 
HETATM   19  C   UNL     1      -5.817  -1.507 -33.769  1.00  0.00     0.068 A 
HETATM   20  C   UNL     1      -4.424  -1.573 -33.747  1.00  0.00     0.028 A 
HETATM   21 CL   UNL     1      -6.673  -2.686 -34.697  1.00  0.00    -0.081 Cl
HETATM   22  C   UNL     1      -3.695  -0.647 -33.001  1.00  0.00     0.027 A 
HETATM   23  C   UNL     1      -4.356   0.347 -32.271  1.00  0.00     0.052 A 
HETATM   24 CL   UNL     1      -3.367   1.412 -31.334  1.00  0.00    -0.083 Cl
BRANCH  18  25
HETATM   25  O   UNL     1      -7.864  -0.488 -33.082  1.00  0.00    -0.353 OA
HETATM   26  C   UNL     1      -8.363   0.170 -34.247  1.00  0.00     0.210 C 
ENDBRANCH  18  25
ENDBRANCH   1  17
TORSDOF 5
ENDMDL
MODEL 5
REMARK VINA RESULT:      -7.6      4.527      7.648
REMARK  5 active torsions:
REMARK  status: ('A' for Active; 'I' for Inactive)
REMARK    1  A    between atoms: O_2  and  C_3 
REMARK    2  A    between atoms: C_4  and  C_5 
REMARK       I    between atoms: C_5  and  N_6 
REMARK    3  A    between atoms: N_6  and  C_7 
REMARK    4  A    between atoms: C_7  and  C_8 
REMARK    5  A    between atoms: C_8  and  C_9 
ROOT
HETATM    1  C   UNL     1      -6.316   1.388 -32.832  1.00  0.00     0.256 C 
HETATM    2  N   UNL     1      -7.003   1.458 -31.639  1.00  0.00    -0.356 N 
HETATM    3  O   UNL     1      -6.019   2.373 -33.499  1.00  0.00    -0.268 OA
HETATM    4  H   UNL     1      -7.329   0.610 -31.192  1.00  0.00     0.162 HD
ENDROOT
BRANCH   2   5
HETATM    5  C   UNL     1      -7.489   2.726 -31.121  1.00  0.00     0.130 C 
BRANCH   5   6
HETATM    6  C   UNL     1      -8.978   2.688 -30.775  1.00  0.00     0.098 C 
BRANCH   6   7
HETATM    7  C   UNL     1      -9.808   2.685 -32.009  1.00  0.00     0.106 A 
HETATM    8  N   UNL     1      -9.940   3.675 -32.867  1.00  0.00    -0.233 NA
HETATM    9  C   UNL     1     -10.799   3.212 -33.834  1.00  0.00     0.085 A 
HETATM   10  C   UNL     1     -11.192   1.906 -33.566  1.00  0.00     0.062 A 
HETATM   11  C   UNL     1     -11.290   3.855 -34.980  1.00  0.00     0.034 A 
HETATM   12  N   UNL     1     -10.547   1.593 -32.397  1.00  0.00    -0.343 N 
HETATM   13  C   UNL     1     -12.060   1.183 -34.386  1.00  0.00     0.032 A 
HETATM   14  H   UNL     1     -10.604   0.714 -31.902  1.00  0.00     0.167 HD
HETATM   15  C   UNL     1     -12.541   1.840 -35.525  1.00  0.00     0.002 A 
HETATM   16  C   UNL     1     -12.165   3.154 -35.819  1.00  0.00     0.002 A 
ENDBRANCH   6   7
ENDBRANCH   5   6
ENDBRANCH   2   5
BRANCH   1  17
HETATM   17  C   UNL     1      -5.928   0.029 -33.272  1.00  0.00     0.088 A 
HETATM   18  C   UNL     1      -4.949  -0.675 -32.547  1.00  0.00     0.107 A 
HETATM   19  C   UNL     1      -4.532  -1.942 -32.984  1.00  0.00     0.068 A 
HETATM   20  C   UNL     1      -5.108  -2.522 -34.114  1.00  0.00     0.028 A 
HETATM   21 CL   UNL     1      -3.312  -2.832 -32.145  1.00  0.00    -0.081 Cl
HETATM   22  C   UNL     1      -6.089  -1.832 -34.827  1.00  0.00     0.027 A 
HETATM   23  C   UNL     1      -6.494  -0.557 -34.415  1.00  0.00     0.052 A 
HETATM   24 CL   UNL     1      -7.674   0.239 -35.398  1.00  0.00    -0.083 Cl
BRANCH  18  25
HETATM   25  O   UNL     1      -4.332  -0.124 -31.450  1.00  0.00    -0.353 OA
HETATM   26  C   UNL     1      -3.166   0.612 -31.822  1.00  0.00     0.210 C 
ENDBRANCH  18  25
ENDBRANCH   1  17
TORSDOF 5
ENDMDL
MODEL 6
REMARK VINA RESULT:      -7.6      2.077      2.741
REMARK  5 active torsions:
REMARK  status: ('A' for Active; 'I' for Inactive)
REMARK    1  A    between atoms: O_2  and  C_3 
REMARK    2  A    between atoms: C_4  and  C_5 
REMARK       I    between atoms: C_5  and  N_6 
REMARK    3  A    between atoms: N_6  and  C_7 
REMARK    4  A    between atoms: C_7  and  C_8 
REMARK    5  A    between atoms: C_8  and  C_9 
ROOT
HETATM    1  C   UNL     1      -6.546   1.050 -32.622  1.00  0.00     0.256 C 
HETATM    2  N   UNL     1      -5.856   2.200 -32.944  1.00  0.00    -0.356 N 
HETATM    3  O   UNL     1      -7.594   1.047 -31.987  1.00  0.00    -0.268 OA
HETATM    4  H   UNL     1      -4.936   2.137 -33.362  1.00  0.00     0.162 HD
ENDROOT
BRANCH   2   5
HETATM    5  C   UNL     1      -6.303   3.502 -32.480  1.00  0.00     0.130 C 
BRANCH   5   6
HETATM    6  C   UNL     1      -5.608   3.937 -31.190  1.00  0.00     0.098 C 
BRANCH   6   7
HETATM    7  C   UNL     1      -4.334   4.645 -31.486  1.00  0.00     0.106 A 
HETATM    8  N   UNL     1      -4.163   5.622 -32.353  1.00  0.00    -0.233 NA
HETATM    9  C   UNL     1      -2.832   5.951 -32.279  1.00  0.00     0.085 A 
HETATM   10  C   UNL     1      -2.177   5.165 -31.338  1.00  0.00     0.062 A 
HETATM   11  C   UNL     1      -2.107   6.919 -32.989  1.00  0.00     0.034 A 
HETATM   12  N   UNL     1      -3.156   4.340 -30.847  1.00  0.00    -0.343 N 
HETATM   13  C   UNL     1      -0.816   5.288 -31.052  1.00  0.00     0.032 A 
HETATM   14  H   UNL     1      -3.035   3.630 -30.139  1.00  0.00     0.167 HD
HETATM   15  C   UNL     1      -0.108   6.259 -31.770  1.00  0.00     0.002 A 
HETATM   16  C   UNL     1      -0.739   7.062 -32.724  1.00  0.00     0.002 A 
ENDBRANCH   6   7
ENDBRANCH   5   6
ENDBRANCH   2   5
BRANCH   1  17
HETATM   17  C   UNL     1      -5.951  -0.215 -33.111  1.00  0.00     0.088 A 
HETATM   18  C   UNL     1      -4.933  -0.833 -32.361  1.00  0.00     0.107 A 
HETATM   19  C   UNL     1      -4.324  -2.002 -32.840  1.00  0.00     0.068 A 
HETATM   20  C   UNL     1      -4.745  -2.575 -34.040  1.00  0.00     0.028 A 
HETATM   21 CL   UNL     1      -3.050  -2.779 -31.970  1.00  0.00    -0.081 Cl
HETATM   22  C   UNL     1      -5.763  -1.973 -34.779  1.00  0.00     0.027 A 
HETATM   23  C   UNL     1      -6.361  -0.792 -34.324  1.00  0.00     0.052 A 
HETATM   24 CL   UNL     1      -7.573  -0.092 -35.340  1.00  0.00    -0.083 Cl
BRANCH  18  25
HETATM   25  O   UNL     1      -4.467  -0.280 -31.193  1.00  0.00    -0.353 OA
HETATM   26  C   UNL     1      -3.247   0.432 -31.404  1.00  0.00     0.210 C 
ENDBRANCH  18  25
ENDBRANCH   1  17
TORSDOF 5
ENDMDL
MODEL 7
REMARK VINA RESULT:      -7.6      1.577      2.663
REMARK  5 active torsions:
REMARK  status: ('A' for Active; 'I' for Inactive)
REMARK    1  A    between atoms: O_2  and  C_3 
REMARK    2  A    between atoms: C_4  and  C_5 
REMARK       I    between atoms: C_5  and  N_6 
REMARK    3  A    between atoms: N_6  and  C_7 
REMARK    4  A    between atoms: C_7  and  C_8 
REMARK    5  A    between atoms: C_8  and  C_9 
ROOT
HETATM    1  C   UNL     1      -4.381   1.025 -31.771  1.00  0.00     0.256 C 
HETATM    2  N   UNL     1      -3.841   2.191 -32.272  1.00  0.00    -0.356 N 
HETATM    3  O   UNL     1      -4.461   0.779 -30.574  1.00  0.00    -0.268 OA
HETATM    4  H   UNL     1      -3.688   2.290 -33.268  1.00  0.00     0.162 HD
ENDROOT
BRANCH   2   5
HETATM    5  C   UNL     1      -3.257   3.191 -31.394  1.00  0.00     0.130 C 
BRANCH   5   6
HETATM    6  C   UNL     1      -2.339   4.162 -32.137  1.00  0.00     0.098 C 
BRANCH   6   7
HETATM    7  C   UNL     1      -1.724   5.135 -31.195  1.00  0.00     0.106 A 
HETATM    8  N   UNL     1      -2.121   6.371 -30.973  1.00  0.00    -0.233 NA
HETATM    9  C   UNL     1      -1.254   6.873 -30.034  1.00  0.00     0.085 A 
HETATM   10  C   UNL     1      -0.312   5.919 -29.666  1.00  0.00     0.062 A 
HETATM   11  C   UNL     1      -1.211   8.145 -29.443  1.00  0.00     0.034 A 
HETATM   12  N   UNL     1      -0.633   4.820 -30.420  1.00  0.00    -0.343 N 
HETATM   13  C   UNL     1       0.691   6.157 -28.724  1.00  0.00     0.032 A 
HETATM   14  H   UNL     1      -0.151   3.932 -30.412  1.00  0.00     0.167 HD
HETATM   15  C   UNL     1       0.719   7.431 -28.144  1.00  0.00     0.002 A 
HETATM   16  C   UNL     1      -0.213   8.411 -28.496  1.00  0.00     0.002 A 
ENDBRANCH   6   7
ENDBRANCH   5   6
ENDBRANCH   2   5
BRANCH   1  17
HETATM   17  C   UNL     1      -4.891   0.068 -32.779  1.00  0.00     0.088 A 
HETATM   18  C   UNL     1      -5.992   0.431 -33.577  1.00  0.00     0.107 A 
HETATM   19  C   UNL     1      -6.519  -0.487 -34.498  1.00  0.00     0.068 A 
HETATM   20  C   UNL     1      -5.937  -1.745 -34.651  1.00  0.00     0.028 A 
HETATM   21 CL   UNL     1      -7.887  -0.099 -35.479  1.00  0.00    -0.081 Cl
HETATM   22  C   UNL     1      -4.838  -2.103 -33.870  1.00  0.00     0.027 A 
HETATM   23  C   UNL     1      -4.319  -1.205 -32.930  1.00  0.00     0.052 A 
HETATM   24 CL   UNL     1      -2.991  -1.763 -31.972  1.00  0.00    -0.083 Cl
BRANCH  18  25
HETATM   25  O   UNL     1      -6.615   1.647 -33.432  1.00  0.00    -0.353 OA
HETATM   26  C   UNL     1      -7.681   1.576 -32.485  1.00  0.00     0.210 C 
ENDBRANCH  18  25
ENDBRANCH   1  17
TORSDOF 5
ENDMDL
MODEL 8
REMARK VINA RESULT:      -7.5      3.839      9.431
REMARK  5 active torsions:
REMARK  status: ('A' for Active; 'I' for Inactive)
REMARK    1  A    between atoms: O_2  and  C_3 
REMARK    2  A    between atoms: C_4  and  C_5 
REMARK       I    between atoms: C_5  and  N_6 
REMARK    3  A    between atoms: N_6  and  C_7 
REMARK    4  A    between atoms: C_7  and  C_8 
REMARK    5  A    between atoms: C_8  and  C_9 
ROOT
HETATM    1  C   UNL     1      -1.375   5.288 -31.306  1.00  0.00     0.256 C 
HETATM    2  N   UNL     1      -2.573   4.650 -31.061  1.00  0.00    -0.356 N 
HETATM    3  O   UNL     1      -0.740   5.154 -32.345  1.00  0.00    -0.268 OA
HETATM    4  H   UNL     1      -2.993   4.701 -30.141  1.00  0.00     0.162 HD
ENDROOT
BRANCH   2   5
HETATM    5  C   UNL     1      -3.133   3.705 -32.011  1.00  0.00     0.130 C 
BRANCH   5   6
HETATM    6  C   UNL     1      -3.400   2.334 -31.388  1.00  0.00     0.098 C 
BRANCH   6   7
HETATM    7  C   UNL     1      -4.295   1.523 -32.256  1.00  0.00     0.106 A 
HETATM    8  N   UNL     1      -5.291   1.972 -32.993  1.00  0.00    -0.233 NA
HETATM    9  C   UNL     1      -5.820   0.865 -33.610  1.00  0.00     0.085 A 
HETATM   10  C   UNL     1      -5.125  -0.284 -33.252  1.00  0.00     0.062 A 
HETATM   11  C   UNL     1      -6.900   0.765 -34.499  1.00  0.00     0.034 A 
HETATM   12  N   UNL     1      -4.159   0.162 -32.387  1.00  0.00    -0.343 N 
HETATM   13  C   UNL     1      -5.445  -1.554 -33.735  1.00  0.00     0.032 A 
HETATM   14  H   UNL     1      -3.466  -0.409 -31.924  1.00  0.00     0.167 HD
HETATM   15  C   UNL     1      -6.526  -1.636 -34.620  1.00  0.00     0.002 A 
HETATM   16  C   UNL     1      -7.245  -0.498 -34.998  1.00  0.00     0.002 A 
ENDBRANCH   6   7
ENDBRANCH   5   6
ENDBRANCH   2   5
BRANCH   1  17
HETATM   17  C   UNL     1      -0.891   6.183 -30.231  1.00  0.00     0.088 A 
HETATM   18  C   UNL     1      -1.545   7.409 -30.009  1.00  0.00     0.107 A 
HETATM   19  C   UNL     1      -1.064   8.291 -29.030  1.00  0.00     0.068 A 
HETATM   20  C   UNL     1       0.040   7.944 -28.251  1.00  0.00     0.028 A 
HETATM   21 CL   UNL     1      -1.814   9.819 -28.742  1.00  0.00    -0.081 Cl
HETATM   22  C   UNL     1       0.682   6.723 -28.459  1.00  0.00     0.027 A 
HETATM   23  C   UNL     1       0.227   5.847 -29.450  1.00  0.00     0.052 A 
HETATM   24 CL   UNL     1       1.125   4.385 -29.669  1.00  0.00    -0.083 Cl
BRANCH  18  25
HETATM   25  O   UNL     1      -2.613   7.803 -30.779  1.00  0.00    -0.353 OA
HETATM   26  C   UNL     1      -2.185   8.525 -31.934  1.00  0.00     0.210 C 
ENDBRANCH  18  25
ENDBRANCH   1  17
TORSDOF 5
ENDMDL
MODEL 9
REMARK VINA RESULT:      -7.5      5.139      8.057
REMARK  5 active torsions:
REMARK  status: ('A' for Active; 'I' for Inactive)
REMARK    1  A    between atoms: O_2  and  C_3 
REMARK    2  A    between atoms: C_4  and  C_5 
REMARK       I    between atoms: C_5  and  N_6 
REMARK    3  A    between atoms: N_6  and  C_7 
REMARK    4  A    between atoms: C_7  and  C_8 
REMARK    5  A    between atoms: C_8  and  C_9 
ROOT
HETATM    1  C   UNL     1      -5.765   1.097 -32.396  1.00  0.00     0.256 C 
HETATM    2  N   UNL     1      -6.973   1.102 -31.731  1.00  0.00    -0.356 N 
HETATM    3  O   UNL     1      -5.110   2.110 -32.614  1.00  0.00    -0.268 OA
HETATM    4  H   UNL     1      -7.528   0.257 -31.685  1.00  0.00     0.162 HD
ENDROOT
BRANCH   2   5
HETATM    5  C   UNL     1      -7.591   2.344 -31.299  1.00  0.00     0.130 C 
BRANCH   5   6
HETATM    6  C   UNL     1      -8.181   3.142 -32.463  1.00  0.00     0.098 C 
BRANCH   6   7
HETATM    7  C   UNL     1      -9.462   2.542 -32.922  1.00  0.00     0.106 A 
HETATM    8  N   UNL     1      -9.843   1.291 -32.764  1.00  0.00    -0.233 NA
HETATM    9  C   UNL     1     -11.084   1.209 -33.347  1.00  0.00     0.085 A 
HETATM   10  C   UNL     1     -11.474   2.439 -33.863  1.00  0.00     0.062 A 
HETATM   11  C   UNL     1     -11.944   0.108 -33.473  1.00  0.00     0.034 A 
HETATM   12  N   UNL     1     -10.423   3.272 -33.580  1.00  0.00    -0.343 N 
HETATM   13  C   UNL     1     -12.695   2.647 -34.508  1.00  0.00     0.032 A 
HETATM   14  H   UNL     1     -10.361   4.253 -33.814  1.00  0.00     0.167 HD
HETATM   15  C   UNL     1     -13.540   1.537 -34.625  1.00  0.00     0.002 A 
HETATM   16  C   UNL     1     -13.174   0.287 -34.118  1.00  0.00     0.002 A 
ENDBRANCH   6   7
ENDBRANCH   5   6
ENDBRANCH   2   5
BRANCH   1  17
HETATM   17  C   UNL     1      -5.274  -0.232 -32.828  1.00  0.00     0.088 A 
HETATM   18  C   UNL     1      -6.054  -0.998 -33.714  1.00  0.00     0.107 A 
HETATM   19  C   UNL     1      -5.628  -2.281 -34.089  1.00  0.00     0.068 A 
HETATM   20  C   UNL     1      -4.417  -2.787 -33.616  1.00  0.00     0.028 A 
HETATM   21 CL   UNL     1      -6.565  -3.271 -35.149  1.00  0.00    -0.081 Cl
HETATM   22  C   UNL     1      -3.636  -2.024 -32.748  1.00  0.00     0.027 A 
HETATM   23  C   UNL     1      -4.063  -0.754 -32.346  1.00  0.00     0.052 A 
HETATM   24 CL   UNL     1      -3.052   0.090 -31.225  1.00  0.00    -0.083 Cl
BRANCH  18  25
HETATM   25  O   UNL     1      -7.269  -0.549 -34.174  1.00  0.00    -0.353 OA
HETATM   26  C   UNL     1      -7.118   0.251 -35.346  1.00  0.00     0.210 C 
ENDBRANCH  18  25
ENDBRANCH   1  17
TORSDOF 5
ENDMDL
MODEL 10
REMARK VINA RESULT:      -7.2      4.012      8.482
REMARK  5 active torsions:
REMARK  status: ('A' for Active; 'I' for Inactive)
REMARK    1  A    between atoms: O_2  and  C_3 
REMARK    2  A    between atoms: C_4  and  C_5 
REMARK       I    between atoms: C_5  and  N_6 
REMARK    3  A    between atoms: N_6  and  C_7 
REMARK    4  A    between atoms: C_7  and  C_8 
REMARK    5  A    between atoms: C_8  and  C_9 
ROOT
HETATM    1  C   UNL     1      -3.543   6.486 -30.719  1.00  0.00     0.256 C 
HETATM    2  N   UNL     1      -4.284   5.813 -29.771  1.00  0.00    -0.356 N 
HETATM    3  O   UNL     1      -4.038   7.212 -31.573  1.00  0.00    -0.268 OA
HETATM    4  H   UNL     1      -3.837   5.133 -29.169  1.00  0.00     0.162 HD
ENDROOT
BRANCH   2   5
HETATM    5  C   UNL     1      -5.736   5.870 -29.768  1.00  0.00     0.130 C 
BRANCH   5   6
HETATM    6  C   UNL     1      -6.371   4.637 -29.126  1.00  0.00     0.098 C 
BRANCH   6   7
HETATM    7  C   UNL     1      -6.144   3.428 -29.961  1.00  0.00     0.106 A 
HETATM    8  N   UNL     1      -5.477   3.373 -31.096  1.00  0.00    -0.233 NA
HETATM    9  C   UNL     1      -5.537   2.059 -31.494  1.00  0.00     0.085 A 
HETATM   10  C   UNL     1      -6.247   1.293 -30.577  1.00  0.00     0.062 A 
HETATM   11  C   UNL     1      -5.002   1.443 -32.635  1.00  0.00     0.034 A 
HETATM   12  N   UNL     1      -6.624   2.189 -29.609  1.00  0.00    -0.343 N 
HETATM   13  C   UNL     1      -6.461  -0.079 -30.727  1.00  0.00     0.032 A 
HETATM   14  H   UNL     1      -7.163   1.978 -28.781  1.00  0.00     0.167 HD
HETATM   15  C   UNL     1      -5.920  -0.676 -31.872  1.00  0.00     0.002 A 
HETATM   16  C   UNL     1      -5.203   0.068 -32.812  1.00  0.00     0.002 A 
ENDBRANCH   6   7
ENDBRANCH   5   6
ENDBRANCH   2   5
BRANCH   1  17
HETATM   17  C   UNL     1      -2.076   6.298 -30.642  1.00  0.00     0.088 A 
HETATM   18  C   UNL     1      -1.328   7.082 -29.745  1.00  0.00     0.107 A 
HETATM   19  C   UNL     1       0.068   6.953 -29.700  1.00  0.00     0.068 A 
HETATM   20  C   UNL     1       0.716   6.024 -30.515  1.00  0.00     0.028 A 
HETATM   21 CL   UNL     1       1.032   7.915 -28.637  1.00  0.00    -0.081 Cl
HETATM   22  C   UNL     1      -0.024   5.236 -31.395  1.00  0.00     0.027 A 
HETATM   23  C   UNL     1      -1.415   5.375 -31.468  1.00  0.00     0.052 A 
HETATM   24 CL   UNL     1      -2.236   4.392 -32.631  1.00  0.00    -0.083 Cl
BRANCH  18  25
HETATM   25  O   UNL     1      -1.925   8.032 -28.951  1.00  0.00    -0.353 OA
HETATM   26  C   UNL     1      -2.117   7.553 -27.620  1.00  0.00     0.210 C 
ENDBRANCH  18  25
ENDBRANCH   1  17
TORSDOF 5
ENDMDL
