MODEL 1
REMARK VINA RESULT:      -8.7      0.000      0.000
REMARK  7 active torsions:
REMARK  status: ('A' for Active; 'I' for Inactive)
REMARK    1  A    between atoms: O_2  and  C_3 
REMARK    2  A    between atoms: C_4  and  N_5 
REMARK       I    between atoms: N_5  and  C_6 
REMARK       I    between atoms: C_6  and  N_7 
REMARK    3  A    between atoms: N_7  and  C_8 
REMARK    4  A    between atoms: C_8  and  C_9 
REMARK    5  A    between atoms: C_9  and  C_10 
REMARK    6  A    between atoms: C_10  and  N_11 
REMARK    7  A    between atoms: C_12  and  C_13 
ROOT
HETATM    1  N   UNL     1      -3.931   4.715 -31.121  1.00  0.00    -0.306 N 
HETATM    2  C   UNL     1      -4.099   3.351 -31.227  1.00  0.00     0.320 C 
HETATM    3  N   UNL     1      -5.112   2.927 -30.392  1.00  0.00    -0.343 N 
HETATM    4  O   UNL     1      -3.436   2.558 -31.882  1.00  0.00    -0.247 OA
HETATM    5  H   UNL     1      -4.116   5.058 -30.189  1.00  0.00     0.171 HD
HETATM    6  H   UNL     1      -5.781   3.618 -30.080  1.00  0.00     0.164 HD
ENDROOT
BRANCH   3   7
HETATM    7  C   UNL     1      -5.316   1.537 -30.060  1.00  0.00     0.126 C 
BRANCH   7   8
HETATM    8  C   UNL     1      -6.500   0.889 -30.769  1.00  0.00     0.040 C 
BRANCH   8   9
HETATM    9  C   UNL     1      -6.112  -0.297 -31.653  1.00  0.00     0.131 C 
BRANCH   9  10
HETATM   10  N   UNL     1      -6.420  -0.006 -33.067  1.00  0.00    -0.341 N 
HETATM   11  C   UNL     1      -6.296  -0.825 -34.149  1.00  0.00     0.117 A 
HETATM   12  N   UNL     1      -6.702  -0.060 -35.188  1.00  0.00    -0.350 N 
HETATM   13  H   UNL     1      -6.741  -0.391 -36.144  1.00  0.00     0.166 HD
HETATM   14  C   UNL     1      -7.060   1.202 -34.808  1.00  0.00     0.107 A 
HETATM   15  C   UNL     1      -6.882   1.249 -33.466  1.00  0.00     0.109 A 
BRANCH  11  16
HETATM   16  C   UNL     1      -5.848  -2.275 -34.307  1.00  0.00     0.008 A 
HETATM   17  C   UNL     1      -4.553  -2.714 -34.020  1.00  0.00     0.015 A 
HETATM   18  C   UNL     1      -4.199  -4.059 -34.182  1.00  0.00     0.001 A 
HETATM   19  C   UNL     1      -5.134  -4.985 -34.629  1.00  0.00     0.000 A 
HETATM   20  C   UNL     1      -6.428  -4.568 -34.916  1.00  0.00     0.001 A 
HETATM   21  C   UNL     1      -6.783  -3.223 -34.758  1.00  0.00     0.015 A 
ENDBRANCH  11  16
ENDBRANCH   9  10
ENDBRANCH   8   9
ENDBRANCH   7   8
ENDBRANCH   3   7
BRANCH   1  22
HETATM   22  C   UNL     1      -3.008   5.477 -31.877  1.00  0.00     0.071 A 
HETATM   23  C   UNL     1      -3.286   6.022 -33.148  1.00  0.00     0.095 A 
HETATM   24  C   UNL     1      -2.279   6.736 -33.815  1.00  0.00     0.041 A 
HETATM   25  C   UNL     1      -1.030   6.936 -33.221  1.00  0.00     0.026 A 
HETATM   26  C   UNL     1      -0.784   6.440 -31.947  1.00  0.00     0.036 A 
HETATM   27  C   UNL     1      -1.767   5.725 -31.269  1.00  0.00     0.056 A 
HETATM   28 CL   UNL     1       0.745   6.704 -31.204  1.00  0.00    -0.084 Cl
BRANCH  23  29
HETATM   29  O   UNL     1      -4.568   5.895 -33.619  1.00  0.00    -0.354 OA
HETATM   30  C   UNL     1      -4.813   4.877 -34.583  1.00  0.00     0.210 C 
ENDBRANCH  23  29
ENDBRANCH   1  22
TORSDOF 7
ENDMDL
MODEL 2
REMARK VINA RESULT:      -7.9      1.743      2.284
REMARK  7 active torsions:
REMARK  status: ('A' for Active; 'I' for Inactive)
REMARK    1  A    between atoms: O_2  and  C_3 
REMARK    2  A    between atoms: C_4  and  N_5 
REMARK       I    between atoms: N_5  and  C_6 
REMARK       I    between atoms: C_6  and  N_7 
REMARK    3  A    between atoms: N_7  and  C_8 
REMARK    4  A    between atoms: C_8  and  C_9 
REMARK    5  A    between atoms: C_9  and  C_10 
REMARK    6  A    between atoms: C_10  and  N_11 
REMARK    7  A    between atoms: C_12  and  C_13 
ROOT
HETATM    1  N   UNL     1      -3.355   4.350 -30.816  1.00  0.00    -0.306 N 
HETATM    2  C   UNL     1      -4.641   3.892 -30.999  1.00  0.00     0.320 C 
HETATM    3  N   UNL     1      -4.964   2.969 -30.025  1.00  0.00    -0.343 N 
HETATM    4  O   UNL     1      -5.414   4.156 -31.910  1.00  0.00    -0.247 OA
HETATM    5  H   UNL     1      -2.740   3.642 -30.440  1.00  0.00     0.171 HD
HETATM    6  H   UNL     1      -4.417   2.975 -29.175  1.00  0.00     0.164 HD
ENDROOT
BRANCH   3   7
HETATM    7  C   UNL     1      -6.112   2.100 -30.126  1.00  0.00     0.126 C 
BRANCH   7   8
HETATM    8  C   UNL     1      -5.879   0.843 -30.957  1.00  0.00     0.040 C 
BRANCH   8   9
HETATM    9  C   UNL     1      -7.164   0.097 -31.315  1.00  0.00     0.131 C 
BRANCH   9  10
HETATM   10  N   UNL     1      -7.566   0.403 -32.703  1.00  0.00    -0.341 N 
HETATM   11  C   UNL     1      -7.273  -0.284 -33.843  1.00  0.00     0.117 A 
HETATM   12  N   UNL     1      -7.875   0.431 -34.821  1.00  0.00    -0.350 N 
HETATM   13  H   UNL     1      -7.855   0.168 -35.799  1.00  0.00     0.166 HD
HETATM   14  C   UNL     1      -8.520   1.538 -34.347  1.00  0.00     0.107 A 
HETATM   15  C   UNL     1      -8.328   1.532 -33.006  1.00  0.00     0.109 A 
BRANCH  11  16
HETATM   16  C   UNL     1      -6.490  -1.566 -34.110  1.00  0.00     0.008 A 
HETATM   17  C   UNL     1      -7.080  -2.743 -34.578  1.00  0.00     0.015 A 
HETATM   18  C   UNL     1      -6.309  -3.890 -34.808  1.00  0.00     0.001 A 
HETATM   19  C   UNL     1      -4.938  -3.875 -34.577  1.00  0.00     0.000 A 
HETATM   20  C   UNL     1      -4.333  -2.713 -34.116  1.00  0.00     0.001 A 
HETATM   21  C   UNL     1      -5.101  -1.567 -33.882  1.00  0.00     0.015 A 
ENDBRANCH  11  16
ENDBRANCH   9  10
ENDBRANCH   8   9
ENDBRANCH   7   8
ENDBRANCH   3   7
BRANCH   1  22
HETATM   22  C   UNL     1      -2.729   5.340 -31.611  1.00  0.00     0.071 A 
HETATM   23  C   UNL     1      -2.564   6.684 -31.217  1.00  0.00     0.095 A 
HETATM   24  C   UNL     1      -1.953   7.582 -32.105  1.00  0.00     0.041 A 
HETATM   25  C   UNL     1      -1.481   7.150 -33.348  1.00  0.00     0.026 A 
HETATM   26  C   UNL     1      -1.601   5.813 -33.705  1.00  0.00     0.036 A 
HETATM   27  C   UNL     1      -2.208   4.906 -32.841  1.00  0.00     0.056 A 
HETATM   28 CL   UNL     1      -1.001   5.274 -35.224  1.00  0.00    -0.084 Cl
BRANCH  23  29
HETATM   29  O   UNL     1      -2.937   7.013 -29.939  1.00  0.00    -0.354 OA
HETATM   30  C   UNL     1      -3.495   8.306 -29.732  1.00  0.00     0.210 C 
ENDBRANCH  23  29
ENDBRANCH   1  22
TORSDOF 7
ENDMDL
MODEL 3
REMARK VINA RESULT:      -7.7      1.346      1.657
REMARK  7 active torsions:
REMARK  status: ('A' for Active; 'I' for Inactive)
REMARK    1  A    between atoms: O_2  and  C_3 
REMARK    2  A    between atoms: C_4  and  N_5 
REMARK       I    between atoms: N_5  and  C_6 
REMARK       I    between atoms: C_6  and  N_7 
REMARK    3  A    between atoms: N_7  and  C_8 
REMARK    4  A    between atoms: C_8  and  C_9 
REMARK    5  A    between atoms: C_9  and  C_10 
REMARK    6  A    between atoms: C_10  and  N_11 
REMARK    7  A    between atoms: C_12  and  C_13 
ROOT
HETATM    1  N   UNL     1      -3.482   4.257 -31.288  1.00  0.00    -0.306 N 
HETATM    2  C   UNL     1      -4.699   4.497 -30.689  1.00  0.00     0.320 C 
HETATM    3  N   UNL     1      -5.210   3.331 -30.159  1.00  0.00    -0.343 N 
HETATM    4  O   UNL     1      -5.333   5.544 -30.662  1.00  0.00    -0.247 OA
HETATM    5  H   UNL     1      -3.429   3.339 -31.707  1.00  0.00     0.171 HD
HETATM    6  H   UNL     1      -4.563   2.575 -29.978  1.00  0.00     0.164 HD
ENDROOT
BRANCH   3   7
HETATM    7  C   UNL     1      -6.586   3.202 -29.742  1.00  0.00     0.126 C 
BRANCH   7   8
HETATM    8  C   UNL     1      -7.519   2.649 -30.815  1.00  0.00     0.040 C 
BRANCH   8   9
HETATM    9  C   UNL     1      -6.873   1.586 -31.702  1.00  0.00     0.131 C 
BRANCH   9  10
HETATM   10  N   UNL     1      -7.710   1.332 -32.891  1.00  0.00    -0.341 N 
HETATM   11  C   UNL     1      -7.560   0.371 -33.846  1.00  0.00     0.117 A 
HETATM   12  N   UNL     1      -8.584   0.594 -34.701  1.00  0.00    -0.350 N 
HETATM   13  H   UNL     1      -8.760   0.028 -35.522  1.00  0.00     0.166 HD
HETATM   14  C   UNL     1      -9.358   1.657 -34.333  1.00  0.00     0.107 A 
HETATM   15  C   UNL     1      -8.811   2.135 -33.189  1.00  0.00     0.109 A 
BRANCH  11  16
HETATM   16  C   UNL     1      -6.552  -0.760 -34.031  1.00  0.00     0.008 A 
HETATM   17  C   UNL     1      -5.218  -0.674 -33.624  1.00  0.00     0.015 A 
HETATM   18  C   UNL     1      -4.338  -1.747 -33.817  1.00  0.00     0.001 A 
HETATM   19  C   UNL     1      -4.780  -2.921 -34.416  1.00  0.00     0.000 A 
HETATM   20  C   UNL     1      -6.104  -3.026 -34.824  1.00  0.00     0.001 A 
HETATM   21  C   UNL     1      -6.984  -1.955 -34.635  1.00  0.00     0.015 A 
ENDBRANCH  11  16
ENDBRANCH   9  10
ENDBRANCH   8   9
ENDBRANCH   7   8
ENDBRANCH   3   7
BRANCH   1  22
HETATM   22  C   UNL     1      -2.666   5.247 -31.887  1.00  0.00     0.071 A 
HETATM   23  C   UNL     1      -2.955   5.873 -33.118  1.00  0.00     0.095 A 
HETATM   24  C   UNL     1      -2.054   6.819 -33.626  1.00  0.00     0.041 A 
HETATM   25  C   UNL     1      -0.903   7.167 -32.913  1.00  0.00     0.026 A 
HETATM   26  C   UNL     1      -0.653   6.584 -31.677  1.00  0.00     0.036 A 
HETATM   27  C   UNL     1      -1.532   5.639 -31.157  1.00  0.00     0.056 A 
HETATM   28 CL   UNL     1       0.750   7.027 -30.787  1.00  0.00    -0.084 Cl
BRANCH  23  29
HETATM   29  O   UNL     1      -4.160   5.577 -33.703  1.00  0.00    -0.354 OA
HETATM   30  C   UNL     1      -4.132   5.045 -35.023  1.00  0.00     0.210 C 
ENDBRANCH  23  29
ENDBRANCH   1  22
TORSDOF 7
ENDMDL
MODEL 4
REMARK VINA RESULT:      -7.6      1.864      2.226
REMARK  7 active torsions:
REMARK  status: ('A' for Active; 'I' for Inactive)
REMARK    1  A    between atoms: O_2  and  C_3 
REMARK    2  A    between atoms: C_4  and  N_5 
REMARK       I    between atoms: N_5  and  C_6 
REMARK       I    between atoms: C_6  and  N_7 
REMARK    3  A    between atoms: N_7  and  C_8 
REMARK    4  A    between atoms: C_8  and  C_9 
REMARK    5  A    between atoms: C_9  and  C_10 
REMARK    6  A    between atoms: C_10  and  N_11 
REMARK    7  A    between atoms: C_12  and  C_13 
ROOT
HETATM    1  N   UNL     1      -3.935   4.798 -32.719  1.00  0.00    -0.306 N 
HETATM    2  C   UNL     1      -3.650   3.555 -32.198  1.00  0.00     0.320 C 
HETATM    3  N   UNL     1      -4.548   2.620 -32.669  1.00  0.00    -0.343 N 
HETATM    4  O   UNL     1      -2.795   3.262 -31.373  1.00  0.00    -0.247 OA
HETATM    5  H   UNL     1      -4.925   4.942 -32.861  1.00  0.00     0.171 HD
HETATM    6  H   UNL     1      -5.053   2.841 -33.517  1.00  0.00     0.164 HD
ENDROOT
BRANCH   3   7
HETATM    7  C   UNL     1      -4.692   1.311 -32.077  1.00  0.00     0.126 C 
BRANCH   7   8
HETATM    8  C   UNL     1      -5.851   1.190 -31.094  1.00  0.00     0.040 C 
BRANCH   8   9
HETATM    9  C   UNL     1      -6.782   0.013 -31.384  1.00  0.00     0.131 C 
BRANCH   9  10
HETATM   10  N   UNL     1      -7.443   0.191 -32.692  1.00  0.00    -0.341 N 
HETATM   11  C   UNL     1      -7.316  -0.566 -33.818  1.00  0.00     0.117 A 
HETATM   12  N   UNL     1      -8.126   0.040 -34.715  1.00  0.00    -0.350 N 
HETATM   13  H   UNL     1      -8.264  -0.296 -35.660  1.00  0.00     0.166 HD
HETATM   14  C   UNL     1      -8.744   1.147 -34.207  1.00  0.00     0.107 A 
HETATM   15  C   UNL     1      -8.316   1.255 -32.926  1.00  0.00     0.109 A 
BRANCH  11  16
HETATM   16  C   UNL     1      -6.514  -1.825 -34.137  1.00  0.00     0.008 A 
HETATM   17  C   UNL     1      -7.100  -3.024 -34.551  1.00  0.00     0.015 A 
HETATM   18  C   UNL     1      -6.313  -4.147 -34.833  1.00  0.00     0.001 A 
HETATM   19  C   UNL     1      -4.929  -4.088 -34.708  1.00  0.00     0.000 A 
HETATM   20  C   UNL     1      -4.328  -2.903 -34.301  1.00  0.00     0.001 A 
HETATM   21  C   UNL     1      -5.113  -1.780 -34.015  1.00  0.00     0.015 A 
ENDBRANCH  11  16
ENDBRANCH   9  10
ENDBRANCH   8   9
ENDBRANCH   7   8
ENDBRANCH   3   7
BRANCH   1  22
HETATM   22  C   UNL     1      -3.179   5.970 -32.477  1.00  0.00     0.071 A 
HETATM   23  C   UNL     1      -1.827   6.130 -32.849  1.00  0.00     0.095 A 
HETATM   24  C   UNL     1      -1.173   7.329 -32.528  1.00  0.00     0.041 A 
HETATM   25  C   UNL     1      -1.854   8.365 -31.881  1.00  0.00     0.026 A 
HETATM   26  C   UNL     1      -3.198   8.217 -31.566  1.00  0.00     0.036 A 
HETATM   27  C   UNL     1      -3.865   7.034 -31.871  1.00  0.00     0.056 A 
HETATM   28 CL   UNL     1      -4.044   9.498 -30.790  1.00  0.00    -0.084 Cl
BRANCH  23  29
HETATM   29  O   UNL     1      -1.257   5.126 -33.589  1.00  0.00    -0.354 OA
HETATM   30  C   UNL     1      -1.354   5.222 -35.006  1.00  0.00     0.210 C 
ENDBRANCH  23  29
ENDBRANCH   1  22
TORSDOF 7
ENDMDL
MODEL 5
REMARK VINA RESULT:      -7.5      1.630      3.290
REMARK  7 active torsions:
REMARK  status: ('A' for Active; 'I' for Inactive)
REMARK    1  A    between atoms: O_2  and  C_3 
REMARK    2  A    between atoms: C_4  and  N_5 
REMARK       I    between atoms: N_5  and  C_6 
REMARK       I    between atoms: C_6  and  N_7 
REMARK    3  A    between atoms: N_7  and  C_8 
REMARK    4  A    between atoms: C_8  and  C_9 
REMARK    5  A    between atoms: C_9  and  C_10 
REMARK    6  A    between atoms: C_10  and  N_11 
REMARK    7  A    between atoms: C_12  and  C_13 
ROOT
HETATM    1  N   UNL     1      -3.793   3.474 -32.491  1.00  0.00    -0.306 N 
HETATM    2  C   UNL     1      -3.605   2.250 -31.887  1.00  0.00     0.320 C 
HETATM    3  N   UNL     1      -4.655   1.405 -32.180  1.00  0.00    -0.343 N 
HETATM    4  O   UNL     1      -2.707   1.915 -31.127  1.00  0.00    -0.247 OA
HETATM    5  H   UNL     1      -4.768   3.734 -32.547  1.00  0.00     0.171 HD
HETATM    6  H   UNL     1      -5.219   1.623 -32.991  1.00  0.00     0.164 HD
ENDROOT
BRANCH   3   7
HETATM    7  C   UNL     1      -4.892   0.178 -31.458  1.00  0.00     0.126 C 
BRANCH   7   8
HETATM    8  C   UNL     1      -4.148  -1.032 -32.015  1.00  0.00     0.040 C 
BRANCH   8   9
HETATM    9  C   UNL     1      -4.068  -1.055 -33.541  1.00  0.00     0.131 C 
BRANCH   9  10
HETATM   10  N   UNL     1      -4.994  -2.065 -34.089  1.00  0.00    -0.341 N 
HETATM   11  C   UNL     1      -6.332  -1.953 -34.322  1.00  0.00     0.117 A 
HETATM   12  N   UNL     1      -6.683  -3.164 -34.813  1.00  0.00    -0.350 N 
HETATM   13  H   UNL     1      -7.625  -3.398 -35.101  1.00  0.00     0.166 HD
HETATM   14  C   UNL     1      -5.630  -4.031 -34.886  1.00  0.00     0.107 A 
HETATM   15  C   UNL     1      -4.554  -3.346 -34.426  1.00  0.00     0.109 A 
BRANCH  11  16
HETATM   16  C   UNL     1      -7.324  -0.807 -34.144  1.00  0.00     0.008 A 
HETATM   17  C   UNL     1      -7.386   0.294 -35.001  1.00  0.00     0.015 A 
HETATM   18  C   UNL     1      -8.321   1.316 -34.790  1.00  0.00     0.001 A 
HETATM   19  C   UNL     1      -9.208   1.249 -33.722  1.00  0.00     0.000 A 
HETATM   20  C   UNL     1      -9.164   0.159 -32.861  1.00  0.00     0.001 A 
HETATM   21  C   UNL     1      -8.229  -0.861 -33.068  1.00  0.00     0.015 A 
ENDBRANCH  11  16
ENDBRANCH   9  10
ENDBRANCH   8   9
ENDBRANCH   7   8
ENDBRANCH   3   7
BRANCH   1  22
HETATM   22  C   UNL     1      -2.879   4.553 -32.433  1.00  0.00     0.071 A 
HETATM   23  C   UNL     1      -2.929   5.680 -33.282  1.00  0.00     0.095 A 
HETATM   24  C   UNL     1      -1.948   6.673 -33.149  1.00  0.00     0.041 A 
HETATM   25  C   UNL     1      -0.953   6.572 -32.172  1.00  0.00     0.026 A 
HETATM   26  C   UNL     1      -0.943   5.485 -31.307  1.00  0.00     0.036 A 
HETATM   27  C   UNL     1      -1.905   4.485 -31.424  1.00  0.00     0.056 A 
HETATM   28 CL   UNL     1       0.265   5.369 -30.089  1.00  0.00    -0.084 Cl
BRANCH  23  29
HETATM   29  O   UNL     1      -4.000   5.776 -34.133  1.00  0.00    -0.354 OA
HETATM   30  C   UNL     1      -3.859   5.205 -35.429  1.00  0.00     0.210 C 
ENDBRANCH  23  29
ENDBRANCH   1  22
TORSDOF 7
ENDMDL
MODEL 6
REMARK VINA RESULT:      -7.5      1.994      2.846
REMARK  7 active torsions:
REMARK  status: ('A' for Active; 'I' for Inactive)
REMARK    1  A    between atoms: O_2  and  C_3 
REMARK    2  A    between atoms: C_4  and  N_5 
REMARK       I    between atoms: N_5  and  C_6 
REMARK       I    between atoms: C_6  and  N_7 
REMARK    3  A    between atoms: N_7  and  C_8 
REMARK    4  A    between atoms: C_8  and  C_9 
REMARK    5  A    between atoms: C_9  and  C_10 
REMARK    6  A    between atoms: C_10  and  N_11 
REMARK    7  A    between atoms: C_12  and  C_13 
ROOT
HETATM    1  N   UNL     1      -3.313   5.163 -31.081  1.00  0.00    -0.306 N 
HETATM    2  C   UNL     1      -4.358   5.682 -31.814  1.00  0.00     0.320 C 
HETATM    3  N   UNL     1      -5.436   4.822 -31.788  1.00  0.00    -0.343 N 
HETATM    4  O   UNL     1      -4.374   6.708 -32.482  1.00  0.00    -0.247 OA
HETATM    5  H   UNL     1      -3.271   4.155 -31.126  1.00  0.00     0.171 HD
HETATM    6  H   UNL     1      -5.474   4.141 -31.042  1.00  0.00     0.164 HD
ENDROOT
BRANCH   3   7
HETATM    7  C   UNL     1      -6.551   4.944 -32.697  1.00  0.00     0.126 C 
BRANCH   7   8
HETATM    8  C   UNL     1      -6.634   3.837 -33.742  1.00  0.00     0.040 C 
BRANCH   8   9
HETATM    9  C   UNL     1      -6.171   2.473 -33.231  1.00  0.00     0.131 C 
BRANCH   9  10
HETATM   10  N   UNL     1      -7.331   1.590 -33.000  1.00  0.00    -0.341 N 
HETATM   11  C   UNL     1      -7.407   0.236 -33.130  1.00  0.00     0.117 A 
HETATM   12  N   UNL     1      -8.689  -0.054 -32.809  1.00  0.00    -0.350 N 
HETATM   13  H   UNL     1      -9.063  -0.995 -32.795  1.00  0.00     0.166 HD
HETATM   14  C   UNL     1      -9.421   1.056 -32.498  1.00  0.00     0.107 A 
HETATM   15  C   UNL     1      -8.571   2.105 -32.619  1.00  0.00     0.109 A 
BRANCH  11  16
HETATM   16  C   UNL     1      -6.383  -0.829 -33.512  1.00  0.00     0.008 A 
HETATM   17  C   UNL     1      -5.168  -1.001 -32.845  1.00  0.00     0.015 A 
HETATM   18  C   UNL     1      -4.267  -1.998 -33.239  1.00  0.00     0.001 A 
HETATM   19  C   UNL     1      -4.570  -2.840 -34.303  1.00  0.00     0.000 A 
HETATM   20  C   UNL     1      -5.776  -2.688 -34.977  1.00  0.00     0.001 A 
HETATM   21  C   UNL     1      -6.675  -1.689 -34.587  1.00  0.00     0.015 A 
ENDBRANCH  11  16
ENDBRANCH   9  10
ENDBRANCH   8   9
ENDBRANCH   7   8
ENDBRANCH   3   7
BRANCH   1  22
HETATM   22  C   UNL     1      -2.076   5.814 -30.863  1.00  0.00     0.071 A 
HETATM   23  C   UNL     1      -0.954   5.685 -31.709  1.00  0.00     0.095 A 
HETATM   24  C   UNL     1       0.230   6.358 -31.373  1.00  0.00     0.041 A 
HETATM   25  C   UNL     1       0.294   7.171 -30.238  1.00  0.00     0.026 A 
HETATM   26  C   UNL     1      -0.831   7.332 -29.440  1.00  0.00     0.036 A 
HETATM   27  C   UNL     1      -2.015   6.671 -29.753  1.00  0.00     0.056 A 
HETATM   28 CL   UNL     1      -0.762   8.351 -28.055  1.00  0.00    -0.084 Cl
BRANCH  23  29
HETATM   29  O   UNL     1      -1.122   4.974 -32.870  1.00  0.00    -0.354 OA
HETATM   30  C   UNL     1      -1.311   5.715 -34.070  1.00  0.00     0.210 C 
ENDBRANCH  23  29
ENDBRANCH   1  22
TORSDOF 7
ENDMDL
MODEL 7
REMARK VINA RESULT:      -7.4      4.844      7.281
REMARK  7 active torsions:
REMARK  status: ('A' for Active; 'I' for Inactive)
REMARK    1  A    between atoms: O_2  and  C_3 
REMARK    2  A    between atoms: C_4  and  N_5 
REMARK       I    between atoms: N_5  and  C_6 
REMARK       I    between atoms: C_6  and  N_7 
REMARK    3  A    between atoms: N_7  and  C_8 
REMARK    4  A    between atoms: C_8  and  C_9 
REMARK    5  A    between atoms: C_9  and  C_10 
REMARK    6  A    between atoms: C_10  and  N_11 
REMARK    7  A    between atoms: C_12  and  C_13 
ROOT
HETATM    1  N   UNL     1      -9.604   3.025 -33.368  1.00  0.00    -0.306 N 
HETATM    2  C   UNL     1      -9.535   3.778 -32.216  1.00  0.00     0.320 C 
HETATM    3  N   UNL     1      -8.221   4.050 -31.899  1.00  0.00    -0.343 N 
HETATM    4  O   UNL     1     -10.454   4.124 -31.485  1.00  0.00    -0.247 OA
HETATM    5  H   UNL     1      -8.825   2.388 -33.463  1.00  0.00     0.171 HD
HETATM    6  H   UNL     1      -7.536   3.975 -32.639  1.00  0.00     0.164 HD
ENDROOT
BRANCH   3   7
HETATM    7  C   UNL     1      -7.819   4.551 -30.607  1.00  0.00     0.126 C 
BRANCH   7   8
HETATM    8  C   UNL     1      -7.013   3.563 -29.771  1.00  0.00     0.040 C 
BRANCH   8   9
HETATM    9  C   UNL     1      -6.753   2.232 -30.476  1.00  0.00     0.131 C 
BRANCH   9  10
HETATM   10  N   UNL     1      -5.455   2.269 -31.179  1.00  0.00    -0.341 N 
HETATM   11  C   UNL     1      -5.085   1.612 -32.314  1.00  0.00     0.117 A 
HETATM   12  N   UNL     1      -3.801   1.991 -32.510  1.00  0.00    -0.350 N 
HETATM   13  H   UNL     1      -3.240   1.681 -33.294  1.00  0.00     0.166 HD
HETATM   14  C   UNL     1      -3.348   2.844 -31.544  1.00  0.00     0.107 A 
HETATM   15  C   UNL     1      -4.387   3.024 -30.693  1.00  0.00     0.109 A 
BRANCH  11  16
HETATM   16  C   UNL     1      -5.826   0.665 -33.254  1.00  0.00     0.008 A 
HETATM   17  C   UNL     1      -5.790  -0.725 -33.129  1.00  0.00     0.015 A 
HETATM   18  C   UNL     1      -6.494  -1.545 -34.021  1.00  0.00     0.001 A 
HETATM   19  C   UNL     1      -7.246  -0.985 -35.048  1.00  0.00     0.000 A 
HETATM   20  C   UNL     1      -7.298   0.397 -35.185  1.00  0.00     0.001 A 
HETATM   21  C   UNL     1      -6.592   1.217 -34.298  1.00  0.00     0.015 A 
ENDBRANCH  11  16
ENDBRANCH   9  10
ENDBRANCH   8   9
ENDBRANCH   7   8
ENDBRANCH   3   7
BRANCH   1  22
HETATM   22  C   UNL     1     -10.805   2.614 -33.995  1.00  0.00     0.071 A 
HETATM   23  C   UNL     1     -11.437   3.325 -35.037  1.00  0.00     0.095 A 
HETATM   24  C   UNL     1     -12.642   2.834 -35.560  1.00  0.00     0.041 A 
HETATM   25  C   UNL     1     -13.195   1.641 -35.085  1.00  0.00     0.026 A 
HETATM   26  C   UNL     1     -12.538   0.922 -34.095  1.00  0.00     0.036 A 
HETATM   27  C   UNL     1     -11.344   1.394 -33.559  1.00  0.00     0.056 A 
HETATM   28 CL   UNL     1     -13.205  -0.558 -33.525  1.00  0.00    -0.084 Cl
BRANCH  23  29
HETATM   29  O   UNL     1     -10.778   4.418 -35.540  1.00  0.00    -0.354 OA
HETATM   30  C   UNL     1     -11.287   5.703 -35.198  1.00  0.00     0.210 C 
ENDBRANCH  23  29
ENDBRANCH   1  22
TORSDOF 7
ENDMDL
MODEL 8
REMARK VINA RESULT:      -7.4      3.055      8.370
REMARK  7 active torsions:
REMARK  status: ('A' for Active; 'I' for Inactive)
REMARK    1  A    between atoms: O_2  and  C_3 
REMARK    2  A    between atoms: C_4  and  N_5 
REMARK       I    between atoms: N_5  and  C_6 
REMARK       I    between atoms: C_6  and  N_7 
REMARK    3  A    between atoms: N_7  and  C_8 
REMARK    4  A    between atoms: C_8  and  C_9 
REMARK    5  A    between atoms: C_9  and  C_10 
REMARK    6  A    between atoms: C_10  and  N_11 
REMARK    7  A    between atoms: C_12  and  C_13 
ROOT
HETATM    1  N   UNL     1      -5.861   1.800 -33.593  1.00  0.00    -0.306 N 
HETATM    2  C   UNL     1      -6.167   2.418 -32.400  1.00  0.00     0.320 C 
HETATM    3  N   UNL     1      -5.967   3.779 -32.501  1.00  0.00    -0.343 N 
HETATM    4  O   UNL     1      -6.497   1.896 -31.343  1.00  0.00    -0.247 OA
HETATM    5  H   UNL     1      -5.104   2.255 -34.083  1.00  0.00     0.171 HD
HETATM    6  H   UNL     1      -5.949   4.182 -33.428  1.00  0.00     0.164 HD
ENDROOT
BRANCH   3   7
HETATM    7  C   UNL     1      -5.912   4.645 -31.348  1.00  0.00     0.126 C 
BRANCH   7   8
HETATM    8  C   UNL     1      -4.544   5.268 -31.094  1.00  0.00     0.040 C 
BRANCH   8   9
HETATM    9  C   UNL     1      -4.176   6.370 -32.087  1.00  0.00     0.131 C 
BRANCH   9  10
HETATM   10  N   UNL     1      -3.070   5.927 -32.959  1.00  0.00    -0.341 N 
HETATM   11  C   UNL     1      -1.749   5.795 -32.653  1.00  0.00     0.117 A 
HETATM   12  N   UNL     1      -1.185   5.371 -33.808  1.00  0.00    -0.350 N 
HETATM   13  H   UNL     1      -0.199   5.163 -33.905  1.00  0.00     0.166 HD
HETATM   14  C   UNL     1      -2.090   5.244 -34.823  1.00  0.00     0.107 A 
HETATM   15  C   UNL     1      -3.288   5.598 -34.298  1.00  0.00     0.109 A 
BRANCH  11  16
HETATM   16  C   UNL     1      -0.953   6.012 -31.369  1.00  0.00     0.008 A 
HETATM   17  C   UNL     1      -0.271   4.989 -30.707  1.00  0.00     0.015 A 
HETATM   18  C   UNL     1       0.446   5.248 -29.532  1.00  0.00     0.001 A 
HETATM   19  C   UNL     1       0.493   6.534 -29.005  1.00  0.00     0.000 A 
HETATM   20  C   UNL     1      -0.176   7.565 -29.652  1.00  0.00     0.001 A 
HETATM   21  C   UNL     1      -0.896   7.307 -30.824  1.00  0.00     0.015 A 
ENDBRANCH  11  16
ENDBRANCH   9  10
ENDBRANCH   8   9
ENDBRANCH   7   8
ENDBRANCH   3   7
BRANCH   1  22
HETATM   22  C   UNL     1      -6.002   0.414 -33.845  1.00  0.00     0.071 A 
HETATM   23  C   UNL     1      -7.101  -0.161 -34.517  1.00  0.00     0.095 A 
HETATM   24  C   UNL     1      -7.144  -1.553 -34.682  1.00  0.00     0.041 A 
HETATM   25  C   UNL     1      -6.101  -2.361 -34.219  1.00  0.00     0.026 A 
HETATM   26  C   UNL     1      -4.999  -1.781 -33.605  1.00  0.00     0.036 A 
HETATM   27  C   UNL     1      -4.938  -0.402 -33.427  1.00  0.00     0.056 A 
HETATM   28 CL   UNL     1      -3.703  -2.770 -33.055  1.00  0.00    -0.084 Cl
BRANCH  23  29
HETATM   29  O   UNL     1      -8.026   0.698 -35.054  1.00  0.00    -0.354 OA
HETATM   30  C   UNL     1      -9.197   0.960 -34.288  1.00  0.00     0.210 C 
ENDBRANCH  23  29
ENDBRANCH   1  22
TORSDOF 7
ENDMDL
MODEL 9
REMARK VINA RESULT:      -7.4      3.024      4.130
REMARK  7 active torsions:
REMARK  status: ('A' for Active; 'I' for Inactive)
REMARK    1  A    between atoms: O_2  and  C_3 
REMARK    2  A    between atoms: C_4  and  N_5 
REMARK       I    between atoms: N_5  and  C_6 
REMARK       I    between atoms: C_6  and  N_7 
REMARK    3  A    between atoms: N_7  and  C_8 
REMARK    4  A    between atoms: C_8  and  C_9 
REMARK    5  A    between atoms: C_9  and  C_10 
REMARK    6  A    between atoms: C_10  and  N_11 
REMARK    7  A    between atoms: C_12  and  C_13 
ROOT
HETATM    1  N   UNL     1      -2.117   6.324 -29.382  1.00  0.00    -0.306 N 
HETATM    2  C   UNL     1      -1.879   5.942 -30.684  1.00  0.00     0.320 C 
HETATM    3  N   UNL     1      -2.708   4.897 -31.036  1.00  0.00    -0.343 N 
HETATM    4  O   UNL     1      -1.023   6.365 -31.450  1.00  0.00    -0.247 OA
HETATM    5  H   UNL     1      -2.380   5.548 -28.791  1.00  0.00     0.171 HD
HETATM    6  H   UNL     1      -3.546   4.759 -30.487  1.00  0.00     0.164 HD
ENDROOT
BRANCH   3   7
HETATM    7  C   UNL     1      -2.489   4.093 -32.215  1.00  0.00     0.126 C 
BRANCH   7   8
HETATM    8  C   UNL     1      -3.692   3.255 -32.637  1.00  0.00     0.040 C 
BRANCH   8   9
HETATM    9  C   UNL     1      -3.552   1.769 -32.307  1.00  0.00     0.131 C 
BRANCH   9  10
HETATM   10  N   UNL     1      -4.720   1.303 -31.533  1.00  0.00    -0.341 N 
HETATM   11  C   UNL     1      -5.534   0.239 -31.783  1.00  0.00     0.117 A 
HETATM   12  N   UNL     1      -6.439   0.275 -30.779  1.00  0.00    -0.350 N 
HETATM   13  H   UNL     1      -7.183  -0.404 -30.672  1.00  0.00     0.166 HD
HETATM   14  C   UNL     1      -6.237   1.318 -29.921  1.00  0.00     0.107 A 
HETATM   15  C   UNL     1      -5.152   1.979 -30.392  1.00  0.00     0.109 A 
BRANCH  11  16
HETATM   16  C   UNL     1      -5.539  -0.831 -32.872  1.00  0.00     0.008 A 
HETATM   17  C   UNL     1      -4.420  -1.601 -33.197  1.00  0.00     0.015 A 
HETATM   18  C   UNL     1      -4.484  -2.571 -34.205  1.00  0.00     0.001 A 
HETATM   19  C   UNL     1      -5.669  -2.788 -34.899  1.00  0.00     0.000 A 
HETATM   20  C   UNL     1      -6.794  -2.035 -34.587  1.00  0.00     0.001 A 
HETATM   21  C   UNL     1      -6.731  -1.062 -33.582  1.00  0.00     0.015 A 
ENDBRANCH  11  16
ENDBRANCH   9  10
ENDBRANCH   8   9
ENDBRANCH   7   8
ENDBRANCH   3   7
BRANCH   1  22
HETATM   22  C   UNL     1      -1.472   7.398 -28.724  1.00  0.00     0.071 A 
HETATM   23  C   UNL     1      -1.930   8.732 -28.750  1.00  0.00     0.095 A 
HETATM   24  C   UNL     1      -1.188   9.718 -28.082  1.00  0.00     0.041 A 
HETATM   25  C   UNL     1      -0.031   9.384 -27.372  1.00  0.00     0.026 A 
HETATM   26  C   UNL     1       0.383   8.060 -27.309  1.00  0.00     0.036 A 
HETATM   27  C   UNL     1      -0.336   7.067 -27.968  1.00  0.00     0.056 A 
HETATM   28 CL   UNL     1       1.794   7.643 -26.417  1.00  0.00    -0.084 Cl
BRANCH  23  29
HETATM   29  O   UNL     1      -3.136   8.970 -29.359  1.00  0.00    -0.354 OA
HETATM   30  C   UNL     1      -3.110   9.574 -30.647  1.00  0.00     0.210 C 
ENDBRANCH  23  29
ENDBRANCH   1  22
TORSDOF 7
ENDMDL
MODEL 10
REMARK VINA RESULT:      -7.4      3.284      4.521
REMARK  7 active torsions:
REMARK  status: ('A' for Active; 'I' for Inactive)
REMARK    1  A    between atoms: O_2  and  C_3 
REMARK    2  A    between atoms: C_4  and  N_5 
REMARK       I    between atoms: N_5  and  C_6 
REMARK       I    between atoms: C_6  and  N_7 
REMARK    3  A    between atoms: N_7  and  C_8 
REMARK    4  A    between atoms: C_8  and  C_9 
REMARK    5  A    between atoms: C_9  and  C_10 
REMARK    6  A    between atoms: C_10  and  N_11 
REMARK    7  A    between atoms: C_12  and  C_13 
ROOT
HETATM    1  N   UNL     1      -5.858   5.725 -33.110  1.00  0.00    -0.306 N 
HETATM    2  C   UNL     1      -6.832   4.964 -33.718  1.00  0.00     0.320 C 
HETATM    3  N   UNL     1      -7.990   5.698 -33.868  1.00  0.00    -0.343 N 
HETATM    4  O   UNL     1      -6.777   3.783 -34.035  1.00  0.00    -0.247 OA
HETATM    5  H   UNL     1      -6.238   6.380 -32.440  1.00  0.00     0.171 HD
HETATM    6  H   UNL     1      -7.913   6.706 -33.835  1.00  0.00     0.164 HD
ENDROOT
BRANCH   3   7
HETATM    7  C   UNL     1      -9.260   5.092 -34.190  1.00  0.00     0.126 C 
BRANCH   7   8
HETATM    8  C   UNL     1     -10.189   4.906 -32.995  1.00  0.00     0.040 C 
BRANCH   8   9
HETATM    9  C   UNL     1      -9.995   3.576 -32.267  1.00  0.00     0.131 C 
BRANCH   9  10
HETATM   10  N   UNL     1     -10.804   2.519 -32.905  1.00  0.00    -0.341 N 
HETATM   11  C   UNL     1     -10.380   1.367 -33.497  1.00  0.00     0.117 A 
HETATM   12  N   UNL     1     -11.521   0.776 -33.920  1.00  0.00    -0.350 N 
HETATM   13  H   UNL     1     -11.545  -0.119 -34.394  1.00  0.00     0.166 HD
HETATM   14  C   UNL     1     -12.636   1.510 -33.632  1.00  0.00     0.107 A 
HETATM   15  C   UNL     1     -12.193   2.619 -32.992  1.00  0.00     0.109 A 
BRANCH  11  16
HETATM   16  C   UNL     1      -8.999   0.748 -33.694  1.00  0.00     0.008 A 
HETATM   17  C   UNL     1      -8.385   0.621 -34.942  1.00  0.00     0.015 A 
HETATM   18  C   UNL     1      -7.113   0.046 -35.062  1.00  0.00     0.001 A 
HETATM   19  C   UNL     1      -6.436  -0.406 -33.935  1.00  0.00     0.000 A 
HETATM   20  C   UNL     1      -7.029  -0.285 -32.684  1.00  0.00     0.001 A 
HETATM   21  C   UNL     1      -8.301   0.286 -32.563  1.00  0.00     0.015 A 
ENDBRANCH  11  16
ENDBRANCH   9  10
ENDBRANCH   8   9
ENDBRANCH   7   8
ENDBRANCH   3   7
BRANCH   1  22
HETATM   22  C   UNL     1      -4.536   5.291 -32.852  1.00  0.00     0.071 A 
HETATM   23  C   UNL     1      -4.121   4.690 -31.644  1.00  0.00     0.095 A 
HETATM   24  C   UNL     1      -2.775   4.328 -31.493  1.00  0.00     0.041 A 
HETATM   25  C   UNL     1      -1.860   4.525 -32.532  1.00  0.00     0.026 A 
HETATM   26  C   UNL     1      -2.288   5.070 -33.736  1.00  0.00     0.036 A 
HETATM   27  C   UNL     1      -3.619   5.440 -33.905  1.00  0.00     0.056 A 
HETATM   28 CL   UNL     1      -1.170   5.292 -35.023  1.00  0.00    -0.084 Cl
BRANCH  23  29
HETATM   29  O   UNL     1      -5.093   4.413 -30.716  1.00  0.00    -0.354 OA
HETATM   30  C   UNL     1      -5.291   3.048 -30.364  1.00  0.00     0.210 C 
ENDBRANCH  23  29
ENDBRANCH   1  22
TORSDOF 7
ENDMDL
