MODEL 1
REMARK VINA RESULT:      -8.1      0.000      0.000
REMARK  3 active torsions:
REMARK  status: ('A' for Active; 'I' for Inactive)
REMARK    1  A    between atoms: C_6  and  N_7 
REMARK       I    between atoms: N_7  and  C_8 
REMARK    2  A    between atoms: C_8  and  C_9 
REMARK    3  A    between atoms: C_9  and  C_10 
ROOT
HETATM    1  C   UNL     1      -6.800   0.083 -31.814  1.00  0.00     0.286 C 
HETATM    2  N   UNL     1      -7.076   0.228 -33.307  1.00  0.00    -0.056 N 
HETATM    3  H   UNL     1      -6.235   0.709 -33.693  1.00  0.00     0.278 HD
HETATM    4  H   UNL     1      -7.112  -0.687 -33.770  1.00  0.00     0.278 HD
HETATM    5  C   UNL     1      -8.277   1.064 -33.650  1.00  0.00     0.209 C 
HETATM    6  C   UNL     1      -8.180   2.434 -32.931  1.00  0.00     0.115 C 
HETATM    7  N   UNL     1      -7.852   2.314 -31.511  1.00  0.00    -0.353 N 
HETATM    8  C   UNL     1      -6.935   1.406 -31.035  1.00  0.00     0.249 C 
HETATM    9  O   UNL     1      -6.348   1.621 -29.980  1.00  0.00    -0.271 OA
HETATM   10  C   UNL     1      -9.559   0.294 -33.326  1.00  0.00     0.035 C 
HETATM   11  C   UNL     1     -10.794   1.155 -33.574  1.00  0.00     0.002 C 
HETATM   12  C   UNL     1     -10.723   2.463 -32.792  1.00  0.00     0.002 C 
HETATM   13  C   UNL     1      -9.459   3.254 -33.129  1.00  0.00     0.027 C 
HETATM   14  H   UNL     1      -7.859   3.168 -30.956  1.00  0.00     0.163 HD
ENDROOT
BRANCH   1  15
HETATM   15  C   UNL     1      -5.442  -0.589 -31.552  1.00  0.00     0.146 C 
BRANCH  15  16
HETATM   16  C   UNL     1      -4.442  -0.260 -32.629  1.00  0.00     0.224 C 
HETATM   17  N   UNL     1      -4.089  -1.138 -33.601  1.00  0.00    -0.327 N 
HETATM   18  H   UNL     1      -3.389  -0.736 -34.221  1.00  0.00     0.169 HD
HETATM   19  O   UNL     1      -3.979   0.890 -32.670  1.00  0.00    -0.273 OA
BRANCH  17  20
HETATM   20  C   UNL     1      -4.479  -2.452 -33.934  1.00  0.00     0.037 A 
HETATM   21  C   UNL     1      -5.568  -2.809 -34.725  1.00  0.00     0.071 A 
HETATM   22  C   UNL     1      -5.840  -4.156 -34.978  1.00  0.00     0.118 A 
HETATM   23  C   UNL     1      -5.041  -5.167 -34.467  1.00  0.00     0.042 A 
HETATM   24  F   UNL     1      -6.898  -4.471 -35.737  1.00  0.00    -0.206 F 
HETATM   25  C   UNL     1      -3.943  -4.828 -33.686  1.00  0.00     0.005 A 
HETATM   26  C   UNL     1      -3.668  -3.482 -33.424  1.00  0.00     0.029 A 
ENDBRANCH  17  20
ENDBRANCH  15  16
ENDBRANCH   1  15
TORSDOF 3
ENDMDL
MODEL 2
REMARK VINA RESULT:      -8.0      1.859      2.492
REMARK  3 active torsions:
REMARK  status: ('A' for Active; 'I' for Inactive)
REMARK    1  A    between atoms: C_6  and  N_7 
REMARK       I    between atoms: N_7  and  C_8 
REMARK    2  A    between atoms: C_8  and  C_9 
REMARK    3  A    between atoms: C_9  and  C_10 
ROOT
HETATM    1  C   UNL     1      -8.906   0.545 -32.431  1.00  0.00     0.286 C 
HETATM    2  N   UNL     1      -9.376   0.605 -33.881  1.00  0.00    -0.056 N 
HETATM    3  H   UNL     1      -8.662   1.184 -34.374  1.00  0.00     0.278 HD
HETATM    4  H   UNL     1      -9.341  -0.319 -34.324  1.00  0.00     0.278 HD
HETATM    5  C   UNL     1     -10.713   1.261 -34.085  1.00  0.00     0.209 C 
HETATM    6  C   UNL     1     -10.720   2.653 -33.402  1.00  0.00     0.115 C 
HETATM    7  N   UNL     1     -10.211   2.621 -32.032  1.00  0.00    -0.353 N 
HETATM    8  C   UNL     1      -9.127   1.861 -31.660  1.00  0.00     0.249 C 
HETATM    9  O   UNL     1      -8.454   2.185 -30.688  1.00  0.00    -0.271 OA
HETATM   10  C   UNL     1     -11.829   0.336 -33.596  1.00  0.00     0.035 C 
HETATM   11  C   UNL     1     -13.191   1.014 -33.702  1.00  0.00     0.002 C 
HETATM   12  C   UNL     1     -13.208   2.342 -32.952  1.00  0.00     0.002 C 
HETATM   13  C   UNL     1     -12.115   3.286 -33.453  1.00  0.00     0.027 C 
HETATM   14  H   UNL     1     -10.269   3.483 -31.492  1.00  0.00     0.163 HD
ENDROOT
BRANCH   1  15
HETATM   15  C   UNL     1      -7.447   0.070 -32.329  1.00  0.00     0.146 C 
BRANCH  15  16
HETATM   16  C   UNL     1      -6.615   0.579 -33.476  1.00  0.00     0.224 C 
HETATM   17  N   UNL     1      -5.890  -0.238 -34.282  1.00  0.00    -0.327 N 
HETATM   18  H   UNL     1      -5.384   0.296 -34.984  1.00  0.00     0.169 HD
HETATM   19  O   UNL     1      -6.655   1.790 -33.742  1.00  0.00    -0.273 OA
BRANCH  17  20
HETATM   20  C   UNL     1      -5.698  -1.633 -34.357  1.00  0.00     0.037 A 
HETATM   21  C   UNL     1      -4.522  -2.317 -34.060  1.00  0.00     0.071 A 
HETATM   22  C   UNL     1      -4.471  -3.709 -34.178  1.00  0.00     0.118 A 
HETATM   23  C   UNL     1      -5.575  -4.445 -34.577  1.00  0.00     0.042 A 
HETATM   24  F   UNL     1      -3.325  -4.340 -33.891  1.00  0.00    -0.206 F 
HETATM   25  C   UNL     1      -6.759  -3.780 -34.866  1.00  0.00     0.005 A 
HETATM   26  C   UNL     1      -6.817  -2.386 -34.757  1.00  0.00     0.029 A 
ENDBRANCH  17  20
ENDBRANCH  15  16
ENDBRANCH   1  15
TORSDOF 3
ENDMDL
MODEL 3
REMARK VINA RESULT:      -7.7      3.638      4.988
REMARK  3 active torsions:
REMARK  status: ('A' for Active; 'I' for Inactive)
REMARK    1  A    between atoms: C_6  and  N_7 
REMARK       I    between atoms: N_7  and  C_8 
REMARK    2  A    between atoms: C_8  and  C_9 
REMARK    3  A    between atoms: C_9  and  C_10 
ROOT
HETATM    1  C   UNL     1      -5.643   3.315 -33.712  1.00  0.00     0.286 C 
HETATM    2  N   UNL     1      -4.757   2.977 -32.518  1.00  0.00    -0.056 N 
HETATM    3  H   UNL     1      -5.412   2.896 -31.710  1.00  0.00     0.278 HD
HETATM    4  H   UNL     1      -4.326   2.052 -32.623  1.00  0.00     0.278 HD
HETATM    5  C   UNL     1      -3.735   4.023 -32.172  1.00  0.00     0.209 C 
HETATM    6  C   UNL     1      -4.430   5.400 -32.022  1.00  0.00     0.115 C 
HETATM    7  N   UNL     1      -5.332   5.711 -33.130  1.00  0.00    -0.353 N 
HETATM    8  C   UNL     1      -6.154   4.769 -33.704  1.00  0.00     0.249 C 
HETATM    9  O   UNL     1      -7.186   5.116 -34.269  1.00  0.00    -0.271 OA
HETATM   10  C   UNL     1      -2.610   4.017 -33.209  1.00  0.00     0.035 C 
HETATM   11  C   UNL     1      -1.607   5.133 -32.937  1.00  0.00     0.002 C 
HETATM   12  C   UNL     1      -2.294   6.494 -32.878  1.00  0.00     0.002 C 
HETATM   13  C   UNL     1      -3.402   6.519 -31.825  1.00  0.00     0.027 C 
HETATM   14  H   UNL     1      -5.756   6.638 -33.142  1.00  0.00     0.163 HD
ENDROOT
BRANCH   1  15
HETATM   15  C   UNL     1      -6.799   2.312 -33.862  1.00  0.00     0.146 C 
BRANCH  15  16
HETATM   16  C   UNL     1      -7.125   1.640 -32.554  1.00  0.00     0.224 C 
HETATM   17  N   UNL     1      -6.907   0.320 -32.329  1.00  0.00    -0.327 N 
HETATM   18  H   UNL     1      -7.208   0.053 -31.395  1.00  0.00     0.169 HD
HETATM   19  O   UNL     1      -7.540   2.341 -31.619  1.00  0.00    -0.273 OA
BRANCH  17  20
HETATM   20  C   UNL     1      -6.359  -0.734 -33.089  1.00  0.00     0.037 A 
HETATM   21  C   UNL     1      -7.074  -1.652 -33.855  1.00  0.00     0.071 A 
HETATM   22  C   UNL     1      -6.399  -2.650 -34.563  1.00  0.00     0.118 A 
HETATM   23  C   UNL     1      -5.018  -2.754 -34.537  1.00  0.00     0.042 A 
HETATM   24  F   UNL     1      -7.113  -3.523 -35.288  1.00  0.00    -0.206 F 
HETATM   25  C   UNL     1      -4.289  -1.840 -33.787  1.00  0.00     0.005 A 
HETATM   26  C   UNL     1      -4.956  -0.841 -33.070  1.00  0.00     0.029 A 
ENDBRANCH  17  20
ENDBRANCH  15  16
ENDBRANCH   1  15
TORSDOF 3
ENDMDL
MODEL 4
REMARK VINA RESULT:      -7.7      4.517      5.853
REMARK  3 active torsions:
REMARK  status: ('A' for Active; 'I' for Inactive)
REMARK    1  A    between atoms: C_6  and  N_7 
REMARK       I    between atoms: N_7  and  C_8 
REMARK    2  A    between atoms: C_8  and  C_9 
REMARK    3  A    between atoms: C_9  and  C_10 
ROOT
HETATM    1  C   UNL     1      -3.540   3.449 -32.493  1.00  0.00     0.286 C 
HETATM    2  N   UNL     1      -3.140   4.024 -31.138  1.00  0.00    -0.056 N 
HETATM    3  H   UNL     1      -4.039   4.163 -30.627  1.00  0.00     0.278 HD
HETATM    4  H   UNL     1      -2.607   3.343 -30.587  1.00  0.00     0.278 HD
HETATM    5  C   UNL     1      -2.440   5.352 -31.197  1.00  0.00     0.209 C 
HETATM    6  C   UNL     1      -3.281   6.347 -32.037  1.00  0.00     0.115 C 
HETATM    7  N   UNL     1      -3.725   5.787 -33.313  1.00  0.00    -0.353 N 
HETATM    8  C   UNL     1      -4.166   4.491 -33.441  1.00  0.00     0.249 C 
HETATM    9  O   UNL     1      -4.938   4.191 -34.345  1.00  0.00    -0.271 OA
HETATM   10  C   UNL     1      -1.013   5.168 -31.717  1.00  0.00     0.035 C 
HETATM   11  C   UNL     1      -0.309   6.512 -31.878  1.00  0.00     0.002 C 
HETATM   12  C   UNL     1      -1.107   7.450 -32.778  1.00  0.00     0.002 C 
HETATM   13  C   UNL     1      -2.526   7.664 -32.252  1.00  0.00     0.027 C 
HETATM   14  H   UNL     1      -4.207   6.414 -33.956  1.00  0.00     0.163 HD
ENDROOT
BRANCH   1  15
HETATM   15  C   UNL     1      -4.442   2.213 -32.340  1.00  0.00     0.146 C 
BRANCH  15  16
HETATM   16  C   UNL     1      -3.687   1.041 -31.771  1.00  0.00     0.224 C 
HETATM   17  N   UNL     1      -3.972  -0.246 -32.093  1.00  0.00    -0.327 N 
HETATM   18  H   UNL     1      -3.365  -0.891 -31.593  1.00  0.00     0.169 HD
HETATM   19  O   UNL     1      -2.714   1.267 -31.037  1.00  0.00    -0.273 OA
BRANCH  17  20
HETATM   20  C   UNL     1      -4.901  -0.867 -32.954  1.00  0.00     0.037 A 
HETATM   21  C   UNL     1      -4.604  -1.796 -33.949  1.00  0.00     0.071 A 
HETATM   22  C   UNL     1      -5.627  -2.334 -34.733  1.00  0.00     0.118 A 
HETATM   23  C   UNL     1      -6.953  -1.977 -34.544  1.00  0.00     0.042 A 
HETATM   24  F   UNL     1      -5.313  -3.221 -35.686  1.00  0.00    -0.206 F 
HETATM   25  C   UNL     1      -7.268  -1.061 -33.549  1.00  0.00     0.005 A 
HETATM   26  C   UNL     1      -6.248  -0.512 -32.763  1.00  0.00     0.029 A 
ENDBRANCH  17  20
ENDBRANCH  15  16
ENDBRANCH   1  15
TORSDOF 3
ENDMDL
MODEL 5
REMARK VINA RESULT:      -7.5      4.676      7.237
REMARK  3 active torsions:
REMARK  status: ('A' for Active; 'I' for Inactive)
REMARK    1  A    between atoms: C_6  and  N_7 
REMARK       I    between atoms: N_7  and  C_8 
REMARK    2  A    between atoms: C_8  and  C_9 
REMARK    3  A    between atoms: C_9  and  C_10 
ROOT
HETATM    1  C   UNL     1      -5.295   2.109 -32.727  1.00  0.00     0.286 C 
HETATM    2  N   UNL     1      -6.283   1.066 -32.213  1.00  0.00    -0.056 N 
HETATM    3  H   UNL     1      -6.293   1.191 -31.178  1.00  0.00     0.278 HD
HETATM    4  H   UNL     1      -7.238   1.269 -32.529  1.00  0.00     0.278 HD
HETATM    5  C   UNL     1      -5.902  -0.360 -32.497  1.00  0.00     0.209 C 
HETATM    6  C   UNL     1      -4.456  -0.620 -32.003  1.00  0.00     0.115 C 
HETATM    7  N   UNL     1      -3.509   0.407 -32.436  1.00  0.00    -0.353 N 
HETATM    8  C   UNL     1      -3.823   1.745 -32.454  1.00  0.00     0.249 C 
HETATM    9  O   UNL     1      -2.935   2.586 -32.363  1.00  0.00    -0.271 OA
HETATM   10  C   UNL     1      -6.105  -0.669 -33.982  1.00  0.00     0.035 C 
HETATM   11  C   UNL     1      -5.636  -2.081 -34.317  1.00  0.00     0.002 C 
HETATM   12  C   UNL     1      -4.184  -2.295 -33.904  1.00  0.00     0.002 C 
HETATM   13  C   UNL     1      -3.975  -2.015 -32.415  1.00  0.00     0.027 C 
HETATM   14  H   UNL     1      -2.524   0.254 -32.223  1.00  0.00     0.163 HD
ENDROOT
BRANCH   1  15
HETATM   15  C   UNL     1      -5.635   3.515 -32.207  1.00  0.00     0.146 C 
BRANCH  15  16
HETATM   16  C   UNL     1      -6.124   4.414 -33.312  1.00  0.00     0.224 C 
HETATM   17  N   UNL     1      -5.317   5.293 -33.959  1.00  0.00    -0.327 N 
HETATM   18  H   UNL     1      -5.836   5.819 -34.658  1.00  0.00     0.169 HD
HETATM   19  O   UNL     1      -7.296   4.290 -33.696  1.00  0.00    -0.273 OA
BRANCH  17  20
HETATM   20  C   UNL     1      -3.947   5.620 -33.879  1.00  0.00     0.037 A 
HETATM   21  C   UNL     1      -2.953   5.213 -34.766  1.00  0.00     0.071 A 
HETATM   22  C   UNL     1      -1.629   5.614 -34.567  1.00  0.00     0.118 A 
HETATM   23  C   UNL     1      -1.267   6.425 -33.504  1.00  0.00     0.042 A 
HETATM   24  F   UNL     1      -0.693   5.203 -35.433  1.00  0.00    -0.206 F 
HETATM   25  C   UNL     1      -2.248   6.850 -32.617  1.00  0.00     0.005 A 
HETATM   26  C   UNL     1      -3.575   6.448 -32.805  1.00  0.00     0.029 A 
ENDBRANCH  17  20
ENDBRANCH  15  16
ENDBRANCH   1  15
TORSDOF 3
ENDMDL
MODEL 6
REMARK VINA RESULT:      -7.5      2.315      3.139
REMARK  3 active torsions:
REMARK  status: ('A' for Active; 'I' for Inactive)
REMARK    1  A    between atoms: C_6  and  N_7 
REMARK       I    between atoms: N_7  and  C_8 
REMARK    2  A    between atoms: C_8  and  C_9 
REMARK    3  A    between atoms: C_9  and  C_10 
ROOT
HETATM    1  C   UNL     1      -6.582   1.281 -32.007  1.00  0.00     0.286 C 
HETATM    2  N   UNL     1      -6.002   2.626 -32.433  1.00  0.00    -0.056 N 
HETATM    3  H   UNL     1      -4.969   2.521 -32.324  1.00  0.00     0.278 HD
HETATM    4  H   UNL     1      -6.162   2.802 -33.431  1.00  0.00     0.278 HD
HETATM    5  C   UNL     1      -6.432   3.796 -31.593  1.00  0.00     0.209 C 
HETATM    6  C   UNL     1      -6.171   3.486 -30.097  1.00  0.00     0.115 C 
HETATM    7  N   UNL     1      -6.667   2.172 -29.689  1.00  0.00    -0.353 N 
HETATM    8  C   UNL     1      -6.549   1.055 -30.482  1.00  0.00     0.249 C 
HETATM    9  O   UNL     1      -6.531  -0.060 -29.974  1.00  0.00    -0.271 OA
HETATM   10  C   UNL     1      -7.889   4.150 -31.898  1.00  0.00     0.035 C 
HETATM   11  C   UNL     1      -8.382   5.272 -30.991  1.00  0.00     0.002 C 
HETATM   12  C   UNL     1      -8.198   4.917 -29.519  1.00  0.00     0.002 C 
HETATM   13  C   UNL     1      -6.740   4.588 -29.197  1.00  0.00     0.027 C 
HETATM   14  H   UNL     1      -6.608   1.938 -28.698  1.00  0.00     0.163 HD
ENDROOT
BRANCH   1  15
HETATM   15  C   UNL     1      -5.926   0.116 -32.764  1.00  0.00     0.146 C 
BRANCH  15  16
HETATM   16  C   UNL     1      -6.382   0.056 -34.198  1.00  0.00     0.224 C 
HETATM   17  N   UNL     1      -6.267  -1.059 -34.963  1.00  0.00    -0.327 N 
HETATM   18  H   UNL     1      -6.614  -0.893 -35.904  1.00  0.00     0.169 HD
HETATM   19  O   UNL     1      -6.955   1.047 -34.675  1.00  0.00    -0.273 OA
BRANCH  17  20
HETATM   20  C   UNL     1      -5.790  -2.367 -34.737  1.00  0.00     0.037 A 
HETATM   21  C   UNL     1      -4.547  -2.708 -34.209  1.00  0.00     0.071 A 
HETATM   22  C   UNL     1      -4.203  -4.051 -34.036  1.00  0.00     0.118 A 
HETATM   23  C   UNL     1      -5.077  -5.074 -34.370  1.00  0.00     0.042 A 
HETATM   24  F   UNL     1      -2.999  -4.350 -33.531  1.00  0.00    -0.206 F 
HETATM   25  C   UNL     1      -6.325  -4.751 -34.887  1.00  0.00     0.005 A 
HETATM   26  C   UNL     1      -6.675  -3.409 -35.069  1.00  0.00     0.029 A 
ENDBRANCH  17  20
ENDBRANCH  15  16
ENDBRANCH   1  15
TORSDOF 3
ENDMDL
MODEL 7
REMARK VINA RESULT:      -7.5      6.906      8.699
REMARK  3 active torsions:
REMARK  status: ('A' for Active; 'I' for Inactive)
REMARK    1  A    between atoms: C_6  and  N_7 
REMARK       I    between atoms: N_7  and  C_8 
REMARK    2  A    between atoms: C_8  and  C_9 
REMARK    3  A    between atoms: C_9  and  C_10 
ROOT
HETATM    1  C   UNL     1      -2.782   4.892 -33.239  1.00  0.00     0.286 C 
HETATM    2  N   UNL     1      -3.819   5.980 -33.495  1.00  0.00    -0.056 N 
HETATM    3  H   UNL     1      -3.531   6.778 -32.888  1.00  0.00     0.278 HD
HETATM    4  H   UNL     1      -3.764   6.329 -34.459  1.00  0.00     0.278 HD
HETATM    5  C   UNL     1      -5.228   5.612 -33.124  1.00  0.00     0.209 C 
HETATM    6  C   UNL     1      -5.263   5.094 -31.664  1.00  0.00     0.115 C 
HETATM    7  N   UNL     1      -4.232   4.095 -31.385  1.00  0.00    -0.353 N 
HETATM    8  C   UNL     1      -2.951   4.194 -31.875  1.00  0.00     0.249 C 
HETATM    9  O   UNL     1      -2.024   3.649 -31.286  1.00  0.00    -0.271 OA
HETATM   10  C   UNL     1      -5.791   4.614 -34.139  1.00  0.00     0.035 C 
HETATM   11  C   UNL     1      -7.186   4.149 -33.735  1.00  0.00     0.002 C 
HETATM   12  C   UNL     1      -7.188   3.562 -32.327  1.00  0.00     0.002 C 
HETATM   13  C   UNL     1      -6.653   4.560 -31.300  1.00  0.00     0.027 C 
HETATM   14  H   UNL     1      -4.252   3.645 -30.471  1.00  0.00     0.163 HD
ENDROOT
BRANCH   1  15
HETATM   15  C   UNL     1      -1.350   5.419 -33.428  1.00  0.00     0.146 C 
BRANCH  15  16
HETATM   16  C   UNL     1      -1.271   6.907 -33.211  1.00  0.00     0.224 C 
HETATM   17  N   UNL     1      -0.911   7.461 -32.026  1.00  0.00    -0.327 N 
HETATM   18  H   UNL     1      -0.935   8.477 -32.074  1.00  0.00     0.169 HD
HETATM   19  O   UNL     1      -1.471   7.655 -34.179  1.00  0.00    -0.273 OA
BRANCH  17  20
HETATM   20  C   UNL     1      -0.513   6.945 -30.775  1.00  0.00     0.037 A 
HETATM   21  C   UNL     1       0.386   5.901 -30.565  1.00  0.00     0.071 A 
HETATM   22  C   UNL     1       0.693   5.491 -29.265  1.00  0.00     0.118 A 
HETATM   23  C   UNL     1       0.131   6.105 -28.157  1.00  0.00     0.042 A 
HETATM   24  F   UNL     1       1.555   4.480 -29.094  1.00  0.00    -0.206 F 
HETATM   25  C   UNL     1      -0.757   7.155 -28.348  1.00  0.00     0.005 A 
HETATM   26  C   UNL     1      -1.075   7.569 -29.646  1.00  0.00     0.029 A 
ENDBRANCH  17  20
ENDBRANCH  15  16
ENDBRANCH   1  15
TORSDOF 3
ENDMDL
MODEL 8
REMARK VINA RESULT:      -7.4     13.258     14.688
REMARK  3 active torsions:
REMARK  status: ('A' for Active; 'I' for Inactive)
REMARK    1  A    between atoms: C_6  and  N_7 
REMARK       I    between atoms: N_7  and  C_8 
REMARK    2  A    between atoms: C_8  and  C_9 
REMARK    3  A    between atoms: C_9  and  C_10 
ROOT
HETATM    1  C   UNL     1      -5.598 -13.061 -37.835  1.00  0.00     0.286 C 
HETATM    2  N   UNL     1      -6.948 -13.009 -37.126  1.00  0.00    -0.056 N 
HETATM    3  H   UNL     1      -7.132 -11.994 -36.970  1.00  0.00     0.278 HD
HETATM    4  H   UNL     1      -7.703 -13.340 -37.736  1.00  0.00     0.278 HD
HETATM    5  C   UNL     1      -6.986 -13.689 -35.787  1.00  0.00     0.209 C 
HETATM    6  C   UNL     1      -5.831 -13.158 -34.900  1.00  0.00     0.115 C 
HETATM    7  N   UNL     1      -4.540 -13.143 -35.588  1.00  0.00    -0.353 N 
HETATM    8  C   UNL     1      -4.405 -12.767 -36.904  1.00  0.00     0.249 C 
HETATM    9  O   UNL     1      -3.337 -12.323 -37.309  1.00  0.00    -0.271 OA
HETATM   10  C   UNL     1      -6.964 -15.208 -35.972  1.00  0.00     0.035 C 
HETATM   11  C   UNL     1      -6.905 -15.924 -34.627  1.00  0.00     0.002 C 
HETATM   12  C   UNL     1      -5.713 -15.453 -33.800  1.00  0.00     0.002 C 
HETATM   13  C   UNL     1      -5.740 -13.940 -33.585  1.00  0.00     0.027 C 
HETATM   14  H   UNL     1      -3.721 -12.889 -35.038  1.00  0.00     0.163 HD
ENDROOT
BRANCH   1  15
HETATM   15  C   UNL     1      -5.577 -12.159 -39.080  1.00  0.00     0.146 C 
BRANCH  15  16
HETATM   16  C   UNL     1      -5.605 -12.965 -40.351  1.00  0.00     0.224 C 
HETATM   17  N   UNL     1      -6.755 -13.424 -40.908  1.00  0.00    -0.327 N 
HETATM   18  H   UNL     1      -6.564 -13.960 -41.751  1.00  0.00     0.169 HD
HETATM   19  O   UNL     1      -4.538 -13.152 -40.954  1.00  0.00    -0.273 OA
BRANCH  17  20
HETATM   20  C   UNL     1      -8.123 -13.314 -40.583  1.00  0.00     0.037 A 
HETATM   21  C   UNL     1      -8.863 -12.135 -40.538  1.00  0.00     0.071 A 
HETATM   22  C   UNL     1     -10.219 -12.171 -40.201  1.00  0.00     0.118 A 
HETATM   23  C   UNL     1     -10.865 -13.363 -39.913  1.00  0.00     0.042 A 
HETATM   24  F   UNL     1     -10.905 -11.021 -40.160  1.00  0.00    -0.206 F 
HETATM   25  C   UNL     1     -10.144 -14.548 -39.964  1.00  0.00     0.005 A 
HETATM   26  C   UNL     1      -8.785 -14.521 -40.296  1.00  0.00     0.029 A 
ENDBRANCH  17  20
ENDBRANCH  15  16
ENDBRANCH   1  15
TORSDOF 3
ENDMDL
MODEL 9
REMARK VINA RESULT:      -7.3      5.114      6.732
REMARK  3 active torsions:
REMARK  status: ('A' for Active; 'I' for Inactive)
REMARK    1  A    between atoms: C_6  and  N_7 
REMARK       I    between atoms: N_7  and  C_8 
REMARK    2  A    between atoms: C_8  and  C_9 
REMARK    3  A    between atoms: C_9  and  C_10 
ROOT
HETATM    1  C   UNL     1      -3.851   4.422 -33.219  1.00  0.00     0.286 C 
HETATM    2  N   UNL     1      -3.886   4.877 -31.763  1.00  0.00    -0.056 N 
HETATM    3  H   UNL     1      -4.755   5.448 -31.679  1.00  0.00     0.278 HD
HETATM    4  H   UNL     1      -4.010   4.082 -31.127  1.00  0.00     0.278 HD
HETATM    5  C   UNL     1      -2.731   5.742 -31.342  1.00  0.00     0.209 C 
HETATM    6  C   UNL     1      -2.583   6.928 -32.329  1.00  0.00     0.115 C 
HETATM    7  N   UNL     1      -2.611   6.514 -33.731  1.00  0.00    -0.353 N 
HETATM    8  C   UNL     1      -3.466   5.545 -34.202  1.00  0.00     0.249 C 
HETATM    9  O   UNL     1      -3.801   5.542 -35.381  1.00  0.00    -0.271 OA
HETATM   10  C   UNL     1      -1.464   4.894 -31.212  1.00  0.00     0.035 C 
HETATM   11  C   UNL     1      -0.255   5.763 -30.879  1.00  0.00     0.002 C 
HETATM   12  C   UNL     1      -0.071   6.874 -31.907  1.00  0.00     0.002 C 
HETATM   13  C   UNL     1      -1.322   7.744 -32.026  1.00  0.00     0.027 C 
HETATM   14  H   UNL     1      -2.430   7.230 -34.434  1.00  0.00     0.163 HD
ENDROOT
BRANCH   1  15
HETATM   15  C   UNL     1      -5.164   3.738 -33.630  1.00  0.00     0.146 C 
BRANCH  15  16
HETATM   16  C   UNL     1      -5.944   3.266 -32.432  1.00  0.00     0.224 C 
HETATM   17  N   UNL     1      -5.872   1.996 -31.959  1.00  0.00    -0.327 N 
HETATM   18  H   UNL     1      -6.484   1.869 -31.157  1.00  0.00     0.169 HD
HETATM   19  O   UNL     1      -6.623   4.094 -31.807  1.00  0.00    -0.273 OA
BRANCH  17  20
HETATM   20  C   UNL     1      -5.143   0.845 -32.326  1.00  0.00     0.037 A 
HETATM   21  C   UNL     1      -3.873   0.498 -31.871  1.00  0.00     0.071 A 
HETATM   22  C   UNL     1      -3.266  -0.678 -32.317  1.00  0.00     0.118 A 
HETATM   23  C   UNL     1      -3.899  -1.532 -33.206  1.00  0.00     0.042 A 
HETATM   24  F   UNL     1      -2.041  -0.984 -31.868  1.00  0.00    -0.206 F 
HETATM   25  C   UNL     1      -5.171  -1.207 -33.661  1.00  0.00     0.005 A 
HETATM   26  C   UNL     1      -5.784  -0.028 -33.223  1.00  0.00     0.029 A 
ENDBRANCH  17  20
ENDBRANCH  15  16
ENDBRANCH   1  15
TORSDOF 3
ENDMDL
MODEL 10
REMARK VINA RESULT:      -7.3      5.804      7.834
REMARK  3 active torsions:
REMARK  status: ('A' for Active; 'I' for Inactive)
REMARK    1  A    between atoms: C_6  and  N_7 
REMARK       I    between atoms: N_7  and  C_8 
REMARK    2  A    between atoms: C_8  and  C_9 
REMARK    3  A    between atoms: C_9  and  C_10 
ROOT
HETATM    1  C   UNL     1      -4.726   4.076 -32.792  1.00  0.00     0.286 C 
HETATM    2  N   UNL     1      -5.961   3.233 -33.090  1.00  0.00    -0.056 N 
HETATM    3  H   UNL     1      -6.771   3.851 -32.867  1.00  0.00     0.278 HD
HETATM    4  H   UNL     1      -6.038   3.022 -34.091  1.00  0.00     0.278 HD
HETATM    5  C   UNL     1      -6.095   1.990 -32.255  1.00  0.00     0.209 C 
HETATM    6  C   UNL     1      -5.976   2.355 -30.754  1.00  0.00     0.115 C 
HETATM    7  N   UNL     1      -4.830   3.216 -30.463  1.00  0.00    -0.353 N 
HETATM    8  C   UNL     1      -4.452   4.252 -31.285  1.00  0.00     0.249 C 
HETATM    9  O   UNL     1      -3.832   5.205 -30.828  1.00  0.00    -0.271 OA
HETATM   10  C   UNL     1      -5.077   0.943 -32.712  1.00  0.00     0.035 C 
HETATM   11  C   UNL     1      -5.124  -0.294 -31.820  1.00  0.00     0.002 C 
HETATM   12  C   UNL     1      -4.919   0.072 -30.354  1.00  0.00     0.002 C 
HETATM   13  C   UNL     1      -5.949   1.097 -29.880  1.00  0.00     0.027 C 
HETATM   14  H   UNL     1      -4.639   3.424 -29.484  1.00  0.00     0.163 HD
ENDROOT
BRANCH   1  15
HETATM   15  C   UNL     1      -4.776   5.430 -33.518  1.00  0.00     0.146 C 
BRANCH  15  16
HETATM   16  C   UNL     1      -3.758   5.507 -34.624  1.00  0.00     0.224 C 
HETATM   17  N   UNL     1      -2.459   5.836 -34.410  1.00  0.00    -0.327 N 
HETATM   18  H   UNL     1      -1.937   5.850 -35.283  1.00  0.00     0.169 HD
HETATM   19  O   UNL     1      -4.107   5.181 -35.769  1.00  0.00    -0.273 OA
BRANCH  17  20
HETATM   20  C   UNL     1      -1.695   6.146 -33.266  1.00  0.00     0.037 A 
HETATM   21  C   UNL     1      -0.824   5.285 -32.602  1.00  0.00     0.071 A 
HETATM   22  C   UNL     1      -0.125   5.726 -31.476  1.00  0.00     0.118 A 
HETATM   23  C   UNL     1      -0.263   7.018 -30.995  1.00  0.00     0.042 A 
HETATM   24  F   UNL     1       0.702   4.875 -30.854  1.00  0.00    -0.206 F 
HETATM   25  C   UNL     1      -1.117   7.894 -31.652  1.00  0.00     0.005 A 
HETATM   26  C   UNL     1      -1.826   7.458 -32.777  1.00  0.00     0.029 A 
ENDBRANCH  17  20
ENDBRANCH  15  16
ENDBRANCH   1  15
TORSDOF 3
ENDMDL
