MODEL 1
REMARK VINA RESULT:      -9.6      0.000      0.000
REMARK  11 active torsions:
REMARK  status: ('A' for Active; 'I' for Inactive)
REMARK    1  A    between atoms: C_2  and  O_3 
REMARK    2  A    between atoms: O_3  and  C_4 
REMARK    3  A    between atoms: C_7  and  N_8 
REMARK       I    between atoms: N_8  and  C_9 
REMARK    4  A    between atoms: C_9  and  C_10 
REMARK    5  A    between atoms: C_10  and  C_11 
REMARK    6  A    between atoms: N_12  and  C_13 
REMARK    7  A    between atoms: C_13  and  C_14 
REMARK    8  A    between atoms: C_14  and  C_15 
REMARK    9  A    between atoms: C_15  and  N_16 
REMARK   10  A    between atoms: C_20  and  C_21 
REMARK       I    between atoms: C_21  and  N_22 
REMARK   11  A    between atoms: N_28  and  C_29 
ROOT
HETATM    1  C   UNL     1      -6.080   3.154 -33.012  1.00  0.00     0.188 C 
HETATM    2  N   UNL     1      -6.399   2.638 -31.682  1.00  0.00    -0.344 N 
HETATM    3  C   UNL     1      -6.265   1.223 -31.664  1.00  0.00     0.184 C 
HETATM    4  S   UNL     1      -6.226   0.353 -30.234  1.00  0.00    -0.040 SA
HETATM    5  N   UNL     1      -6.193   0.788 -32.988  1.00  0.00    -0.257 N 
HETATM    6  C   UNL     1      -6.307   1.889 -33.822  1.00  0.00     0.254 C 
HETATM    7  O   UNL     1      -6.595   1.906 -35.013  1.00  0.00    -0.270 OA
ENDROOT
BRANCH   2   8
HETATM    8  C   UNL     1      -6.424   3.533 -30.515  1.00  0.00     0.128 C 
BRANCH   8   9
HETATM    9  C   UNL     1      -5.039   4.027 -30.080  1.00  0.00     0.048 C 
BRANCH   9  10
HETATM   10  C   UNL     1      -4.622   5.413 -30.572  1.00  0.00     0.236 C 
BRANCH  10  11
HETATM   11  N   UNL     1      -3.126   5.585 -30.751  1.00  0.00    -0.071 N 
HETATM   12  H   UNL     1      -2.660   5.353 -29.859  1.00  0.00     0.279 HD
HETATM   13  C   UNL     1      -2.575   4.686 -31.835  1.00  0.00     0.235 C 
HETATM   14  C   UNL     1      -1.075   4.900 -31.996  1.00  0.00     0.042 C 
HETATM   15  C   UNL     1      -0.733   6.357 -32.305  1.00  0.00     0.081 C 
HETATM   16  C   UNL     1      -1.333   7.273 -31.237  1.00  0.00     0.042 C 
HETATM   17  C   UNL     1      -2.824   7.052 -31.015  1.00  0.00     0.235 C 
BRANCH  15  18
HETATM   18  C   UNL     1      -1.226   6.725 -33.699  1.00  0.00     0.219 C 
HETATM   19  N   UNL     1      -1.242   5.709 -34.603  1.00  0.00    -0.370 N 
HETATM   20  H   UNL     1      -0.662   4.884 -34.503  1.00  0.00     0.159 HD
HETATM   21  H   UNL     1      -1.505   5.953 -35.553  1.00  0.00     0.159 HD
HETATM   22  O   UNL     1      -1.682   7.827 -33.973  1.00  0.00    -0.273 OA
ENDBRANCH  15  18
ENDBRANCH  10  11
ENDBRANCH   9  10
ENDBRANCH   8   9
ENDBRANCH   2   8
BRANCH   1  23
HETATM   23  C   UNL     1      -6.931   4.310 -33.513  1.00  0.00     0.138 C 
BRANCH  23  24
HETATM   24  C   UNL     1      -8.403   3.991 -33.319  1.00  0.00     0.224 C 
HETATM   25  N   UNL     1      -8.942   3.293 -34.378  1.00  0.00    -0.327 N 
HETATM   26  H   UNL     1      -8.358   3.166 -35.195  1.00  0.00     0.169 HD
HETATM   27  O   UNL     1      -8.971   4.354 -32.295  1.00  0.00    -0.273 OA
BRANCH  25  28
HETATM   28  C   UNL     1     -10.275   2.873 -34.552  1.00  0.00     0.034 A 
HETATM   29  C   UNL     1     -11.263   3.620 -35.191  1.00  0.00     0.032 A 
HETATM   30  C   UNL     1     -12.562   3.107 -35.333  1.00  0.00     0.039 A 
HETATM   31  C   UNL     1     -12.881   1.846 -34.831  1.00  0.00     0.068 A 
HETATM   32  C   UNL     1     -11.895   1.103 -34.186  1.00  0.00     0.039 A 
HETATM   33  C   UNL     1     -10.602   1.608 -34.047  1.00  0.00     0.032 A 
BRANCH  31  34
HETATM   34  O   UNL     1     -14.096   1.227 -34.900  1.00  0.00    -0.352 OA
BRANCH  34  35
HETATM   35  C   UNL     1     -14.597   0.632 -33.705  1.00  0.00     0.171 C 
HETATM   36  C   UNL     1     -15.264   1.726 -32.892  1.00  0.00     0.034 C 
ENDBRANCH  34  35
ENDBRANCH  31  34
ENDBRANCH  25  28
ENDBRANCH  23  24
ENDBRANCH   1  23
BRANCH   5  37
HETATM   37  C   UNL     1      -6.123  -0.548 -33.524  1.00  0.00     0.045 A 
HETATM   38  C   UNL     1      -4.868  -1.167 -33.707  1.00  0.00     0.032 A 
HETATM   39  C   UNL     1      -4.738  -2.460 -34.235  1.00  0.00     0.026 A 
HETATM   40  C   UNL     1      -5.872  -3.178 -34.579  1.00  0.00     0.034 A 
HETATM   41 CL   UNL     1      -5.727  -4.762 -35.224  1.00  0.00    -0.084 Cl
HETATM   42  C   UNL     1      -7.125  -2.606 -34.404  1.00  0.00     0.026 A 
HETATM   43  C   UNL     1      -7.246  -1.305 -33.890  1.00  0.00     0.032 A 
ENDBRANCH   5  37
TORSDOF 11
ENDMDL
MODEL 2
REMARK VINA RESULT:      -9.4      1.655      2.183
REMARK  11 active torsions:
REMARK  status: ('A' for Active; 'I' for Inactive)
REMARK    1  A    between atoms: C_2  and  O_3 
REMARK    2  A    between atoms: O_3  and  C_4 
REMARK    3  A    between atoms: C_7  and  N_8 
REMARK       I    between atoms: N_8  and  C_9 
REMARK    4  A    between atoms: C_9  and  C_10 
REMARK    5  A    between atoms: C_10  and  C_11 
REMARK    6  A    between atoms: N_12  and  C_13 
REMARK    7  A    between atoms: C_13  and  C_14 
REMARK    8  A    between atoms: C_14  and  C_15 
REMARK    9  A    between atoms: C_15  and  N_16 
REMARK   10  A    between atoms: C_20  and  C_21 
REMARK       I    between atoms: C_21  and  N_22 
REMARK   11  A    between atoms: N_28  and  C_29 
ROOT
HETATM    1  C   UNL     1      -5.799   2.832 -33.475  1.00  0.00     0.188 C 
HETATM    2  N   UNL     1      -5.565   2.391 -32.101  1.00  0.00    -0.344 N 
HETATM    3  C   UNL     1      -5.317   0.991 -32.074  1.00  0.00     0.184 C 
HETATM    4  S   UNL     1      -4.686   0.228 -30.725  1.00  0.00    -0.040 SA
HETATM    5  N   UNL     1      -5.700   0.470 -33.311  1.00  0.00    -0.257 N 
HETATM    6  C   UNL     1      -6.202   1.501 -34.089  1.00  0.00     0.254 C 
HETATM    7  O   UNL     1      -6.906   1.418 -35.088  1.00  0.00    -0.270 OA
ENDROOT
BRANCH   2   8
HETATM    8  C   UNL     1      -5.234   3.362 -31.046  1.00  0.00     0.128 C 
BRANCH   8   9
HETATM    9  C   UNL     1      -3.886   4.064 -31.248  1.00  0.00     0.048 C 
BRANCH   9  10
HETATM   10  C   UNL     1      -3.848   5.567 -30.973  1.00  0.00     0.236 C 
BRANCH  10  11
HETATM   11  N   UNL     1      -2.463   6.179 -31.050  1.00  0.00    -0.071 N 
HETATM   12  H   UNL     1      -2.439   6.837 -31.847  1.00  0.00     0.279 HD
HETATM   13  C   UNL     1      -2.102   6.932 -29.789  1.00  0.00     0.235 C 
HETATM   14  C   UNL     1      -0.700   7.517 -29.898  1.00  0.00     0.042 C 
HETATM   15  C   UNL     1       0.350   6.444 -30.182  1.00  0.00     0.081 C 
HETATM   16  C   UNL     1      -0.040   5.647 -31.428  1.00  0.00     0.042 C 
HETATM   17  C   UNL     1      -1.456   5.087 -31.374  1.00  0.00     0.235 C 
BRANCH  15  18
HETATM   18  C   UNL     1       0.512   5.538 -28.967  1.00  0.00     0.219 C 
HETATM   19  N   UNL     1       1.086   4.330 -29.208  1.00  0.00    -0.370 N 
HETATM   20  H   UNL     1       1.085   3.902 -30.127  1.00  0.00     0.159 HD
HETATM   21  H   UNL     1       1.140   3.689 -28.422  1.00  0.00     0.159 HD
HETATM   22  O   UNL     1       0.250   5.902 -27.828  1.00  0.00    -0.273 OA
ENDBRANCH  15  18
ENDBRANCH  10  11
ENDBRANCH   9  10
ENDBRANCH   8   9
ENDBRANCH   2   8
BRANCH   1  23
HETATM   23  C   UNL     1      -6.866   3.896 -33.674  1.00  0.00     0.138 C 
BRANCH  23  24
HETATM   24  C   UNL     1      -8.228   3.339 -33.300  1.00  0.00     0.224 C 
HETATM   25  N   UNL     1      -8.997   3.025 -34.400  1.00  0.00    -0.327 N 
HETATM   26  H   UNL     1      -8.637   3.290 -35.308  1.00  0.00     0.169 HD
HETATM   27  O   UNL     1      -8.528   3.214 -32.118  1.00  0.00    -0.273 OA
BRANCH  25  28
HETATM   28  C   UNL     1     -10.315   2.530 -34.425  1.00  0.00     0.034 A 
HETATM   29  C   UNL     1     -10.720   1.327 -33.848  1.00  0.00     0.032 A 
HETATM   30  C   UNL     1     -12.064   0.927 -33.907  1.00  0.00     0.039 A 
HETATM   31  C   UNL     1     -13.010   1.724 -34.549  1.00  0.00     0.068 A 
HETATM   32  C   UNL     1     -12.604   2.923 -35.131  1.00  0.00     0.039 A 
HETATM   33  C   UNL     1     -11.269   3.326 -35.070  1.00  0.00     0.032 A 
BRANCH  31  34
HETATM   34  O   UNL     1     -14.343   1.459 -34.680  1.00  0.00    -0.352 OA
BRANCH  34  35
HETATM   35  C   UNL     1     -15.008   0.876 -33.563  1.00  0.00     0.171 C 
HETATM   36  C   UNL     1     -15.425   2.005 -32.637  1.00  0.00     0.034 C 
ENDBRANCH  34  35
ENDBRANCH  31  34
ENDBRANCH  25  28
ENDBRANCH  23  24
ENDBRANCH   1  23
BRANCH   5  37
HETATM   37  C   UNL     1      -5.721  -0.893 -33.777  1.00  0.00     0.045 A 
HETATM   38  C   UNL     1      -4.511  -1.605 -33.924  1.00  0.00     0.032 A 
HETATM   39  C   UNL     1      -4.470  -2.929 -34.384  1.00  0.00     0.026 A 
HETATM   40  C   UNL     1      -5.650  -3.584 -34.695  1.00  0.00     0.034 A 
HETATM   41 CL   UNL     1      -5.614  -5.206 -35.258  1.00  0.00    -0.084 Cl
HETATM   42  C   UNL     1      -6.861  -2.921 -34.555  1.00  0.00     0.026 A 
HETATM   43  C   UNL     1      -6.893  -1.589 -34.109  1.00  0.00     0.032 A 
ENDBRANCH   5  37
TORSDOF 11
ENDMDL
MODEL 3
REMARK VINA RESULT:      -9.0      2.853      6.241
REMARK  11 active torsions:
REMARK  status: ('A' for Active; 'I' for Inactive)
REMARK    1  A    between atoms: C_2  and  O_3 
REMARK    2  A    between atoms: O_3  and  C_4 
REMARK    3  A    between atoms: C_7  and  N_8 
REMARK       I    between atoms: N_8  and  C_9 
REMARK    4  A    between atoms: C_9  and  C_10 
REMARK    5  A    between atoms: C_10  and  C_11 
REMARK    6  A    between atoms: N_12  and  C_13 
REMARK    7  A    between atoms: C_13  and  C_14 
REMARK    8  A    between atoms: C_14  and  C_15 
REMARK    9  A    between atoms: C_15  and  N_16 
REMARK   10  A    between atoms: C_20  and  C_21 
REMARK       I    between atoms: C_21  and  N_22 
REMARK   11  A    between atoms: N_28  and  C_29 
ROOT
HETATM    1  C   UNL     1      -8.288   3.815 -31.791  1.00  0.00     0.188 C 
HETATM    2  N   UNL     1      -8.284   4.556 -33.051  1.00  0.00    -0.344 N 
HETATM    3  C   UNL     1      -9.519   4.368 -33.731  1.00  0.00     0.184 C 
HETATM    4  S   UNL     1      -9.977   5.328 -35.022  1.00  0.00    -0.040 SA
HETATM    5  N   UNL     1     -10.175   3.294 -33.126  1.00  0.00    -0.257 N 
HETATM    6  C   UNL     1      -9.369   2.797 -32.114  1.00  0.00     0.254 C 
HETATM    7  O   UNL     1      -9.435   1.703 -31.567  1.00  0.00    -0.270 OA
ENDROOT
BRANCH   2   8
HETATM    8  C   UNL     1      -7.305   5.628 -33.290  1.00  0.00     0.128 C 
BRANCH   8   9
HETATM    9  C   UNL     1      -7.056   6.525 -32.072  1.00  0.00     0.048 C 
BRANCH   9  10
HETATM   10  C   UNL     1      -5.596   6.765 -31.686  1.00  0.00     0.236 C 
BRANCH  10  11
HETATM   11  N   UNL     1      -4.629   5.738 -32.240  1.00  0.00    -0.071 N 
HETATM   12  H   UNL     1      -5.158   5.072 -32.827  1.00  0.00     0.279 HD
HETATM   13  C   UNL     1      -3.545   6.372 -33.083  1.00  0.00     0.235 C 
HETATM   14  C   UNL     1      -2.585   5.312 -33.607  1.00  0.00     0.042 C 
HETATM   15  C   UNL     1      -1.955   4.499 -32.477  1.00  0.00     0.081 C 
HETATM   16  C   UNL     1      -3.049   3.898 -31.592  1.00  0.00     0.042 C 
HETATM   17  C   UNL     1      -4.057   4.925 -31.090  1.00  0.00     0.235 C 
BRANCH  15  18
HETATM   18  C   UNL     1      -1.003   5.374 -31.672  1.00  0.00     0.219 C 
HETATM   19  N   UNL     1      -0.730   4.941 -30.412  1.00  0.00    -0.370 N 
HETATM   20  H   UNL     1      -1.348   4.317 -29.907  1.00  0.00     0.159 HD
HETATM   21  H   UNL     1      -0.150   5.548 -29.841  1.00  0.00     0.159 HD
HETATM   22  O   UNL     1      -0.428   6.344 -32.150  1.00  0.00    -0.273 OA
ENDBRANCH  15  18
ENDBRANCH  10  11
ENDBRANCH   9  10
ENDBRANCH   8   9
ENDBRANCH   2   8
BRANCH   1  23
HETATM   23  C   UNL     1      -6.981   3.150 -31.392  1.00  0.00     0.138 C 
BRANCH  23  24
HETATM   24  C   UNL     1      -6.525   2.204 -32.490  1.00  0.00     0.224 C 
HETATM   25  N   UNL     1      -6.709   0.878 -32.162  1.00  0.00    -0.327 N 
HETATM   26  H   UNL     1      -7.011   0.671 -31.220  1.00  0.00     0.169 HD
HETATM   27  O   UNL     1      -6.057   2.661 -33.527  1.00  0.00    -0.273 OA
BRANCH  25  28
HETATM   28  C   UNL     1      -6.364  -0.258 -32.920  1.00  0.00     0.034 A 
HETATM   29  C   UNL     1      -7.259  -0.996 -33.692  1.00  0.00     0.032 A 
HETATM   30  C   UNL     1      -6.816  -2.105 -34.430  1.00  0.00     0.039 A 
HETATM   31  C   UNL     1      -5.476  -2.485 -34.395  1.00  0.00     0.068 A 
HETATM   32  C   UNL     1      -4.582  -1.752 -33.617  1.00  0.00     0.039 A 
HETATM   33  C   UNL     1      -5.019  -0.647 -32.886  1.00  0.00     0.032 A 
BRANCH  31  34
HETATM   34  O   UNL     1      -4.911  -3.536 -35.060  1.00  0.00    -0.352 OA
BRANCH  34  35
HETATM   35  C   UNL     1      -5.046  -4.829 -34.477  1.00  0.00     0.171 C 
HETATM   36  C   UNL     1      -3.825  -5.070 -33.608  1.00  0.00     0.034 C 
ENDBRANCH  34  35
ENDBRANCH  31  34
ENDBRANCH  25  28
ENDBRANCH  23  24
ENDBRANCH   1  23
BRANCH   5  37
HETATM   37  C   UNL     1     -11.417   2.652 -33.472  1.00  0.00     0.045 A 
HETATM   38  C   UNL     1     -12.607   3.020 -32.806  1.00  0.00     0.032 A 
HETATM   39  C   UNL     1     -13.843   2.422 -33.092  1.00  0.00     0.026 A 
HETATM   40  C   UNL     1     -13.923   1.444 -34.071  1.00  0.00     0.034 A 
HETATM   41 CL   UNL     1     -15.430   0.705 -34.432  1.00  0.00    -0.084 Cl
HETATM   42  C   UNL     1     -12.776   1.062 -34.753  1.00  0.00     0.026 A 
HETATM   43  C   UNL     1     -11.539   1.655 -34.450  1.00  0.00     0.032 A 
ENDBRANCH   5  37
TORSDOF 11
ENDMDL
MODEL 4
REMARK VINA RESULT:      -8.8      3.308      8.717
REMARK  11 active torsions:
REMARK  status: ('A' for Active; 'I' for Inactive)
REMARK    1  A    between atoms: C_2  and  O_3 
REMARK    2  A    between atoms: O_3  and  C_4 
REMARK    3  A    between atoms: C_7  and  N_8 
REMARK       I    between atoms: N_8  and  C_9 
REMARK    4  A    between atoms: C_9  and  C_10 
REMARK    5  A    between atoms: C_10  and  C_11 
REMARK    6  A    between atoms: N_12  and  C_13 
REMARK    7  A    between atoms: C_13  and  C_14 
REMARK    8  A    between atoms: C_14  and  C_15 
REMARK    9  A    between atoms: C_15  and  N_16 
REMARK   10  A    between atoms: C_20  and  C_21 
REMARK       I    between atoms: C_21  and  N_22 
REMARK   11  A    between atoms: N_28  and  C_29 
ROOT
HETATM    1  C   UNL     1      -6.443   3.134 -31.645  1.00  0.00     0.188 C 
HETATM    2  N   UNL     1      -6.990   4.488 -31.695  1.00  0.00    -0.344 N 
HETATM    3  C   UNL     1      -5.938   5.434 -31.837  1.00  0.00     0.184 C 
HETATM    4  S   UNL     1      -6.228   7.027 -32.260  1.00  0.00    -0.040 SA
HETATM    5  N   UNL     1      -4.739   4.778 -31.555  1.00  0.00    -0.257 N 
HETATM    6  C   UNL     1      -5.022   3.464 -31.216  1.00  0.00     0.254 C 
HETATM    7  O   UNL     1      -4.307   2.668 -30.621  1.00  0.00    -0.270 OA
ENDROOT
BRANCH   2   8
HETATM    8  C   UNL     1      -8.417   4.712 -31.977  1.00  0.00     0.128 C 
BRANCH   8   9
HETATM    9  C   UNL     1      -8.797   4.518 -33.450  1.00  0.00     0.048 C 
BRANCH   9  10
HETATM   10  C   UNL     1      -8.910   3.076 -33.944  1.00  0.00     0.236 C 
BRANCH  10  11
HETATM   11  N   UNL     1     -10.201   2.768 -34.676  1.00  0.00    -0.071 N 
HETATM   12  H   UNL     1      -9.978   2.568 -35.664  1.00  0.00     0.279 HD
HETATM   13  C   UNL     1     -10.918   1.573 -34.089  1.00  0.00     0.235 C 
HETATM   14  C   UNL     1     -12.217   1.306 -34.840  1.00  0.00     0.042 C 
HETATM   15  C   UNL     1     -13.143   2.522 -34.835  1.00  0.00     0.081 C 
HETATM   16  C   UNL     1     -12.404   3.745 -35.380  1.00  0.00     0.042 C 
HETATM   17  C   UNL     1     -11.075   4.013 -34.684  1.00  0.00     0.235 C 
BRANCH  15  18
HETATM   18  C   UNL     1     -13.672   2.770 -33.427  1.00  0.00     0.219 C 
HETATM   19  N   UNL     1     -13.888   1.656 -32.677  1.00  0.00    -0.370 N 
HETATM   20  H   UNL     1     -14.038   0.744 -33.091  1.00  0.00     0.159 HD
HETATM   21  H   UNL     1     -14.302   1.801 -31.761  1.00  0.00     0.159 HD
HETATM   22  O   UNL     1     -13.795   3.891 -32.952  1.00  0.00    -0.273 OA
ENDBRANCH  15  18
ENDBRANCH  10  11
ENDBRANCH   9  10
ENDBRANCH   8   9
ENDBRANCH   2   8
BRANCH   1  23
HETATM   23  C   UNL     1      -7.115   2.166 -30.685  1.00  0.00     0.138 C 
BRANCH  23  24
HETATM   24  C   UNL     1      -6.796   0.735 -31.084  1.00  0.00     0.224 C 
HETATM   25  N   UNL     1      -6.570   0.597 -32.437  1.00  0.00    -0.327 N 
HETATM   26  H   UNL     1      -6.742   1.405 -33.021  1.00  0.00     0.169 HD
HETATM   27  O   UNL     1      -6.762  -0.140 -30.227  1.00  0.00    -0.273 OA
BRANCH  25  28
HETATM   28  C   UNL     1      -6.292  -0.583 -33.154  1.00  0.00     0.034 A 
HETATM   29  C   UNL     1      -7.255  -1.381 -33.769  1.00  0.00     0.032 A 
HETATM   30  C   UNL     1      -6.877  -2.531 -34.479  1.00  0.00     0.039 A 
HETATM   31  C   UNL     1      -5.535  -2.894 -34.573  1.00  0.00     0.068 A 
HETATM   32  C   UNL     1      -4.573  -2.100 -33.952  1.00  0.00     0.039 A 
HETATM   33  C   UNL     1      -4.945  -0.953 -33.249  1.00  0.00     0.032 A 
BRANCH  31  34
HETATM   34  O   UNL     1      -5.029  -3.979 -35.229  1.00  0.00    -0.352 OA
BRANCH  34  35
HETATM   35  C   UNL     1      -5.003  -5.217 -34.523  1.00  0.00     0.171 C 
HETATM   36  C   UNL     1      -3.772  -5.214 -33.636  1.00  0.00     0.034 C 
ENDBRANCH  34  35
ENDBRANCH  31  34
ENDBRANCH  25  28
ENDBRANCH  23  24
ENDBRANCH   1  23
BRANCH   5  37
HETATM   37  C   UNL     1      -3.394   5.291 -31.486  1.00  0.00     0.045 A 
HETATM   38  C   UNL     1      -3.052   6.233 -30.492  1.00  0.00     0.032 A 
HETATM   39  C   UNL     1      -1.763   6.775 -30.384  1.00  0.00     0.026 A 
HETATM   40  C   UNL     1      -0.773   6.373 -31.265  1.00  0.00     0.034 A 
HETATM   41 CL   UNL     1       0.810   7.027 -31.143  1.00  0.00    -0.084 Cl
HETATM   42  C   UNL     1      -1.069   5.441 -32.250  1.00  0.00     0.026 A 
HETATM   43  C   UNL     1      -2.366   4.914 -32.361  1.00  0.00     0.032 A 
ENDBRANCH   5  37
TORSDOF 11
ENDMDL
MODEL 5
REMARK VINA RESULT:      -8.6      4.483      9.909
REMARK  11 active torsions:
REMARK  status: ('A' for Active; 'I' for Inactive)
REMARK    1  A    between atoms: C_2  and  O_3 
REMARK    2  A    between atoms: O_3  and  C_4 
REMARK    3  A    between atoms: C_7  and  N_8 
REMARK       I    between atoms: N_8  and  C_9 
REMARK    4  A    between atoms: C_9  and  C_10 
REMARK    5  A    between atoms: C_10  and  C_11 
REMARK    6  A    between atoms: N_12  and  C_13 
REMARK    7  A    between atoms: C_13  and  C_14 
REMARK    8  A    between atoms: C_14  and  C_15 
REMARK    9  A    between atoms: C_15  and  N_16 
REMARK   10  A    between atoms: C_20  and  C_21 
REMARK       I    between atoms: C_21  and  N_22 
REMARK   11  A    between atoms: N_28  and  C_29 
ROOT
HETATM    1  C   UNL     1      -2.455   5.136 -31.339  1.00  0.00     0.188 C 
HETATM    2  N   UNL     1      -3.279   6.058 -32.118  1.00  0.00    -0.344 N 
HETATM    3  C   UNL     1      -4.612   5.570 -32.199  1.00  0.00     0.184 C 
HETATM    4  S   UNL     1      -5.879   6.530 -32.722  1.00  0.00    -0.040 SA
HETATM    5  N   UNL     1      -4.599   4.235 -31.790  1.00  0.00    -0.257 N 
HETATM    6  C   UNL     1      -3.295   3.878 -31.487  1.00  0.00     0.254 C 
HETATM    7  O   UNL     1      -2.824   2.751 -31.394  1.00  0.00    -0.270 OA
ENDROOT
BRANCH   2   8
HETATM    8  C   UNL     1      -2.832   7.437 -32.369  1.00  0.00     0.128 C 
BRANCH   8   9
HETATM    9  C   UNL     1      -2.709   8.291 -31.101  1.00  0.00     0.048 C 
BRANCH   9  10
HETATM   10  C   UNL     1      -3.912   9.163 -30.744  1.00  0.00     0.236 C 
BRANCH  10  11
HETATM   11  N   UNL     1      -4.169   9.290 -29.255  1.00  0.00    -0.071 N 
HETATM   12  H   UNL     1      -4.170  10.293 -29.007  1.00  0.00     0.279 HD
HETATM   13  C   UNL     1      -5.497   8.689 -28.853  1.00  0.00     0.235 C 
HETATM   14  C   UNL     1      -5.711   8.821 -27.351  1.00  0.00     0.042 C 
HETATM   15  C   UNL     1      -4.583   8.171 -26.551  1.00  0.00     0.081 C 
HETATM   16  C   UNL     1      -3.234   8.740 -26.992  1.00  0.00     0.042 C 
HETATM   17  C   UNL     1      -3.007   8.669 -28.496  1.00  0.00     0.235 C 
BRANCH  15  18
HETATM   18  C   UNL     1      -4.632   6.657 -26.715  1.00  0.00     0.219 C 
HETATM   19  N   UNL     1      -3.504   5.990 -26.350  1.00  0.00    -0.370 N 
HETATM   20  H   UNL     1      -2.596   6.439 -26.315  1.00  0.00     0.159 HD
HETATM   21  H   UNL     1      -3.497   4.988 -26.516  1.00  0.00     0.159 HD
HETATM   22  O   UNL     1      -5.646   6.057 -27.046  1.00  0.00    -0.273 OA
ENDBRANCH  15  18
ENDBRANCH  10  11
ENDBRANCH   9  10
ENDBRANCH   8   9
ENDBRANCH   2   8
BRANCH   1  23
HETATM   23  C   UNL     1      -1.029   4.927 -31.823  1.00  0.00     0.138 C 
BRANCH  23  24
HETATM   24  C   UNL     1      -0.050   5.285 -30.718  1.00  0.00     0.224 C 
HETATM   25  N   UNL     1      -0.585   6.152 -29.791  1.00  0.00    -0.327 N 
HETATM   26  H   UNL     1      -1.499   6.537 -29.989  1.00  0.00     0.169 HD
HETATM   27  O   UNL     1       1.077   4.803 -30.729  1.00  0.00    -0.273 OA
BRANCH  25  28
HETATM   28  C   UNL     1       0.047   6.720 -28.668  1.00  0.00     0.034 A 
HETATM   29  C   UNL     1      -0.082   6.247 -27.363  1.00  0.00     0.032 A 
HETATM   30  C   UNL     1       0.605   6.869 -26.309  1.00  0.00     0.039 A 
HETATM   31  C   UNL     1       1.421   7.973 -26.554  1.00  0.00     0.068 A 
HETATM   32  C   UNL     1       1.544   8.450 -27.857  1.00  0.00     0.039 A 
HETATM   33  C   UNL     1       0.866   7.831 -28.907  1.00  0.00     0.032 A 
BRANCH  31  34
HETATM   34  O   UNL     1       2.144   8.670 -25.629  1.00  0.00    -0.352 OA
BRANCH  34  35
HETATM   35  C   UNL     1       1.432   9.568 -24.782  1.00  0.00     0.171 C 
HETATM   36  C   UNL     1       2.103   9.545 -23.421  1.00  0.00     0.034 C 
ENDBRANCH  34  35
ENDBRANCH  31  34
ENDBRANCH  25  28
ENDBRANCH  23  24
ENDBRANCH   1  23
BRANCH   5  37
HETATM   37  C   UNL     1      -5.664   3.266 -31.753  1.00  0.00     0.045 A 
HETATM   38  C   UNL     1      -6.039   2.587 -32.933  1.00  0.00     0.032 A 
HETATM   39  C   UNL     1      -7.075   1.643 -32.959  1.00  0.00     0.026 A 
HETATM   40  C   UNL     1      -7.757   1.339 -31.792  1.00  0.00     0.034 A 
HETATM   41 CL   UNL     1      -9.026   0.183 -31.810  1.00  0.00    -0.084 Cl
HETATM   42  C   UNL     1      -7.410   1.978 -30.609  1.00  0.00     0.026 A 
HETATM   43  C   UNL     1      -6.382   2.934 -30.595  1.00  0.00     0.032 A 
ENDBRANCH   5  37
TORSDOF 11
ENDMDL
MODEL 6
REMARK VINA RESULT:      -8.6      2.347      9.254
REMARK  11 active torsions:
REMARK  status: ('A' for Active; 'I' for Inactive)
REMARK    1  A    between atoms: C_2  and  O_3 
REMARK    2  A    between atoms: O_3  and  C_4 
REMARK    3  A    between atoms: C_7  and  N_8 
REMARK       I    between atoms: N_8  and  C_9 
REMARK    4  A    between atoms: C_9  and  C_10 
REMARK    5  A    between atoms: C_10  and  C_11 
REMARK    6  A    between atoms: N_12  and  C_13 
REMARK    7  A    between atoms: C_13  and  C_14 
REMARK    8  A    between atoms: C_14  and  C_15 
REMARK    9  A    between atoms: C_15  and  N_16 
REMARK   10  A    between atoms: C_20  and  C_21 
REMARK       I    between atoms: C_21  and  N_22 
REMARK   11  A    between atoms: N_28  and  C_29 
ROOT
HETATM    1  C   UNL     1      -5.990   2.806 -31.647  1.00  0.00     0.188 C 
HETATM    2  N   UNL     1      -7.322   2.316 -31.998  1.00  0.00    -0.344 N 
HETATM    3  C   UNL     1      -7.263   0.931 -32.313  1.00  0.00     0.184 C 
HETATM    4  S   UNL     1      -8.641  -0.012 -32.428  1.00  0.00    -0.040 SA
HETATM    5  N   UNL     1      -5.921   0.594 -32.493  1.00  0.00    -0.257 N 
HETATM    6  C   UNL     1      -5.152   1.736 -32.327  1.00  0.00     0.254 C 
HETATM    7  O   UNL     1      -4.000   1.929 -32.694  1.00  0.00    -0.270 OA
ENDROOT
BRANCH   2   8
HETATM    8  C   UNL     1      -8.524   3.087 -31.643  1.00  0.00     0.128 C 
BRANCH   8   9
HETATM    9  C   UNL     1      -9.081   3.934 -32.793  1.00  0.00     0.048 C 
BRANCH   9  10
HETATM   10  C   UNL     1      -9.019   3.318 -34.190  1.00  0.00     0.236 C 
BRANCH  10  11
HETATM   11  N   UNL     1     -10.375   3.073 -34.823  1.00  0.00    -0.071 N 
HETATM   12  H   UNL     1     -10.279   3.160 -35.848  1.00  0.00     0.279 HD
HETATM   13  C   UNL     1     -10.913   1.696 -34.501  1.00  0.00     0.235 C 
HETATM   14  C   UNL     1     -12.281   1.494 -35.140  1.00  0.00     0.042 C 
HETATM   15  C   UNL     1     -13.284   2.560 -34.699  1.00  0.00     0.081 C 
HETATM   16  C   UNL     1     -12.719   3.955 -34.975  1.00  0.00     0.042 C 
HETATM   17  C   UNL     1     -11.329   4.175 -34.392  1.00  0.00     0.235 C 
BRANCH  15  18
HETATM   18  C   UNL     1     -13.626   2.377 -33.226  1.00  0.00     0.219 C 
HETATM   19  N   UNL     1     -14.050   1.135 -32.871  1.00  0.00    -0.370 N 
HETATM   20  H   UNL     1     -14.451   0.487 -33.540  1.00  0.00     0.159 HD
HETATM   21  H   UNL     1     -14.344   1.015 -31.907  1.00  0.00     0.159 HD
HETATM   22  O   UNL     1     -13.433   3.246 -32.386  1.00  0.00    -0.273 OA
ENDBRANCH  15  18
ENDBRANCH  10  11
ENDBRANCH   9  10
ENDBRANCH   8   9
ENDBRANCH   2   8
BRANCH   1  23
HETATM   23  C   UNL     1      -5.631   4.202 -32.132  1.00  0.00     0.138 C 
BRANCH  23  24
HETATM   24  C   UNL     1      -4.637   4.841 -31.179  1.00  0.00     0.224 C 
HETATM   25  N   UNL     1      -3.406   5.060 -31.760  1.00  0.00    -0.327 N 
HETATM   26  H   UNL     1      -3.258   4.686 -32.688  1.00  0.00     0.169 HD
HETATM   27  O   UNL     1      -4.980   5.103 -30.032  1.00  0.00    -0.273 OA
BRANCH  25  28
HETATM   28  C   UNL     1      -2.247   5.593 -31.162  1.00  0.00     0.034 A 
HETATM   29  C   UNL     1      -0.998   4.975 -31.171  1.00  0.00     0.032 A 
HETATM   30  C   UNL     1       0.106   5.595 -30.564  1.00  0.00     0.039 A 
HETATM   31  C   UNL     1      -0.036   6.834 -29.939  1.00  0.00     0.068 A 
HETATM   32  C   UNL     1      -1.287   7.447 -29.925  1.00  0.00     0.039 A 
HETATM   33  C   UNL     1      -2.385   6.835 -30.531  1.00  0.00     0.032 A 
BRANCH  31  34
HETATM   34  O   UNL     1       0.946   7.547 -29.314  1.00  0.00    -0.352 OA
BRANCH  34  35
HETATM   35  C   UNL     1       0.936   7.566 -27.889  1.00  0.00     0.171 C 
HETATM   36  C   UNL     1       1.652   8.828 -27.443  1.00  0.00     0.034 C 
ENDBRANCH  34  35
ENDBRANCH  31  34
ENDBRANCH  25  28
ENDBRANCH  23  24
ENDBRANCH   1  23
BRANCH   5  37
HETATM   37  C   UNL     1      -5.322  -0.654 -32.891  1.00  0.00     0.045 A 
HETATM   38  C   UNL     1      -4.337  -1.252 -32.076  1.00  0.00     0.032 A 
HETATM   39  C   UNL     1      -3.712  -2.460 -32.418  1.00  0.00     0.026 A 
HETATM   40  C   UNL     1      -4.073  -3.114 -33.585  1.00  0.00     0.034 A 
HETATM   41 CL   UNL     1      -3.317  -4.594 -34.015  1.00  0.00    -0.084 Cl
HETATM   42  C   UNL     1      -5.045  -2.562 -34.408  1.00  0.00     0.026 A 
HETATM   43  C   UNL     1      -5.655  -1.344 -34.066  1.00  0.00     0.032 A 
ENDBRANCH   5  37
TORSDOF 11
ENDMDL
MODEL 7
REMARK VINA RESULT:      -8.5      4.255      8.392
REMARK  11 active torsions:
REMARK  status: ('A' for Active; 'I' for Inactive)
REMARK    1  A    between atoms: C_2  and  O_3 
REMARK    2  A    between atoms: O_3  and  C_4 
REMARK    3  A    between atoms: C_7  and  N_8 
REMARK       I    between atoms: N_8  and  C_9 
REMARK    4  A    between atoms: C_9  and  C_10 
REMARK    5  A    between atoms: C_10  and  C_11 
REMARK    6  A    between atoms: N_12  and  C_13 
REMARK    7  A    between atoms: C_13  and  C_14 
REMARK    8  A    between atoms: C_14  and  C_15 
REMARK    9  A    between atoms: C_15  and  N_16 
REMARK   10  A    between atoms: C_20  and  C_21 
REMARK       I    between atoms: C_21  and  N_22 
REMARK   11  A    between atoms: N_28  and  C_29 
ROOT
HETATM    1  C   UNL     1      -3.300   6.402 -30.354  1.00  0.00     0.188 C 
HETATM    2  N   UNL     1      -2.191   5.919 -31.174  1.00  0.00    -0.344 N 
HETATM    3  C   UNL     1      -0.977   5.979 -30.437  1.00  0.00     0.184 C 
HETATM    4  S   UNL     1       0.412   5.199 -30.948  1.00  0.00    -0.040 SA
HETATM    5  N   UNL     1      -1.205   6.773 -29.312  1.00  0.00    -0.257 N 
HETATM    6  C   UNL     1      -2.514   7.227 -29.348  1.00  0.00     0.254 C 
HETATM    7  O   UNL     1      -3.004   8.167 -28.735  1.00  0.00    -0.270 OA
ENDROOT
BRANCH   2   8
HETATM    8  C   UNL     1      -2.444   5.124 -32.387  1.00  0.00     0.128 C 
BRANCH   8   9
HETATM    9  C   UNL     1      -2.817   3.664 -32.106  1.00  0.00     0.048 C 
BRANCH   9  10
HETATM   10  C   UNL     1      -3.895   3.049 -32.999  1.00  0.00     0.236 C 
BRANCH  10  11
HETATM   11  N   UNL     1      -4.644   1.894 -32.366  1.00  0.00    -0.071 N 
HETATM   12  H   UNL     1      -4.944   2.177 -31.419  1.00  0.00     0.279 HD
HETATM   13  C   UNL     1      -5.866   1.500 -33.165  1.00  0.00     0.235 C 
HETATM   14  C   UNL     1      -6.581   0.327 -32.506  1.00  0.00     0.042 C 
HETATM   15  C   UNL     1      -5.662  -0.881 -32.333  1.00  0.00     0.081 C 
HETATM   16  C   UNL     1      -4.401  -0.474 -31.569  1.00  0.00     0.042 C 
HETATM   17  C   UNL     1      -3.686   0.728 -32.173  1.00  0.00     0.235 C 
BRANCH  15  18
HETATM   18  C   UNL     1      -5.325  -1.479 -33.692  1.00  0.00     0.219 C 
HETATM   19  N   UNL     1      -6.327  -1.452 -34.611  1.00  0.00    -0.370 N 
HETATM   20  H   UNL     1      -7.303  -1.384 -34.347  1.00  0.00     0.159 HD
HETATM   21  H   UNL     1      -6.139  -1.906 -35.500  1.00  0.00     0.159 HD
HETATM   22  O   UNL     1      -4.201  -1.862 -33.989  1.00  0.00    -0.273 OA
ENDBRANCH  15  18
ENDBRANCH  10  11
ENDBRANCH   9  10
ENDBRANCH   8   9
ENDBRANCH   2   8
BRANCH   1  23
HETATM   23  C   UNL     1      -4.359   7.229 -31.064  1.00  0.00     0.138 C 
BRANCH  23  24
HETATM   24  C   UNL     1      -5.725   6.592 -30.877  1.00  0.00     0.224 C 
HETATM   25  N   UNL     1      -5.897   5.462 -31.647  1.00  0.00    -0.327 N 
HETATM   26  H   UNL     1      -5.170   5.241 -32.316  1.00  0.00     0.169 HD
HETATM   27  O   UNL     1      -6.528   7.097 -30.101  1.00  0.00    -0.273 OA
BRANCH  25  28
HETATM   28  C   UNL     1      -7.043   4.651 -31.754  1.00  0.00     0.034 A 
HETATM   29  C   UNL     1      -7.491   3.779 -30.763  1.00  0.00     0.032 A 
HETATM   30  C   UNL     1      -8.660   3.025 -30.954  1.00  0.00     0.039 A 
HETATM   31  C   UNL     1      -9.383   3.134 -32.140  1.00  0.00     0.068 A 
HETATM   32  C   UNL     1      -8.931   3.999 -33.134  1.00  0.00     0.039 A 
HETATM   33  C   UNL     1      -7.773   4.754 -32.945  1.00  0.00     0.032 A 
BRANCH  31  34
HETATM   34  O   UNL     1     -10.530   2.464 -32.458  1.00  0.00    -0.352 OA
BRANCH  34  35
HETATM   35  C   UNL     1     -10.467   1.529 -33.531  1.00  0.00     0.171 C 
HETATM   36  C   UNL     1     -10.251   0.153 -32.929  1.00  0.00     0.034 C 
ENDBRANCH  34  35
ENDBRANCH  31  34
ENDBRANCH  25  28
ENDBRANCH  23  24
ENDBRANCH   1  23
BRANCH   5  37
HETATM   37  C   UNL     1      -0.295   7.208 -28.283  1.00  0.00     0.045 A 
HETATM   38  C   UNL     1       0.700   8.164 -28.583  1.00  0.00     0.032 A 
HETATM   39  C   UNL     1       1.619   8.616 -27.625  1.00  0.00     0.026 A 
HETATM   40  C   UNL     1       1.555   8.131 -26.329  1.00  0.00     0.034 A 
HETATM   41 CL   UNL     1       2.675   8.677 -25.147  1.00  0.00    -0.084 Cl
HETATM   42  C   UNL     1       0.585   7.197 -25.994  1.00  0.00     0.026 A 
HETATM   43  C   UNL     1      -0.323   6.738 -26.962  1.00  0.00     0.032 A 
ENDBRANCH   5  37
TORSDOF 11
ENDMDL
MODEL 8
REMARK VINA RESULT:      -8.4      3.957      9.190
REMARK  11 active torsions:
REMARK  status: ('A' for Active; 'I' for Inactive)
REMARK    1  A    between atoms: C_2  and  O_3 
REMARK    2  A    between atoms: O_3  and  C_4 
REMARK    3  A    between atoms: C_7  and  N_8 
REMARK       I    between atoms: N_8  and  C_9 
REMARK    4  A    between atoms: C_9  and  C_10 
REMARK    5  A    between atoms: C_10  and  C_11 
REMARK    6  A    between atoms: N_12  and  C_13 
REMARK    7  A    between atoms: C_13  and  C_14 
REMARK    8  A    between atoms: C_14  and  C_15 
REMARK    9  A    between atoms: C_15  and  N_16 
REMARK   10  A    between atoms: C_20  and  C_21 
REMARK       I    between atoms: C_21  and  N_22 
REMARK   11  A    between atoms: N_28  and  C_29 
ROOT
HETATM    1  C   UNL     1      -7.638   4.122 -30.792  1.00  0.00     0.188 C 
HETATM    2  N   UNL     1      -8.541   5.086 -30.165  1.00  0.00    -0.344 N 
HETATM    3  C   UNL     1      -7.792   6.095 -29.501  1.00  0.00     0.184 C 
HETATM    4  S   UNL     1      -8.494   7.520 -28.975  1.00  0.00    -0.040 SA
HETATM    5  N   UNL     1      -6.474   5.646 -29.401  1.00  0.00    -0.257 N 
HETATM    6  C   UNL     1      -6.395   4.379 -29.956  1.00  0.00     0.254 C 
HETATM    7  O   UNL     1      -5.518   3.538 -29.795  1.00  0.00    -0.270 OA
ENDROOT
BRANCH   2   8
HETATM    8  C   UNL     1      -9.955   5.161 -30.566  1.00  0.00     0.128 C 
BRANCH   8   9
HETATM    9  C   UNL     1     -10.164   5.318 -32.077  1.00  0.00     0.048 C 
BRANCH   9  10
HETATM   10  C   UNL     1     -11.534   4.917 -32.624  1.00  0.00     0.236 C 
BRANCH  10  11
HETATM   11  N   UNL     1     -11.498   3.763 -33.606  1.00  0.00    -0.071 N 
HETATM   12  H   UNL     1     -10.800   3.976 -34.337  1.00  0.00     0.279 HD
HETATM   13  C   UNL     1     -11.120   2.459 -32.941  1.00  0.00     0.235 C 
HETATM   14  C   UNL     1     -11.111   1.323 -33.956  1.00  0.00     0.042 C 
HETATM   15  C   UNL     1     -12.457   1.174 -34.664  1.00  0.00     0.081 C 
HETATM   16  C   UNL     1     -12.867   2.506 -35.294  1.00  0.00     0.042 C 
HETATM   17  C   UNL     1     -12.840   3.675 -34.317  1.00  0.00     0.235 C 
BRANCH  15  18
HETATM   18  C   UNL     1     -13.510   0.673 -33.683  1.00  0.00     0.219 C 
HETATM   19  N   UNL     1     -13.531  -0.672 -33.482  1.00  0.00    -0.370 N 
HETATM   20  H   UNL     1     -13.155  -1.328 -34.156  1.00  0.00     0.159 HD
HETATM   21  H   UNL     1     -14.269  -1.028 -32.882  1.00  0.00     0.159 HD
HETATM   22  O   UNL     1     -14.221   1.425 -33.029  1.00  0.00    -0.273 OA
ENDBRANCH  15  18
ENDBRANCH  10  11
ENDBRANCH   9  10
ENDBRANCH   8   9
ENDBRANCH   2   8
BRANCH   1  23
HETATM   23  C   UNL     1      -8.063   2.663 -30.743  1.00  0.00     0.138 C 
BRANCH  23  24
HETATM   24  C   UNL     1      -7.561   1.936 -31.978  1.00  0.00     0.224 C 
HETATM   25  N   UNL     1      -7.149   0.649 -31.709  1.00  0.00    -0.327 N 
HETATM   26  H   UNL     1      -7.118   0.365 -30.739  1.00  0.00     0.169 HD
HETATM   27  O   UNL     1      -7.560   2.511 -33.061  1.00  0.00    -0.273 OA
BRANCH  25  28
HETATM   28  C   UNL     1      -6.594  -0.288 -32.601  1.00  0.00     0.034 A 
HETATM   29  C   UNL     1      -5.255  -0.675 -32.610  1.00  0.00     0.032 A 
HETATM   30  C   UNL     1      -4.797  -1.634 -33.528  1.00  0.00     0.039 A 
HETATM   31  C   UNL     1      -5.675  -2.207 -34.446  1.00  0.00     0.068 A 
HETATM   32  C   UNL     1      -7.012  -1.815 -34.442  1.00  0.00     0.039 A 
HETATM   33  C   UNL     1      -7.471  -0.865 -33.528  1.00  0.00     0.032 A 
BRANCH  31  34
HETATM   34  O   UNL     1      -5.368  -3.146 -35.389  1.00  0.00    -0.352 OA
BRANCH  34  35
HETATM   35  C   UNL     1      -5.818  -4.478 -35.158  1.00  0.00     0.171 C 
HETATM   36  C   UNL     1      -4.772  -5.174 -34.305  1.00  0.00     0.034 C 
ENDBRANCH  34  35
ENDBRANCH  31  34
ENDBRANCH  25  28
ENDBRANCH  23  24
ENDBRANCH   1  23
BRANCH   5  37
HETATM   37  C   UNL     1      -5.334   6.250 -28.759  1.00  0.00     0.045 A 
HETATM   38  C   UNL     1      -5.201   6.182 -27.355  1.00  0.00     0.032 A 
HETATM   39  C   UNL     1      -4.119   6.761 -26.675  1.00  0.00     0.026 A 
HETATM   40  C   UNL     1      -3.128   7.413 -27.390  1.00  0.00     0.034 A 
HETATM   41 CL   UNL     1      -1.798   8.125 -26.570  1.00  0.00    -0.084 Cl
HETATM   42  C   UNL     1      -3.220   7.493 -28.772  1.00  0.00     0.026 A 
HETATM   43  C   UNL     1      -4.314   6.924 -29.445  1.00  0.00     0.032 A 
ENDBRANCH   5  37
TORSDOF 11
ENDMDL
MODEL 9
REMARK VINA RESULT:      -8.1      2.806      9.309
REMARK  11 active torsions:
REMARK  status: ('A' for Active; 'I' for Inactive)
REMARK    1  A    between atoms: C_2  and  O_3 
REMARK    2  A    between atoms: O_3  and  C_4 
REMARK    3  A    between atoms: C_7  and  N_8 
REMARK       I    between atoms: N_8  and  C_9 
REMARK    4  A    between atoms: C_9  and  C_10 
REMARK    5  A    between atoms: C_10  and  C_11 
REMARK    6  A    between atoms: N_12  and  C_13 
REMARK    7  A    between atoms: C_13  and  C_14 
REMARK    8  A    between atoms: C_14  and  C_15 
REMARK    9  A    between atoms: C_15  and  N_16 
REMARK   10  A    between atoms: C_20  and  C_21 
REMARK       I    between atoms: C_21  and  N_22 
REMARK   11  A    between atoms: N_28  and  C_29 
ROOT
HETATM    1  C   UNL     1      -4.304   4.449 -31.889  1.00  0.00     0.188 C 
HETATM    2  N   UNL     1      -5.720   4.122 -31.730  1.00  0.00    -0.344 N 
HETATM    3  C   UNL     1      -5.888   2.713 -31.644  1.00  0.00     0.184 C 
HETATM    4  S   UNL     1      -7.321   2.020 -31.128  1.00  0.00    -0.040 SA
HETATM    5  N   UNL     1      -4.696   2.119 -32.063  1.00  0.00    -0.257 N 
HETATM    6  C   UNL     1      -3.809   3.118 -32.431  1.00  0.00     0.254 C 
HETATM    7  O   UNL     1      -2.804   3.016 -33.123  1.00  0.00    -0.270 OA
ENDROOT
BRANCH   2   8
HETATM    8  C   UNL     1      -6.685   5.149 -31.308  1.00  0.00     0.128 C 
BRANCH   8   9
HETATM    9  C   UNL     1      -7.718   5.509 -32.383  1.00  0.00     0.048 C 
BRANCH   9  10
HETATM   10  C   UNL     1      -9.173   5.609 -31.926  1.00  0.00     0.236 C 
BRANCH  10  11
HETATM   11  N   UNL     1     -10.156   4.874 -32.816  1.00  0.00    -0.071 N 
HETATM   12  H   UNL     1     -10.913   5.527 -33.078  1.00  0.00     0.279 HD
HETATM   13  C   UNL     1      -9.505   4.356 -34.078  1.00  0.00     0.235 C 
HETATM   14  C   UNL     1     -10.519   3.610 -34.937  1.00  0.00     0.042 C 
HETATM   15  C   UNL     1     -11.175   2.457 -34.179  1.00  0.00     0.081 C 
HETATM   16  C   UNL     1     -11.790   2.970 -32.875  1.00  0.00     0.042 C 
HETATM   17  C   UNL     1     -10.816   3.763 -32.014  1.00  0.00     0.235 C 
BRANCH  15  18
HETATM   18  C   UNL     1     -10.155   1.355 -33.920  1.00  0.00     0.219 C 
HETATM   19  N   UNL     1      -9.094   1.326 -34.770  1.00  0.00    -0.370 N 
HETATM   20  H   UNL     1      -9.128   1.739 -35.695  1.00  0.00     0.159 HD
HETATM   21  H   UNL     1      -8.440   0.559 -34.652  1.00  0.00     0.159 HD
HETATM   22  O   UNL     1     -10.214   0.609 -32.952  1.00  0.00    -0.273 OA
ENDBRANCH  15  18
ENDBRANCH  10  11
ENDBRANCH   9  10
ENDBRANCH   8   9
ENDBRANCH   2   8
BRANCH   1  23
HETATM   23  C   UNL     1      -3.974   5.601 -32.824  1.00  0.00     0.138 C 
BRANCH  23  24
HETATM   24  C   UNL     1      -2.962   6.525 -32.170  1.00  0.00     0.224 C 
HETATM   25  N   UNL     1      -2.524   6.058 -30.949  1.00  0.00    -0.327 N 
HETATM   26  H   UNL     1      -2.983   5.239 -30.574  1.00  0.00     0.169 HD
HETATM   27  O   UNL     1      -2.625   7.556 -32.741  1.00  0.00    -0.273 OA
BRANCH  25  28
HETATM   28  C   UNL     1      -1.625   6.673 -30.057  1.00  0.00     0.034 A 
HETATM   29  C   UNL     1      -2.000   7.361 -28.904  1.00  0.00     0.032 A 
HETATM   30  C   UNL     1      -1.027   7.926 -28.064  1.00  0.00     0.039 A 
HETATM   31  C   UNL     1       0.326   7.811 -28.376  1.00  0.00     0.068 A 
HETATM   32  C   UNL     1       0.701   7.130 -29.532  1.00  0.00     0.039 A 
HETATM   33  C   UNL     1      -0.263   6.563 -30.366  1.00  0.00     0.032 A 
BRANCH  31  34
HETATM   34  O   UNL     1       1.373   8.308 -27.653  1.00  0.00    -0.352 OA
BRANCH  34  35
HETATM   35  C   UNL     1       1.098   8.764 -26.331  1.00  0.00     0.171 C 
HETATM   36  C   UNL     1       2.401   8.731 -25.554  1.00  0.00     0.034 C 
ENDBRANCH  34  35
ENDBRANCH  31  34
ENDBRANCH  25  28
ENDBRANCH  23  24
ENDBRANCH   1  23
BRANCH   5  37
HETATM   37  C   UNL     1      -4.363   0.727 -32.233  1.00  0.00     0.045 A 
HETATM   38  C   UNL     1      -4.998  -0.029 -33.242  1.00  0.00     0.032 A 
HETATM   39  C   UNL     1      -4.722  -1.389 -33.446  1.00  0.00     0.026 A 
HETATM   40  C   UNL     1      -3.784  -2.027 -32.651  1.00  0.00     0.034 A 
HETATM   41 CL   UNL     1      -3.436  -3.691 -32.891  1.00  0.00    -0.084 Cl
HETATM   42  C   UNL     1      -3.132  -1.313 -31.654  1.00  0.00     0.026 A 
HETATM   43  C   UNL     1      -3.425   0.044 -31.446  1.00  0.00     0.032 A 
ENDBRANCH   5  37
TORSDOF 11
ENDMDL
MODEL 10
REMARK VINA RESULT:      -8.0      3.075      6.034
REMARK  11 active torsions:
REMARK  status: ('A' for Active; 'I' for Inactive)
REMARK    1  A    between atoms: C_2  and  O_3 
REMARK    2  A    between atoms: O_3  and  C_4 
REMARK    3  A    between atoms: C_7  and  N_8 
REMARK       I    between atoms: N_8  and  C_9 
REMARK    4  A    between atoms: C_9  and  C_10 
REMARK    5  A    between atoms: C_10  and  C_11 
REMARK    6  A    between atoms: N_12  and  C_13 
REMARK    7  A    between atoms: C_13  and  C_14 
REMARK    8  A    between atoms: C_14  and  C_15 
REMARK    9  A    between atoms: C_15  and  N_16 
REMARK   10  A    between atoms: C_20  and  C_21 
REMARK       I    between atoms: C_21  and  N_22 
REMARK   11  A    between atoms: N_28  and  C_29 
ROOT
HETATM    1  C   UNL     1      -6.590   3.210 -30.442  1.00  0.00     0.188 C 
HETATM    2  N   UNL     1      -5.769   3.686 -31.554  1.00  0.00    -0.344 N 
HETATM    3  C   UNL     1      -6.594   3.987 -32.673  1.00  0.00     0.184 C 
HETATM    4  S   UNL     1      -6.027   4.862 -33.982  1.00  0.00    -0.040 SA
HETATM    5  N   UNL     1      -7.848   3.422 -32.438  1.00  0.00    -0.257 N 
HETATM    6  C   UNL     1      -7.814   2.759 -31.221  1.00  0.00     0.254 C 
HETATM    7  O   UNL     1      -8.585   1.902 -30.808  1.00  0.00    -0.270 OA
ENDROOT
BRANCH   2   8
HETATM    8  C   UNL     1      -4.392   4.151 -31.327  1.00  0.00     0.128 C 
BRANCH   8   9
HETATM    9  C   UNL     1      -4.305   5.512 -30.624  1.00  0.00     0.048 C 
BRANCH   9  10
HETATM   10  C   UNL     1      -3.867   6.698 -31.483  1.00  0.00     0.236 C 
BRANCH  10  11
HETATM   11  N   UNL     1      -2.464   7.192 -31.194  1.00  0.00    -0.071 N 
HETATM   12  H   UNL     1      -2.361   8.140 -31.592  1.00  0.00     0.279 HD
HETATM   13  C   UNL     1      -2.176   7.254 -29.711  1.00  0.00     0.235 C 
HETATM   14  C   UNL     1      -0.753   7.738 -29.462  1.00  0.00     0.042 C 
HETATM   15  C   UNL     1       0.284   6.855 -30.156  1.00  0.00     0.081 C 
HETATM   16  C   UNL     1      -0.035   6.749 -31.648  1.00  0.00     0.042 C 
HETATM   17  C   UNL     1      -1.467   6.314 -31.934  1.00  0.00     0.235 C 
BRANCH  15  18
HETATM   18  C   UNL     1       0.328   5.484 -29.494  1.00  0.00     0.219 C 
HETATM   19  N   UNL     1       0.246   5.484 -28.137  1.00  0.00    -0.370 N 
HETATM   20  H   UNL     1       0.493   6.293 -27.578  1.00  0.00     0.159 HD
HETATM   21  H   UNL     1       0.341   4.583 -27.677  1.00  0.00     0.159 HD
HETATM   22  O   UNL     1       0.327   4.439 -30.131  1.00  0.00    -0.273 OA
ENDBRANCH  15  18
ENDBRANCH  10  11
ENDBRANCH   9  10
ENDBRANCH   8   9
ENDBRANCH   2   8
BRANCH   1  23
HETATM   23  C   UNL     1      -6.006   2.086 -29.602  1.00  0.00     0.138 C 
BRANCH  23  24
HETATM   24  C   UNL     1      -6.159   0.762 -30.330  1.00  0.00     0.224 C 
HETATM   25  N   UNL     1      -5.738   0.822 -31.641  1.00  0.00    -0.327 N 
HETATM   26  H   UNL     1      -5.484   1.731 -32.005  1.00  0.00     0.169 HD
HETATM   27  O   UNL     1      -6.617  -0.207 -29.735  1.00  0.00    -0.273 OA
BRANCH  25  28
HETATM   28  C   UNL     1      -5.774  -0.198 -32.611  1.00  0.00     0.034 A 
HETATM   29  C   UNL     1      -6.915  -0.583 -33.312  1.00  0.00     0.032 A 
HETATM   30  C   UNL     1      -6.848  -1.600 -34.277  1.00  0.00     0.039 A 
HETATM   31  C   UNL     1      -5.640  -2.242 -34.543  1.00  0.00     0.068 A 
HETATM   32  C   UNL     1      -4.501  -1.862 -33.836  1.00  0.00     0.039 A 
HETATM   33  C   UNL     1      -4.563  -0.849 -32.880  1.00  0.00     0.032 A 
BRANCH  31  34
HETATM   34  O   UNL     1      -5.431  -3.241 -35.450  1.00  0.00    -0.352 OA
BRANCH  34  35
HETATM   35  C   UNL     1      -5.881  -4.547 -35.101  1.00  0.00     0.171 C 
HETATM   36  C   UNL     1      -4.767  -5.223 -34.322  1.00  0.00     0.034 C 
ENDBRANCH  34  35
ENDBRANCH  31  34
ENDBRANCH  25  28
ENDBRANCH  23  24
ENDBRANCH   1  23
BRANCH   5  37
HETATM   37  C   UNL     1      -9.017   3.374 -33.280  1.00  0.00     0.045 A 
HETATM   38  C   UNL     1      -9.796   4.536 -33.468  1.00  0.00     0.032 A 
HETATM   39  C   UNL     1     -10.949   4.545 -34.267  1.00  0.00     0.026 A 
HETATM   40  C   UNL     1     -11.344   3.387 -34.915  1.00  0.00     0.034 A 
HETATM   41 CL   UNL     1     -12.753   3.385 -35.897  1.00  0.00    -0.084 Cl
HETATM   42  C   UNL     1     -10.598   2.227 -34.762  1.00  0.00     0.026 A 
HETATM   43  C   UNL     1      -9.454   2.221 -33.948  1.00  0.00     0.032 A 
ENDBRANCH   5  37
TORSDOF 11
ENDMDL
