MODEL 1
REMARK VINA RESULT:      -9.3      0.000      0.000
REMARK  2 active torsions:
REMARK  status: ('A' for Active; 'I' for Inactive)
REMARK       I    between atoms: N_4  and  C_5 
REMARK       I    between atoms: C_5  and  N_6 
REMARK    1  A    between atoms: N_6  and  C_7 
REMARK    2  A    between atoms: C_20  and  C_21 
ROOT
HETATM    1  C   UNL     1     -11.437   1.566 -34.004  1.00  0.00     0.011 C 
HETATM    2  C   UNL     1      -9.958   1.357 -33.734  1.00  0.00     0.002 C 
HETATM    3  C   UNL     1      -9.256   2.608 -33.215  1.00  0.00     0.132 C 
HETATM    4  N   UNL     1      -8.125   2.107 -32.444  1.00  0.00    -0.325 N 
HETATM    5  C   UNL     1      -7.061   2.832 -31.948  1.00  0.00     0.323 C 
HETATM    6  N   UNL     1      -7.149   4.188 -32.177  1.00  0.00    -0.309 N 
HETATM    7  O   UNL     1      -6.123   2.291 -31.368  1.00  0.00    -0.247 OA
HETATM    8  C   UNL     1      -8.237   0.666 -32.197  1.00  0.00     0.125 C 
HETATM    9  C   UNL     1      -9.679   0.341 -32.623  1.00  0.00     0.036 C 
HETATM   10  H   UNL     1      -8.083   4.566 -32.185  1.00  0.00     0.170 HD
ENDROOT
BRANCH   6  11
HETATM   11  C   UNL     1      -6.086   5.109 -32.098  1.00  0.00     0.038 A 
HETATM   12  C   UNL     1      -4.945   5.013 -32.900  1.00  0.00     0.062 A 
HETATM   13  C   UNL     1      -3.952   5.992 -32.827  1.00  0.00     0.070 A 
HETATM   14  C   UNL     1      -4.082   7.066 -31.949  1.00  0.00     0.096 A 
HETATM   15  N   UNL     1      -2.853   5.913 -33.682  1.00  0.00    -0.323 N 
HETATM   16  O   UNL     1      -3.170   8.078 -31.841  1.00  0.00    -0.335 OA
HETATM   17  C   UNL     1      -5.221   7.170 -31.152  1.00  0.00     0.041 A 
HETATM   18  C   UNL     1      -1.924   7.849 -32.494  1.00  0.00     0.217 C 
HETATM   19  C   UNL     1      -1.852   6.841 -33.651  1.00  0.00     0.251 C 
HETATM   20  C   UNL     1      -0.899   7.451 -31.435  1.00  0.00     0.050 C 
HETATM   21  O   UNL     1      -0.927   6.811 -34.460  1.00  0.00    -0.270 OA
HETATM   22  C   UNL     1      -6.225   6.201 -31.233  1.00  0.00     0.032 A 
HETATM   23  H   UNL     1      -2.793   5.189 -34.386  1.00  0.00     0.169 HD
ENDBRANCH   6  11
BRANCH   8  24
HETATM   24  C   UNL     1      -7.229  -0.187 -32.942  1.00  0.00     0.003 A 
HETATM   25  C   UNL     1      -6.175  -0.760 -32.218  1.00  0.00     0.124 A 
HETATM   26  F   UNL     1      -6.094  -0.562 -30.894  1.00  0.00    -0.205 F 
HETATM   27  C   UNL     1      -5.204  -1.544 -32.834  1.00  0.00     0.043 A 
HETATM   28  C   UNL     1      -5.274  -1.778 -34.205  1.00  0.00     0.003 A 
HETATM   29  C   UNL     1      -6.320  -1.229 -34.946  1.00  0.00     0.001 A 
HETATM   30  C   UNL     1      -7.292  -0.442 -34.321  1.00  0.00     0.012 A 
ENDBRANCH   8  24
TORSDOF 2
ENDMDL
MODEL 2
REMARK VINA RESULT:      -8.8      1.788      2.038
REMARK  2 active torsions:
REMARK  status: ('A' for Active; 'I' for Inactive)
REMARK       I    between atoms: N_4  and  C_5 
REMARK       I    between atoms: C_5  and  N_6 
REMARK    1  A    between atoms: N_6  and  C_7 
REMARK    2  A    between atoms: C_20  and  C_21 
ROOT
HETATM    1  C   UNL     1     -11.161   3.440 -32.461  1.00  0.00     0.011 C 
HETATM    2  C   UNL     1      -9.768   2.870 -32.655  1.00  0.00     0.002 C 
HETATM    3  C   UNL     1      -8.663   3.781 -32.129  1.00  0.00     0.132 C 
HETATM    4  N   UNL     1      -7.561   2.884 -31.808  1.00  0.00    -0.325 N 
HETATM    5  C   UNL     1      -6.260   3.228 -31.502  1.00  0.00     0.323 C 
HETATM    6  N   UNL     1      -6.037   4.586 -31.442  1.00  0.00    -0.309 N 
HETATM    7  O   UNL     1      -5.392   2.379 -31.315  1.00  0.00    -0.247 OA
HETATM    8  C   UNL     1      -7.990   1.481 -31.811  1.00  0.00     0.125 C 
HETATM    9  C   UNL     1      -9.524   1.576 -31.872  1.00  0.00     0.036 C 
HETATM   10  H   UNL     1      -6.816   5.139 -31.121  1.00  0.00     0.170 HD
ENDROOT
BRANCH   6  11
HETATM   11  C   UNL     1      -4.781   5.220 -31.492  1.00  0.00     0.038 A 
HETATM   12  C   UNL     1      -3.599   4.580 -31.107  1.00  0.00     0.062 A 
HETATM   13  C   UNL     1      -2.372   5.234 -31.239  1.00  0.00     0.070 A 
HETATM   14  C   UNL     1      -2.314   6.531 -31.745  1.00  0.00     0.096 A 
HETATM   15  N   UNL     1      -1.199   4.555 -30.911  1.00  0.00    -0.323 N 
HETATM   16  O   UNL     1      -1.152   7.226 -31.932  1.00  0.00    -0.335 OA
HETATM   17  C   UNL     1      -3.489   7.171 -32.137  1.00  0.00     0.041 A 
HETATM   18  C   UNL     1       0.006   6.651 -31.332  1.00  0.00     0.217 C 
HETATM   19  C   UNL     1       0.027   5.147 -31.019  1.00  0.00     0.251 C 
HETATM   20  C   UNL     1       0.309   7.422 -30.050  1.00  0.00     0.050 C 
HETATM   21  O   UNL     1       1.061   4.519 -30.805  1.00  0.00    -0.270 OA
HETATM   22  C   UNL     1      -4.717   6.514 -32.020  1.00  0.00     0.032 A 
HETATM   23  H   UNL     1      -1.222   3.584 -30.630  1.00  0.00     0.169 HD
ENDBRANCH   6  11
BRANCH   8  24
HETATM   24  C   UNL     1      -7.435   0.648 -32.950  1.00  0.00     0.003 A 
HETATM   25  C   UNL     1      -6.623  -0.450 -32.640  1.00  0.00     0.124 A 
HETATM   26  F   UNL     1      -6.373  -0.750 -31.357  1.00  0.00    -0.205 F 
HETATM   27  C   UNL     1      -6.067  -1.254 -33.631  1.00  0.00     0.043 A 
HETATM   28  C   UNL     1      -6.323  -0.972 -34.971  1.00  0.00     0.003 A 
HETATM   29  C   UNL     1      -7.138   0.109 -35.306  1.00  0.00     0.001 A 
HETATM   30  C   UNL     1      -7.693   0.911 -34.305  1.00  0.00     0.012 A 
ENDBRANCH   8  24
TORSDOF 2
ENDMDL
MODEL 3
REMARK VINA RESULT:      -8.8      4.669      7.668
REMARK  2 active torsions:
REMARK  status: ('A' for Active; 'I' for Inactive)
REMARK       I    between atoms: N_4  and  C_5 
REMARK       I    between atoms: C_5  and  N_6 
REMARK    1  A    between atoms: N_6  and  C_7 
REMARK    2  A    between atoms: C_20  and  C_21 
ROOT
HETATM    1  C   UNL     1      -9.066   6.165 -30.950  1.00  0.00     0.011 C 
HETATM    2  C   UNL     1      -9.414   5.006 -31.867  1.00  0.00     0.002 C 
HETATM    3  C   UNL     1      -8.439   3.837 -31.762  1.00  0.00     0.132 C 
HETATM    4  N   UNL     1      -9.215   2.668 -32.156  1.00  0.00    -0.325 N 
HETATM    5  C   UNL     1      -8.742   1.402 -32.433  1.00  0.00     0.323 C 
HETATM    6  N   UNL     1      -7.386   1.254 -32.243  1.00  0.00    -0.309 N 
HETATM    7  O   UNL     1      -9.485   0.505 -32.825  1.00  0.00    -0.247 OA
HETATM    8  C   UNL     1     -10.650   2.967 -32.208  1.00  0.00     0.125 C 
HETATM    9  C   UNL     1     -10.754   4.345 -31.532  1.00  0.00     0.036 C 
HETATM   10  H   UNL     1      -6.989   1.812 -31.504  1.00  0.00     0.170 HD
ENDROOT
BRANCH   6  11
HETATM   11  C   UNL     1      -6.589   0.213 -32.757  1.00  0.00     0.038 A 
HETATM   12  C   UNL     1      -7.133  -0.954 -33.302  1.00  0.00     0.062 A 
HETATM   13  C   UNL     1      -6.297  -1.924 -33.858  1.00  0.00     0.070 A 
HETATM   14  C   UNL     1      -4.915  -1.746 -33.865  1.00  0.00     0.096 A 
HETATM   15  N   UNL     1      -6.863  -3.050 -34.455  1.00  0.00    -0.323 N 
HETATM   16  O   UNL     1      -4.035  -2.634 -34.415  1.00  0.00    -0.335 OA
HETATM   17  C   UNL     1      -4.368  -0.582 -33.329  1.00  0.00     0.041 A 
HETATM   18  C   UNL     1      -4.583  -3.904 -34.760  1.00  0.00     0.217 C 
HETATM   19  C   UNL     1      -6.093  -4.031 -35.011  1.00  0.00     0.251 C 
HETATM   20  C   UNL     1      -4.181  -4.904 -33.679  1.00  0.00     0.050 C 
HETATM   21  O   UNL     1      -6.599  -4.981 -35.606  1.00  0.00    -0.270 OA
HETATM   22  C   UNL     1      -5.202   0.399 -32.786  1.00  0.00     0.032 A 
HETATM   23  H   UNL     1      -7.867  -3.146 -34.537  1.00  0.00     0.169 HD
ENDBRANCH   6  11
BRANCH   8  24
HETATM   24  C   UNL     1     -11.246   2.983 -33.603  1.00  0.00     0.003 A 
HETATM   25  C   UNL     1     -12.184   1.998 -33.938  1.00  0.00     0.124 A 
HETATM   26  F   UNL     1     -12.548   1.088 -33.023  1.00  0.00    -0.205 F 
HETATM   27  C   UNL     1     -12.765   1.940 -35.202  1.00  0.00     0.043 A 
HETATM   28  C   UNL     1     -12.416   2.883 -36.165  1.00  0.00     0.003 A 
HETATM   29  C   UNL     1     -11.492   3.880 -35.853  1.00  0.00     0.001 A 
HETATM   30  C   UNL     1     -10.914   3.933 -34.581  1.00  0.00     0.012 A 
ENDBRANCH   8  24
TORSDOF 2
ENDMDL
MODEL 4
REMARK VINA RESULT:      -8.7      3.879      7.394
REMARK  2 active torsions:
REMARK  status: ('A' for Active; 'I' for Inactive)
REMARK       I    between atoms: N_4  and  C_5 
REMARK       I    between atoms: C_5  and  N_6 
REMARK    1  A    between atoms: N_6  and  C_7 
REMARK    2  A    between atoms: C_20  and  C_21 
ROOT
HETATM    1  C   UNL     1      -5.330  -2.835 -35.097  1.00  0.00     0.011 C 
HETATM    2  C   UNL     1      -5.601  -1.558 -34.321  1.00  0.00     0.002 C 
HETATM    3  C   UNL     1      -7.087  -1.260 -34.147  1.00  0.00     0.132 C 
HETATM    4  N   UNL     1      -7.166  -0.460 -32.931  1.00  0.00    -0.325 N 
HETATM    5  C   UNL     1      -8.256   0.240 -32.457  1.00  0.00     0.323 C 
HETATM    6  N   UNL     1      -9.396   0.088 -33.216  1.00  0.00    -0.309 N 
HETATM    7  O   UNL     1      -8.188   0.942 -31.451  1.00  0.00    -0.247 OA
HETATM    8  C   UNL     1      -5.904  -0.487 -32.185  1.00  0.00     0.125 C 
HETATM    9  C   UNL     1      -5.105  -1.608 -32.873  1.00  0.00     0.036 C 
HETATM   10  H   UNL     1      -9.502  -0.810 -33.662  1.00  0.00     0.170 HD
ENDROOT
BRANCH   6  11
HETATM   11  C   UNL     1     -10.530   0.923 -33.181  1.00  0.00     0.038 A 
HETATM   12  C   UNL     1     -10.450   2.288 -32.892  1.00  0.00     0.062 A 
HETATM   13  C   UNL     1     -11.598   3.082 -32.936  1.00  0.00     0.070 A 
HETATM   14  C   UNL     1     -12.833   2.520 -33.255  1.00  0.00     0.096 A 
HETATM   15  N   UNL     1     -11.488   4.454 -32.710  1.00  0.00    -0.323 N 
HETATM   16  O   UNL     1     -13.995   3.235 -33.348  1.00  0.00    -0.335 OA
HETATM   17  C   UNL     1     -12.916   1.161 -33.551  1.00  0.00     0.041 A 
HETATM   18  C   UNL     1     -13.936   4.565 -32.838  1.00  0.00     0.217 C 
HETATM   19  C   UNL     1     -12.578   5.275 -32.738  1.00  0.00     0.251 C 
HETATM   20  C   UNL     1     -14.596   4.575 -31.462  1.00  0.00     0.050 C 
HETATM   21  O   UNL     1     -12.463   6.493 -32.616  1.00  0.00    -0.270 OA
HETATM   22  C   UNL     1     -11.767   0.366 -33.523  1.00  0.00     0.032 A 
HETATM   23  H   UNL     1     -10.585   4.885 -32.567  1.00  0.00     0.169 HD
ENDBRANCH   6  11
BRANCH   8  24
HETATM   24  C   UNL     1      -5.139   0.822 -32.181  1.00  0.00     0.003 A 
HETATM   25  C   UNL     1      -4.064   0.964 -31.294  1.00  0.00     0.124 A 
HETATM   26  F   UNL     1      -3.725  -0.056 -30.492  1.00  0.00    -0.205 F 
HETATM   27  C   UNL     1      -3.323   2.140 -31.223  1.00  0.00     0.043 A 
HETATM   28  C   UNL     1      -3.645   3.210 -32.054  1.00  0.00     0.003 A 
HETATM   29  C   UNL     1      -4.704   3.089 -32.955  1.00  0.00     0.001 A 
HETATM   30  C   UNL     1      -5.443   1.905 -33.021  1.00  0.00     0.012 A 
ENDBRANCH   8  24
TORSDOF 2
ENDMDL
MODEL 5
REMARK VINA RESULT:      -8.7      2.317      3.933
REMARK  2 active torsions:
REMARK  status: ('A' for Active; 'I' for Inactive)
REMARK       I    between atoms: N_4  and  C_5 
REMARK       I    between atoms: C_5  and  N_6 
REMARK    1  A    between atoms: N_6  and  C_7 
REMARK    2  A    between atoms: C_20  and  C_21 
ROOT
HETATM    1  C   UNL     1      -3.483  -2.256 -32.064  1.00  0.00     0.011 C 
HETATM    2  C   UNL     1      -4.512  -1.151 -32.221  1.00  0.00     0.002 C 
HETATM    3  C   UNL     1      -3.958   0.238 -31.921  1.00  0.00     0.132 C 
HETATM    4  N   UNL     1      -4.794   1.147 -32.695  1.00  0.00    -0.325 N 
HETATM    5  C   UNL     1      -4.843   2.523 -32.606  1.00  0.00     0.323 C 
HETATM    6  N   UNL     1      -3.940   3.061 -31.717  1.00  0.00    -0.309 N 
HETATM    7  O   UNL     1      -5.641   3.187 -33.263  1.00  0.00    -0.247 OA
HETATM    8  C   UNL     1      -5.618   0.423 -33.669  1.00  0.00     0.125 C 
HETATM    9  C   UNL     1      -5.026  -0.996 -33.655  1.00  0.00     0.036 C 
HETATM   10  H   UNL     1      -3.070   2.560 -31.627  1.00  0.00     0.170 HD
ENDROOT
BRANCH   6  11
HETATM   11  C   UNL     1      -3.989   4.360 -31.173  1.00  0.00     0.038 A 
HETATM   12  C   UNL     1      -3.167   5.397 -31.624  1.00  0.00     0.062 A 
HETATM   13  C   UNL     1      -3.305   6.681 -31.094  1.00  0.00     0.070 A 
HETATM   14  C   UNL     1      -4.251   6.939 -30.104  1.00  0.00     0.096 A 
HETATM   15  N   UNL     1      -2.521   7.717 -31.604  1.00  0.00    -0.323 N 
HETATM   16  O   UNL     1      -4.466   8.174 -29.558  1.00  0.00    -0.335 OA
HETATM   17  C   UNL     1      -5.077   5.911 -29.656  1.00  0.00     0.041 A 
HETATM   18  C   UNL     1      -3.480   9.157 -29.864  1.00  0.00     0.217 C 
HETATM   19  C   UNL     1      -2.613   8.990 -31.120  1.00  0.00     0.251 C 
HETATM   20  C   UNL     1      -2.564   9.304 -28.652  1.00  0.00     0.050 C 
HETATM   21  O   UNL     1      -1.978   9.913 -31.627  1.00  0.00    -0.270 OA
HETATM   22  C   UNL     1      -4.953   4.627 -30.195  1.00  0.00     0.032 A 
HETATM   23  H   UNL     1      -1.897   7.560 -32.384  1.00  0.00     0.169 HD
ENDBRANCH   6  11
BRANCH   8  24
HETATM   24  C   UNL     1      -7.103   0.412 -33.362  1.00  0.00     0.003 A 
HETATM   25  C   UNL     1      -8.006   0.522 -34.427  1.00  0.00     0.124 A 
HETATM   26  F   UNL     1      -7.543   0.612 -35.683  1.00  0.00    -0.205 F 
HETATM   27  C   UNL     1      -9.383   0.533 -34.223  1.00  0.00     0.043 A 
HETATM   28  C   UNL     1      -9.889   0.426 -32.931  1.00  0.00     0.003 A 
HETATM   29  C   UNL     1      -9.012   0.304 -31.853  1.00  0.00     0.001 A 
HETATM   30  C   UNL     1      -7.630   0.294 -32.066  1.00  0.00     0.012 A 
ENDBRANCH   8  24
TORSDOF 2
ENDMDL
MODEL 6
REMARK VINA RESULT:      -8.4      3.110      8.231
REMARK  2 active torsions:
REMARK  status: ('A' for Active; 'I' for Inactive)
REMARK       I    between atoms: N_4  and  C_5 
REMARK       I    between atoms: C_5  and  N_6 
REMARK    1  A    between atoms: N_6  and  C_7 
REMARK    2  A    between atoms: C_20  and  C_21 
ROOT
HETATM    1  C   UNL     1      -6.308   5.532 -28.108  1.00  0.00     0.011 C 
HETATM    2  C   UNL     1      -5.469   5.249 -29.341  1.00  0.00     0.002 C 
HETATM    3  C   UNL     1      -5.735   3.877 -29.953  1.00  0.00     0.132 C 
HETATM    4  N   UNL     1      -5.389   4.024 -31.361  1.00  0.00    -0.325 N 
HETATM    5  C   UNL     1      -5.250   3.023 -32.299  1.00  0.00     0.323 C 
HETATM    6  N   UNL     1      -5.541   1.763 -31.825  1.00  0.00    -0.309 N 
HETATM    7  O   UNL     1      -4.884   3.258 -33.449  1.00  0.00    -0.247 OA
HETATM    8  C   UNL     1      -5.216   5.434 -31.729  1.00  0.00     0.125 C 
HETATM    9  C   UNL     1      -5.767   6.193 -30.510  1.00  0.00     0.036 C 
HETATM   10  H   UNL     1      -6.256   1.722 -31.116  1.00  0.00     0.170 HD
ENDROOT
BRANCH   6  11
HETATM   11  C   UNL     1      -5.169   0.546 -32.428  1.00  0.00     0.038 A 
HETATM   12  C   UNL     1      -6.105  -0.353 -32.950  1.00  0.00     0.062 A 
HETATM   13  C   UNL     1      -5.676  -1.514 -33.597  1.00  0.00     0.070 A 
HETATM   14  C   UNL     1      -4.317  -1.794 -33.717  1.00  0.00     0.096 A 
HETATM   15  N   UNL     1      -6.622  -2.364 -34.169  1.00  0.00    -0.323 N 
HETATM   16  O   UNL     1      -3.819  -2.893 -34.361  1.00  0.00    -0.335 OA
HETATM   17  C   UNL     1      -3.380  -0.899 -33.205  1.00  0.00     0.041 A 
HETATM   18  C   UNL     1      -4.777  -3.897 -34.686  1.00  0.00     0.217 C 
HETATM   19  C   UNL     1      -6.259  -3.514 -34.810  1.00  0.00     0.251 C 
HETATM   20  C   UNL     1      -4.647  -5.025 -33.665  1.00  0.00     0.050 C 
HETATM   21  O   UNL     1      -7.091  -4.217 -35.380  1.00  0.00    -0.270 OA
HETATM   22  C   UNL     1      -3.804   0.273 -32.571  1.00  0.00     0.032 A 
HETATM   23  H   UNL     1      -7.605  -2.124 -34.166  1.00  0.00     0.169 HD
ENDBRANCH   6  11
BRANCH   8  24
HETATM   24  C   UNL     1      -3.788   5.839 -32.041  1.00  0.00     0.003 A 
HETATM   25  C   UNL     1      -3.442   6.086 -33.376  1.00  0.00     0.124 A 
HETATM   26  F   UNL     1      -4.373   5.981 -34.335  1.00  0.00    -0.205 F 
HETATM   27  C   UNL     1      -2.149   6.450 -33.742  1.00  0.00     0.043 A 
HETATM   28  C   UNL     1      -1.166   6.580 -32.763  1.00  0.00     0.003 A 
HETATM   29  C   UNL     1      -1.489   6.351 -31.426  1.00  0.00     0.001 A 
HETATM   30  C   UNL     1      -2.790   5.986 -31.066  1.00  0.00     0.012 A 
ENDBRANCH   8  24
TORSDOF 2
ENDMDL
MODEL 7
REMARK VINA RESULT:      -8.4      4.777      6.820
REMARK  2 active torsions:
REMARK  status: ('A' for Active; 'I' for Inactive)
REMARK       I    between atoms: N_4  and  C_5 
REMARK       I    between atoms: C_5  and  N_6 
REMARK    1  A    between atoms: N_6  and  C_7 
REMARK    2  A    between atoms: C_20  and  C_21 
ROOT
HETATM    1  C   UNL     1      -3.444   0.005 -30.815  1.00  0.00     0.011 C 
HETATM    2  C   UNL     1      -4.454  -0.425 -31.863  1.00  0.00     0.002 C 
HETATM    3  C   UNL     1      -5.439   0.677 -32.243  1.00  0.00     0.132 C 
HETATM    4  N   UNL     1      -5.857   0.352 -33.600  1.00  0.00    -0.325 N 
HETATM    5  C   UNL     1      -6.894   0.913 -34.316  1.00  0.00     0.323 C 
HETATM    6  N   UNL     1      -7.542   1.936 -33.659  1.00  0.00    -0.309 N 
HETATM    7  O   UNL     1      -7.203   0.510 -35.434  1.00  0.00    -0.247 OA
HETATM    8  C   UNL     1      -5.000  -0.679 -34.195  1.00  0.00     0.125 C 
HETATM    9  C   UNL     1      -3.821  -0.776 -33.213  1.00  0.00     0.036 C 
HETATM   10  H   UNL     1      -6.965   2.492 -33.048  1.00  0.00     0.170 HD
ENDROOT
BRANCH   6  11
HETATM   11  C   UNL     1      -8.814   2.450 -33.980  1.00  0.00     0.038 A 
HETATM   12  C   UNL     1      -9.027   3.799 -34.279  1.00  0.00     0.062 A 
HETATM   13  C   UNL     1     -10.297   4.241 -34.655  1.00  0.00     0.070 A 
HETATM   14  C   UNL     1     -11.364   3.348 -34.723  1.00  0.00     0.096 A 
HETATM   15  N   UNL     1     -10.475   5.577 -35.013  1.00  0.00    -0.323 N 
HETATM   16  O   UNL     1     -12.627   3.697 -35.110  1.00  0.00    -0.335 OA
HETATM   17  C   UNL     1     -11.155   2.001 -34.432  1.00  0.00     0.041 A 
HETATM   18  C   UNL     1     -12.875   5.099 -35.194  1.00  0.00     0.217 C 
HETATM   19  C   UNL     1     -11.695   6.063 -35.386  1.00  0.00     0.251 C 
HETATM   20  C   UNL     1     -13.652   5.519 -33.949  1.00  0.00     0.050 C 
HETATM   21  O   UNL     1     -11.829   7.221 -35.777  1.00  0.00    -0.270 OA
HETATM   22  C   UNL     1      -9.882   1.551 -34.071  1.00  0.00     0.032 A 
HETATM   23  H   UNL     1      -9.689   6.213 -35.055  1.00  0.00     0.169 HD
ENDBRANCH   6  11
BRANCH   8  24
HETATM   24  C   UNL     1      -5.670  -2.024 -34.398  1.00  0.00     0.003 A 
HETATM   25  C   UNL     1      -4.915  -3.070 -34.943  1.00  0.00     0.124 A 
HETATM   26  F   UNL     1      -3.626  -2.869 -35.251  1.00  0.00    -0.205 F 
HETATM   27  C   UNL     1      -5.465  -4.329 -35.171  1.00  0.00     0.043 A 
HETATM   28  C   UNL     1      -6.798  -4.569 -34.847  1.00  0.00     0.003 A 
HETATM   29  C   UNL     1      -7.567  -3.547 -34.291  1.00  0.00     0.001 A 
HETATM   30  C   UNL     1      -7.009  -2.286 -34.065  1.00  0.00     0.012 A 
ENDBRANCH   8  24
TORSDOF 2
ENDMDL
MODEL 8
REMARK VINA RESULT:      -8.3      3.938      6.603
REMARK  2 active torsions:
REMARK  status: ('A' for Active; 'I' for Inactive)
REMARK       I    between atoms: N_4  and  C_5 
REMARK       I    between atoms: C_5  and  N_6 
REMARK    1  A    between atoms: N_6  and  C_7 
REMARK    2  A    between atoms: C_20  and  C_21 
ROOT
HETATM    1  C   UNL     1      -6.391  -1.961 -34.947  1.00  0.00     0.011 C 
HETATM    2  C   UNL     1      -6.519  -0.615 -34.257  1.00  0.00     0.002 C 
HETATM    3  C   UNL     1      -7.815   0.117 -34.593  1.00  0.00     0.132 C 
HETATM    4  N   UNL     1      -8.063   0.980 -33.445  1.00  0.00    -0.325 N 
HETATM    5  C   UNL     1      -8.989   1.998 -33.346  1.00  0.00     0.323 C 
HETATM    6  N   UNL     1      -9.791   2.138 -34.456  1.00  0.00    -0.309 N 
HETATM    7  O   UNL     1      -9.063   2.711 -32.348  1.00  0.00    -0.247 OA
HETATM    8  C   UNL     1      -7.200   0.631 -32.312  1.00  0.00     0.125 C 
HETATM    9  C   UNL     1      -6.586  -0.716 -32.730  1.00  0.00     0.036 C 
HETATM   10  H   UNL     1     -10.000   1.285 -34.950  1.00  0.00     0.170 HD
ENDROOT
BRANCH   6  11
HETATM   11  C   UNL     1     -10.567   3.270 -34.778  1.00  0.00     0.038 A 
HETATM   12  C   UNL     1     -10.005   4.533 -34.987  1.00  0.00     0.062 A 
HETATM   13  C   UNL     1     -10.813   5.605 -35.369  1.00  0.00     0.070 A 
HETATM   14  C   UNL     1     -12.186   5.431 -35.532  1.00  0.00     0.096 A 
HETATM   15  N   UNL     1     -10.225   6.841 -35.637  1.00  0.00    -0.323 N 
HETATM   16  O   UNL     1     -13.038   6.423 -35.931  1.00  0.00    -0.335 OA
HETATM   17  C   UNL     1     -12.750   4.173 -35.330  1.00  0.00     0.041 A 
HETATM   18  C   UNL     1     -12.490   7.739 -35.923  1.00  0.00     0.217 C 
HETATM   19  C   UNL     1     -10.968   7.923 -36.011  1.00  0.00     0.251 C 
HETATM   20  C   UNL     1     -12.999   8.457 -34.675  1.00  0.00     0.050 C 
HETATM   21  O   UNL     1     -10.436   8.987 -36.323  1.00  0.00    -0.270 OA
HETATM   22  C   UNL     1     -11.942   3.093 -34.964  1.00  0.00     0.032 A 
HETATM   23  H   UNL     1      -9.220   6.954 -35.611  1.00  0.00     0.169 HD
ENDBRANCH   6  11
BRANCH   8  24
HETATM   24  C   UNL     1      -6.131   1.656 -31.986  1.00  0.00     0.003 A 
HETATM   25  C   UNL     1      -5.901   1.976 -30.642  1.00  0.00     0.124 A 
HETATM   26  F   UNL     1      -6.607   1.362 -29.682  1.00  0.00    -0.205 F 
HETATM   27  C   UNL     1      -4.945   2.917 -30.267  1.00  0.00     0.043 A 
HETATM   28  C   UNL     1      -4.188   3.559 -31.243  1.00  0.00     0.003 A 
HETATM   29  C   UNL     1      -4.390   3.248 -32.588  1.00  0.00     0.001 A 
HETATM   30  C   UNL     1      -5.351   2.303 -32.958  1.00  0.00     0.012 A 
ENDBRANCH   8  24
TORSDOF 2
ENDMDL
MODEL 9
REMARK VINA RESULT:      -8.3      3.016      7.902
REMARK  2 active torsions:
REMARK  status: ('A' for Active; 'I' for Inactive)
REMARK       I    between atoms: N_4  and  C_5 
REMARK       I    between atoms: C_5  and  N_6 
REMARK    1  A    between atoms: N_6  and  C_7 
REMARK    2  A    between atoms: C_20  and  C_21 
ROOT
HETATM    1  C   UNL     1      -7.177   6.692 -30.183  1.00  0.00     0.011 C 
HETATM    2  C   UNL     1      -6.275   5.930 -31.137  1.00  0.00     0.002 C 
HETATM    3  C   UNL     1      -6.872   4.607 -31.607  1.00  0.00     0.132 C 
HETATM    4  N   UNL     1      -6.251   4.357 -32.901  1.00  0.00    -0.325 N 
HETATM    5  C   UNL     1      -6.291   3.192 -33.640  1.00  0.00     0.323 C 
HETATM    6  N   UNL     1      -7.068   2.200 -33.084  1.00  0.00    -0.309 N 
HETATM    7  O   UNL     1      -5.669   3.071 -34.692  1.00  0.00    -0.247 OA
HETATM    8  C   UNL     1      -5.553   5.546 -33.402  1.00  0.00     0.125 C 
HETATM    9  C   UNL     1      -6.027   6.664 -32.458  1.00  0.00     0.036 C 
HETATM   10  H   UNL     1      -7.869   2.519 -32.563  1.00  0.00     0.170 HD
ENDROOT
BRANCH   6  11
HETATM   11  C   UNL     1      -7.024   0.832 -33.417  1.00  0.00     0.038 A 
HETATM   12  C   UNL     1      -5.823   0.127 -33.547  1.00  0.00     0.062 A 
HETATM   13  C   UNL     1      -5.840  -1.243 -33.813  1.00  0.00     0.070 A 
HETATM   14  C   UNL     1      -7.050  -1.918 -33.964  1.00  0.00     0.096 A 
HETATM   15  N   UNL     1      -4.634  -1.941 -33.874  1.00  0.00    -0.323 N 
HETATM   16  O   UNL     1      -7.150  -3.262 -34.196  1.00  0.00    -0.335 OA
HETATM   17  C   UNL     1      -8.249  -1.222 -33.829  1.00  0.00     0.041 A 
HETATM   18  C   UNL     1      -5.931  -3.914 -34.545  1.00  0.00     0.217 C 
HETATM   19  C   UNL     1      -4.593  -3.281 -34.135  1.00  0.00     0.251 C 
HETATM   20  C   UNL     1      -5.926  -4.135 -36.055  1.00  0.00     0.050 C 
HETATM   21  O   UNL     1      -3.534  -3.904 -34.108  1.00  0.00    -0.270 OA
HETATM   22  C   UNL     1      -8.237   0.147 -33.546  1.00  0.00     0.032 A 
HETATM   23  H   UNL     1      -3.757  -1.479 -33.677  1.00  0.00     0.169 HD
ENDBRANCH   6  11
BRANCH   8  24
HETATM   24  C   UNL     1      -4.041   5.434 -33.423  1.00  0.00     0.003 A 
HETATM   25  C   UNL     1      -3.395   5.346 -34.663  1.00  0.00     0.124 A 
HETATM   26  F   UNL     1      -4.117   5.383 -35.792  1.00  0.00    -0.205 F 
HETATM   27  C   UNL     1      -2.012   5.228 -34.761  1.00  0.00     0.043 A 
HETATM   28  C   UNL     1      -1.237   5.202 -33.604  1.00  0.00     0.003 A 
HETATM   29  C   UNL     1      -1.856   5.299 -32.358  1.00  0.00     0.001 A 
HETATM   30  C   UNL     1      -3.246   5.418 -32.266  1.00  0.00     0.012 A 
ENDBRANCH   8  24
TORSDOF 2
ENDMDL
MODEL 10
REMARK VINA RESULT:      -8.3      2.639      4.308
REMARK  2 active torsions:
REMARK  status: ('A' for Active; 'I' for Inactive)
REMARK       I    between atoms: N_4  and  C_5 
REMARK       I    between atoms: C_5  and  N_6 
REMARK    1  A    between atoms: N_6  and  C_7 
REMARK    2  A    between atoms: C_20  and  C_21 
ROOT
HETATM    1  C   UNL     1      -7.130  -1.492 -34.027  1.00  0.00     0.011 C 
HETATM    2  C   UNL     1      -7.339  -0.074 -33.527  1.00  0.00     0.002 C 
HETATM    3  C   UNL     1      -6.091   0.796 -33.635  1.00  0.00     0.132 C 
HETATM    4  N   UNL     1      -6.595   2.159 -33.741  1.00  0.00    -0.325 N 
HETATM    5  C   UNL     1      -5.872   3.330 -33.647  1.00  0.00     0.323 C 
HETATM    6  N   UNL     1      -4.516   3.144 -33.498  1.00  0.00    -0.309 N 
HETATM    7  O   UNL     1      -6.416   4.432 -33.682  1.00  0.00    -0.247 OA
HETATM    8  C   UNL     1      -8.038   2.181 -34.005  1.00  0.00     0.125 C 
HETATM    9  C   UNL     1      -8.361   0.717 -34.349  1.00  0.00     0.036 C 
HETATM   10  H   UNL     1      -4.138   2.330 -33.956  1.00  0.00     0.170 HD
ENDROOT
BRANCH   6  11
HETATM   11  C   UNL     1      -3.594   4.107 -33.043  1.00  0.00     0.038 A 
HETATM   12  C   UNL     1      -2.792   3.908 -31.915  1.00  0.00     0.062 A 
HETATM   13  C   UNL     1      -1.849   4.869 -31.548  1.00  0.00     0.070 A 
HETATM   14  C   UNL     1      -1.705   6.039 -32.292  1.00  0.00     0.096 A 
HETATM   15  N   UNL     1      -1.013   4.623 -30.458  1.00  0.00    -0.323 N 
HETATM   16  O   UNL     1      -0.786   7.011 -32.014  1.00  0.00    -0.335 OA
HETATM   17  C   UNL     1      -2.497   6.239 -33.421  1.00  0.00     0.041 A 
HETATM   18  C   UNL     1      -0.140   6.898 -30.748  1.00  0.00     0.217 C 
HETATM   19  C   UNL     1      -0.075   5.529 -30.054  1.00  0.00     0.251 C 
HETATM   20  C   UNL     1      -0.784   7.900 -29.795  1.00  0.00     0.050 C 
HETATM   21  O   UNL     1       0.711   5.272 -29.144  1.00  0.00    -0.270 OA
HETATM   22  C   UNL     1      -3.432   5.272 -33.801  1.00  0.00     0.032 A 
HETATM   23  H   UNL     1      -1.047   3.739 -29.968  1.00  0.00     0.169 HD
ENDBRANCH   6  11
BRANCH   8  24
HETATM   24  C   UNL     1      -8.887   2.685 -32.854  1.00  0.00     0.003 A 
HETATM   25  C   UNL     1     -10.062   3.387 -33.150  1.00  0.00     0.124 A 
HETATM   26  F   UNL     1     -10.418   3.578 -34.429  1.00  0.00    -0.205 F 
HETATM   27  C   UNL     1     -10.886   3.892 -32.148  1.00  0.00     0.043 A 
HETATM   28  C   UNL     1     -10.547   3.695 -30.812  1.00  0.00     0.003 A 
HETATM   29  C   UNL     1      -9.388   2.988 -30.491  1.00  0.00     0.001 A 
HETATM   30  C   UNL     1      -8.566   2.484 -31.502  1.00  0.00     0.012 A 
ENDBRANCH   8  24
TORSDOF 2
ENDMDL
