MODEL 1
REMARK VINA RESULT:      -9.4      0.000      0.000
REMARK  7 active torsions:
REMARK  status: ('A' for Active; 'I' for Inactive)
REMARK    1  A    between atoms: C_2  and  N_3 
REMARK    2  A    between atoms: C_5  and  C_6 
REMARK    3  A    between atoms: C_6  and  N_7 
REMARK       I    between atoms: N_7  and  C_8 
REMARK    4  A    between atoms: C_8  and  C_9 
REMARK    5  A    between atoms: N_15  and  C_16 
REMARK    6  A    between atoms: C_16  and  C_17 
REMARK       I    between atoms: C_17  and  N_18 
REMARK    7  A    between atoms: N_18  and  C_19 
ROOT
HETATM    1  C   UNL     1      -5.682   2.547 -33.071  1.00  0.00     0.081 A 
HETATM    2  S   UNL     1      -5.930   3.878 -34.126  1.00  0.00    -0.063 SA
HETATM    3  C   UNL     1      -4.510   4.652 -33.616  1.00  0.00     0.116 A 
HETATM    4  C   UNL     1      -3.855   3.939 -32.638  1.00  0.00     0.075 A 
HETATM    5  C   UNL     1      -2.578   4.468 -32.171  1.00  0.00     0.262 A 
HETATM    6  O   UNL     1      -1.897   3.912 -31.315  1.00  0.00    -0.267 OA
HETATM    7  N   UNL     1      -2.189   5.650 -32.799  1.00  0.00    -0.299 N 
HETATM    8  C   UNL     1      -2.968   6.247 -33.771  1.00  0.00     0.214 A 
HETATM    9  N   UNL     1      -4.117   5.818 -34.183  1.00  0.00    -0.235 NA
HETATM   10  C   UNL     1      -4.562   2.733 -32.262  1.00  0.00    -0.021 A 
HETATM   11  C   UNL     1      -4.109   1.771 -31.206  1.00  0.00     0.051 C 
ENDROOT
BRANCH   1  12
HETATM   12  C   UNL     1      -6.604   1.416 -33.104  1.00  0.00     0.259 C 
HETATM   13  N   UNL     1      -6.535   0.620 -34.232  1.00  0.00    -0.354 N 
HETATM   14  H   UNL     1      -5.796   0.873 -34.886  1.00  0.00     0.162 HD
HETATM   15  O   UNL     1      -7.415   1.161 -32.213  1.00  0.00    -0.267 OA
BRANCH  13  16
HETATM   16  C   UNL     1      -7.130  -0.702 -34.414  1.00  0.00     0.156 C 
BRANCH  16  17
HETATM   17  C   UNL     1      -6.219  -1.861 -34.851  1.00  0.00     0.206 C 
HETATM   18  N   UNL     1      -4.871  -1.948 -34.147  1.00  0.00    -0.066 N 
HETATM   19  H   UNL     1      -4.305  -1.215 -34.625  1.00  0.00     0.280 HD
HETATM   20  C   UNL     1      -4.349  -3.324 -34.506  1.00  0.00     0.235 C 
HETATM   21  C   UNL     1      -5.582  -4.148 -34.873  1.00  0.00     0.030 C 
HETATM   22  C   UNL     1      -6.786  -3.250 -34.630  1.00  0.00     0.036 C 
BRANCH  18  23
HETATM   23  C   UNL     1      -4.834  -1.657 -32.668  1.00  0.00     0.231 C 
HETATM   24  C   UNL     1      -3.474  -2.025 -32.099  1.00  0.00     0.034 C 
ENDBRANCH  18  23
ENDBRANCH  16  17
ENDBRANCH  13  16
ENDBRANCH   1  12
BRANCH   7  25
HETATM   25  C   UNL     1      -0.842   6.143 -32.555  1.00  0.00     0.236 C 
BRANCH  25  26
HETATM   26  C   UNL     1      -0.869   7.097 -31.352  1.00  0.00     0.240 C 
HETATM   27  N   UNL     1      -0.280   6.550 -30.221  1.00  0.00    -0.326 N 
HETATM   28  H   UNL     1       0.059   5.596 -30.284  1.00  0.00     0.169 HD
HETATM   29  O   UNL     1      -1.414   8.195 -31.419  1.00  0.00    -0.271 OA
BRANCH  27  30
HETATM   30  C   UNL     1      -0.122   7.171 -28.962  1.00  0.00     0.036 A 
HETATM   31  C   UNL     1      -1.067   7.111 -27.936  1.00  0.00     0.053 A 
HETATM   32  C   UNL     1      -0.837   7.762 -26.716  1.00  0.00     0.042 A 
HETATM   33 CL   UNL     1      -2.066   7.656 -25.504  1.00  0.00    -0.084 Cl
HETATM   34  C   UNL     1       0.346   8.480 -26.496  1.00  0.00    -0.040 A 
HETATM   35  C   UNL     1       0.616   9.190 -25.200  1.00  0.00     0.050 C 
HETATM   36  C   UNL     1       1.288   8.542 -27.531  1.00  0.00     0.011 A 
HETATM   37  C   UNL     1       1.054   7.898 -28.750  1.00  0.00     0.030 A 
ENDBRANCH  27  30
ENDBRANCH  25  26
ENDBRANCH   7  25
TORSDOF 7
ENDMDL
MODEL 2
REMARK VINA RESULT:      -9.0      3.442     10.460
REMARK  7 active torsions:
REMARK  status: ('A' for Active; 'I' for Inactive)
REMARK    1  A    between atoms: C_2  and  N_3 
REMARK    2  A    between atoms: C_5  and  C_6 
REMARK    3  A    between atoms: C_6  and  N_7 
REMARK       I    between atoms: N_7  and  C_8 
REMARK    4  A    between atoms: C_8  and  C_9 
REMARK    5  A    between atoms: N_15  and  C_16 
REMARK    6  A    between atoms: C_16  and  C_17 
REMARK       I    between atoms: C_17  and  N_18 
REMARK    7  A    between atoms: N_18  and  C_19 
ROOT
HETATM    1  C   UNL     1      -3.797   6.073 -31.320  1.00  0.00     0.081 A 
HETATM    2  S   UNL     1      -5.029   5.967 -30.130  1.00  0.00    -0.063 SA
HETATM    3  C   UNL     1      -6.031   5.037 -31.133  1.00  0.00     0.116 A 
HETATM    4  C   UNL     1      -5.467   4.822 -32.370  1.00  0.00     0.075 A 
HETATM    5  C   UNL     1      -6.204   3.970 -33.297  1.00  0.00     0.262 A 
HETATM    6  O   UNL     1      -5.794   3.694 -34.421  1.00  0.00    -0.267 OA
HETATM    7  N   UNL     1      -7.404   3.477 -32.787  1.00  0.00    -0.299 N 
HETATM    8  C   UNL     1      -7.834   3.792 -31.512  1.00  0.00     0.214 A 
HETATM    9  N   UNL     1      -7.218   4.567 -30.680  1.00  0.00    -0.235 NA
HETATM   10  C   UNL     1      -4.185   5.476 -32.518  1.00  0.00    -0.021 A 
HETATM   11  C   UNL     1      -3.348   5.445 -33.761  1.00  0.00     0.051 C 
ENDROOT
BRANCH   1  12
HETATM   12  C   UNL     1      -2.538   6.740 -31.000  1.00  0.00     0.259 C 
HETATM   13  N   UNL     1      -1.869   6.257 -29.891  1.00  0.00    -0.354 N 
HETATM   14  H   UNL     1      -2.298   5.440 -29.460  1.00  0.00     0.162 HD
HETATM   15  O   UNL     1      -2.075   7.684 -31.643  1.00  0.00    -0.267 OA
BRANCH  13  16
HETATM   16  C   UNL     1      -0.491   6.542 -29.502  1.00  0.00     0.156 C 
BRANCH  16  17
HETATM   17  C   UNL     1      -0.223   7.747 -28.585  1.00  0.00     0.206 C 
HETATM   18  N   UNL     1      -0.760   7.633 -27.164  1.00  0.00    -0.066 N 
HETATM   19  H   UNL     1      -1.775   7.840 -27.276  1.00  0.00     0.280 HD
HETATM   20  C   UNL     1      -0.080   8.760 -26.415  1.00  0.00     0.235 C 
HETATM   21  C   UNL     1       1.183   9.080 -27.213  1.00  0.00     0.030 C 
HETATM   22  C   UNL     1       1.240   8.070 -28.349  1.00  0.00     0.036 C 
BRANCH  18  23
HETATM   23  C   UNL     1      -0.644   6.297 -26.477  1.00  0.00     0.231 C 
HETATM   24  C   UNL     1      -1.907   6.006 -25.684  1.00  0.00     0.034 C 
ENDBRANCH  18  23
ENDBRANCH  16  17
ENDBRANCH  13  16
ENDBRANCH   1  12
BRANCH   7  25
HETATM   25  C   UNL     1      -8.106   2.458 -33.551  1.00  0.00     0.236 C 
BRANCH  25  26
HETATM   26  C   UNL     1      -7.531   1.080 -33.193  1.00  0.00     0.240 C 
HETATM   27  N   UNL     1      -6.771   0.534 -34.217  1.00  0.00    -0.326 N 
HETATM   28  H   UNL     1      -6.706   1.057 -35.083  1.00  0.00     0.169 HD
HETATM   29  O   UNL     1      -7.791   0.537 -32.123  1.00  0.00    -0.271 OA
BRANCH  27  30
HETATM   30  C   UNL     1      -6.088  -0.703 -34.200  1.00  0.00     0.036 A 
HETATM   31  C   UNL     1      -6.604  -1.889 -34.728  1.00  0.00     0.053 A 
HETATM   32  C   UNL     1      -5.865  -3.078 -34.665  1.00  0.00     0.042 A 
HETATM   33 CL   UNL     1      -6.582  -4.507 -35.324  1.00  0.00    -0.084 Cl
HETATM   34  C   UNL     1      -4.592  -3.104 -34.079  1.00  0.00    -0.040 A 
HETATM   35  C   UNL     1      -3.780  -4.365 -33.995  1.00  0.00     0.050 C 
HETATM   36  C   UNL     1      -4.082  -1.913 -33.547  1.00  0.00     0.011 A 
HETATM   37  C   UNL     1      -4.823  -0.728 -33.603  1.00  0.00     0.030 A 
ENDBRANCH  27  30
ENDBRANCH  25  26
ENDBRANCH   7  25
TORSDOF 7
ENDMDL
MODEL 3
REMARK VINA RESULT:      -8.8      3.482     10.322
REMARK  7 active torsions:
REMARK  status: ('A' for Active; 'I' for Inactive)
REMARK    1  A    between atoms: C_2  and  N_3 
REMARK    2  A    between atoms: C_5  and  C_6 
REMARK    3  A    between atoms: C_6  and  N_7 
REMARK       I    between atoms: N_7  and  C_8 
REMARK    4  A    between atoms: C_8  and  C_9 
REMARK    5  A    between atoms: N_15  and  C_16 
REMARK    6  A    between atoms: C_16  and  C_17 
REMARK       I    between atoms: C_17  and  N_18 
REMARK    7  A    between atoms: N_18  and  C_19 
ROOT
HETATM    1  C   UNL     1      -4.263   5.182 -31.230  1.00  0.00     0.081 A 
HETATM    2  S   UNL     1      -5.379   4.767 -29.994  1.00  0.00    -0.063 SA
HETATM    3  C   UNL     1      -6.445   4.034 -31.090  1.00  0.00     0.116 A 
HETATM    4  C   UNL     1      -5.991   4.117 -32.387  1.00  0.00     0.075 A 
HETATM    5  C   UNL     1      -6.789   3.455 -33.413  1.00  0.00     0.262 A 
HETATM    6  O   UNL     1      -6.477   3.448 -34.601  1.00  0.00    -0.267 OA
HETATM    7  N   UNL     1      -7.925   2.812 -32.926  1.00  0.00    -0.299 N 
HETATM    8  C   UNL     1      -8.244   2.823 -31.581  1.00  0.00     0.214 A 
HETATM    9  N   UNL     1      -7.574   3.425 -30.653  1.00  0.00    -0.235 NA
HETATM   10  C   UNL     1      -4.744   4.843 -32.494  1.00  0.00    -0.021 A 
HETATM   11  C   UNL     1      -4.024   5.119 -33.779  1.00  0.00     0.051 C 
ENDROOT
BRANCH   1  12
HETATM   12  C   UNL     1      -2.997   5.819 -30.879  1.00  0.00     0.259 C 
HETATM   13  N   UNL     1      -3.094   7.092 -30.348  1.00  0.00    -0.354 N 
HETATM   14  H   UNL     1      -4.047   7.417 -30.197  1.00  0.00     0.162 HD
HETATM   15  O   UNL     1      -1.894   5.296 -31.041  1.00  0.00    -0.267 OA
BRANCH  13  16
HETATM   16  C   UNL     1      -2.042   7.845 -29.671  1.00  0.00     0.156 C 
BRANCH  16  17
HETATM   17  C   UNL     1      -1.693   7.472 -28.219  1.00  0.00     0.206 C 
HETATM   18  N   UNL     1      -0.676   6.351 -28.049  1.00  0.00    -0.066 N 
HETATM   19  H   UNL     1      -1.239   5.491 -28.220  1.00  0.00     0.280 HD
HETATM   20  C   UNL     1      -0.278   6.428 -26.589  1.00  0.00     0.235 C 
HETATM   21  C   UNL     1      -0.593   7.857 -26.151  1.00  0.00     0.030 C 
HETATM   22  C   UNL     1      -1.083   8.587 -27.393  1.00  0.00     0.036 C 
BRANCH  18  23
HETATM   23  C   UNL     1       0.498   6.321 -28.993  1.00  0.00     0.231 C 
HETATM   24  C   UNL     1       0.973   4.890 -29.188  1.00  0.00     0.034 C 
ENDBRANCH  18  23
ENDBRANCH  16  17
ENDBRANCH  13  16
ENDBRANCH   1  12
BRANCH   7  25
HETATM   25  C   UNL     1      -8.669   1.953 -33.834  1.00  0.00     0.236 C 
BRANCH  25  26
HETATM   26  C   UNL     1      -8.187   0.505 -33.660  1.00  0.00     0.240 C 
HETATM   27  N   UNL     1      -6.933   0.288 -34.214  1.00  0.00    -0.326 N 
HETATM   28  H   UNL     1      -6.493   1.064 -34.696  1.00  0.00     0.169 HD
HETATM   29  O   UNL     1      -8.896  -0.346 -33.131  1.00  0.00    -0.271 OA
BRANCH  27  30
HETATM   30  C   UNL     1      -6.200  -0.920 -34.206  1.00  0.00     0.036 A 
HETATM   31  C   UNL     1      -6.630  -2.100 -34.814  1.00  0.00     0.053 A 
HETATM   32  C   UNL     1      -5.845  -3.260 -34.755  1.00  0.00     0.042 A 
HETATM   33 CL   UNL     1      -6.458  -4.686 -35.516  1.00  0.00    -0.084 Cl
HETATM   34  C   UNL     1      -4.610  -3.260 -34.091  1.00  0.00    -0.040 A 
HETATM   35  C   UNL     1      -3.751  -4.490 -34.009  1.00  0.00     0.050 C 
HETATM   36  C   UNL     1      -4.186  -2.074 -33.478  1.00  0.00     0.011 A 
HETATM   37  C   UNL     1      -4.974  -0.920 -33.531  1.00  0.00     0.030 A 
ENDBRANCH  27  30
ENDBRANCH  25  26
ENDBRANCH   7  25
TORSDOF 7
ENDMDL
MODEL 4
REMARK VINA RESULT:      -8.4      3.620     10.206
REMARK  7 active torsions:
REMARK  status: ('A' for Active; 'I' for Inactive)
REMARK    1  A    between atoms: C_2  and  N_3 
REMARK    2  A    between atoms: C_5  and  C_6 
REMARK    3  A    between atoms: C_6  and  N_7 
REMARK       I    between atoms: N_7  and  C_8 
REMARK    4  A    between atoms: C_8  and  C_9 
REMARK    5  A    between atoms: N_15  and  C_16 
REMARK    6  A    between atoms: C_16  and  C_17 
REMARK       I    between atoms: C_17  and  N_18 
REMARK    7  A    between atoms: N_18  and  C_19 
ROOT
HETATM    1  C   UNL     1      -5.158   6.209 -30.582  1.00  0.00     0.081 A 
HETATM    2  S   UNL     1      -4.667   6.290 -32.225  1.00  0.00    -0.063 SA
HETATM    3  C   UNL     1      -5.679   5.007 -32.676  1.00  0.00     0.116 A 
HETATM    4  C   UNL     1      -6.370   4.491 -31.602  1.00  0.00     0.075 A 
HETATM    5  C   UNL     1      -7.331   3.429 -31.879  1.00  0.00     0.262 A 
HETATM    6  O   UNL     1      -8.015   2.904 -31.005  1.00  0.00    -0.267 OA
HETATM    7  N   UNL     1      -7.421   3.078 -33.224  1.00  0.00    -0.299 N 
HETATM    8  C   UNL     1      -6.649   3.697 -34.189  1.00  0.00     0.214 A 
HETATM    9  N   UNL     1      -5.768   4.619 -33.971  1.00  0.00    -0.235 NA
HETATM   10  C   UNL     1      -6.028   5.144 -30.356  1.00  0.00    -0.021 A 
HETATM   11  C   UNL     1      -6.596   4.780 -29.018  1.00  0.00     0.051 C 
ENDROOT
BRANCH   1  12
HETATM   12  C   UNL     1      -4.653   7.191 -29.627  1.00  0.00     0.259 C 
HETATM   13  N   UNL     1      -3.628   6.755 -28.807  1.00  0.00    -0.354 N 
HETATM   14  H   UNL     1      -3.292   5.815 -29.011  1.00  0.00     0.162 HD
HETATM   15  O   UNL     1      -5.092   8.336 -29.517  1.00  0.00    -0.267 OA
BRANCH  13  16
HETATM   16  C   UNL     1      -2.765   7.579 -27.965  1.00  0.00     0.156 C 
BRANCH  16  17
HETATM   17  C   UNL     1      -1.356   7.059 -27.630  1.00  0.00     0.206 C 
HETATM   18  N   UNL     1      -0.684   6.223 -28.711  1.00  0.00    -0.066 N 
HETATM   19  H   UNL     1      -1.140   5.291 -28.610  1.00  0.00     0.280 HD
HETATM   20  C   UNL     1       0.764   6.141 -28.274  1.00  0.00     0.235 C 
HETATM   21  C   UNL     1       0.984   7.342 -27.356  1.00  0.00     0.030 C 
HETATM   22  C   UNL     1      -0.317   8.130 -27.360  1.00  0.00     0.036 C 
BRANCH  18  23
HETATM   23  C   UNL     1      -0.857   6.660 -30.144  1.00  0.00     0.231 C 
HETATM   24  C   UNL     1       0.480   6.620 -30.865  1.00  0.00     0.034 C 
ENDBRANCH  18  23
ENDBRANCH  16  17
ENDBRANCH  13  16
ENDBRANCH   1  12
BRANCH   7  25
HETATM   25  C   UNL     1      -8.492   2.181 -33.628  1.00  0.00     0.236 C 
BRANCH  25  26
HETATM   26  C   UNL     1      -8.030   0.729 -33.432  1.00  0.00     0.240 C 
HETATM   27  N   UNL     1      -6.869   0.438 -34.134  1.00  0.00    -0.326 N 
HETATM   28  H   UNL     1      -6.477   1.170 -34.716  1.00  0.00     0.169 HD
HETATM   29  O   UNL     1      -8.684  -0.065 -32.763  1.00  0.00    -0.271 OA
BRANCH  27  30
HETATM   30  C   UNL     1      -6.174  -0.791 -34.150  1.00  0.00     0.036 A 
HETATM   31  C   UNL     1      -6.671  -1.964 -34.722  1.00  0.00     0.053 A 
HETATM   32  C   UNL     1      -5.920  -3.147 -34.689  1.00  0.00     0.042 A 
HETATM   33 CL   UNL     1      -6.616  -4.561 -35.402  1.00  0.00    -0.084 Cl
HETATM   34  C   UNL     1      -4.653  -3.179 -34.091  1.00  0.00    -0.040 A 
HETATM   35  C   UNL     1      -3.829  -4.434 -34.040  1.00  0.00     0.050 C 
HETATM   36  C   UNL     1      -4.161  -2.001 -33.515  1.00  0.00     0.011 A 
HETATM   37  C   UNL     1      -4.914  -0.823 -33.541  1.00  0.00     0.030 A 
ENDBRANCH  27  30
ENDBRANCH  25  26
ENDBRANCH   7  25
TORSDOF 7
ENDMDL
MODEL 5
REMARK VINA RESULT:      -8.4      3.617     10.614
REMARK  7 active torsions:
REMARK  status: ('A' for Active; 'I' for Inactive)
REMARK    1  A    between atoms: C_2  and  N_3 
REMARK    2  A    between atoms: C_5  and  C_6 
REMARK    3  A    between atoms: C_6  and  N_7 
REMARK       I    between atoms: N_7  and  C_8 
REMARK    4  A    between atoms: C_8  and  C_9 
REMARK    5  A    between atoms: N_15  and  C_16 
REMARK    6  A    between atoms: C_16  and  C_17 
REMARK       I    between atoms: C_17  and  N_18 
REMARK    7  A    between atoms: N_18  and  C_19 
ROOT
HETATM    1  C   UNL     1      -4.497   6.263 -30.435  1.00  0.00     0.081 A 
HETATM    2  S   UNL     1      -3.881   6.327 -32.036  1.00  0.00    -0.063 SA
HETATM    3  C   UNL     1      -4.917   5.096 -32.571  1.00  0.00     0.116 A 
HETATM    4  C   UNL     1      -5.709   4.609 -31.555  1.00  0.00     0.075 A 
HETATM    5  C   UNL     1      -6.696   3.595 -31.911  1.00  0.00     0.262 A 
HETATM    6  O   UNL     1      -7.468   3.100 -31.094  1.00  0.00    -0.267 OA
HETATM    7  N   UNL     1      -6.702   3.255 -33.262  1.00  0.00    -0.299 N 
HETATM    8  C   UNL     1      -5.832   3.840 -34.162  1.00  0.00     0.214 A 
HETATM    9  N   UNL     1      -4.928   4.718 -33.872  1.00  0.00    -0.235 NA
HETATM   10  C   UNL     1      -5.431   5.239 -30.282  1.00  0.00    -0.021 A 
HETATM   11  C   UNL     1      -6.113   4.897 -28.993  1.00  0.00     0.051 C 
ENDROOT
BRANCH   1  12
HETATM   12  C   UNL     1      -4.017   7.214 -29.436  1.00  0.00     0.259 C 
HETATM   13  N   UNL     1      -3.200   6.689 -28.453  1.00  0.00    -0.354 N 
HETATM   14  H   UNL     1      -2.966   5.706 -28.576  1.00  0.00     0.162 HD
HETATM   15  O   UNL     1      -4.311   8.410 -29.427  1.00  0.00    -0.267 OA
BRANCH  13  16
HETATM   16  C   UNL     1      -2.374   7.433 -27.505  1.00  0.00     0.156 C 
BRANCH  16  17
HETATM   17  C   UNL     1      -0.853   7.468 -27.730  1.00  0.00     0.206 C 
HETATM   18  N   UNL     1      -0.236   8.852 -27.884  1.00  0.00    -0.066 N 
HETATM   19  H   UNL     1      -0.469   9.108 -28.867  1.00  0.00     0.280 HD
HETATM   20  C   UNL     1       1.254   8.615 -27.748  1.00  0.00     0.235 C 
HETATM   21  C   UNL     1       1.392   7.304 -26.977  1.00  0.00     0.030 C 
HETATM   22  C   UNL     1      -0.019   6.868 -26.613  1.00  0.00     0.036 C 
BRANCH  18  23
HETATM   23  C   UNL     1      -0.754   9.953 -26.993  1.00  0.00     0.231 C 
HETATM   24  C   UNL     1      -1.382  11.051 -27.834  1.00  0.00     0.034 C 
ENDBRANCH  18  23
ENDBRANCH  16  17
ENDBRANCH  13  16
ENDBRANCH   1  12
BRANCH   7  25
HETATM   25  C   UNL     1      -7.782   2.412 -33.751  1.00  0.00     0.236 C 
BRANCH  25  26
HETATM   26  C   UNL     1      -7.444   0.944 -33.455  1.00  0.00     0.240 C 
HETATM   27  N   UNL     1      -6.401   0.467 -34.235  1.00  0.00    -0.326 N 
HETATM   28  H   UNL     1      -6.007   1.095 -34.926  1.00  0.00     0.169 HD
HETATM   29  O   UNL     1      -8.095   0.289 -32.645  1.00  0.00    -0.271 OA
BRANCH  27  30
HETATM   30  C   UNL     1      -5.835  -0.827 -34.195  1.00  0.00     0.036 A 
HETATM   31  C   UNL     1      -6.396  -1.947 -34.813  1.00  0.00     0.053 A 
HETATM   32  C   UNL     1      -5.773  -3.199 -34.719  1.00  0.00     0.042 A 
HETATM   33 CL   UNL     1      -6.542  -4.539 -35.496  1.00  0.00    -0.084 Cl
HETATM   34  C   UNL     1      -4.574  -3.356 -34.011  1.00  0.00    -0.040 A 
HETATM   35  C   UNL     1      -3.888  -4.687 -33.892  1.00  0.00     0.050 C 
HETATM   36  C   UNL     1      -4.019  -2.230 -33.389  1.00  0.00     0.011 A 
HETATM   37  C   UNL     1      -4.644  -0.982 -33.477  1.00  0.00     0.030 A 
ENDBRANCH  27  30
ENDBRANCH  25  26
ENDBRANCH   7  25
TORSDOF 7
ENDMDL
MODEL 6
REMARK VINA RESULT:      -8.2      3.625     10.982
REMARK  7 active torsions:
REMARK  status: ('A' for Active; 'I' for Inactive)
REMARK    1  A    between atoms: C_2  and  N_3 
REMARK    2  A    between atoms: C_5  and  C_6 
REMARK    3  A    between atoms: C_6  and  N_7 
REMARK       I    between atoms: N_7  and  C_8 
REMARK    4  A    between atoms: C_8  and  C_9 
REMARK    5  A    between atoms: N_15  and  C_16 
REMARK    6  A    between atoms: C_16  and  C_17 
REMARK       I    between atoms: C_17  and  N_18 
REMARK    7  A    between atoms: N_18  and  C_19 
ROOT
HETATM    1  C   UNL     1      -3.310   7.098 -31.371  1.00  0.00     0.081 A 
HETATM    2  S   UNL     1      -2.311   5.703 -31.434  1.00  0.00    -0.063 SA
HETATM    3  C   UNL     1      -3.616   4.685 -31.801  1.00  0.00     0.116 A 
HETATM    4  C   UNL     1      -4.808   5.371 -31.852  1.00  0.00     0.075 A 
HETATM    5  C   UNL     1      -5.995   4.612 -32.233  1.00  0.00     0.262 A 
HETATM    6  O   UNL     1      -7.110   5.119 -32.327  1.00  0.00    -0.267 OA
HETATM    7  N   UNL     1      -5.750   3.267 -32.502  1.00  0.00    -0.299 N 
HETATM    8  C   UNL     1      -4.482   2.727 -32.402  1.00  0.00     0.214 A 
HETATM    9  N   UNL     1      -3.418   3.366 -32.039  1.00  0.00    -0.235 NA
HETATM   10  C   UNL     1      -4.656   6.775 -31.540  1.00  0.00    -0.021 A 
HETATM   11  C   UNL     1      -5.778   7.766 -31.488  1.00  0.00     0.051 C 
ENDROOT
BRANCH   1  12
HETATM   12  C   UNL     1      -2.708   8.410 -31.153  1.00  0.00     0.259 C 
HETATM   13  N   UNL     1      -2.827   8.918 -29.873  1.00  0.00    -0.354 N 
HETATM   14  H   UNL     1      -3.263   8.286 -29.204  1.00  0.00     0.162 HD
HETATM   15  O   UNL     1      -2.136   9.060 -32.029  1.00  0.00    -0.267 OA
BRANCH  13  16
HETATM   16  C   UNL     1      -2.106  10.056 -29.308  1.00  0.00     0.156 C 
BRANCH  16  17
HETATM   17  C   UNL     1      -1.773  10.038 -27.806  1.00  0.00     0.206 C 
HETATM   18  N   UNL     1      -0.888   8.891 -27.336  1.00  0.00    -0.066 N 
HETATM   19  H   UNL     1      -1.549   8.087 -27.282  1.00  0.00     0.280 HD
HETATM   20  C   UNL     1      -0.454   9.301 -25.944  1.00  0.00     0.235 C 
HETATM   21  C   UNL     1      -0.595  10.821 -25.900  1.00  0.00     0.030 C 
HETATM   22  C   UNL     1      -1.022  11.253 -27.295  1.00  0.00     0.036 C 
BRANCH  18  23
HETATM   23  C   UNL     1       0.256   8.479 -28.227  1.00  0.00     0.231 C 
HETATM   24  C   UNL     1       1.525   8.319 -27.406  1.00  0.00     0.034 C 
ENDBRANCH  18  23
ENDBRANCH  16  17
ENDBRANCH  13  16
ENDBRANCH   1  12
BRANCH   7  25
HETATM   25  C   UNL     1      -6.823   2.479 -33.088  1.00  0.00     0.236 C 
BRANCH  25  26
HETATM   26  C   UNL     1      -6.549   0.991 -32.829  1.00  0.00     0.240 C 
HETATM   27  N   UNL     1      -5.933   0.365 -33.903  1.00  0.00    -0.326 N 
HETATM   28  H   UNL     1      -5.767   0.919 -34.736  1.00  0.00     0.169 HD
HETATM   29  O   UNL     1      -6.907   0.446 -31.789  1.00  0.00    -0.271 OA
BRANCH  27  30
HETATM   30  C   UNL     1      -5.527  -0.986 -33.980  1.00  0.00     0.036 A 
HETATM   31  C   UNL     1      -6.249  -1.984 -34.638  1.00  0.00     0.053 A 
HETATM   32  C   UNL     1      -5.781  -3.304 -34.661  1.00  0.00     0.042 A 
HETATM   33 CL   UNL     1      -6.743  -4.484 -35.482  1.00  0.00    -0.084 Cl
HETATM   34  C   UNL     1      -4.578  -3.653 -34.032  1.00  0.00    -0.040 A 
HETATM   35  C   UNL     1      -4.055  -5.062 -34.039  1.00  0.00     0.050 C 
HETATM   36  C   UNL     1      -3.861  -2.650 -33.369  1.00  0.00     0.011 A 
HETATM   37  C   UNL     1      -4.333  -1.333 -33.339  1.00  0.00     0.030 A 
ENDBRANCH  27  30
ENDBRANCH  25  26
ENDBRANCH   7  25
TORSDOF 7
ENDMDL
MODEL 7
REMARK VINA RESULT:      -8.2      2.857      4.242
REMARK  7 active torsions:
REMARK  status: ('A' for Active; 'I' for Inactive)
REMARK    1  A    between atoms: C_2  and  N_3 
REMARK    2  A    between atoms: C_5  and  C_6 
REMARK    3  A    between atoms: C_6  and  N_7 
REMARK       I    between atoms: N_7  and  C_8 
REMARK    4  A    between atoms: C_8  and  C_9 
REMARK    5  A    between atoms: N_15  and  C_16 
REMARK    6  A    between atoms: C_16  and  C_17 
REMARK       I    between atoms: C_17  and  N_18 
REMARK    7  A    between atoms: N_18  and  C_19 
ROOT
HETATM    1  C   UNL     1      -6.258   2.464 -32.796  1.00  0.00     0.081 A 
HETATM    2  S   UNL     1      -6.490   3.630 -34.033  1.00  0.00    -0.063 SA
HETATM    3  C   UNL     1      -4.967   4.329 -33.773  1.00  0.00     0.116 A 
HETATM    4  C   UNL     1      -4.286   3.717 -32.745  1.00  0.00     0.075 A 
HETATM    5  C   UNL     1      -2.930   4.183 -32.476  1.00  0.00     0.262 A 
HETATM    6  O   UNL     1      -2.221   3.703 -31.596  1.00  0.00    -0.267 OA
HETATM    7  N   UNL     1      -2.502   5.206 -33.319  1.00  0.00    -0.299 N 
HETATM    8  C   UNL     1      -3.316   5.718 -34.311  1.00  0.00     0.214 A 
HETATM    9  N   UNL     1      -4.531   5.346 -34.555  1.00  0.00    -0.235 NA
HETATM   10  C   UNL     1      -5.055   2.662 -32.120  1.00  0.00    -0.021 A 
HETATM   11  C   UNL     1      -4.588   1.838 -30.959  1.00  0.00     0.051 C 
ENDROOT
BRANCH   1  12
HETATM   12  C   UNL     1      -7.273   1.439 -32.568  1.00  0.00     0.259 C 
HETATM   13  N   UNL     1      -8.569   1.900 -32.433  1.00  0.00    -0.354 N 
HETATM   14  H   UNL     1      -8.680   2.902 -32.579  1.00  0.00     0.162 HD
HETATM   15  O   UNL     1      -7.029   0.235 -32.480  1.00  0.00    -0.267 OA
BRANCH  13  16
HETATM   16  C   UNL     1      -9.794   1.105 -32.468  1.00  0.00     0.156 C 
BRANCH  16  17
HETATM   17  C   UNL     1     -10.946   1.575 -33.372  1.00  0.00     0.206 C 
HETATM   18  N   UNL     1     -11.939   2.538 -32.734  1.00  0.00    -0.066 N 
HETATM   19  H   UNL     1     -12.539   1.914 -32.155  1.00  0.00     0.280 HD
HETATM   20  C   UNL     1     -12.733   3.084 -33.903  1.00  0.00     0.235 C 
HETATM   21  C   UNL     1     -11.842   2.894 -35.130  1.00  0.00     0.030 C 
HETATM   22  C   UNL     1     -10.526   2.326 -34.620  1.00  0.00     0.036 C 
BRANCH  18  23
HETATM   23  C   UNL     1     -11.390   3.610 -31.827  1.00  0.00     0.231 C 
HETATM   24  C   UNL     1     -12.221   4.876 -31.954  1.00  0.00     0.034 C 
ENDBRANCH  18  23
ENDBRANCH  16  17
ENDBRANCH  13  16
ENDBRANCH   1  12
BRANCH   7  25
HETATM   25  C   UNL     1      -1.101   5.594 -33.268  1.00  0.00     0.236 C 
BRANCH  25  26
HETATM   26  C   UNL     1      -0.953   6.815 -32.348  1.00  0.00     0.240 C 
HETATM   27  N   UNL     1      -0.725   6.464 -31.025  1.00  0.00    -0.326 N 
HETATM   28  H   UNL     1      -0.719   5.477 -30.796  1.00  0.00     0.169 HD
HETATM   29  O   UNL     1      -1.087   7.958 -32.776  1.00  0.00    -0.271 OA
BRANCH  27  30
HETATM   30  C   UNL     1      -0.523   7.343 -29.937  1.00  0.00     0.036 A 
HETATM   31  C   UNL     1      -1.479   8.250 -29.476  1.00  0.00     0.053 A 
HETATM   32  C   UNL     1      -1.196   9.093 -28.393  1.00  0.00     0.042 A 
HETATM   33 CL   UNL     1      -2.427  10.203 -27.896  1.00  0.00    -0.084 Cl
HETATM   34  C   UNL     1       0.045   9.042 -27.745  1.00  0.00    -0.040 A 
HETATM   35  C   UNL     1       0.375   9.937 -26.584  1.00  0.00     0.050 C 
HETATM   36  C   UNL     1       1.002   8.134 -28.215  1.00  0.00     0.011 A 
HETATM   37  C   UNL     1       0.723   7.298 -29.301  1.00  0.00     0.030 A 
ENDBRANCH  27  30
ENDBRANCH  25  26
ENDBRANCH   7  25
TORSDOF 7
ENDMDL
MODEL 8
REMARK VINA RESULT:      -8.1      3.243     11.347
REMARK  7 active torsions:
REMARK  status: ('A' for Active; 'I' for Inactive)
REMARK    1  A    between atoms: C_2  and  N_3 
REMARK    2  A    between atoms: C_5  and  C_6 
REMARK    3  A    between atoms: C_6  and  N_7 
REMARK       I    between atoms: N_7  and  C_8 
REMARK    4  A    between atoms: C_8  and  C_9 
REMARK    5  A    between atoms: N_15  and  C_16 
REMARK    6  A    between atoms: C_16  and  C_17 
REMARK       I    between atoms: C_17  and  N_18 
REMARK    7  A    between atoms: N_18  and  C_19 
ROOT
HETATM    1  C   UNL     1      -2.199   6.823 -30.189  1.00  0.00     0.081 A 
HETATM    2  S   UNL     1      -1.327   5.855 -31.307  1.00  0.00    -0.063 SA
HETATM    3  C   UNL     1      -2.687   4.915 -31.680  1.00  0.00     0.116 A 
HETATM    4  C   UNL     1      -3.794   5.297 -30.956  1.00  0.00     0.075 A 
HETATM    5  C   UNL     1      -5.047   4.608 -31.245  1.00  0.00     0.262 A 
HETATM    6  O   UNL     1      -6.102   4.873 -30.674  1.00  0.00    -0.267 OA
HETATM    7  N   UNL     1      -4.948   3.638 -32.241  1.00  0.00    -0.299 N 
HETATM    8  C   UNL     1      -3.751   3.371 -32.877  1.00  0.00     0.214 A 
HETATM    9  N   UNL     1      -2.619   3.943 -32.621  1.00  0.00    -0.235 NA
HETATM   10  C   UNL     1      -3.509   6.372 -30.031  1.00  0.00    -0.021 A 
HETATM   11  C   UNL     1      -4.506   6.978 -29.091  1.00  0.00     0.051 C 
ENDROOT
BRANCH   1  12
HETATM   12  C   UNL     1      -1.539   7.951 -29.540  1.00  0.00     0.259 C 
HETATM   13  N   UNL     1      -0.605   7.624 -28.575  1.00  0.00    -0.354 N 
HETATM   14  H   UNL     1      -0.431   6.625 -28.474  1.00  0.00     0.162 HD
HETATM   15  O   UNL     1      -1.780   9.132 -29.795  1.00  0.00    -0.267 OA
BRANCH  13  16
HETATM   16  C   UNL     1       0.382   8.513 -27.967  1.00  0.00     0.156 C 
BRANCH  16  17
HETATM   17  C   UNL     1      -0.004   9.266 -26.682  1.00  0.00     0.206 C 
HETATM   18  N   UNL     1       0.709   8.819 -25.413  1.00  0.00    -0.066 N 
HETATM   19  H   UNL     1       0.203   7.947 -25.150  1.00  0.00     0.280 HD
HETATM   20  C   UNL     1       0.408   9.915 -24.411  1.00  0.00     0.235 C 
HETATM   21  C   UNL     1       0.071  11.151 -25.242  1.00  0.00     0.030 C 
HETATM   22  C   UNL     1       0.272  10.757 -26.698  1.00  0.00     0.036 C 
BRANCH  18  23
HETATM   23  C   UNL     1       2.174   8.482 -25.514  1.00  0.00     0.231 C 
HETATM   24  C   UNL     1       2.911   8.983 -24.283  1.00  0.00     0.034 C 
ENDBRANCH  18  23
ENDBRANCH  16  17
ENDBRANCH  13  16
ENDBRANCH   1  12
BRANCH   7  25
HETATM   25  C   UNL     1      -6.177   3.046 -32.744  1.00  0.00     0.236 C 
BRANCH  25  26
HETATM   26  C   UNL     1      -6.084   1.518 -32.618  1.00  0.00     0.240 C 
HETATM   27  N   UNL     1      -6.061   0.880 -33.850  1.00  0.00    -0.326 N 
HETATM   28  H   UNL     1      -6.145   1.457 -34.679  1.00  0.00     0.169 HD
HETATM   29  O   UNL     1      -6.089   0.965 -31.522  1.00  0.00    -0.271 OA
BRANCH  27  30
HETATM   30  C   UNL     1      -5.958  -0.510 -34.084  1.00  0.00     0.036 A 
HETATM   31  C   UNL     1      -4.904  -1.304 -33.627  1.00  0.00     0.053 A 
HETATM   32  C   UNL     1      -4.873  -2.677 -33.908  1.00  0.00     0.042 A 
HETATM   33 CL   UNL     1      -3.523  -3.587 -33.323  1.00  0.00    -0.084 Cl
HETATM   34  C   UNL     1      -5.898  -3.284 -34.646  1.00  0.00    -0.040 A 
HETATM   35  C   UNL     1      -5.887  -4.752 -34.965  1.00  0.00     0.050 C 
HETATM   36  C   UNL     1      -6.949  -2.481 -35.107  1.00  0.00     0.011 A 
HETATM   37  C   UNL     1      -6.976  -1.110 -34.832  1.00  0.00     0.030 A 
ENDBRANCH  27  30
ENDBRANCH  25  26
ENDBRANCH   7  25
TORSDOF 7
ENDMDL
MODEL 9
REMARK VINA RESULT:      -8.1      2.992      4.392
REMARK  7 active torsions:
REMARK  status: ('A' for Active; 'I' for Inactive)
REMARK    1  A    between atoms: C_2  and  N_3 
REMARK    2  A    between atoms: C_5  and  C_6 
REMARK    3  A    between atoms: C_6  and  N_7 
REMARK       I    between atoms: N_7  and  C_8 
REMARK    4  A    between atoms: C_8  and  C_9 
REMARK    5  A    between atoms: N_15  and  C_16 
REMARK    6  A    between atoms: C_16  and  C_17 
REMARK       I    between atoms: C_17  and  N_18 
REMARK    7  A    between atoms: N_18  and  C_19 
ROOT
HETATM    1  C   UNL     1      -6.480   3.109 -33.140  1.00  0.00     0.081 A 
HETATM    2  S   UNL     1      -6.364   4.654 -33.878  1.00  0.00    -0.063 SA
HETATM    3  C   UNL     1      -4.801   4.916 -33.275  1.00  0.00     0.116 A 
HETATM    4  C   UNL     1      -4.365   3.866 -32.498  1.00  0.00     0.075 A 
HETATM    5  C   UNL     1      -3.002   3.942 -31.983  1.00  0.00     0.262 A 
HETATM    6  O   UNL     1      -2.498   3.060 -31.293  1.00  0.00    -0.267 OA
HETATM    7  N   UNL     1      -2.313   5.093 -32.361  1.00  0.00    -0.299 N 
HETATM    8  C   UNL     1      -2.900   6.063 -33.152  1.00  0.00     0.214 A 
HETATM    9  N   UNL     1      -4.114   6.038 -33.598  1.00  0.00    -0.235 NA
HETATM   10  C   UNL     1      -5.362   2.826 -32.357  1.00  0.00    -0.021 A 
HETATM   11  C   UNL     1      -5.185   1.577 -31.549  1.00  0.00     0.051 C 
ENDROOT
BRANCH   1  12
HETATM   12  C   UNL     1      -7.660   2.282 -33.374  1.00  0.00     0.259 C 
HETATM   13  N   UNL     1      -8.741   2.537 -32.551  1.00  0.00    -0.354 N 
HETATM   14  H   UNL     1      -8.616   3.324 -31.917  1.00  0.00     0.162 HD
HETATM   15  O   UNL     1      -7.724   1.397 -34.228  1.00  0.00    -0.267 OA
BRANCH  13  16
HETATM   16  C   UNL     1     -10.113   2.065 -32.728  1.00  0.00     0.156 C 
BRANCH  16  17
HETATM   17  C   UNL     1     -10.970   2.707 -33.832  1.00  0.00     0.206 C 
HETATM   18  N   UNL     1     -11.930   1.771 -34.555  1.00  0.00    -0.066 N 
HETATM   19  H   UNL     1     -11.310   1.261 -35.220  1.00  0.00     0.280 HD
HETATM   20  C   UNL     1     -12.855   2.698 -35.315  1.00  0.00     0.235 C 
HETATM   21  C   UNL     1     -12.787   4.037 -34.583  1.00  0.00     0.030 C 
HETATM   22  C   UNL     1     -11.893   3.819 -33.372  1.00  0.00     0.036 C 
BRANCH  18  23
HETATM   23  C   UNL     1     -12.656   0.739 -33.731  1.00  0.00     0.231 C 
HETATM   24  C   UNL     1     -14.081   0.579 -34.234  1.00  0.00     0.034 C 
ENDBRANCH  18  23
ENDBRANCH  16  17
ENDBRANCH  13  16
ENDBRANCH   1  12
BRANCH   7  25
HETATM   25  C   UNL     1      -0.889   5.165 -32.075  1.00  0.00     0.236 C 
BRANCH  25  26
HETATM   26  C   UNL     1      -0.634   6.318 -31.092  1.00  0.00     0.240 C 
HETATM   27  N   UNL     1      -0.645   5.905 -29.768  1.00  0.00    -0.326 N 
HETATM   28  H   UNL     1      -0.853   4.930 -29.582  1.00  0.00     0.169 HD
HETATM   29  O   UNL     1      -0.497   7.473 -31.485  1.00  0.00    -0.271 OA
BRANCH  27  30
HETATM   30  C   UNL     1      -0.422   6.708 -28.627  1.00  0.00     0.036 A 
HETATM   31  C   UNL     1      -1.355   6.892 -27.605  1.00  0.00     0.053 A 
HETATM   32  C   UNL     1      -1.059   7.713 -26.509  1.00  0.00     0.042 A 
HETATM   33 CL   UNL     1      -2.276   7.904 -25.295  1.00  0.00    -0.084 Cl
HETATM   34  C   UNL     1       0.180   8.361 -26.408  1.00  0.00    -0.040 A 
HETATM   35  C   UNL     1       0.522   9.248 -25.245  1.00  0.00     0.050 C 
HETATM   36  C   UNL     1       1.110   8.177 -27.439  1.00  0.00     0.011 A 
HETATM   37  C   UNL     1       0.811   7.364 -28.537  1.00  0.00     0.030 A 
ENDBRANCH  27  30
ENDBRANCH  25  26
ENDBRANCH   7  25
TORSDOF 7
ENDMDL
MODEL 10
REMARK VINA RESULT:      -8.0      3.342      9.918
REMARK  7 active torsions:
REMARK  status: ('A' for Active; 'I' for Inactive)
REMARK    1  A    between atoms: C_2  and  N_3 
REMARK    2  A    between atoms: C_5  and  C_6 
REMARK    3  A    between atoms: C_6  and  N_7 
REMARK       I    between atoms: N_7  and  C_8 
REMARK    4  A    between atoms: C_8  and  C_9 
REMARK    5  A    between atoms: N_15  and  C_16 
REMARK    6  A    between atoms: C_16  and  C_17 
REMARK       I    between atoms: C_17  and  N_18 
REMARK    7  A    between atoms: N_18  and  C_19 
ROOT
HETATM    1  C   UNL     1      -2.991   5.265 -33.263  1.00  0.00     0.081 A 
HETATM    2  S   UNL     1      -4.189   5.679 -34.421  1.00  0.00    -0.063 SA
HETATM    3  C   UNL     1      -5.263   4.497 -33.853  1.00  0.00     0.116 A 
HETATM    4  C   UNL     1      -4.728   3.768 -32.815  1.00  0.00     0.075 A 
HETATM    5  C   UNL     1      -5.589   2.768 -32.192  1.00  0.00     0.262 A 
HETATM    6  O   UNL     1      -5.228   2.070 -31.249  1.00  0.00    -0.267 OA
HETATM    7  N   UNL     1      -6.866   2.691 -32.746  1.00  0.00    -0.299 N 
HETATM    8  C   UNL     1      -7.251   3.501 -33.797  1.00  0.00     0.214 A 
HETATM    9  N   UNL     1      -6.501   4.373 -34.389  1.00  0.00    -0.235 NA
HETATM   10  C   UNL     1      -3.373   4.163 -32.498  1.00  0.00    -0.021 A 
HETATM   11  C   UNL     1      -2.525   3.533 -31.436  1.00  0.00     0.051 C 
ENDROOT
BRANCH   1  12
HETATM   12  C   UNL     1      -1.758   6.043 -33.187  1.00  0.00     0.259 C 
HETATM   13  N   UNL     1      -1.617   6.833 -32.061  1.00  0.00    -0.354 N 
HETATM   14  H   UNL     1      -2.361   6.729 -31.374  1.00  0.00     0.162 HD
HETATM   15  O   UNL     1      -0.884   6.036 -34.054  1.00  0.00    -0.267 OA
BRANCH  13  16
HETATM   16  C   UNL     1      -0.400   7.493 -31.596  1.00  0.00     0.156 C 
BRANCH  16  17
HETATM   17  C   UNL     1       0.391   6.845 -30.447  1.00  0.00     0.206 C 
HETATM   18  N   UNL     1       0.043   7.330 -29.046  1.00  0.00    -0.066 N 
HETATM   19  H   UNL     1       0.539   8.244 -28.981  1.00  0.00     0.280 HD
HETATM   20  C   UNL     1       0.697   6.318 -28.127  1.00  0.00     0.235 C 
HETATM   21  C   UNL     1       0.868   5.053 -28.965  1.00  0.00     0.030 C 
HETATM   22  C   UNL     1       0.230   5.343 -30.315  1.00  0.00     0.036 C 
BRANCH  18  23
HETATM   23  C   UNL     1      -1.410   7.579 -28.732  1.00  0.00     0.231 C 
HETATM   24  C   UNL     1      -1.728   7.098 -27.326  1.00  0.00     0.034 C 
ENDBRANCH  18  23
ENDBRANCH  16  17
ENDBRANCH  13  16
ENDBRANCH   1  12
BRANCH   7  25
HETATM   25  C   UNL     1      -7.860   1.877 -32.064  1.00  0.00     0.236 C 
BRANCH  25  26
HETATM   26  C   UNL     1      -7.413   0.408 -32.098  1.00  0.00     0.240 C 
HETATM   27  N   UNL     1      -6.575   0.128 -33.167  1.00  0.00    -0.326 N 
HETATM   28  H   UNL     1      -6.380   0.879 -33.819  1.00  0.00     0.169 HD
HETATM   29  O   UNL     1      -7.826  -0.404 -31.275  1.00  0.00    -0.271 OA
BRANCH  27  30
HETATM   30  C   UNL     1      -5.974  -1.114 -33.471  1.00  0.00     0.036 A 
HETATM   31  C   UNL     1      -6.583  -2.112 -34.234  1.00  0.00     0.053 A 
HETATM   32  C   UNL     1      -5.921  -3.321 -34.485  1.00  0.00     0.042 A 
HETATM   33 CL   UNL     1      -6.752  -4.514 -35.422  1.00  0.00    -0.084 Cl
HETATM   34  C   UNL     1      -4.633  -3.555 -33.983  1.00  0.00    -0.040 A 
HETATM   35  C   UNL     1      -3.903  -4.843 -34.234  1.00  0.00     0.050 C 
HETATM   36  C   UNL     1      -4.030  -2.552 -33.214  1.00  0.00     0.011 A 
HETATM   37  C   UNL     1      -4.694  -1.348 -32.958  1.00  0.00     0.030 A 
ENDBRANCH  27  30
ENDBRANCH  25  26
ENDBRANCH   7  25
TORSDOF 7
ENDMDL
