MODEL 1
REMARK VINA RESULT:      -9.1      0.000      0.000
REMARK  6 active torsions:
REMARK  status: ('A' for Active; 'I' for Inactive)
REMARK    1  A    between atoms: C_4  and  C_5 
REMARK    2  A    between atoms: C_9  and  C_10 
REMARK       I    between atoms: C_10  and  N_11 
REMARK    3  A    between atoms: N_11  and  C_12 
REMARK    4  A    between atoms: C_12  and  C_13 
REMARK    5  A    between atoms: C_13  and  N_14 
REMARK    6  A    between atoms: C_13  and  C_18 
ROOT
HETATM    1  C   UNL     1      -8.041   0.226 -33.477  1.00  0.00     0.092 A 
HETATM    2  N   UNL     1      -7.869  -0.981 -34.059  1.00  0.00    -0.246 NA
HETATM    3  C   UNL     1      -6.665  -1.572 -34.008  1.00  0.00     0.069 A 
HETATM    4  C   UNL     1      -5.553  -0.998 -33.360  1.00  0.00     0.008 A 
HETATM    5  C   UNL     1      -5.786   0.241 -32.713  1.00  0.00     0.046 A 
HETATM    6  C   UNL     1      -7.030   0.868 -32.792  1.00  0.00     0.052 A 
HETATM    7  C   UNL     1      -6.522  -2.800 -34.637  1.00  0.00     0.032 A 
HETATM    8  C   UNL     1      -5.302  -3.477 -34.668  1.00  0.00     0.002 A 
HETATM    9  C   UNL     1      -4.187  -2.908 -34.072  1.00  0.00     0.001 A 
HETATM   10  C   UNL     1      -4.306  -1.675 -33.431  1.00  0.00     0.015 A 
ENDROOT
BRANCH   5  11
HETATM   11  C   UNL     1      -4.761   0.965 -31.922  1.00  0.00     0.252 C 
HETATM   12  N   UNL     1      -4.034   1.937 -32.569  1.00  0.00    -0.355 N 
HETATM   13  H   UNL     1      -4.278   2.127 -33.539  1.00  0.00     0.162 HD
HETATM   14  O   UNL     1      -4.483   0.611 -30.781  1.00  0.00    -0.268 OA
BRANCH  12  15
HETATM   15  C   UNL     1      -3.201   2.950 -31.907  1.00  0.00     0.161 C 
BRANCH  15  16
HETATM   16  C   UNL     1      -3.021   4.360 -32.576  1.00  0.00     0.237 C 
BRANCH  16  17
HETATM   17  N   UNL     1      -4.318   5.170 -32.551  1.00  0.00    -0.069 N 
HETATM   18  H   UNL     1      -3.960   6.137 -32.452  1.00  0.00     0.279 HD
HETATM   19  C   UNL     1      -5.161   5.113 -33.779  1.00  0.00     0.270 C 
HETATM   20  C   UNL     1      -5.125   4.966 -31.304  1.00  0.00     0.270 C 
ENDBRANCH  16  17
BRANCH  16  21
HETATM   21  C   UNL     1      -1.810   5.131 -32.070  1.00  0.00    -0.026 A 
HETATM   22  C   UNL     1      -1.459   6.345 -32.693  1.00  0.00     0.009 A 
HETATM   23  C   UNL     1      -0.375   7.098 -32.240  1.00  0.00     0.001 A 
HETATM   24  C   UNL     1       0.383   6.651 -31.163  1.00  0.00     0.000 A 
HETATM   25  C   UNL     1       0.055   5.452 -30.536  1.00  0.00     0.001 A 
HETATM   26  C   UNL     1      -1.035   4.699 -30.980  1.00  0.00     0.009 A 
ENDBRANCH  16  21
ENDBRANCH  15  16
ENDBRANCH  12  15
ENDBRANCH   5  11
BRANCH   1  27
HETATM   27  C   UNL     1      -9.371   0.799 -33.632  1.00  0.00     0.104 A 
HETATM   28  O   UNL     1      -9.464   1.961 -34.349  1.00  0.00    -0.313 OA
HETATM   29  C   UNL     1     -10.780   2.319 -34.372  1.00  0.00     0.050 A 
HETATM   30  C   UNL     1     -11.121   3.560 -35.094  1.00  0.00     0.076 C 
HETATM   31  C   UNL     1     -11.534   1.396 -33.681  1.00  0.00     0.035 A 
HETATM   32  C   UNL     1     -10.627   0.422 -33.200  1.00  0.00     0.042 A 
ENDBRANCH   1  27
TORSDOF 6
ENDMDL
MODEL 2
REMARK VINA RESULT:      -9.1      1.244      3.168
REMARK  6 active torsions:
REMARK  status: ('A' for Active; 'I' for Inactive)
REMARK    1  A    between atoms: C_4  and  C_5 
REMARK    2  A    between atoms: C_9  and  C_10 
REMARK       I    between atoms: C_10  and  N_11 
REMARK    3  A    between atoms: N_11  and  C_12 
REMARK    4  A    between atoms: C_12  and  C_13 
REMARK    5  A    between atoms: C_13  and  N_14 
REMARK    6  A    between atoms: C_13  and  C_18 
ROOT
HETATM    1  C   UNL     1      -7.961   0.011 -33.481  1.00  0.00     0.092 A 
HETATM    2  N   UNL     1      -7.861  -1.182 -34.105  1.00  0.00    -0.246 NA
HETATM    3  C   UNL     1      -6.695  -1.847 -34.075  1.00  0.00     0.069 A 
HETATM    4  C   UNL     1      -5.552  -1.365 -33.405  1.00  0.00     0.008 A 
HETATM    5  C   UNL     1      -5.712  -0.138 -32.714  1.00  0.00     0.046 A 
HETATM    6  C   UNL     1      -6.916   0.565 -32.772  1.00  0.00     0.052 A 
HETATM    7  C   UNL     1      -6.624  -3.058 -34.748  1.00  0.00     0.032 A 
HETATM    8  C   UNL     1      -5.448  -3.806 -34.802  1.00  0.00     0.002 A 
HETATM    9  C   UNL     1      -4.302  -3.327 -34.185  1.00  0.00     0.001 A 
HETATM   10  C   UNL     1      -4.348  -2.113 -33.499  1.00  0.00     0.015 A 
ENDROOT
BRANCH   5  11
HETATM   11  C   UNL     1      -4.647   0.493 -31.897  1.00  0.00     0.252 C 
HETATM   12  N   UNL     1      -4.032   1.610 -32.413  1.00  0.00    -0.355 N 
HETATM   13  H   UNL     1      -4.379   1.956 -33.306  1.00  0.00     0.162 HD
HETATM   14  O   UNL     1      -4.243  -0.043 -30.871  1.00  0.00    -0.268 OA
BRANCH  12  15
HETATM   15  C   UNL     1      -3.184   2.536 -31.651  1.00  0.00     0.161 C 
BRANCH  15  16
HETATM   16  C   UNL     1      -3.804   3.867 -31.091  1.00  0.00     0.237 C 
BRANCH  16  17
HETATM   17  N   UNL     1      -3.211   5.101 -31.774  1.00  0.00    -0.069 N 
HETATM   18  H   UNL     1      -4.015   5.439 -32.333  1.00  0.00     0.279 HD
HETATM   19  C   UNL     1      -2.771   6.209 -30.880  1.00  0.00     0.270 C 
HETATM   20  C   UNL     1      -2.179   4.771 -32.811  1.00  0.00     0.270 C 
ENDBRANCH  16  17
BRANCH  16  21
HETATM   21  C   UNL     1      -5.325   3.866 -31.046  1.00  0.00    -0.026 A 
HETATM   22  C   UNL     1      -6.044   4.375 -32.145  1.00  0.00     0.009 A 
HETATM   23  C   UNL     1      -7.439   4.365 -32.159  1.00  0.00     0.001 A 
HETATM   24  C   UNL     1      -8.142   3.852 -31.074  1.00  0.00     0.000 A 
HETATM   25  C   UNL     1      -7.451   3.347 -29.976  1.00  0.00     0.001 A 
HETATM   26  C   UNL     1      -6.053   3.348 -29.962  1.00  0.00     0.009 A 
ENDBRANCH  16  21
ENDBRANCH  15  16
ENDBRANCH  12  15
ENDBRANCH   5  11
BRANCH   1  27
HETATM   27  C   UNL     1      -9.254   0.668 -33.616  1.00  0.00     0.104 A 
HETATM   28  O   UNL     1      -9.273   1.860 -34.289  1.00  0.00    -0.313 OA
HETATM   29  C   UNL     1     -10.566   2.298 -34.300  1.00  0.00     0.050 A 
HETATM   30  C   UNL     1     -10.828   3.584 -34.975  1.00  0.00     0.076 C 
HETATM   31  C   UNL     1     -11.376   1.397 -33.646  1.00  0.00     0.035 A 
HETATM   32  C   UNL     1     -10.532   0.352 -33.202  1.00  0.00     0.042 A 
ENDBRANCH   1  27
TORSDOF 6
ENDMDL
MODEL 3
REMARK VINA RESULT:      -9.0      1.663      4.595
REMARK  6 active torsions:
REMARK  status: ('A' for Active; 'I' for Inactive)
REMARK    1  A    between atoms: C_4  and  C_5 
REMARK    2  A    between atoms: C_9  and  C_10 
REMARK       I    between atoms: C_10  and  N_11 
REMARK    3  A    between atoms: N_11  and  C_12 
REMARK    4  A    between atoms: C_12  and  C_13 
REMARK    5  A    between atoms: C_13  and  N_14 
REMARK    6  A    between atoms: C_13  and  C_18 
ROOT
HETATM    1  C   UNL     1      -6.374  -1.094 -33.812  1.00  0.00     0.092 A 
HETATM    2  N   UNL     1      -7.558  -0.660 -34.296  1.00  0.00    -0.246 NA
HETATM    3  C   UNL     1      -7.994   0.567 -33.970  1.00  0.00     0.069 A 
HETATM    4  C   UNL     1      -7.267   1.448 -33.144  1.00  0.00     0.008 A 
HETATM    5  C   UNL     1      -6.005   0.980 -32.703  1.00  0.00     0.046 A 
HETATM    6  C   UNL     1      -5.566  -0.307 -33.018  1.00  0.00     0.052 A 
HETATM    7  C   UNL     1      -9.226   0.968 -34.468  1.00  0.00     0.032 A 
HETATM    8  C   UNL     1      -9.779   2.211 -34.158  1.00  0.00     0.002 A 
HETATM    9  C   UNL     1      -9.097   3.073 -33.313  1.00  0.00     0.001 A 
HETATM   10  C   UNL     1      -7.855   2.695 -32.801  1.00  0.00     0.015 A 
ENDROOT
BRANCH   5  11
HETATM   11  C   UNL     1      -5.065   1.786 -31.885  1.00  0.00     0.252 C 
HETATM   12  N   UNL     1      -4.259   2.682 -32.548  1.00  0.00    -0.355 N 
HETATM   13  H   UNL     1      -4.390   2.763 -33.554  1.00  0.00     0.162 HD
HETATM   14  O   UNL     1      -4.922   1.561 -30.688  1.00  0.00    -0.268 OA
BRANCH  12  15
HETATM   15  C   UNL     1      -3.492   3.762 -31.911  1.00  0.00     0.161 C 
BRANCH  15  16
HETATM   16  C   UNL     1      -2.210   4.323 -32.625  1.00  0.00     0.237 C 
BRANCH  16  17
HETATM   17  N   UNL     1      -2.511   4.785 -34.051  1.00  0.00    -0.069 N 
HETATM   18  H   UNL     1      -2.667   3.883 -34.536  1.00  0.00     0.279 HD
HETATM   19  C   UNL     1      -3.729   5.624 -34.235  1.00  0.00     0.270 C 
HETATM   20  C   UNL     1      -1.320   5.360 -34.758  1.00  0.00     0.270 C 
ENDBRANCH  16  17
BRANCH  16  21
HETATM   21  C   UNL     1      -1.447   5.349 -31.799  1.00  0.00    -0.026 A 
HETATM   22  C   UNL     1      -0.074   5.150 -31.555  1.00  0.00     0.009 A 
HETATM   23  C   UNL     1       0.670   6.081 -30.829  1.00  0.00     0.001 A 
HETATM   24  C   UNL     1       0.056   7.224 -30.327  1.00  0.00     0.000 A 
HETATM   25  C   UNL     1      -1.301   7.438 -30.553  1.00  0.00     0.001 A 
HETATM   26  C   UNL     1      -2.048   6.512 -31.288  1.00  0.00     0.009 A 
ENDBRANCH  16  21
ENDBRANCH  15  16
ENDBRANCH  12  15
ENDBRANCH   5  11
BRANCH   1  27
HETATM   27  C   UNL     1      -6.019  -2.455 -34.189  1.00  0.00     0.104 A 
HETATM   28  O   UNL     1      -4.773  -2.890 -33.827  1.00  0.00    -0.313 OA
HETATM   29  C   UNL     1      -4.647  -4.174 -34.271  1.00  0.00     0.050 A 
HETATM   30  C   UNL     1      -3.366  -4.853 -33.995  1.00  0.00     0.076 C 
HETATM   31  C   UNL     1      -5.802  -4.569 -34.910  1.00  0.00     0.035 A 
HETATM   32  C   UNL     1      -6.681  -3.462 -34.862  1.00  0.00     0.042 A 
ENDBRANCH   1  27
TORSDOF 6
ENDMDL
MODEL 4
REMARK VINA RESULT:      -8.8      2.180      7.866
REMARK  6 active torsions:
REMARK  status: ('A' for Active; 'I' for Inactive)
REMARK    1  A    between atoms: C_4  and  C_5 
REMARK    2  A    between atoms: C_9  and  C_10 
REMARK       I    between atoms: C_10  and  N_11 
REMARK    3  A    between atoms: N_11  and  C_12 
REMARK    4  A    between atoms: C_12  and  C_13 
REMARK    5  A    between atoms: C_13  and  N_14 
REMARK    6  A    between atoms: C_13  and  C_18 
ROOT
HETATM    1  C   UNL     1      -3.045   4.213 -31.638  1.00  0.00     0.092 A 
HETATM    2  N   UNL     1      -2.644   2.941 -31.427  1.00  0.00    -0.246 NA
HETATM    3  C   UNL     1      -3.556   1.956 -31.411  1.00  0.00     0.069 A 
HETATM    4  C   UNL     1      -4.933   2.178 -31.618  1.00  0.00     0.008 A 
HETATM    5  C   UNL     1      -5.308   3.516 -31.894  1.00  0.00     0.046 A 
HETATM    6  C   UNL     1      -4.363   4.543 -31.881  1.00  0.00     0.052 A 
HETATM    7  C   UNL     1      -3.108   0.665 -31.166  1.00  0.00     0.032 A 
HETATM    8  C   UNL     1      -3.983  -0.420 -31.097  1.00  0.00     0.002 A 
HETATM    9  C   UNL     1      -5.345  -0.214 -31.257  1.00  0.00     0.001 A 
HETATM   10  C   UNL     1      -5.820   1.074 -31.506  1.00  0.00     0.015 A 
ENDROOT
BRANCH   5  11
HETATM   11  C   UNL     1      -6.695   3.936 -32.206  1.00  0.00     0.252 C 
HETATM   12  N   UNL     1      -7.180   3.638 -33.459  1.00  0.00    -0.355 N 
HETATM   13  H   UNL     1      -6.567   3.108 -34.076  1.00  0.00     0.162 HD
HETATM   14  O   UNL     1      -7.329   4.640 -31.427  1.00  0.00    -0.268 OA
BRANCH  12  15
HETATM   15  C   UNL     1      -8.593   3.698 -33.855  1.00  0.00     0.161 C 
BRANCH  15  16
HETATM   16  C   UNL     1      -9.439   2.374 -33.906  1.00  0.00     0.237 C 
BRANCH  16  17
HETATM   17  N   UNL     1     -10.602   2.482 -34.893  1.00  0.00    -0.069 N 
HETATM   18  H   UNL     1     -10.207   2.021 -35.733  1.00  0.00     0.279 HD
HETATM   19  C   UNL     1     -11.857   1.769 -34.522  1.00  0.00     0.270 C 
HETATM   20  C   UNL     1     -10.866   3.884 -35.355  1.00  0.00     0.270 C 
ENDBRANCH  16  17
BRANCH  16  21
HETATM   21  C   UNL     1      -8.600   1.117 -34.083  1.00  0.00    -0.026 A 
HETATM   22  C   UNL     1      -7.587   1.100 -35.061  1.00  0.00     0.009 A 
HETATM   23  C   UNL     1      -6.775  -0.021 -35.237  1.00  0.00     0.001 A 
HETATM   24  C   UNL     1      -6.964  -1.149 -34.445  1.00  0.00     0.000 A 
HETATM   25  C   UNL     1      -7.963  -1.154 -33.474  1.00  0.00     0.001 A 
HETATM   26  C   UNL     1      -8.772  -0.030 -33.290  1.00  0.00     0.009 A 
ENDBRANCH  16  21
ENDBRANCH  15  16
ENDBRANCH  12  15
ENDBRANCH   5  11
BRANCH   1  27
HETATM   27  C   UNL     1      -1.983   5.208 -31.589  1.00  0.00     0.104 A 
HETATM   28  O   UNL     1      -1.864   5.927 -30.430  1.00  0.00    -0.313 OA
HETATM   29  C   UNL     1      -0.821   6.790 -30.594  1.00  0.00     0.050 A 
HETATM   30  C   UNL     1      -0.508   7.681 -29.460  1.00  0.00     0.076 C 
HETATM   31  C   UNL     1      -0.266   6.630 -31.845  1.00  0.00     0.035 A 
HETATM   32  C   UNL     1      -1.017   5.617 -32.486  1.00  0.00     0.042 A 
ENDBRANCH   1  27
TORSDOF 6
ENDMDL
MODEL 5
REMARK VINA RESULT:      -8.7      2.015      7.637
REMARK  6 active torsions:
REMARK  status: ('A' for Active; 'I' for Inactive)
REMARK    1  A    between atoms: C_4  and  C_5 
REMARK    2  A    between atoms: C_9  and  C_10 
REMARK       I    between atoms: C_10  and  N_11 
REMARK    3  A    between atoms: N_11  and  C_12 
REMARK    4  A    between atoms: C_12  and  C_13 
REMARK    5  A    between atoms: C_13  and  N_14 
REMARK    6  A    between atoms: C_13  and  C_18 
ROOT
HETATM    1  C   UNL     1      -3.984   1.738 -32.377  1.00  0.00     0.092 A 
HETATM    2  N   UNL     1      -2.891   2.531 -32.335  1.00  0.00    -0.246 NA
HETATM    3  C   UNL     1      -3.036   3.861 -32.432  1.00  0.00     0.069 A 
HETATM    4  C   UNL     1      -4.291   4.491 -32.566  1.00  0.00     0.008 A 
HETATM    5  C   UNL     1      -5.417   3.632 -32.548  1.00  0.00     0.046 A 
HETATM    6  C   UNL     1      -5.262   2.247 -32.477  1.00  0.00     0.052 A 
HETATM    7  C   UNL     1      -1.888   4.640 -32.410  1.00  0.00     0.032 A 
HETATM    8  C   UNL     1      -1.934   6.029 -32.538  1.00  0.00     0.002 A 
HETATM    9  C   UNL     1      -3.156   6.661 -32.713  1.00  0.00     0.001 A 
HETATM   10  C   UNL     1      -4.326   5.901 -32.736  1.00  0.00     0.015 A 
ENDROOT
BRANCH   5  11
HETATM   11  C   UNL     1      -6.820   4.110 -32.607  1.00  0.00     0.252 C 
HETATM   12  N   UNL     1      -7.474   4.004 -33.813  1.00  0.00    -0.355 N 
HETATM   13  H   UNL     1      -6.965   3.564 -34.576  1.00  0.00     0.162 HD
HETATM   14  O   UNL     1      -7.323   4.699 -31.656  1.00  0.00    -0.268 OA
BRANCH  12  15
HETATM   15  C   UNL     1      -8.925   4.140 -34.002  1.00  0.00     0.161 C 
BRANCH  15  16
HETATM   16  C   UNL     1      -9.832   2.857 -33.964  1.00  0.00     0.237 C 
BRANCH  16  17
HETATM   17  N   UNL     1     -10.825   2.829 -35.127  1.00  0.00    -0.069 N 
HETATM   18  H   UNL     1     -10.239   2.450 -35.894  1.00  0.00     0.279 HD
HETATM   19  C   UNL     1     -12.010   1.941 -34.968  1.00  0.00     0.270 C 
HETATM   20  C   UNL     1     -11.205   4.194 -35.620  1.00  0.00     0.270 C 
ENDBRANCH  16  17
BRANCH  16  21
HETATM   21  C   UNL     1      -9.054   1.560 -33.794  1.00  0.00    -0.026 A 
HETATM   22  C   UNL     1      -8.475   0.953 -34.926  1.00  0.00     0.009 A 
HETATM   23  C   UNL     1      -7.728  -0.220 -34.810  1.00  0.00     0.001 A 
HETATM   24  C   UNL     1      -7.551  -0.813 -33.565  1.00  0.00     0.000 A 
HETATM   25  C   UNL     1      -8.118  -0.232 -32.434  1.00  0.00     0.001 A 
HETATM   26  C   UNL     1      -8.859   0.948 -32.544  1.00  0.00     0.009 A 
ENDBRANCH  16  21
ENDBRANCH  15  16
ENDBRANCH  12  15
ENDBRANCH   5  11
BRANCH   1  27
HETATM   27  C   UNL     1      -3.709   0.310 -32.311  1.00  0.00     0.104 A 
HETATM   28  O   UNL     1      -4.257  -0.470 -33.293  1.00  0.00    -0.313 OA
HETATM   29  C   UNL     1      -3.880  -1.758 -33.045  1.00  0.00     0.050 A 
HETATM   30  C   UNL     1      -4.366  -2.787 -33.985  1.00  0.00     0.076 C 
HETATM   31  C   UNL     1      -3.092  -1.812 -31.917  1.00  0.00     0.035 A 
HETATM   32  C   UNL     1      -2.987  -0.483 -31.442  1.00  0.00     0.042 A 
ENDBRANCH   1  27
TORSDOF 6
ENDMDL
MODEL 6
REMARK VINA RESULT:      -8.6      2.810      8.537
REMARK  6 active torsions:
REMARK  status: ('A' for Active; 'I' for Inactive)
REMARK    1  A    between atoms: C_4  and  C_5 
REMARK    2  A    between atoms: C_9  and  C_10 
REMARK       I    between atoms: C_10  and  N_11 
REMARK    3  A    between atoms: N_11  and  C_12 
REMARK    4  A    between atoms: C_12  and  C_13 
REMARK    5  A    between atoms: C_13  and  N_14 
REMARK    6  A    between atoms: C_13  and  C_18 
ROOT
HETATM    1  C   UNL     1      -6.181  -0.964 -33.723  1.00  0.00     0.092 A 
HETATM    2  N   UNL     1      -5.112  -0.261 -33.290  1.00  0.00    -0.246 NA
HETATM    3  C   UNL     1      -5.269   1.021 -32.926  1.00  0.00     0.069 A 
HETATM    4  C   UNL     1      -6.513   1.684 -32.960  1.00  0.00     0.008 A 
HETATM    5  C   UNL     1      -7.620   0.899 -33.364  1.00  0.00     0.046 A 
HETATM    6  C   UNL     1      -7.450  -0.425 -33.770  1.00  0.00     0.052 A 
HETATM    7  C   UNL     1      -4.143   1.717 -32.510  1.00  0.00     0.032 A 
HETATM    8  C   UNL     1      -4.198   3.062 -32.144  1.00  0.00     0.002 A 
HETATM    9  C   UNL     1      -5.405   3.741 -32.212  1.00  0.00     0.001 A 
HETATM   10  C   UNL     1      -6.553   3.064 -32.624  1.00  0.00     0.015 A 
ENDROOT
BRANCH   5  11
HETATM   11  C   UNL     1      -9.017   1.398 -33.398  1.00  0.00     0.252 C 
HETATM   12  N   UNL     1      -9.407   2.112 -34.507  1.00  0.00    -0.355 N 
HETATM   13  H   UNL     1      -8.722   2.214 -35.253  1.00  0.00     0.162 HD
HETATM   14  O   UNL     1      -9.744   1.293 -32.416  1.00  0.00    -0.268 OA
BRANCH  12  15
HETATM   15  C   UNL     1     -10.797   2.428 -34.862  1.00  0.00     0.161 C 
BRANCH  15  16
HETATM   16  C   UNL     1     -11.619   3.416 -33.958  1.00  0.00     0.237 C 
BRANCH  16  17
HETATM   17  N   UNL     1     -11.710   4.811 -34.579  1.00  0.00    -0.069 N 
HETATM   18  H   UNL     1     -12.086   5.368 -33.790  1.00  0.00     0.279 HD
HETATM   19  C   UNL     1     -10.426   5.431 -35.011  1.00  0.00     0.270 C 
HETATM   20  C   UNL     1     -12.774   4.929 -35.630  1.00  0.00     0.270 C 
ENDBRANCH  16  17
BRANCH  16  21
HETATM   21  C   UNL     1     -12.962   2.861 -33.504  1.00  0.00    -0.026 A 
HETATM   22  C   UNL     1     -13.527   1.777 -34.203  1.00  0.00     0.009 A 
HETATM   23  C   UNL     1     -14.741   1.217 -33.802  1.00  0.00     0.001 A 
HETATM   24  C   UNL     1     -15.416   1.734 -32.701  1.00  0.00     0.000 A 
HETATM   25  C   UNL     1     -14.876   2.808 -31.999  1.00  0.00     0.001 A 
HETATM   26  C   UNL     1     -13.656   3.365 -32.392  1.00  0.00     0.009 A 
ENDBRANCH  16  21
ENDBRANCH  15  16
ENDBRANCH  12  15
ENDBRANCH   5  11
BRANCH   1  27
HETATM   27  C   UNL     1      -5.892  -2.330 -34.136  1.00  0.00     0.104 A 
HETATM   28  O   UNL     1      -4.670  -2.836 -33.782  1.00  0.00    -0.313 OA
HETATM   29  C   UNL     1      -4.607  -4.112 -34.262  1.00  0.00     0.050 A 
HETATM   30  C   UNL     1      -3.362  -4.861 -34.001  1.00  0.00     0.076 C 
HETATM   31  C   UNL     1      -5.776  -4.431 -34.916  1.00  0.00     0.035 A 
HETATM   32  C   UNL     1      -6.600  -3.283 -34.840  1.00  0.00     0.042 A 
ENDBRANCH   1  27
TORSDOF 6
ENDMDL
MODEL 7
REMARK VINA RESULT:      -8.6      1.912      4.796
REMARK  6 active torsions:
REMARK  status: ('A' for Active; 'I' for Inactive)
REMARK    1  A    between atoms: C_4  and  C_5 
REMARK    2  A    between atoms: C_9  and  C_10 
REMARK       I    between atoms: C_10  and  N_11 
REMARK    3  A    between atoms: N_11  and  C_12 
REMARK    4  A    between atoms: C_12  and  C_13 
REMARK    5  A    between atoms: C_13  and  N_14 
REMARK    6  A    between atoms: C_13  and  C_18 
ROOT
HETATM    1  C   UNL     1      -6.255   0.484 -33.805  1.00  0.00     0.092 A 
HETATM    2  N   UNL     1      -7.585   0.396 -34.027  1.00  0.00    -0.246 NA
HETATM    3  C   UNL     1      -8.333   1.510 -34.007  1.00  0.00     0.069 A 
HETATM    4  C   UNL     1      -7.797   2.793 -33.773  1.00  0.00     0.008 A 
HETATM    5  C   UNL     1      -6.392   2.853 -33.601  1.00  0.00     0.046 A 
HETATM    6  C   UNL     1      -5.620   1.690 -33.594  1.00  0.00     0.052 A 
HETATM    7  C   UNL     1      -9.698   1.375 -34.215  1.00  0.00     0.032 A 
HETATM    8  C   UNL     1     -10.562   2.469 -34.180  1.00  0.00     0.002 A 
HETATM    9  C   UNL     1     -10.059   3.733 -33.909  1.00  0.00     0.001 A 
HETATM   10  C   UNL     1      -8.689   3.895 -33.698  1.00  0.00     0.015 A 
ENDROOT
BRANCH   5  11
HETATM   11  C   UNL     1      -5.637   4.116 -33.414  1.00  0.00     0.252 C 
HETATM   12  N   UNL     1      -5.131   4.371 -32.161  1.00  0.00    -0.355 N 
HETATM   13  H   UNL     1      -5.272   3.653 -31.453  1.00  0.00     0.162 HD
HETATM   14  O   UNL     1      -5.588   4.956 -34.307  1.00  0.00    -0.268 OA
BRANCH  12  15
HETATM   15  C   UNL     1      -4.124   5.394 -31.847  1.00  0.00     0.161 C 
BRANCH  15  16
HETATM   16  C   UNL     1      -2.674   5.257 -32.437  1.00  0.00     0.237 C 
BRANCH  16  17
HETATM   17  N   UNL     1      -2.556   5.923 -33.809  1.00  0.00    -0.069 N 
HETATM   18  H   UNL     1      -3.551   6.064 -34.061  1.00  0.00     0.279 HD
HETATM   19  C   UNL     1      -1.877   7.249 -33.849  1.00  0.00     0.270 C 
HETATM   20  C   UNL     1      -2.052   5.000 -34.880  1.00  0.00     0.270 C 
ENDBRANCH  16  17
BRANCH  16  21
HETATM   21  C   UNL     1      -1.575   5.661 -31.465  1.00  0.00    -0.026 A 
HETATM   22  C   UNL     1      -1.892   6.503 -30.382  1.00  0.00     0.009 A 
HETATM   23  C   UNL     1      -0.921   6.873 -29.450  1.00  0.00     0.001 A 
HETATM   24  C   UNL     1       0.385   6.414 -29.586  1.00  0.00     0.000 A 
HETATM   25  C   UNL     1       0.720   5.584 -30.652  1.00  0.00     0.001 A 
HETATM   26  C   UNL     1      -0.251   5.204 -31.582  1.00  0.00     0.009 A 
ENDBRANCH  16  21
ENDBRANCH  15  16
ENDBRANCH  12  15
ENDBRANCH   5  11
BRANCH   1  27
HETATM   27  C   UNL     1      -5.547  -0.788 -33.803  1.00  0.00     0.104 A 
HETATM   28  O   UNL     1      -6.146  -1.830 -34.459  1.00  0.00    -0.313 OA
HETATM   29  C   UNL     1      -5.325  -2.912 -34.336  1.00  0.00     0.050 A 
HETATM   30  C   UNL     1      -5.777  -4.167 -34.968  1.00  0.00     0.076 C 
HETATM   31  C   UNL     1      -4.202  -2.575 -33.613  1.00  0.00     0.035 A 
HETATM   32  C   UNL     1      -4.348  -1.211 -33.266  1.00  0.00     0.042 A 
ENDBRANCH   1  27
TORSDOF 6
ENDMDL
MODEL 8
REMARK VINA RESULT:      -8.6      2.249      8.183
REMARK  6 active torsions:
REMARK  status: ('A' for Active; 'I' for Inactive)
REMARK    1  A    between atoms: C_4  and  C_5 
REMARK    2  A    between atoms: C_9  and  C_10 
REMARK       I    between atoms: C_10  and  N_11 
REMARK    3  A    between atoms: N_11  and  C_12 
REMARK    4  A    between atoms: C_12  and  C_13 
REMARK    5  A    between atoms: C_13  and  N_14 
REMARK    6  A    between atoms: C_13  and  C_18 
ROOT
HETATM    1  C   UNL     1      -5.354   1.146 -32.819  1.00  0.00     0.092 A 
HETATM    2  N   UNL     1      -4.659   0.081 -33.274  1.00  0.00    -0.246 NA
HETATM    3  C   UNL     1      -5.321  -0.980 -33.762  1.00  0.00     0.069 A 
HETATM    4  C   UNL     1      -6.727  -1.041 -33.838  1.00  0.00     0.008 A 
HETATM    5  C   UNL     1      -7.420   0.117 -33.405  1.00  0.00     0.046 A 
HETATM    6  C   UNL     1      -6.732   1.207 -32.870  1.00  0.00     0.052 A 
HETATM    7  C   UNL     1      -4.572  -2.064 -34.198  1.00  0.00     0.032 A 
HETATM    8  C   UNL     1      -5.170  -3.224 -34.690  1.00  0.00     0.002 A 
HETATM    9  C   UNL     1      -6.552  -3.318 -34.733  1.00  0.00     0.001 A 
HETATM   10  C   UNL     1      -7.328  -2.241 -34.303  1.00  0.00     0.015 A 
ENDROOT
BRANCH   5  11
HETATM   11  C   UNL     1      -8.894   0.270 -33.472  1.00  0.00     0.252 C 
HETATM   12  N   UNL     1      -9.389   1.300 -34.237  1.00  0.00    -0.355 N 
HETATM   13  H   UNL     1      -8.710   1.866 -34.743  1.00  0.00     0.162 HD
HETATM   14  O   UNL     1      -9.628  -0.411 -32.764  1.00  0.00    -0.268 OA
BRANCH  12  15
HETATM   15  C   UNL     1     -10.787   1.439 -34.666  1.00  0.00     0.161 C 
BRANCH  15  16
HETATM   16  C   UNL     1     -11.614   2.696 -34.212  1.00  0.00     0.237 C 
BRANCH  16  17
HETATM   17  N   UNL     1     -11.593   3.800 -35.270  1.00  0.00    -0.069 N 
HETATM   18  H   UNL     1     -11.447   3.255 -36.140  1.00  0.00     0.279 HD
HETATM   19  C   UNL     1     -12.845   4.593 -35.427  1.00  0.00     0.270 C 
HETATM   20  C   UNL     1     -10.378   4.675 -35.198  1.00  0.00     0.270 C 
ENDBRANCH  16  17
BRANCH  16  21
HETATM   21  C   UNL     1     -13.009   2.362 -33.703  1.00  0.00    -0.026 A 
HETATM   22  C   UNL     1     -13.515   3.055 -32.587  1.00  0.00     0.009 A 
HETATM   23  C   UNL     1     -14.801   2.802 -32.107  1.00  0.00     0.001 A 
HETATM   24  C   UNL     1     -15.602   1.849 -32.728  1.00  0.00     0.000 A 
HETATM   25  C   UNL     1     -15.118   1.151 -33.831  1.00  0.00     0.001 A 
HETATM   26  C   UNL     1     -13.835   1.407 -34.320  1.00  0.00     0.009 A 
ENDBRANCH  16  21
ENDBRANCH  15  16
ENDBRANCH  12  15
ENDBRANCH   5  11
BRANCH   1  27
HETATM   27  C   UNL     1      -4.541   2.221 -32.268  1.00  0.00     0.104 A 
HETATM   28  O   UNL     1      -5.205   3.228 -31.621  1.00  0.00    -0.313 OA
HETATM   29  C   UNL     1      -4.266   4.119 -31.189  1.00  0.00     0.050 A 
HETATM   30  C   UNL     1      -4.759   5.305 -30.461  1.00  0.00     0.076 C 
HETATM   31  C   UNL     1      -3.007   3.691 -31.546  1.00  0.00     0.035 A 
HETATM   32  C   UNL     1      -3.184   2.474 -32.245  1.00  0.00     0.042 A 
ENDBRANCH   1  27
TORSDOF 6
ENDMDL
MODEL 9
REMARK VINA RESULT:      -8.4      2.046      4.821
REMARK  6 active torsions:
REMARK  status: ('A' for Active; 'I' for Inactive)
REMARK    1  A    between atoms: C_4  and  C_5 
REMARK    2  A    between atoms: C_9  and  C_10 
REMARK       I    between atoms: C_10  and  N_11 
REMARK    3  A    between atoms: N_11  and  C_12 
REMARK    4  A    between atoms: C_12  and  C_13 
REMARK    5  A    between atoms: C_13  and  N_14 
REMARK    6  A    between atoms: C_13  and  C_18 
ROOT
HETATM    1  C   UNL     1      -6.711  -0.556 -33.215  1.00  0.00     0.092 A 
HETATM    2  N   UNL     1      -7.908  -0.310 -33.792  1.00  0.00    -0.246 NA
HETATM    3  C   UNL     1      -8.677   0.683 -33.319  1.00  0.00     0.069 A 
HETATM    4  C   UNL     1      -8.293   1.507 -32.241  1.00  0.00     0.008 A 
HETATM    5  C   UNL     1      -7.008   1.256 -31.699  1.00  0.00     0.046 A 
HETATM    6  C   UNL     1      -6.223   0.204 -32.173  1.00  0.00     0.052 A 
HETATM    7  C   UNL     1      -9.909   0.889 -33.922  1.00  0.00     0.032 A 
HETATM    8  C   UNL     1     -10.792   1.874 -33.480  1.00  0.00     0.002 A 
HETATM    9  C   UNL     1     -10.450   2.666 -32.395  1.00  0.00     0.001 A 
HETATM   10  C   UNL     1      -9.215   2.480 -31.772  1.00  0.00     0.015 A 
ENDROOT
BRANCH   5  11
HETATM   11  C   UNL     1      -6.401   2.059 -30.610  1.00  0.00     0.252 C 
HETATM   12  N   UNL     1      -5.978   3.331 -30.922  1.00  0.00    -0.355 N 
HETATM   13  H   UNL     1      -6.150   3.653 -31.872  1.00  0.00     0.162 HD
HETATM   14  O   UNL     1      -6.163   1.556 -29.517  1.00  0.00    -0.268 OA
BRANCH  12  15
HETATM   15  C   UNL     1      -5.633   4.371 -29.943  1.00  0.00     0.161 C 
BRANCH  15  16
HETATM   16  C   UNL     1      -4.820   5.632 -30.410  1.00  0.00     0.237 C 
BRANCH  16  17
HETATM   17  N   UNL     1      -4.095   6.303 -29.243  1.00  0.00    -0.069 N 
HETATM   18  H   UNL     1      -3.321   5.637 -29.065  1.00  0.00     0.279 HD
HETATM   19  C   UNL     1      -3.498   7.642 -29.513  1.00  0.00     0.270 C 
HETATM   20  C   UNL     1      -4.875   6.282 -27.963  1.00  0.00     0.270 C 
ENDBRANCH  16  17
BRANCH  16  21
HETATM   21  C   UNL     1      -3.929   5.376 -31.617  1.00  0.00    -0.026 A 
HETATM   22  C   UNL     1      -4.322   5.868 -32.877  1.00  0.00     0.009 A 
HETATM   23  C   UNL     1      -3.520   5.682 -34.004  1.00  0.00     0.001 A 
HETATM   24  C   UNL     1      -2.315   4.996 -33.895  1.00  0.00     0.000 A 
HETATM   25  C   UNL     1      -1.909   4.499 -32.660  1.00  0.00     0.001 A 
HETATM   26  C   UNL     1      -2.706   4.691 -31.527  1.00  0.00     0.009 A 
ENDBRANCH  16  21
ENDBRANCH  15  16
ENDBRANCH  12  15
ENDBRANCH   5  11
BRANCH   1  27
HETATM   27  C   UNL     1      -5.980  -1.684 -33.775  1.00  0.00     0.104 A 
HETATM   28  O   UNL     1      -6.719  -2.642 -34.416  1.00  0.00    -0.313 OA
HETATM   29  C   UNL     1      -5.849  -3.595 -34.859  1.00  0.00     0.050 A 
HETATM   30  C   UNL     1      -6.430  -4.743 -35.583  1.00  0.00     0.076 C 
HETATM   31  C   UNL     1      -4.559  -3.257 -34.513  1.00  0.00     0.035 A 
HETATM   32  C   UNL     1      -4.645  -2.031 -33.811  1.00  0.00     0.042 A 
ENDBRANCH   1  27
TORSDOF 6
ENDMDL
MODEL 10
REMARK VINA RESULT:      -8.4      2.409      3.946
REMARK  6 active torsions:
REMARK  status: ('A' for Active; 'I' for Inactive)
REMARK    1  A    between atoms: C_4  and  C_5 
REMARK    2  A    between atoms: C_9  and  C_10 
REMARK       I    between atoms: C_10  and  N_11 
REMARK    3  A    between atoms: N_11  and  C_12 
REMARK    4  A    between atoms: C_12  and  C_13 
REMARK    5  A    between atoms: C_13  and  N_14 
REMARK    6  A    between atoms: C_13  and  C_18 
ROOT
HETATM    1  C   UNL     1     -10.115   1.679 -33.896  1.00  0.00     0.092 A 
HETATM    2  N   UNL     1      -9.615   0.429 -34.003  1.00  0.00    -0.246 NA
HETATM    3  C   UNL     1      -8.286   0.244 -33.956  1.00  0.00     0.069 A 
HETATM    4  C   UNL     1      -7.367   1.299 -33.785  1.00  0.00     0.008 A 
HETATM    5  C   UNL     1      -7.932   2.588 -33.619  1.00  0.00     0.046 A 
HETATM    6  C   UNL     1      -9.311   2.783 -33.698  1.00  0.00     0.052 A 
HETATM    7  C   UNL     1      -7.810  -1.052 -34.093  1.00  0.00     0.032 A 
HETATM    8  C   UNL     1      -6.445  -1.342 -34.091  1.00  0.00     0.002 A 
HETATM    9  C   UNL     1      -5.526  -0.311 -33.967  1.00  0.00     0.001 A 
HETATM   10  C   UNL     1      -5.979   1.000 -33.824  1.00  0.00     0.015 A 
ENDROOT
BRANCH   5  11
HETATM   11  C   UNL     1      -7.133   3.811 -33.359  1.00  0.00     0.252 C 
HETATM   12  N   UNL     1      -7.005   4.217 -32.051  1.00  0.00    -0.355 N 
HETATM   13  H   UNL     1      -7.433   3.625 -31.341  1.00  0.00     0.162 HD
HETATM   14  O   UNL     1      -6.724   4.502 -34.286  1.00  0.00    -0.268 OA
BRANCH  12  15
HETATM   15  C   UNL     1      -6.033   5.205 -31.564  1.00  0.00     0.161 C 
BRANCH  15  16
HETATM   16  C   UNL     1      -4.600   4.729 -31.129  1.00  0.00     0.237 C 
BRANCH  16  17
HETATM   17  N   UNL     1      -4.071   5.537 -29.943  1.00  0.00    -0.069 N 
HETATM   18  H   UNL     1      -3.623   4.799 -29.369  1.00  0.00     0.279 HD
HETATM   19  C   UNL     1      -3.042   6.571 -30.249  1.00  0.00     0.270 C 
HETATM   20  C   UNL     1      -5.152   6.066 -29.049  1.00  0.00     0.270 C 
ENDBRANCH  16  17
BRANCH  16  21
HETATM   21  C   UNL     1      -4.483   3.223 -30.944  1.00  0.00    -0.026 A 
HETATM   22  C   UNL     1      -5.483   2.541 -30.224  1.00  0.00     0.009 A 
HETATM   23  C   UNL     1      -5.430   1.156 -30.057  1.00  0.00     0.001 A 
HETATM   24  C   UNL     1      -4.375   0.429 -30.599  1.00  0.00     0.000 A 
HETATM   25  C   UNL     1      -3.375   1.085 -31.311  1.00  0.00     0.001 A 
HETATM   26  C   UNL     1      -3.429   2.470 -31.488  1.00  0.00     0.009 A 
ENDBRANCH  16  21
ENDBRANCH  15  16
ENDBRANCH  12  15
ENDBRANCH   5  11
BRANCH   1  27
HETATM   27  C   UNL     1     -11.564   1.773 -34.007  1.00  0.00     0.104 A 
HETATM   28  O   UNL     1     -12.238   2.244 -32.913  1.00  0.00    -0.313 OA
HETATM   29  C   UNL     1     -13.566   2.251 -33.228  1.00  0.00     0.050 A 
HETATM   30  C   UNL     1     -14.496   2.722 -32.183  1.00  0.00     0.076 C 
HETATM   31  C   UNL     1     -13.750   1.794 -34.514  1.00  0.00     0.035 A 
HETATM   32  C   UNL     1     -12.463   1.481 -35.013  1.00  0.00     0.042 A 
ENDBRANCH   1  27
TORSDOF 6
ENDMDL
