MODEL 1
REMARK VINA RESULT:      -9.0      0.000      0.000
REMARK  6 active torsions:
REMARK  status: ('A' for Active; 'I' for Inactive)
REMARK    1  A    between atoms: C_2  and  C_3 
REMARK    2  A    between atoms: C_5  and  S_6 
REMARK    3  A    between atoms: S_6  and  C_7 
REMARK    4  A    between atoms: C_7  and  C_8 
REMARK       I    between atoms: C_8  and  N_9 
REMARK    5  A    between atoms: N_9  and  C_10 
REMARK    6  A    between atoms: C_13  and  C_14 
ROOT
HETATM    1  C   UNL     1      -5.643   3.667 -31.320  1.00  0.00     0.233 C 
HETATM    2  N   UNL     1      -4.946   3.088 -32.352  1.00  0.00    -0.305 N 
HETATM    3  O   UNL     1      -6.119   3.073 -30.352  1.00  0.00    -0.272 OA
HETATM    4  H   UNL     1      -4.615   3.667 -33.112  1.00  0.00     0.171 HD
ENDROOT
BRANCH   1   5
HETATM    5  C   UNL     1      -5.803   5.181 -31.408  1.00  0.00     0.184 C 
BRANCH   5   6
HETATM    6  S   UNL     1      -4.668   6.118 -30.323  1.00  0.00    -0.100 SA
BRANCH   6   7
HETATM    7  C   UNL     1      -3.192   6.094 -31.303  1.00  0.00     0.109 A 
HETATM    8  N   UNL     1      -3.288   5.664 -32.580  1.00  0.00    -0.226 NA
HETATM    9  C   UNL     1      -2.185   5.630 -33.345  1.00  0.00     0.128 A 
HETATM   10  N   UNL     1      -0.960   5.981 -32.955  1.00  0.00    -0.225 NA
HETATM   11  C   UNL     1      -0.902   6.408 -31.684  1.00  0.00     0.113 A 
HETATM   12  C   UNL     1      -1.951   6.505 -30.781  1.00  0.00     0.042 A 
HETATM   13  S   UNL     1       0.590   6.897 -31.041  1.00  0.00    -0.074 SA
HETATM   14  C   UNL     1      -1.472   7.019 -29.500  1.00  0.00    -0.033 A 
HETATM   15  C   UNL     1      -0.103   7.263 -29.527  1.00  0.00    -0.012 A 
HETATM   16  C   UNL     1      -2.327   7.262 -28.293  1.00  0.00     0.050 C 
HETATM   17  C   UNL     1       0.774   7.785 -28.433  1.00  0.00     0.057 C 
BRANCH   9  18
HETATM   18  C   UNL     1      -2.342   5.116 -34.750  1.00  0.00     0.076 C 
HETATM   19  C   UNL     1      -3.787   5.214 -35.213  1.00  0.00     0.013 C 
ENDBRANCH   9  18
ENDBRANCH   6   7
ENDBRANCH   5   6
ENDBRANCH   1   5
BRANCH   2  20
HETATM   20  C   UNL     1      -4.689   1.750 -32.425  1.00  0.00     0.173 A 
HETATM   21  S   UNL     1      -3.422   1.228 -31.411  1.00  0.00    -0.061 SA
HETATM   22  C   UNL     1      -3.656  -0.376 -31.984  1.00  0.00     0.085 A 
HETATM   23  C   UNL     1      -4.691  -0.406 -32.901  1.00  0.00     0.076 A 
HETATM   24  N   UNL     1      -5.269   0.832 -33.148  1.00  0.00    -0.223 NA
BRANCH  23  25
HETATM   25  C   UNL     1      -5.171  -1.601 -33.595  1.00  0.00    -0.007 A 
HETATM   26  C   UNL     1      -4.334  -2.689 -33.893  1.00  0.00     0.017 A 
HETATM   27  C   UNL     1      -4.838  -3.816 -34.554  1.00  0.00     0.043 A 
HETATM   28  C   UNL     1      -6.179  -3.860 -34.915  1.00  0.00     0.116 A 
HETATM   29  F   UNL     1      -6.657  -4.940 -35.545  1.00  0.00    -0.206 F 
HETATM   30  C   UNL     1      -7.029  -2.801 -34.628  1.00  0.00     0.043 A 
HETATM   31  C   UNL     1      -6.526  -1.677 -33.967  1.00  0.00     0.017 A 
ENDBRANCH  23  25
ENDBRANCH   2  20
TORSDOF 6
ENDMDL
MODEL 2
REMARK VINA RESULT:      -8.9      2.716      4.098
REMARK  6 active torsions:
REMARK  status: ('A' for Active; 'I' for Inactive)
REMARK    1  A    between atoms: C_2  and  C_3 
REMARK    2  A    between atoms: C_5  and  S_6 
REMARK    3  A    between atoms: S_6  and  C_7 
REMARK    4  A    between atoms: C_7  and  C_8 
REMARK       I    between atoms: C_8  and  N_9 
REMARK    5  A    between atoms: N_9  and  C_10 
REMARK    6  A    between atoms: C_13  and  C_14 
ROOT
HETATM    1  C   UNL     1      -6.838   4.754 -33.545  1.00  0.00     0.233 C 
HETATM    2  N   UNL     1      -7.666   3.795 -33.016  1.00  0.00    -0.305 N 
HETATM    3  O   UNL     1      -6.067   4.596 -34.492  1.00  0.00    -0.272 OA
HETATM    4  H   UNL     1      -8.246   4.025 -32.222  1.00  0.00     0.171 HD
ENDROOT
BRANCH   1   5
HETATM    5  C   UNL     1      -6.926   6.127 -32.887  1.00  0.00     0.184 C 
BRANCH   5   6
HETATM    6  S   UNL     1      -5.992   6.268 -31.320  1.00  0.00    -0.100 SA
BRANCH   6   7
HETATM    7  C   UNL     1      -4.655   5.150 -31.642  1.00  0.00     0.109 A 
HETATM    8  N   UNL     1      -3.595   5.616 -32.337  1.00  0.00    -0.226 NA
HETATM    9  C   UNL     1      -2.570   4.791 -32.599  1.00  0.00     0.128 A 
HETATM   10  N   UNL     1      -2.492   3.510 -32.238  1.00  0.00    -0.225 NA
HETATM   11  C   UNL     1      -3.559   3.083 -31.546  1.00  0.00     0.113 A 
HETATM   12  C   UNL     1      -4.683   3.816 -31.193  1.00  0.00     0.042 A 
HETATM   13  S   UNL     1      -3.608   1.474 -31.008  1.00  0.00    -0.074 SA
HETATM   14  C   UNL     1      -5.615   2.984 -30.436  1.00  0.00    -0.033 A 
HETATM   15  C   UNL     1      -5.134   1.690 -30.279  1.00  0.00    -0.012 A 
HETATM   16  C   UNL     1      -6.931   3.445 -29.885  1.00  0.00     0.050 C 
HETATM   17  C   UNL     1      -5.774   0.534 -29.577  1.00  0.00     0.057 C 
BRANCH   9  18
HETATM   18  C   UNL     1      -1.427   5.352 -33.403  1.00  0.00     0.076 C 
HETATM   19  C   UNL     1      -1.681   5.206 -34.894  1.00  0.00     0.013 C 
ENDBRANCH   9  18
ENDBRANCH   6   7
ENDBRANCH   5   6
ENDBRANCH   1   5
BRANCH   2  20
HETATM   20  C   UNL     1      -7.735   2.519 -33.495  1.00  0.00     0.173 A 
HETATM   21  S   UNL     1      -9.226   2.127 -34.221  1.00  0.00    -0.061 SA
HETATM   22  C   UNL     1      -8.628   0.548 -34.543  1.00  0.00     0.085 A 
HETATM   23  C   UNL     1      -7.329   0.430 -34.083  1.00  0.00     0.076 A 
HETATM   24  N   UNL     1      -6.834   1.575 -33.475  1.00  0.00    -0.223 NA
BRANCH  23  25
HETATM   25  C   UNL     1      -6.501  -0.773 -34.187  1.00  0.00    -0.007 A 
HETATM   26  C   UNL     1      -6.972  -1.966 -34.758  1.00  0.00     0.017 A 
HETATM   27  C   UNL     1      -6.143  -3.091 -34.842  1.00  0.00     0.043 A 
HETATM   28  C   UNL     1      -4.843  -3.027 -34.358  1.00  0.00     0.116 A 
HETATM   29  F   UNL     1      -4.054  -4.105 -34.441  1.00  0.00    -0.206 F 
HETATM   30  C   UNL     1      -4.352  -1.859 -33.793  1.00  0.00     0.043 A 
HETATM   31  C   UNL     1      -5.179  -0.735 -33.710  1.00  0.00     0.017 A 
ENDBRANCH  23  25
ENDBRANCH   2  20
TORSDOF 6
ENDMDL
MODEL 3
REMARK VINA RESULT:      -8.7      2.428      3.467
REMARK  6 active torsions:
REMARK  status: ('A' for Active; 'I' for Inactive)
REMARK    1  A    between atoms: C_2  and  C_3 
REMARK    2  A    between atoms: C_5  and  S_6 
REMARK    3  A    between atoms: S_6  and  C_7 
REMARK    4  A    between atoms: C_7  and  C_8 
REMARK       I    between atoms: C_8  and  N_9 
REMARK    5  A    between atoms: N_9  and  C_10 
REMARK    6  A    between atoms: C_13  and  C_14 
ROOT
HETATM    1  C   UNL     1      -7.133   4.190 -33.000  1.00  0.00     0.233 C 
HETATM    2  N   UNL     1      -7.630   3.009 -32.507  1.00  0.00    -0.305 N 
HETATM    3  O   UNL     1      -6.615   4.347 -34.105  1.00  0.00    -0.272 OA
HETATM    4  H   UNL     1      -8.017   2.985 -31.574  1.00  0.00     0.171 HD
ENDROOT
BRANCH   1   5
HETATM    5  C   UNL     1      -7.273   5.394 -32.074  1.00  0.00     0.184 C 
BRANCH   5   6
HETATM    6  S   UNL     1      -6.489   5.175 -30.436  1.00  0.00    -0.100 SA
BRANCH   6   7
HETATM    7  C   UNL     1      -4.968   4.397 -30.909  1.00  0.00     0.109 A 
HETATM    8  N   UNL     1      -4.899   3.051 -30.842  1.00  0.00    -0.226 NA
HETATM    9  C   UNL     1      -3.759   2.434 -31.189  1.00  0.00     0.128 A 
HETATM   10  N   UNL     1      -2.644   3.039 -31.600  1.00  0.00    -0.225 NA
HETATM   11  C   UNL     1      -2.750   4.376 -31.659  1.00  0.00     0.113 A 
HETATM   12  C   UNL     1      -3.859   5.147 -31.342  1.00  0.00     0.042 A 
HETATM   13  S   UNL     1      -1.415   5.291 -32.171  1.00  0.00    -0.074 SA
HETATM   14  C   UNL     1      -3.566   6.564 -31.546  1.00  0.00    -0.033 A 
HETATM   15  C   UNL     1      -2.264   6.759 -31.992  1.00  0.00    -0.012 A 
HETATM   16  C   UNL     1      -4.532   7.686 -31.312  1.00  0.00     0.050 C 
HETATM   17  C   UNL     1      -1.570   8.044 -32.316  1.00  0.00     0.057 C 
BRANCH   9  18
HETATM   18  C   UNL     1      -3.726   0.935 -31.068  1.00  0.00     0.076 C 
HETATM   19  C   UNL     1      -4.939   0.418 -30.312  1.00  0.00     0.013 C 
ENDBRANCH   9  18
ENDBRANCH   6   7
ENDBRANCH   5   6
ENDBRANCH   1   5
BRANCH   2  20
HETATM   20  C   UNL     1      -7.609   1.838 -33.207  1.00  0.00     0.173 A 
HETATM   21  S   UNL     1      -8.885   1.671 -34.323  1.00  0.00    -0.061 SA
HETATM   22  C   UNL     1      -8.264   0.132 -34.769  1.00  0.00     0.085 A 
HETATM   23  C   UNL     1      -7.119  -0.146 -34.044  1.00  0.00     0.076 A 
HETATM   24  N   UNL     1      -6.762   0.847 -33.141  1.00  0.00    -0.223 NA
BRANCH  23  25
HETATM   25  C   UNL     1      -6.319  -1.366 -34.160  1.00  0.00    -0.007 A 
HETATM   26  C   UNL     1      -6.809  -2.535 -34.766  1.00  0.00     0.017 A 
HETATM   27  C   UNL     1      -6.006  -3.678 -34.861  1.00  0.00     0.043 A 
HETATM   28  C   UNL     1      -4.713  -3.656 -34.353  1.00  0.00     0.116 A 
HETATM   29  F   UNL     1      -3.949  -4.751 -34.447  1.00  0.00    -0.206 F 
HETATM   30  C   UNL     1      -4.204  -2.513 -33.754  1.00  0.00     0.043 A 
HETATM   31  C   UNL     1      -5.005  -1.371 -33.660  1.00  0.00     0.017 A 
ENDBRANCH  23  25
ENDBRANCH   2  20
TORSDOF 6
ENDMDL
MODEL 4
REMARK VINA RESULT:      -8.6      1.258      1.632
REMARK  6 active torsions:
REMARK  status: ('A' for Active; 'I' for Inactive)
REMARK    1  A    between atoms: C_2  and  C_3 
REMARK    2  A    between atoms: C_5  and  S_6 
REMARK    3  A    between atoms: S_6  and  C_7 
REMARK    4  A    between atoms: C_7  and  C_8 
REMARK       I    between atoms: C_8  and  N_9 
REMARK    5  A    between atoms: N_9  and  C_10 
REMARK    6  A    between atoms: C_13  and  C_14 
ROOT
HETATM    1  C   UNL     1      -5.781   3.472 -30.559  1.00  0.00     0.233 C 
HETATM    2  N   UNL     1      -5.262   3.302 -31.819  1.00  0.00    -0.305 N 
HETATM    3  O   UNL     1      -6.685   2.804 -30.057  1.00  0.00    -0.272 OA
HETATM    4  H   UNL     1      -4.532   3.921 -32.142  1.00  0.00     0.171 HD
ENDROOT
BRANCH   1   5
HETATM    5  C   UNL     1      -5.140   4.583 -29.734  1.00  0.00     0.184 C 
BRANCH   5   6
HETATM    6  S   UNL     1      -5.118   6.214 -30.562  1.00  0.00    -0.100 SA
BRANCH   6   7
HETATM    7  C   UNL     1      -3.559   6.128 -31.401  1.00  0.00     0.109 A 
HETATM    8  N   UNL     1      -3.551   5.677 -32.673  1.00  0.00    -0.226 NA
HETATM    9  C   UNL     1      -2.384   5.597 -33.332  1.00  0.00     0.128 A 
HETATM   10  N   UNL     1      -1.189   5.920 -32.837  1.00  0.00    -0.225 NA
HETATM   11  C   UNL     1      -1.236   6.369 -31.573  1.00  0.00     0.113 A 
HETATM   12  C   UNL     1      -2.360   6.514 -30.773  1.00  0.00     0.042 A 
HETATM   13  S   UNL     1       0.204   6.828 -30.802  1.00  0.00    -0.074 SA
HETATM   14  C   UNL     1      -1.985   7.039 -29.461  1.00  0.00    -0.033 A 
HETATM   15  C   UNL     1      -0.614   7.243 -29.365  1.00  0.00    -0.012 A 
HETATM   16  C   UNL     1      -2.940   7.330 -28.343  1.00  0.00     0.050 C 
HETATM   17  C   UNL     1       0.174   7.760 -28.204  1.00  0.00     0.057 C 
BRANCH   9  18
HETATM   18  C   UNL     1      -2.426   5.060 -34.737  1.00  0.00     0.076 C 
HETATM   19  C   UNL     1      -3.839   5.095 -35.296  1.00  0.00     0.013 C 
ENDBRANCH   9  18
ENDBRANCH   6   7
ENDBRANCH   5   6
ENDBRANCH   1   5
BRANCH   2  20
HETATM   20  C   UNL     1      -5.699   2.342 -32.685  1.00  0.00     0.173 A 
HETATM   21  S   UNL     1      -6.811   2.907 -33.846  1.00  0.00    -0.061 SA
HETATM   22  C   UNL     1      -6.898   1.320 -34.501  1.00  0.00     0.085 A 
HETATM   23  C   UNL     1      -6.066   0.469 -33.795  1.00  0.00     0.076 A 
HETATM   24  N   UNL     1      -5.389   1.076 -32.746  1.00  0.00    -0.223 NA
BRANCH  23  25
HETATM   25  C   UNL     1      -5.882  -0.956 -34.072  1.00  0.00    -0.007 A 
HETATM   26  C   UNL     1      -6.912  -1.765 -34.580  1.00  0.00     0.017 A 
HETATM   27  C   UNL     1      -6.690  -3.123 -34.835  1.00  0.00     0.043 A 
HETATM   28  C   UNL     1      -5.440  -3.676 -34.586  1.00  0.00     0.116 A 
HETATM   29  F   UNL     1      -5.232  -4.975 -34.832  1.00  0.00    -0.206 F 
HETATM   30  C   UNL     1      -4.405  -2.898 -34.088  1.00  0.00     0.043 A 
HETATM   31  C   UNL     1      -4.626  -1.541 -33.834  1.00  0.00     0.017 A 
ENDBRANCH  23  25
ENDBRANCH   2  20
TORSDOF 6
ENDMDL
MODEL 5
REMARK VINA RESULT:      -8.6      2.259      4.138
REMARK  6 active torsions:
REMARK  status: ('A' for Active; 'I' for Inactive)
REMARK    1  A    between atoms: C_2  and  C_3 
REMARK    2  A    between atoms: C_5  and  S_6 
REMARK    3  A    between atoms: S_6  and  C_7 
REMARK    4  A    between atoms: C_7  and  C_8 
REMARK       I    between atoms: C_8  and  N_9 
REMARK    5  A    between atoms: N_9  and  C_10 
REMARK    6  A    between atoms: C_13  and  C_14 
ROOT
HETATM    1  C   UNL     1      -2.417   4.115 -32.279  1.00  0.00     0.233 C 
HETATM    2  N   UNL     1      -2.725   3.109 -31.397  1.00  0.00    -0.305 N 
HETATM    3  O   UNL     1      -2.986   4.334 -33.349  1.00  0.00    -0.272 OA
HETATM    4  H   UNL     1      -2.178   3.004 -30.554  1.00  0.00     0.171 HD
ENDROOT
BRANCH   1   5
HETATM    5  C   UNL     1      -1.276   5.033 -31.850  1.00  0.00     0.184 C 
BRANCH   5   6
HETATM    6  S   UNL     1      -1.702   6.811 -31.860  1.00  0.00    -0.100 SA
BRANCH   6   7
HETATM    7  C   UNL     1      -1.524   7.194 -30.139  1.00  0.00     0.109 A 
HETATM    8  N   UNL     1      -0.305   7.573 -29.698  1.00  0.00    -0.226 NA
HETATM    9  C   UNL     1      -0.139   7.865 -28.399  1.00  0.00     0.128 A 
HETATM   10  N   UNL     1      -1.087   7.807 -27.463  1.00  0.00    -0.225 NA
HETATM   11  C   UNL     1      -2.285   7.432 -27.937  1.00  0.00     0.113 A 
HETATM   12  C   UNL     1      -2.609   7.109 -29.246  1.00  0.00     0.042 A 
HETATM   13  S   UNL     1      -3.599   7.317 -26.869  1.00  0.00    -0.074 SA
HETATM   14  C   UNL     1      -4.024   6.757 -29.348  1.00  0.00    -0.033 A 
HETATM   15  C   UNL     1      -4.659   6.832 -28.113  1.00  0.00    -0.012 A 
HETATM   16  C   UNL     1      -4.727   6.362 -30.611  1.00  0.00     0.050 C 
HETATM   17  C   UNL     1      -6.090   6.552 -27.781  1.00  0.00     0.057 C 
BRANCH   9  18
HETATM   18  C   UNL     1       1.246   8.254 -27.956  1.00  0.00     0.076 C 
HETATM   19  C   UNL     1       1.568   7.673 -26.589  1.00  0.00     0.013 C 
ENDBRANCH   9  18
ENDBRANCH   6   7
ENDBRANCH   5   6
ENDBRANCH   1   5
BRANCH   2  20
HETATM   20  C   UNL     1      -3.729   2.210 -31.609  1.00  0.00     0.173 A 
HETATM   21  S   UNL     1      -5.125   2.491 -30.671  1.00  0.00    -0.061 SA
HETATM   22  C   UNL     1      -5.862   1.119 -31.398  1.00  0.00     0.085 A 
HETATM   23  C   UNL     1      -4.998   0.545 -32.313  1.00  0.00     0.076 A 
HETATM   24  N   UNL     1      -3.769   1.184 -32.415  1.00  0.00    -0.223 NA
BRANCH  23  25
HETATM   25  C   UNL     1      -5.288  -0.638 -33.123  1.00  0.00    -0.007 A 
HETATM   26  C   UNL     1      -4.282  -1.500 -33.591  1.00  0.00     0.017 A 
HETATM   27  C   UNL     1      -4.607  -2.624 -34.358  1.00  0.00     0.043 A 
HETATM   28  C   UNL     1      -5.936  -2.893 -34.659  1.00  0.00     0.116 A 
HETATM   29  F   UNL     1      -6.242  -3.969 -35.392  1.00  0.00    -0.206 F 
HETATM   30  C   UNL     1      -6.950  -2.061 -34.206  1.00  0.00     0.043 A 
HETATM   31  C   UNL     1      -6.626  -0.938 -33.438  1.00  0.00     0.017 A 
ENDBRANCH  23  25
ENDBRANCH   2  20
TORSDOF 6
ENDMDL
MODEL 6
REMARK VINA RESULT:      -8.5      2.212      3.310
REMARK  6 active torsions:
REMARK  status: ('A' for Active; 'I' for Inactive)
REMARK    1  A    between atoms: C_2  and  C_3 
REMARK    2  A    between atoms: C_5  and  S_6 
REMARK    3  A    between atoms: S_6  and  C_7 
REMARK    4  A    between atoms: C_7  and  C_8 
REMARK       I    between atoms: C_8  and  N_9 
REMARK    5  A    between atoms: N_9  and  C_10 
REMARK    6  A    between atoms: C_13  and  C_14 
ROOT
HETATM    1  C   UNL     1      -4.778   4.711 -33.549  1.00  0.00     0.233 C 
HETATM    2  N   UNL     1      -4.782   3.772 -32.548  1.00  0.00    -0.305 N 
HETATM    3  O   UNL     1      -5.371   4.619 -34.625  1.00  0.00    -0.272 OA
HETATM    4  H   UNL     1      -4.242   3.939 -31.710  1.00  0.00     0.171 HD
ENDROOT
BRANCH   1   5
HETATM    5  C   UNL     1      -3.975   5.974 -33.256  1.00  0.00     0.184 C 
BRANCH   5   6
HETATM    6  S   UNL     1      -2.464   5.688 -32.266  1.00  0.00    -0.100 SA
BRANCH   6   7
HETATM    7  C   UNL     1      -2.970   6.362 -30.706  1.00  0.00     0.109 A 
HETATM    8  N   UNL     1      -4.281   6.309 -30.390  1.00  0.00    -0.226 NA
HETATM    9  C   UNL     1      -4.694   6.816 -29.218  1.00  0.00     0.128 A 
HETATM   10  N   UNL     1      -3.914   7.395 -28.305  1.00  0.00    -0.225 NA
HETATM   11  C   UNL     1      -2.617   7.425 -28.650  1.00  0.00     0.113 A 
HETATM   12  C   UNL     1      -2.044   6.937 -29.815  1.00  0.00     0.042 A 
HETATM   13  S   UNL     1      -1.494   8.124 -27.588  1.00  0.00    -0.074 SA
HETATM   14  C   UNL     1      -0.600   7.160 -29.804  1.00  0.00    -0.033 A 
HETATM   15  C   UNL     1      -0.192   7.803 -28.641  1.00  0.00    -0.012 A 
HETATM   16  C   UNL     1       0.344   6.756 -30.895  1.00  0.00     0.050 C 
HETATM   17  C   UNL     1       1.188   8.217 -28.237  1.00  0.00     0.057 C 
BRANCH   9  18
HETATM   18  C   UNL     1      -6.169   6.758 -28.928  1.00  0.00     0.076 C 
HETATM   19  C   UNL     1      -6.514   5.550 -28.072  1.00  0.00     0.013 C 
ENDBRANCH   9  18
ENDBRANCH   6   7
ENDBRANCH   5   6
ENDBRANCH   1   5
BRANCH   2  20
HETATM   20  C   UNL     1      -5.465   2.594 -32.630  1.00  0.00     0.173 A 
HETATM   21  S   UNL     1      -6.988   2.616 -31.864  1.00  0.00    -0.061 SA
HETATM   22  C   UNL     1      -7.222   0.979 -32.332  1.00  0.00     0.085 A 
HETATM   23  C   UNL     1      -6.127   0.529 -33.049  1.00  0.00     0.076 A 
HETATM   24  N   UNL     1      -5.121   1.473 -33.203  1.00  0.00    -0.223 NA
BRANCH  23  25
HETATM   25  C   UNL     1      -5.978  -0.815 -33.609  1.00  0.00    -0.007 A 
HETATM   26  C   UNL     1      -7.069  -1.561 -34.082  1.00  0.00     0.017 A 
HETATM   27  C   UNL     1      -6.879  -2.841 -34.615  1.00  0.00     0.043 A 
HETATM   28  C   UNL     1      -5.599  -3.378 -34.678  1.00  0.00     0.116 A 
HETATM   29  F   UNL     1      -5.422  -4.602 -35.189  1.00  0.00    -0.206 F 
HETATM   30  C   UNL     1      -4.503  -2.660 -34.222  1.00  0.00     0.043 A 
HETATM   31  C   UNL     1      -4.693  -1.381 -33.691  1.00  0.00     0.017 A 
ENDBRANCH  23  25
ENDBRANCH   2  20
TORSDOF 6
ENDMDL
MODEL 7
REMARK VINA RESULT:      -8.3      1.884      3.628
REMARK  6 active torsions:
REMARK  status: ('A' for Active; 'I' for Inactive)
REMARK    1  A    between atoms: C_2  and  C_3 
REMARK    2  A    between atoms: C_5  and  S_6 
REMARK    3  A    between atoms: S_6  and  C_7 
REMARK    4  A    between atoms: C_7  and  C_8 
REMARK       I    between atoms: C_8  and  N_9 
REMARK    5  A    between atoms: N_9  and  C_10 
REMARK    6  A    between atoms: C_13  and  C_14 
ROOT
HETATM    1  C   UNL     1      -6.075   2.766 -30.697  1.00  0.00     0.233 C 
HETATM    2  N   UNL     1      -5.573   2.697 -31.973  1.00  0.00    -0.305 N 
HETATM    3  O   UNL     1      -6.862   1.968 -30.189  1.00  0.00    -0.272 OA
HETATM    4  H   UNL     1      -4.946   3.419 -32.298  1.00  0.00     0.171 HD
ENDROOT
BRANCH   1   5
HETATM    5  C   UNL     1      -5.572   3.939 -29.860  1.00  0.00     0.184 C 
BRANCH   5   6
HETATM    6  S   UNL     1      -5.716   5.564 -30.687  1.00  0.00    -0.100 SA
BRANCH   6   7
HETATM    7  C   UNL     1      -4.123   6.252 -30.324  1.00  0.00     0.109 A 
HETATM    8  N   UNL     1      -3.916   6.748 -29.085  1.00  0.00    -0.226 NA
HETATM    9  C   UNL     1      -2.721   7.279 -28.783  1.00  0.00     0.128 A 
HETATM   10  N   UNL     1      -1.684   7.379 -29.614  1.00  0.00    -0.225 NA
HETATM   11  C   UNL     1      -1.923   6.871 -30.833  1.00  0.00     0.113 A 
HETATM   12  C   UNL     1      -3.097   6.287 -31.286  1.00  0.00     0.042 A 
HETATM   13  S   UNL     1      -0.696   6.916 -32.005  1.00  0.00    -0.074 SA
HETATM   14  C   UNL     1      -2.947   5.857 -32.675  1.00  0.00    -0.033 A 
HETATM   15  C   UNL     1      -1.682   6.154 -33.169  1.00  0.00    -0.012 A 
HETATM   16  C   UNL     1      -4.009   5.179 -33.487  1.00  0.00     0.050 C 
HETATM   17  C   UNL     1      -1.125   5.888 -34.531  1.00  0.00     0.057 C 
BRANCH   9  18
HETATM   18  C   UNL     1      -2.553   7.845 -27.399  1.00  0.00     0.076 C 
HETATM   19  C   UNL     1      -2.013   6.797 -26.440  1.00  0.00     0.013 C 
ENDBRANCH   9  18
ENDBRANCH   6   7
ENDBRANCH   5   6
ENDBRANCH   1   5
BRANCH   2  20
HETATM   20  C   UNL     1      -5.895   1.704 -32.851  1.00  0.00     0.173 A 
HETATM   21  S   UNL     1      -6.932   2.198 -34.111  1.00  0.00    -0.061 SA
HETATM   22  C   UNL     1      -6.897   0.598 -34.736  1.00  0.00     0.085 A 
HETATM   23  C   UNL     1      -6.089  -0.203 -33.948  1.00  0.00     0.076 A 
HETATM   24  N   UNL     1      -5.527   0.452 -32.860  1.00  0.00    -0.223 NA
BRANCH  23  25
HETATM   25  C   UNL     1      -5.822  -1.623 -34.179  1.00  0.00    -0.007 A 
HETATM   26  C   UNL     1      -6.807  -2.511 -34.640  1.00  0.00     0.017 A 
HETATM   27  C   UNL     1      -6.506  -3.861 -34.852  1.00  0.00     0.043 A 
HETATM   28  C   UNL     1      -5.221  -4.327 -34.607  1.00  0.00     0.116 A 
HETATM   29  F   UNL     1      -4.937  -5.619 -34.813  1.00  0.00    -0.206 F 
HETATM   30  C   UNL     1      -4.227  -3.470 -34.156  1.00  0.00     0.043 A 
HETATM   31  C   UNL     1      -4.528  -2.121 -33.945  1.00  0.00     0.017 A 
ENDBRANCH  23  25
ENDBRANCH   2  20
TORSDOF 6
ENDMDL
MODEL 8
REMARK VINA RESULT:      -8.1      6.292      9.057
REMARK  6 active torsions:
REMARK  status: ('A' for Active; 'I' for Inactive)
REMARK    1  A    between atoms: C_2  and  C_3 
REMARK    2  A    between atoms: C_5  and  S_6 
REMARK    3  A    between atoms: S_6  and  C_7 
REMARK    4  A    between atoms: C_7  and  C_8 
REMARK       I    between atoms: C_8  and  N_9 
REMARK    5  A    between atoms: N_9  and  C_10 
REMARK    6  A    between atoms: C_13  and  C_14 
ROOT
HETATM    1  C   UNL     1      -9.068   2.676 -31.373  1.00  0.00     0.233 C 
HETATM    2  N   UNL     1      -9.517   1.537 -31.994  1.00  0.00    -0.305 N 
HETATM    3  O   UNL     1      -7.970   3.206 -31.548  1.00  0.00    -0.272 OA
HETATM    4  H   UNL     1     -10.430   1.173 -31.761  1.00  0.00     0.171 HD
ENDROOT
BRANCH   1   5
HETATM    5  C   UNL     1     -10.052   3.323 -30.403  1.00  0.00     0.184 C 
BRANCH   5   6
HETATM    6  S   UNL     1     -10.921   4.782 -31.080  1.00  0.00    -0.100 SA
BRANCH   6   7
HETATM    7  C   UNL     1     -12.329   4.002 -31.822  1.00  0.00     0.109 A 
HETATM    8  N   UNL     1     -12.110   2.962 -32.654  1.00  0.00    -0.226 NA
HETATM    9  C   UNL     1     -13.157   2.354 -33.234  1.00  0.00     0.128 A 
HETATM   10  N   UNL     1     -14.437   2.692 -33.074  1.00  0.00    -0.225 NA
HETATM   11  C   UNL     1     -14.618   3.726 -32.237  1.00  0.00     0.113 A 
HETATM   12  C   UNL     1     -13.640   4.443 -31.562  1.00  0.00     0.042 A 
HETATM   13  S   UNL     1     -16.193   4.272 -31.924  1.00  0.00    -0.074 SA
HETATM   14  C   UNL     1     -14.252   5.489 -30.745  1.00  0.00    -0.033 A 
HETATM   15  C   UNL     1     -15.637   5.491 -30.869  1.00  0.00    -0.012 A 
HETATM   16  C   UNL     1     -13.503   6.452 -29.875  1.00  0.00     0.050 C 
HETATM   17  C   UNL     1     -16.632   6.393 -30.211  1.00  0.00     0.057 C 
BRANCH   9  18
HETATM   18  C   UNL     1     -12.856   1.219 -34.175  1.00  0.00     0.076 C 
HETATM   19  C   UNL     1     -13.429  -0.090 -33.658  1.00  0.00     0.013 C 
ENDBRANCH   9  18
ENDBRANCH   6   7
ENDBRANCH   5   6
ENDBRANCH   1   5
BRANCH   2  20
HETATM   20  C   UNL     1      -8.779   0.842 -32.907  1.00  0.00     0.173 A 
HETATM   21  S   UNL     1      -9.131   1.230 -34.529  1.00  0.00    -0.061 SA
HETATM   22  C   UNL     1      -7.950   0.089 -35.034  1.00  0.00     0.085 A 
HETATM   23  C   UNL     1      -7.359  -0.504 -33.932  1.00  0.00     0.076 A 
HETATM   24  N   UNL     1      -7.857  -0.062 -32.714  1.00  0.00    -0.223 NA
BRANCH  23  25
HETATM   25  C   UNL     1      -6.310  -1.522 -33.980  1.00  0.00    -0.007 A 
HETATM   26  C   UNL     1      -5.077  -1.368 -33.325  1.00  0.00     0.017 A 
HETATM   27  C   UNL     1      -4.104  -2.371 -33.393  1.00  0.00     0.043 A 
HETATM   28  C   UNL     1      -4.358  -3.531 -34.115  1.00  0.00     0.116 A 
HETATM   29  F   UNL     1      -3.424  -4.487 -34.177  1.00  0.00    -0.206 F 
HETATM   30  C   UNL     1      -5.569  -3.710 -34.768  1.00  0.00     0.043 A 
HETATM   31  C   UNL     1      -6.542  -2.709 -34.699  1.00  0.00     0.017 A 
ENDBRANCH  23  25
ENDBRANCH   2  20
TORSDOF 6
ENDMDL
MODEL 9
REMARK VINA RESULT:      -8.1      4.313     10.099
REMARK  6 active torsions:
REMARK  status: ('A' for Active; 'I' for Inactive)
REMARK    1  A    between atoms: C_2  and  C_3 
REMARK    2  A    between atoms: C_5  and  S_6 
REMARK    3  A    between atoms: S_6  and  C_7 
REMARK    4  A    between atoms: C_7  and  C_8 
REMARK       I    between atoms: C_8  and  N_9 
REMARK    5  A    between atoms: N_9  and  C_10 
REMARK    6  A    between atoms: C_13  and  C_14 
ROOT
HETATM    1  C   UNL     1      -4.411   5.043 -31.596  1.00  0.00     0.233 C 
HETATM    2  N   UNL     1      -3.140   4.609 -31.310  1.00  0.00    -0.305 N 
HETATM    3  O   UNL     1      -4.778   6.217 -31.636  1.00  0.00    -0.272 OA
HETATM    4  H   UNL     1      -2.950   3.617 -31.282  1.00  0.00     0.171 HD
ENDROOT
BRANCH   1   5
HETATM    5  C   UNL     1      -5.422   3.944 -31.905  1.00  0.00     0.184 C 
BRANCH   5   6
HETATM    6  S   UNL     1      -4.767   2.247 -31.711  1.00  0.00    -0.100 SA
BRANCH   6   7
HETATM    7  C   UNL     1      -6.111   1.305 -32.380  1.00  0.00     0.109 A 
HETATM    8  N   UNL     1      -7.358   1.807 -32.257  1.00  0.00    -0.226 NA
HETATM    9  C   UNL     1      -8.396   1.113 -32.750  1.00  0.00     0.128 A 
HETATM   10  N   UNL     1      -8.318  -0.068 -33.363  1.00  0.00    -0.225 NA
HETATM   11  C   UNL     1      -7.064  -0.535 -33.472  1.00  0.00     0.113 A 
HETATM   12  C   UNL     1      -5.900   0.070 -33.021  1.00  0.00     0.042 A 
HETATM   13  S   UNL     1      -6.799  -2.027 -34.234  1.00  0.00    -0.074 SA
HETATM   14  C   UNL     1      -4.740  -0.761 -33.340  1.00  0.00    -0.033 A 
HETATM   15  C   UNL     1      -5.113  -1.928 -33.997  1.00  0.00    -0.012 A 
HETATM   16  C   UNL     1      -3.318  -0.420 -33.012  1.00  0.00     0.050 C 
HETATM   17  C   UNL     1      -4.243  -3.040 -34.491  1.00  0.00     0.057 C 
BRANCH   9  18
HETATM   18  C   UNL     1      -9.767   1.704 -32.561  1.00  0.00     0.076 C 
HETATM   19  C   UNL     1     -10.683   1.348 -33.720  1.00  0.00     0.013 C 
ENDBRANCH   9  18
ENDBRANCH   6   7
ENDBRANCH   5   6
ENDBRANCH   1   5
BRANCH   2  20
HETATM   20  C   UNL     1      -2.105   5.454 -31.032  1.00  0.00     0.173 A 
HETATM   21  S   UNL     1      -0.884   5.475 -32.221  1.00  0.00    -0.061 SA
HETATM   22  C   UNL     1      -0.024   6.630 -31.284  1.00  0.00     0.085 A 
HETATM   23  C   UNL     1      -0.730   6.929 -30.132  1.00  0.00     0.076 A 
HETATM   24  N   UNL     1      -1.925   6.234 -30.001  1.00  0.00    -0.223 NA
BRANCH  23  25
HETATM   25  C   UNL     1      -0.303   7.874 -29.100  1.00  0.00    -0.007 A 
HETATM   26  C   UNL     1      -1.152   8.870 -28.590  1.00  0.00     0.017 A 
HETATM   27  C   UNL     1      -0.703   9.749 -27.598  1.00  0.00     0.043 A 
HETATM   28  C   UNL     1       0.594   9.635 -27.111  1.00  0.00     0.116 A 
HETATM   29  F   UNL     1       1.018  10.477 -26.162  1.00  0.00    -0.206 F 
HETATM   30  C   UNL     1       1.451   8.656 -27.594  1.00  0.00     0.043 A 
HETATM   31  C   UNL     1       1.002   7.778 -28.584  1.00  0.00     0.017 A 
ENDBRANCH  23  25
ENDBRANCH   2  20
TORSDOF 6
ENDMDL
MODEL 10
REMARK VINA RESULT:      -8.1      1.618      3.079
REMARK  6 active torsions:
REMARK  status: ('A' for Active; 'I' for Inactive)
REMARK    1  A    between atoms: C_2  and  C_3 
REMARK    2  A    between atoms: C_5  and  S_6 
REMARK    3  A    between atoms: S_6  and  C_7 
REMARK    4  A    between atoms: C_7  and  C_8 
REMARK       I    between atoms: C_8  and  N_9 
REMARK    5  A    between atoms: N_9  and  C_10 
REMARK    6  A    between atoms: C_13  and  C_14 
ROOT
HETATM    1  C   UNL     1      -5.863   3.824 -31.348  1.00  0.00     0.233 C 
HETATM    2  N   UNL     1      -5.047   3.289 -32.314  1.00  0.00    -0.305 N 
HETATM    3  O   UNL     1      -6.437   3.193 -30.461  1.00  0.00    -0.272 OA
HETATM    4  H   UNL     1      -4.641   3.897 -33.012  1.00  0.00     0.171 HD
ENDROOT
BRANCH   1   5
HETATM    5  C   UNL     1      -6.031   5.340 -31.402  1.00  0.00     0.184 C 
BRANCH   5   6
HETATM    6  S   UNL     1      -4.637   6.220 -32.193  1.00  0.00    -0.100 SA
BRANCH   6   7
HETATM    7  C   UNL     1      -3.764   6.793 -30.762  1.00  0.00     0.109 A 
HETATM    8  N   UNL     1      -4.418   7.606 -29.905  1.00  0.00    -0.226 NA
HETATM    9  C   UNL     1      -3.781   8.060 -28.815  1.00  0.00     0.128 A 
HETATM   10  N   UNL     1      -2.519   7.787 -28.484  1.00  0.00    -0.225 NA
HETATM   11  C   UNL     1      -1.901   6.972 -29.354  1.00  0.00     0.113 A 
HETATM   12  C   UNL     1      -2.429   6.421 -30.512  1.00  0.00     0.042 A 
HETATM   13  S   UNL     1      -0.289   6.525 -29.069  1.00  0.00    -0.074 SA
HETATM   14  C   UNL     1      -1.432   5.585 -31.178  1.00  0.00    -0.033 A 
HETATM   15  C   UNL     1      -0.229   5.573 -30.481  1.00  0.00    -0.012 A 
HETATM   16  C   UNL     1      -1.654   4.826 -32.451  1.00  0.00     0.050 C 
HETATM   17  C   UNL     1       1.038   4.852 -30.819  1.00  0.00     0.057 C 
BRANCH   9  18
HETATM   18  C   UNL     1      -4.546   8.986 -27.909  1.00  0.00     0.076 C 
HETATM   19  C   UNL     1      -3.612   9.936 -27.178  1.00  0.00     0.013 C 
ENDBRANCH   9  18
ENDBRANCH   6   7
ENDBRANCH   5   6
ENDBRANCH   1   5
BRANCH   2  20
HETATM   20  C   UNL     1      -4.767   1.957 -32.404  1.00  0.00     0.173 A 
HETATM   21  S   UNL     1      -3.467   1.451 -31.425  1.00  0.00    -0.061 SA
HETATM   22  C   UNL     1      -3.684  -0.152 -32.004  1.00  0.00     0.085 A 
HETATM   23  C   UNL     1      -4.740  -0.196 -32.898  1.00  0.00     0.076 A 
HETATM   24  N   UNL     1      -5.347   1.033 -33.121  1.00  0.00    -0.223 NA
BRANCH  23  25
HETATM   25  C   UNL     1      -5.215  -1.395 -33.588  1.00  0.00    -0.007 A 
HETATM   26  C   UNL     1      -4.350  -2.422 -33.998  1.00  0.00     0.017 A 
HETATM   27  C   UNL     1      -4.848  -3.555 -34.652  1.00  0.00     0.043 A 
HETATM   28  C   UNL     1      -6.211  -3.666 -34.896  1.00  0.00     0.116 A 
HETATM   29  F   UNL     1      -6.683  -4.751 -35.521  1.00  0.00    -0.206 F 
HETATM   30  C   UNL     1      -7.088  -2.667 -34.498  1.00  0.00     0.043 A 
HETATM   31  C   UNL     1      -6.591  -1.536 -33.844  1.00  0.00     0.017 A 
ENDBRANCH  23  25
ENDBRANCH   2  20
TORSDOF 6
ENDMDL
