MODEL 1
REMARK VINA RESULT:     -10.1      0.000      0.000
REMARK  8 active torsions:
REMARK  status: ('A' for Active; 'I' for Inactive)
REMARK    1  A    between atoms: C_4  and  C_5 
REMARK    2  A    between atoms: C_5  and  N_6 
REMARK    3  A    between atoms: C_5  and  C_31 
REMARK       I    between atoms: N_6  and  C_7 
REMARK    4  A    between atoms: N_6  and  C_21 
REMARK    5  A    between atoms: C_7  and  C_8 
REMARK    6  A    between atoms: C_11  and  C_12 
REMARK    7  A    between atoms: C_21  and  C_22 
REMARK       I    between atoms: C_31  and  N_32 
REMARK    8  A    between atoms: N_32  and  C_33 
ROOT
HETATM    1  N   UNL     1      -4.286   3.792 -32.267  1.00  0.00    -0.323 N 
HETATM    2  C   UNL     1      -3.777   2.709 -31.549  1.00  0.00     0.271 C 
HETATM    3  O   UNL     1      -2.656   2.757 -31.039  1.00  0.00    -0.266 OA
ENDROOT
BRANCH   1   4
HETATM    4  C   UNL     1      -3.584   5.099 -32.224  1.00  0.00     0.237 C 
BRANCH   4   5
HETATM    5  C   UNL     1      -4.015   5.944 -31.064  1.00  0.00     0.085 A 
HETATM    6  O   UNL     1      -3.405   7.164 -30.948  1.00  0.00    -0.317 OA
HETATM    7  C   UNL     1      -3.906   7.763 -29.833  1.00  0.00     0.049 A 
HETATM    8  C   UNL     1      -3.378   9.102 -29.507  1.00  0.00     0.076 C 
HETATM    9  C   UNL     1      -4.832   6.944 -29.229  1.00  0.00     0.035 A 
HETATM   10  C   UNL     1      -4.904   5.773 -30.019  1.00  0.00     0.038 A 
ENDBRANCH   4   5
BRANCH   4  11
HETATM   11  C   UNL     1      -2.032   5.040 -32.321  1.00  0.00     0.247 C 
HETATM   12  N   UNL     1      -1.343   5.275 -31.146  1.00  0.00    -0.354 N 
HETATM   13  H   UNL     1      -1.861   5.816 -30.455  1.00  0.00     0.162 HD
HETATM   14  O   UNL     1      -1.450   4.867 -33.393  1.00  0.00    -0.271 OA
BRANCH  12  15
HETATM   15  C   UNL     1       0.109   5.375 -31.090  1.00  0.00     0.084 C 
HETATM   16  C   UNL     1       0.573   6.825 -31.282  1.00  0.00     0.025 C 
HETATM   17  C   UNL     1       0.258   7.708 -30.073  1.00  0.00     0.002 C 
HETATM   18  C   UNL     1       0.803   7.112 -28.779  1.00  0.00     0.000 C 
HETATM   19  C   UNL     1       0.318   5.682 -28.564  1.00  0.00     0.002 C 
HETATM   20  C   UNL     1       0.629   4.794 -29.769  1.00  0.00     0.025 C 
ENDBRANCH  12  15
ENDBRANCH   4  11
ENDBRANCH   1   4
BRANCH   1  21
HETATM   21  C   UNL     1      -5.122   3.579 -33.451  1.00  0.00     0.166 C 
BRANCH  21  22
HETATM   22  C   UNL     1      -6.579   3.264 -33.189  1.00  0.00    -0.037 A 
HETATM   23  C   UNL     1      -7.183   2.255 -33.963  1.00  0.00     0.048 A 
HETATM   24  C   UNL     1      -8.505   1.944 -33.728  1.00  0.00     0.105 A 
HETATM   25  C   UNL     1      -9.240   2.589 -32.764  1.00  0.00     0.105 A 
HETATM   26  O   UNL     1      -9.227   0.999 -34.388  1.00  0.00    -0.323 OA
HETATM   27  O   UNL     1     -10.519   2.135 -32.696  1.00  0.00    -0.323 OA
HETATM   28  C   UNL     1      -8.688   3.575 -31.977  1.00  0.00     0.040 A 
HETATM   29  C   UNL     1     -10.505   1.129 -33.731  1.00  0.00     0.352 A 
HETATM   30  C   UNL     1      -7.345   3.906 -32.188  1.00  0.00     0.012 A 
ENDBRANCH  21  22
ENDBRANCH   1  21
BRANCH   2  31
HETATM   31  C   UNL     1      -4.522   1.469 -31.519  1.00  0.00     0.101 C 
HETATM   32  N   UNL     1      -4.339   0.509 -32.491  1.00  0.00    -0.351 N 
HETATM   33  H   UNL     1      -3.689   0.612 -33.259  1.00  0.00     0.166 HD
HETATM   34  C   UNL     1      -5.243  -0.519 -32.352  1.00  0.00     0.043 C 
HETATM   35  C   UNL     1      -5.915  -0.278 -31.166  1.00  0.00     0.033 C 
HETATM   36  C   UNL     1      -5.451   0.952 -30.635  1.00  0.00     0.037 C 
BRANCH  34  37
HETATM   37  C   UNL     1      -5.396  -1.580 -33.349  1.00  0.00    -0.009 A 
HETATM   38  C   UNL     1      -6.623  -1.809 -33.989  1.00  0.00     0.013 A 
HETATM   39  C   UNL     1      -6.769  -2.860 -34.898  1.00  0.00     0.001 A 
HETATM   40  C   UNL     1      -5.690  -3.694 -35.182  1.00  0.00     0.000 A 
HETATM   41  C   UNL     1      -4.462  -3.472 -34.563  1.00  0.00     0.001 A 
HETATM   42  C   UNL     1      -4.316  -2.421 -33.654  1.00  0.00     0.013 A 
ENDBRANCH  34  37
ENDBRANCH   2  31
TORSDOF 8
ENDMDL
MODEL 2
REMARK VINA RESULT:      -9.8      1.868      2.403
REMARK  8 active torsions:
REMARK  status: ('A' for Active; 'I' for Inactive)
REMARK    1  A    between atoms: C_4  and  C_5 
REMARK    2  A    between atoms: C_5  and  N_6 
REMARK    3  A    between atoms: C_5  and  C_31 
REMARK       I    between atoms: N_6  and  C_7 
REMARK    4  A    between atoms: N_6  and  C_21 
REMARK    5  A    between atoms: C_7  and  C_8 
REMARK    6  A    between atoms: C_11  and  C_12 
REMARK    7  A    between atoms: C_21  and  C_22 
REMARK       I    between atoms: C_31  and  N_32 
REMARK    8  A    between atoms: N_32  and  C_33 
ROOT
HETATM    1  N   UNL     1      -5.923   3.487 -33.304  1.00  0.00    -0.323 N 
HETATM    2  C   UNL     1      -5.024   2.806 -32.482  1.00  0.00     0.271 C 
HETATM    3  O   UNL     1      -3.974   3.338 -32.114  1.00  0.00    -0.266 OA
ENDROOT
BRANCH   1   4
HETATM    4  C   UNL     1      -5.742   4.940 -33.550  1.00  0.00     0.237 C 
BRANCH   4   5
HETATM    5  C   UNL     1      -6.068   5.771 -32.346  1.00  0.00     0.085 A 
HETATM    6  O   UNL     1      -5.920   7.124 -32.489  1.00  0.00    -0.317 OA
HETATM    7  C   UNL     1      -6.236   7.695 -31.295  1.00  0.00     0.049 A 
HETATM    8  C   UNL     1      -6.137   9.166 -31.218  1.00  0.00     0.076 C 
HETATM    9  C   UNL     1      -6.588   6.727 -30.383  1.00  0.00     0.035 A 
HETATM   10  C   UNL     1      -6.481   5.487 -31.057  1.00  0.00     0.038 A 
ENDBRANCH   4   5
BRANCH   4  11
HETATM   11  C   UNL     1      -4.373   5.360 -34.159  1.00  0.00     0.247 C 
HETATM   12  N   UNL     1      -3.495   5.990 -33.296  1.00  0.00    -0.354 N 
HETATM   13  H   UNL     1      -3.940   6.445 -32.501  1.00  0.00     0.162 HD
HETATM   14  O   UNL     1      -4.115   5.207 -35.353  1.00  0.00    -0.271 OA
BRANCH  12  15
HETATM   15  C   UNL     1      -2.226   6.552 -33.737  1.00  0.00     0.084 C 
HETATM   16  C   UNL     1      -1.875   7.819 -32.943  1.00  0.00     0.025 C 
HETATM   17  C   UNL     1      -1.478   7.516 -31.498  1.00  0.00     0.002 C 
HETATM   18  C   UNL     1      -0.360   6.480 -31.423  1.00  0.00     0.000 C 
HETATM   19  C   UNL     1      -0.716   5.205 -32.180  1.00  0.00     0.002 C 
HETATM   20  C   UNL     1      -1.115   5.500 -33.625  1.00  0.00     0.025 C 
ENDBRANCH  12  15
ENDBRANCH   4  11
ENDBRANCH   1   4
BRANCH   1  21
HETATM   21  C   UNL     1      -6.678   2.775 -34.338  1.00  0.00     0.166 C 
BRANCH  21  22
HETATM   22  C   UNL     1      -8.107   2.415 -33.990  1.00  0.00    -0.037 A 
HETATM   23  C   UNL     1      -9.038   3.464 -33.873  1.00  0.00     0.048 A 
HETATM   24  C   UNL     1     -10.348   3.156 -33.571  1.00  0.00     0.105 A 
HETATM   25  C   UNL     1     -10.760   1.859 -33.386  1.00  0.00     0.105 A 
HETATM   26  O   UNL     1     -11.360   4.051 -33.425  1.00  0.00    -0.323 OA
HETATM   27  O   UNL     1     -12.085   1.773 -33.095  1.00  0.00    -0.323 OA
HETATM   28  C   UNL     1      -9.887   0.802 -33.500  1.00  0.00     0.040 A 
HETATM   29  C   UNL     1     -12.458   3.167 -33.119  1.00  0.00     0.352 A 
HETATM   30  C   UNL     1      -8.552   1.085 -33.814  1.00  0.00     0.012 A 
ENDBRANCH  21  22
ENDBRANCH   1  21
BRANCH   2  31
HETATM   31  C   UNL     1      -5.266   1.414 -32.171  1.00  0.00     0.101 C 
HETATM   32  N   UNL     1      -5.042   0.430 -33.109  1.00  0.00    -0.351 N 
HETATM   33  H   UNL     1      -4.702   0.618 -34.043  1.00  0.00     0.166 HD
HETATM   34  C   UNL     1      -5.468  -0.797 -32.655  1.00  0.00     0.043 C 
HETATM   35  C   UNL     1      -5.830  -0.608 -31.332  1.00  0.00     0.033 C 
HETATM   36  C   UNL     1      -5.684   0.768 -31.023  1.00  0.00     0.037 C 
BRANCH  34  37
HETATM   37  C   UNL     1      -5.520  -1.985 -33.510  1.00  0.00    -0.009 A 
HETATM   38  C   UNL     1      -6.688  -2.335 -34.203  1.00  0.00     0.013 A 
HETATM   39  C   UNL     1      -6.739  -3.501 -34.971  1.00  0.00     0.001 A 
HETATM   40  C   UNL     1      -5.623  -4.330 -35.059  1.00  0.00     0.000 A 
HETATM   41  C   UNL     1      -4.453  -3.990 -34.385  1.00  0.00     0.001 A 
HETATM   42  C   UNL     1      -4.402  -2.823 -33.617  1.00  0.00     0.013 A 
ENDBRANCH  34  37
ENDBRANCH   2  31
TORSDOF 8
ENDMDL
MODEL 3
REMARK VINA RESULT:      -9.7      2.869      6.673
REMARK  8 active torsions:
REMARK  status: ('A' for Active; 'I' for Inactive)
REMARK    1  A    between atoms: C_4  and  C_5 
REMARK    2  A    between atoms: C_5  and  N_6 
REMARK    3  A    between atoms: C_5  and  C_31 
REMARK       I    between atoms: N_6  and  C_7 
REMARK    4  A    between atoms: N_6  and  C_21 
REMARK    5  A    between atoms: C_7  and  C_8 
REMARK    6  A    between atoms: C_11  and  C_12 
REMARK    7  A    between atoms: C_21  and  C_22 
REMARK       I    between atoms: C_31  and  N_32 
REMARK    8  A    between atoms: N_32  and  C_33 
ROOT
HETATM    1  N   UNL     1      -7.400   2.311 -31.780  1.00  0.00    -0.323 N 
HETATM    2  C   UNL     1      -8.197   1.305 -32.326  1.00  0.00     0.271 C 
HETATM    3  O   UNL     1      -9.269   0.992 -31.805  1.00  0.00    -0.266 OA
ENDROOT
BRANCH   1   4
HETATM    4  C   UNL     1      -7.944   3.179 -30.705  1.00  0.00     0.237 C 
BRANCH   4   5
HETATM    5  C   UNL     1      -6.974   4.238 -30.277  1.00  0.00     0.085 A 
HETATM    6  O   UNL     1      -6.992   5.400 -30.999  1.00  0.00    -0.317 OA
HETATM    7  C   UNL     1      -6.035   6.217 -30.480  1.00  0.00     0.049 A 
HETATM    8  C   UNL     1      -5.873   7.537 -31.119  1.00  0.00     0.076 C 
HETATM    9  C   UNL     1      -5.400   5.595 -29.429  1.00  0.00     0.035 A 
HETATM   10  C   UNL     1      -6.002   4.322 -29.297  1.00  0.00     0.038 A 
ENDBRANCH   4   5
BRANCH   4  11
HETATM   11  C   UNL     1      -9.350   3.788 -30.970  1.00  0.00     0.247 C 
HETATM   12  N   UNL     1      -9.627   4.123 -32.282  1.00  0.00    -0.354 N 
HETATM   13  H   UNL     1      -8.802   4.296 -32.856  1.00  0.00     0.162 HD
HETATM   14  O   UNL     1     -10.142   4.027 -30.057  1.00  0.00    -0.271 OA
BRANCH  12  15
HETATM   15  C   UNL     1     -10.846   4.813 -32.679  1.00  0.00     0.084 C 
HETATM   16  C   UNL     1     -10.578   5.801 -33.822  1.00  0.00     0.025 C 
HETATM   17  C   UNL     1     -10.294   5.100 -35.151  1.00  0.00     0.002 C 
HETATM   18  C   UNL     1     -11.395   4.109 -35.515  1.00  0.00     0.000 C 
HETATM   19  C   UNL     1     -11.644   3.101 -34.398  1.00  0.00     0.002 C 
HETATM   20  C   UNL     1     -11.927   3.795 -33.066  1.00  0.00     0.025 C 
ENDBRANCH  12  15
ENDBRANCH   4  11
ENDBRANCH   1   4
BRANCH   1  21
HETATM   21  C   UNL     1      -5.939   2.209 -31.811  1.00  0.00     0.166 C 
BRANCH  21  22
HETATM   22  C   UNL     1      -5.221   3.208 -32.695  1.00  0.00    -0.037 A 
HETATM   23  C   UNL     1      -3.851   3.426 -32.460  1.00  0.00     0.048 A 
HETATM   24  C   UNL     1      -3.176   4.320 -33.263  1.00  0.00     0.105 A 
HETATM   25  C   UNL     1      -3.805   4.995 -34.280  1.00  0.00     0.105 A 
HETATM   26  O   UNL     1      -1.858   4.639 -33.163  1.00  0.00    -0.323 OA
HETATM   27  O   UNL     1      -2.964   5.827 -34.949  1.00  0.00    -0.323 OA
HETATM   28  C   UNL     1      -5.141   4.805 -34.553  1.00  0.00     0.040 A 
HETATM   29  C   UNL     1      -1.732   5.599 -34.233  1.00  0.00     0.352 A 
HETATM   30  C   UNL     1      -5.849   3.897 -33.758  1.00  0.00     0.012 A 
ENDBRANCH  21  22
ENDBRANCH   1  21
BRANCH   2  31
HETATM   31  C   UNL     1      -7.691   0.530 -33.439  1.00  0.00     0.101 C 
HETATM   32  N   UNL     1      -7.256  -0.765 -33.262  1.00  0.00    -0.351 N 
HETATM   33  H   UNL     1      -7.266  -1.238 -32.367  1.00  0.00     0.166 HD
HETATM   34  C   UNL     1      -6.689  -1.262 -34.412  1.00  0.00     0.043 C 
HETATM   35  C   UNL     1      -6.913  -0.308 -35.390  1.00  0.00     0.033 C 
HETATM   36  C   UNL     1      -7.558   0.802 -34.788  1.00  0.00     0.037 C 
BRANCH  34  37
HETATM   37  C   UNL     1      -5.981  -2.543 -34.458  1.00  0.00    -0.009 A 
HETATM   38  C   UNL     1      -6.584  -3.691 -34.994  1.00  0.00     0.013 A 
HETATM   39  C   UNL     1      -5.916  -4.919 -34.981  1.00  0.00     0.001 A 
HETATM   40  C   UNL     1      -4.638  -5.015 -34.434  1.00  0.00     0.000 A 
HETATM   41  C   UNL     1      -4.023  -3.881 -33.910  1.00  0.00     0.001 A 
HETATM   42  C   UNL     1      -4.690  -2.653 -33.924  1.00  0.00     0.013 A 
ENDBRANCH  34  37
ENDBRANCH   2  31
TORSDOF 8
ENDMDL
MODEL 4
REMARK VINA RESULT:      -9.6      1.440      2.138
REMARK  8 active torsions:
REMARK  status: ('A' for Active; 'I' for Inactive)
REMARK    1  A    between atoms: C_4  and  C_5 
REMARK    2  A    between atoms: C_5  and  N_6 
REMARK    3  A    between atoms: C_5  and  C_31 
REMARK       I    between atoms: N_6  and  C_7 
REMARK    4  A    between atoms: N_6  and  C_21 
REMARK    5  A    between atoms: C_7  and  C_8 
REMARK    6  A    between atoms: C_11  and  C_12 
REMARK    7  A    between atoms: C_21  and  C_22 
REMARK       I    between atoms: C_31  and  N_32 
REMARK    8  A    between atoms: N_32  and  C_33 
ROOT
HETATM    1  N   UNL     1      -4.676   3.747 -31.110  1.00  0.00    -0.323 N 
HETATM    2  C   UNL     1      -4.104   3.086 -32.198  1.00  0.00     0.271 C 
HETATM    3  O   UNL     1      -3.881   3.679 -33.255  1.00  0.00    -0.266 OA
ENDROOT
BRANCH   1   4
HETATM    4  C   UNL     1      -4.802   5.226 -31.131  1.00  0.00     0.237 C 
BRANCH   4   5
HETATM    5  C   UNL     1      -5.388   5.771 -29.863  1.00  0.00     0.085 A 
HETATM    6  O   UNL     1      -4.497   6.092 -28.877  1.00  0.00    -0.317 OA
HETATM    7  C   UNL     1      -5.215   6.539 -27.810  1.00  0.00     0.049 A 
HETATM    8  C   UNL     1      -4.448   6.940 -26.615  1.00  0.00     0.076 C 
HETATM    9  C   UNL     1      -6.561   6.511 -28.099  1.00  0.00     0.035 A 
HETATM   10  C   UNL     1      -6.674   6.017 -29.420  1.00  0.00     0.038 A 
ENDBRANCH   4   5
BRANCH   4  11
HETATM   11  C   UNL     1      -3.520   6.012 -31.531  1.00  0.00     0.247 C 
HETATM   12  N   UNL     1      -2.407   5.798 -30.739  1.00  0.00    -0.354 N 
HETATM   13  H   UNL     1      -2.617   5.472 -29.797  1.00  0.00     0.162 HD
HETATM   14  O   UNL     1      -3.516   6.830 -32.452  1.00  0.00    -0.271 OA
BRANCH  12  15
HETATM   15  C   UNL     1      -1.168   6.543 -30.905  1.00  0.00     0.084 C 
HETATM   16  C   UNL     1      -0.939   7.506 -29.731  1.00  0.00     0.025 C 
HETATM   17  C   UNL     1      -0.572   6.779 -28.437  1.00  0.00     0.002 C 
HETATM   18  C   UNL     1       0.615   5.841 -28.631  1.00  0.00     0.000 C 
HETATM   19  C   UNL     1       0.380   4.858 -29.773  1.00  0.00     0.002 C 
HETATM   20  C   UNL     1       0.013   5.577 -31.070  1.00  0.00     0.025 C 
ENDBRANCH  12  15
ENDBRANCH   4  11
ENDBRANCH   1   4
BRANCH   1  21
HETATM   21  C   UNL     1      -5.623   3.060 -30.229  1.00  0.00     0.166 C 
BRANCH  21  22
HETATM   22  C   UNL     1      -6.843   2.465 -30.900  1.00  0.00    -0.037 A 
HETATM   23  C   UNL     1      -7.716   3.342 -31.571  1.00  0.00     0.048 A 
HETATM   24  C   UNL     1      -8.824   2.817 -32.201  1.00  0.00     0.105 A 
HETATM   25  C   UNL     1      -9.093   1.471 -32.190  1.00  0.00     0.105 A 
HETATM   26  O   UNL     1      -9.757   3.529 -32.888  1.00  0.00    -0.323 OA
HETATM   27  O   UNL     1     -10.231   1.163 -32.866  1.00  0.00    -0.323 OA
HETATM   28  C   UNL     1      -8.262   0.576 -31.555  1.00  0.00     0.040 A 
HETATM   29  C   UNL     1     -10.649   2.474 -33.303  1.00  0.00     0.352 A 
HETATM   30  C   UNL     1      -7.124   1.079 -30.913  1.00  0.00     0.012 A 
ENDBRANCH  21  22
ENDBRANCH   1  21
BRANCH   2  31
HETATM   31  C   UNL     1      -3.897   1.656 -32.125  1.00  0.00     0.101 C 
HETATM   32  N   UNL     1      -4.465   0.809 -33.052  1.00  0.00    -0.351 N 
HETATM   33  H   UNL     1      -5.042   1.130 -33.818  1.00  0.00     0.166 HD
HETATM   34  C   UNL     1      -4.259  -0.508 -32.715  1.00  0.00     0.043 C 
HETATM   35  C   UNL     1      -3.403  -0.494 -31.627  1.00  0.00     0.033 C 
HETATM   36  C   UNL     1      -3.160   0.856 -31.271  1.00  0.00     0.037 C 
BRANCH  34  37
HETATM   37  C   UNL     1      -4.905  -1.617 -33.421  1.00  0.00    -0.009 A 
HETATM   38  C   UNL     1      -4.201  -2.786 -33.744  1.00  0.00     0.013 A 
HETATM   39  C   UNL     1      -4.815  -3.813 -34.465  1.00  0.00     0.001 A 
HETATM   40  C   UNL     1      -6.142  -3.686 -34.871  1.00  0.00     0.000 A 
HETATM   41  C   UNL     1      -6.858  -2.536 -34.547  1.00  0.00     0.001 A 
HETATM   42  C   UNL     1      -6.243  -1.510 -33.825  1.00  0.00     0.013 A 
ENDBRANCH  34  37
ENDBRANCH   2  31
TORSDOF 8
ENDMDL
MODEL 5
REMARK VINA RESULT:      -9.0      2.755      7.551
REMARK  8 active torsions:
REMARK  status: ('A' for Active; 'I' for Inactive)
REMARK    1  A    between atoms: C_4  and  C_5 
REMARK    2  A    between atoms: C_5  and  N_6 
REMARK    3  A    between atoms: C_5  and  C_31 
REMARK       I    between atoms: N_6  and  C_7 
REMARK    4  A    between atoms: N_6  and  C_21 
REMARK    5  A    between atoms: C_7  and  C_8 
REMARK    6  A    between atoms: C_11  and  C_12 
REMARK    7  A    between atoms: C_21  and  C_22 
REMARK       I    between atoms: C_31  and  N_32 
REMARK    8  A    between atoms: N_32  and  C_33 
ROOT
HETATM    1  N   UNL     1      -8.712   2.634 -32.300  1.00  0.00    -0.323 N 
HETATM    2  C   UNL     1      -8.677   1.239 -32.259  1.00  0.00     0.271 C 
HETATM    3  O   UNL     1      -8.999   0.627 -31.239  1.00  0.00    -0.266 OA
ENDROOT
BRANCH   1   4
HETATM    4  C   UNL     1      -9.363   3.386 -31.198  1.00  0.00     0.237 C 
BRANCH   4   5
HETATM    5  C   UNL     1      -8.552   4.565 -30.750  1.00  0.00     0.085 A 
HETATM    6  O   UNL     1      -7.730   4.357 -29.676  1.00  0.00    -0.317 OA
HETATM    7  C   UNL     1      -7.105   5.536 -29.409  1.00  0.00     0.049 A 
HETATM    8  C   UNL     1      -6.166   5.546 -28.270  1.00  0.00     0.076 C 
HETATM    9  C   UNL     1      -7.514   6.502 -30.300  1.00  0.00     0.035 A 
HETATM   10  C   UNL     1      -8.445   5.879 -31.164  1.00  0.00     0.038 A 
ENDBRANCH   4   5
BRANCH   4  11
HETATM   11  C   UNL     1     -10.846   3.793 -31.436  1.00  0.00     0.247 C 
HETATM   12  N   UNL     1     -11.433   3.293 -32.585  1.00  0.00    -0.354 N 
HETATM   13  H   UNL     1     -10.774   3.046 -33.321  1.00  0.00     0.162 HD
HETATM   14  O   UNL     1     -11.439   4.570 -30.688  1.00  0.00    -0.271 OA
BRANCH  12  15
HETATM   15  C   UNL     1     -12.771   3.675 -33.015  1.00  0.00     0.084 C 
HETATM   16  C   UNL     1     -12.839   3.833 -34.540  1.00  0.00     0.025 C 
HETATM   17  C   UNL     1     -12.759   2.494 -35.274  1.00  0.00     0.002 C 
HETATM   18  C   UNL     1     -13.804   1.506 -34.766  1.00  0.00     0.000 C 
HETATM   19  C   UNL     1     -13.720   1.317 -33.255  1.00  0.00     0.002 C 
HETATM   20  C   UNL     1     -13.799   2.652 -32.515  1.00  0.00     0.025 C 
ENDBRANCH  12  15
ENDBRANCH   4  11
ENDBRANCH   1   4
BRANCH   1  21
HETATM   21  C   UNL     1      -7.703   3.387 -33.049  1.00  0.00     0.166 C 
BRANCH  21  22
HETATM   22  C   UNL     1      -6.282   3.288 -32.536  1.00  0.00    -0.037 A 
HETATM   23  C   UNL     1      -5.378   4.300 -32.909  1.00  0.00     0.048 A 
HETATM   24  C   UNL     1      -4.083   4.236 -32.439  1.00  0.00     0.105 A 
HETATM   25  C   UNL     1      -3.661   3.218 -31.620  1.00  0.00     0.105 A 
HETATM   26  O   UNL     1      -3.096   5.132 -32.708  1.00  0.00    -0.323 OA
HETATM   27  O   UNL     1      -2.353   3.341 -31.272  1.00  0.00    -0.323 OA
HETATM   28  C   UNL     1      -4.513   2.214 -31.221  1.00  0.00     0.040 A 
HETATM   29  C   UNL     1      -2.000   4.555 -31.968  1.00  0.00     0.352 A 
HETATM   30  C   UNL     1      -5.836   2.257 -31.677  1.00  0.00     0.012 A 
ENDBRANCH  21  22
ENDBRANCH   1  21
BRANCH   2  31
HETATM   31  C   UNL     1      -8.127   0.514 -33.384  1.00  0.00     0.101 C 
HETATM   32  N   UNL     1      -7.597  -0.747 -33.224  1.00  0.00    -0.351 N 
HETATM   33  H   UNL     1      -7.564  -1.228 -32.334  1.00  0.00     0.166 HD
HETATM   34  C   UNL     1      -7.006  -1.191 -34.384  1.00  0.00     0.043 C 
HETATM   35  C   UNL     1      -7.307  -0.246 -35.350  1.00  0.00     0.033 C 
HETATM   36  C   UNL     1      -8.025   0.809 -34.731  1.00  0.00     0.037 C 
BRANCH  34  37
HETATM   37  C   UNL     1      -6.207  -2.417 -34.448  1.00  0.00    -0.009 A 
HETATM   38  C   UNL     1      -6.766  -3.630 -34.876  1.00  0.00     0.013 A 
HETATM   39  C   UNL     1      -6.007  -4.803 -34.881  1.00  0.00     0.001 A 
HETATM   40  C   UNL     1      -4.679  -4.778 -34.460  1.00  0.00     0.000 A 
HETATM   41  C   UNL     1      -4.107  -3.578 -34.044  1.00  0.00     0.001 A 
HETATM   42  C   UNL     1      -4.867  -2.405 -34.040  1.00  0.00     0.013 A 
ENDBRANCH  34  37
ENDBRANCH   2  31
TORSDOF 8
ENDMDL
MODEL 6
REMARK VINA RESULT:      -9.0      2.793      5.769
REMARK  8 active torsions:
REMARK  status: ('A' for Active; 'I' for Inactive)
REMARK    1  A    between atoms: C_4  and  C_5 
REMARK    2  A    between atoms: C_5  and  N_6 
REMARK    3  A    between atoms: C_5  and  C_31 
REMARK       I    between atoms: N_6  and  C_7 
REMARK    4  A    between atoms: N_6  and  C_21 
REMARK    5  A    between atoms: C_7  and  C_8 
REMARK    6  A    between atoms: C_11  and  C_12 
REMARK    7  A    between atoms: C_21  and  C_22 
REMARK       I    between atoms: C_31  and  N_32 
REMARK    8  A    between atoms: N_32  and  C_33 
ROOT
HETATM    1  N   UNL     1      -7.579   4.541 -33.254  1.00  0.00    -0.323 N 
HETATM    2  C   UNL     1      -8.666   4.512 -34.128  1.00  0.00     0.271 C 
HETATM    3  O   UNL     1      -8.944   5.489 -34.827  1.00  0.00    -0.266 OA
ENDROOT
BRANCH   1   4
HETATM    4  C   UNL     1      -6.604   5.658 -33.328  1.00  0.00     0.237 C 
BRANCH   4   5
HETATM    5  C   UNL     1      -6.446   6.371 -32.019  1.00  0.00     0.085 A 
HETATM    6  O   UNL     1      -5.547   5.827 -31.142  1.00  0.00    -0.317 OA
HETATM    7  C   UNL     1      -5.565   6.592 -30.016  1.00  0.00     0.049 A 
HETATM    8  C   UNL     1      -4.666   6.180 -28.921  1.00  0.00     0.076 C 
HETATM    9  C   UNL     1      -6.465   7.624 -30.158  1.00  0.00     0.035 A 
HETATM   10  C   UNL     1      -7.033   7.483 -31.445  1.00  0.00     0.038 A 
ENDBRANCH   4   5
BRANCH   4  11
HETATM   11  C   UNL     1      -5.217   5.310 -33.941  1.00  0.00     0.247 C 
HETATM   12  N   UNL     1      -4.138   6.011 -33.434  1.00  0.00    -0.354 N 
HETATM   13  H   UNL     1      -4.379   6.908 -33.015  1.00  0.00     0.162 HD
HETATM   14  O   UNL     1      -5.095   4.512 -34.871  1.00  0.00    -0.271 OA
BRANCH  12  15
HETATM   15  C   UNL     1      -2.794   5.891 -33.980  1.00  0.00     0.084 C 
HETATM   16  C   UNL     1      -2.009   7.199 -33.813  1.00  0.00     0.025 C 
HETATM   17  C   UNL     1      -1.619   7.469 -32.359  1.00  0.00     0.002 C 
HETATM   18  C   UNL     1      -0.876   6.287 -31.744  1.00  0.00     0.000 C 
HETATM   19  C   UNL     1      -1.666   4.990 -31.875  1.00  0.00     0.002 C 
HETATM   20  C   UNL     1      -2.060   4.714 -33.325  1.00  0.00     0.025 C 
ENDBRANCH  12  15
ENDBRANCH   4  11
ENDBRANCH   1   4
BRANCH   1  21
HETATM   21  C   UNL     1      -7.643   3.864 -31.957  1.00  0.00     0.166 C 
BRANCH  21  22
HETATM   22  C   UNL     1      -6.894   2.551 -31.855  1.00  0.00    -0.037 A 
HETATM   23  C   UNL     1      -5.527   2.548 -32.189  1.00  0.00     0.048 A 
HETATM   24  C   UNL     1      -4.824   1.366 -32.088  1.00  0.00     0.105 A 
HETATM   25  C   UNL     1      -5.422   0.203 -31.670  1.00  0.00     0.105 A 
HETATM   26  O   UNL     1      -3.505   1.201 -32.374  1.00  0.00    -0.323 OA
HETATM   27  O   UNL     1      -4.557  -0.844 -31.643  1.00  0.00    -0.323 OA
HETATM   28  C   UNL     1      -6.754   0.162 -31.323  1.00  0.00     0.040 A 
HETATM   29  C   UNL     1      -3.344  -0.205 -32.093  1.00  0.00     0.352 A 
HETATM   30  C   UNL     1      -7.490   1.349 -31.408  1.00  0.00     0.012 A 
ENDBRANCH  21  22
ENDBRANCH   1  21
BRANCH   2  31
HETATM   31  C   UNL     1      -9.555   3.371 -34.112  1.00  0.00     0.101 C 
HETATM   32  N   UNL     1     -10.913   3.531 -33.946  1.00  0.00    -0.351 N 
HETATM   33  H   UNL     1     -11.356   4.434 -33.831  1.00  0.00     0.166 HD
HETATM   34  C   UNL     1     -11.547   2.317 -33.819  1.00  0.00     0.043 C 
HETATM   35  C   UNL     1     -10.582   1.356 -34.068  1.00  0.00     0.033 C 
HETATM   36  C   UNL     1      -9.342   2.014 -34.272  1.00  0.00     0.037 C 
BRANCH  34  37
HETATM   37  C   UNL     1     -12.959   2.195 -33.452  1.00  0.00    -0.009 A 
HETATM   38  C   UNL     1     -13.500   2.920 -32.380  1.00  0.00     0.013 A 
HETATM   39  C   UNL     1     -14.836   2.752 -32.007  1.00  0.00     0.001 A 
HETATM   40  C   UNL     1     -15.649   1.858 -32.701  1.00  0.00     0.000 A 
HETATM   41  C   UNL     1     -15.129   1.139 -33.774  1.00  0.00     0.001 A 
HETATM   42  C   UNL     1     -13.793   1.308 -34.148  1.00  0.00     0.013 A 
ENDBRANCH  34  37
ENDBRANCH   2  31
TORSDOF 8
ENDMDL
MODEL 7
REMARK VINA RESULT:      -8.8      2.248      8.627
REMARK  8 active torsions:
REMARK  status: ('A' for Active; 'I' for Inactive)
REMARK    1  A    between atoms: C_4  and  C_5 
REMARK    2  A    between atoms: C_5  and  N_6 
REMARK    3  A    between atoms: C_5  and  C_31 
REMARK       I    between atoms: N_6  and  C_7 
REMARK    4  A    between atoms: N_6  and  C_21 
REMARK    5  A    between atoms: C_7  and  C_8 
REMARK    6  A    between atoms: C_11  and  C_12 
REMARK    7  A    between atoms: C_21  and  C_22 
REMARK       I    between atoms: C_31  and  N_32 
REMARK    8  A    between atoms: N_32  and  C_33 
ROOT
HETATM    1  N   UNL     1      -6.482   4.441 -30.180  1.00  0.00    -0.323 N 
HETATM    2  C   UNL     1      -6.314   5.335 -29.121  1.00  0.00     0.271 C 
HETATM    3  O   UNL     1      -7.016   5.260 -28.111  1.00  0.00    -0.266 OA
ENDROOT
BRANCH   1   4
HETATM    4  C   UNL     1      -7.343   3.244 -30.003  1.00  0.00     0.237 C 
BRANCH   4   5
HETATM    5  C   UNL     1      -8.718   3.438 -30.569  1.00  0.00     0.085 A 
HETATM    6  O   UNL     1      -9.062   2.619 -31.610  1.00  0.00    -0.317 OA
HETATM    7  C   UNL     1     -10.321   2.961 -31.997  1.00  0.00     0.049 A 
HETATM    8  C   UNL     1     -10.897   2.201 -33.124  1.00  0.00     0.076 C 
HETATM    9  C   UNL     1     -10.794   3.991 -31.216  1.00  0.00     0.035 A 
HETATM   10  C   UNL     1      -9.764   4.299 -30.297  1.00  0.00     0.038 A 
ENDBRANCH   4   5
BRANCH   4  11
HETATM   11  C   UNL     1      -6.734   1.893 -30.475  1.00  0.00     0.247 C 
HETATM   12  N   UNL     1      -6.712   1.684 -31.842  1.00  0.00    -0.354 N 
HETATM   13  H   UNL     1      -7.406   2.220 -32.361  1.00  0.00     0.162 HD
HETATM   14  O   UNL     1      -6.361   1.031 -29.679  1.00  0.00    -0.271 OA
BRANCH  12  15
HETATM   15  C   UNL     1      -6.288   0.426 -32.439  1.00  0.00     0.084 C 
HETATM   16  C   UNL     1      -7.449  -0.576 -32.506  1.00  0.00     0.025 C 
HETATM   17  C   UNL     1      -8.497  -0.194 -33.551  1.00  0.00     0.002 C 
HETATM   18  C   UNL     1      -7.871   0.031 -34.924  1.00  0.00     0.000 C 
HETATM   19  C   UNL     1      -6.740   1.052 -34.873  1.00  0.00     0.002 C 
HETATM   20  C   UNL     1      -5.689   0.676 -33.829  1.00  0.00     0.025 C 
ENDBRANCH  12  15
ENDBRANCH   4  11
ENDBRANCH   1   4
BRANCH   1  21
HETATM   21  C   UNL     1      -6.317   4.883 -31.567  1.00  0.00     0.166 C 
BRANCH  21  22
HETATM   22  C   UNL     1      -4.905   4.849 -32.112  1.00  0.00    -0.037 A 
HETATM   23  C   UNL     1      -4.480   5.933 -32.902  1.00  0.00     0.048 A 
HETATM   24  C   UNL     1      -3.193   5.928 -33.395  1.00  0.00     0.105 A 
HETATM   25  C   UNL     1      -2.322   4.899 -33.133  1.00  0.00     0.105 A 
HETATM   26  O   UNL     1      -2.636   6.896 -34.170  1.00  0.00    -0.323 OA
HETATM   27  O   UNL     1      -1.107   5.086 -33.712  1.00  0.00    -0.323 OA
HETATM   28  C   UNL     1      -2.691   3.824 -32.356  1.00  0.00     0.040 A 
HETATM   29  C   UNL     1      -1.315   6.353 -34.371  1.00  0.00     0.352 A 
HETATM   30  C   UNL     1      -3.991   3.806 -31.836  1.00  0.00     0.012 A 
ENDBRANCH  21  22
ENDBRANCH   1  21
BRANCH   2  31
HETATM   31  C   UNL     1      -5.397   6.444 -29.273  1.00  0.00     0.101 C 
HETATM   32  N   UNL     1      -4.034   6.245 -29.244  1.00  0.00    -0.351 N 
HETATM   33  H   UNL     1      -3.606   5.337 -29.120  1.00  0.00     0.166 HD
HETATM   34  C   UNL     1      -3.356   7.442 -29.265  1.00  0.00     0.043 C 
HETATM   35  C   UNL     1      -4.315   8.419 -29.470  1.00  0.00     0.033 C 
HETATM   36  C   UNL     1      -5.587   7.795 -29.496  1.00  0.00     0.037 C 
BRANCH  34  37
HETATM   37  C   UNL     1      -1.909   7.537 -29.059  1.00  0.00    -0.009 A 
HETATM   38  C   UNL     1      -1.003   7.151 -30.058  1.00  0.00     0.013 A 
HETATM   39  C   UNL     1       0.375   7.196 -29.827  1.00  0.00     0.001 A 
HETATM   40  C   UNL     1       0.864   7.630 -28.597  1.00  0.00     0.000 A 
HETATM   41  C   UNL     1      -0.023   8.027 -27.600  1.00  0.00     0.001 A 
HETATM   42  C   UNL     1      -1.401   7.983 -27.831  1.00  0.00     0.013 A 
ENDBRANCH  34  37
ENDBRANCH   2  31
TORSDOF 8
ENDMDL
MODEL 8
REMARK VINA RESULT:      -8.8      2.836      8.776
REMARK  8 active torsions:
REMARK  status: ('A' for Active; 'I' for Inactive)
REMARK    1  A    between atoms: C_4  and  C_5 
REMARK    2  A    between atoms: C_5  and  N_6 
REMARK    3  A    between atoms: C_5  and  C_31 
REMARK       I    between atoms: N_6  and  C_7 
REMARK    4  A    between atoms: N_6  and  C_21 
REMARK    5  A    between atoms: C_7  and  C_8 
REMARK    6  A    between atoms: C_11  and  C_12 
REMARK    7  A    between atoms: C_21  and  C_22 
REMARK       I    between atoms: C_31  and  N_32 
REMARK    8  A    between atoms: N_32  and  C_33 
ROOT
HETATM    1  N   UNL     1      -8.053   2.522 -33.549  1.00  0.00    -0.323 N 
HETATM    2  C   UNL     1      -7.897   3.345 -32.433  1.00  0.00     0.271 C 
HETATM    3  O   UNL     1      -8.783   4.133 -32.097  1.00  0.00    -0.266 OA
ENDROOT
BRANCH   1   4
HETATM    4  C   UNL     1      -9.381   2.415 -34.204  1.00  0.00     0.237 C 
BRANCH   4   5
HETATM    5  C   UNL     1     -10.167   1.234 -33.718  1.00  0.00     0.085 A 
HETATM    6  O   UNL     1     -11.495   1.216 -34.048  1.00  0.00    -0.317 OA
HETATM    7  C   UNL     1     -12.034   0.093 -33.501  1.00  0.00     0.049 A 
HETATM    8  C   UNL     1     -13.476  -0.128 -33.729  1.00  0.00     0.076 C 
HETATM    9  C   UNL     1     -11.069  -0.615 -32.823  1.00  0.00     0.035 A 
HETATM   10  C   UNL     1      -9.867   0.117 -32.960  1.00  0.00     0.038 A 
ENDBRANCH   4   5
BRANCH   4  11
HETATM   11  C   UNL     1     -10.252   3.704 -34.190  1.00  0.00     0.247 C 
HETATM   12  N   UNL     1     -11.288   3.724 -33.275  1.00  0.00    -0.354 N 
HETATM   13  H   UNL     1     -11.611   2.803 -32.984  1.00  0.00     0.162 HD
HETATM   14  O   UNL     1     -10.076   4.620 -34.994  1.00  0.00    -0.271 OA
BRANCH  12  15
HETATM   15  C   UNL     1     -12.266   4.801 -33.216  1.00  0.00     0.084 C 
HETATM   16  C   UNL     1     -13.686   4.252 -33.017  1.00  0.00     0.025 C 
HETATM   17  C   UNL     1     -13.908   3.693 -31.611  1.00  0.00     0.002 C 
HETATM   18  C   UNL     1     -13.545   4.710 -30.534  1.00  0.00     0.000 C 
HETATM   19  C   UNL     1     -12.124   5.235 -30.704  1.00  0.00     0.002 C 
HETATM   20  C   UNL     1     -11.894   5.795 -32.108  1.00  0.00     0.025 C 
ENDBRANCH  12  15
ENDBRANCH   4  11
ENDBRANCH   1   4
BRANCH   1  21
HETATM   21  C   UNL     1      -6.912   2.205 -34.412  1.00  0.00     0.166 C 
BRANCH  21  22
HETATM   22  C   UNL     1      -6.424   0.773 -34.368  1.00  0.00    -0.037 A 
HETATM   23  C   UNL     1      -5.342   0.474 -33.517  1.00  0.00     0.048 A 
HETATM   24  C   UNL     1      -4.892  -0.827 -33.452  1.00  0.00     0.105 A 
HETATM   25  C   UNL     1      -5.472  -1.831 -34.189  1.00  0.00     0.105 A 
HETATM   26  O   UNL     1      -3.864  -1.273 -32.683  1.00  0.00    -0.323 OA
HETATM   27  O   UNL     1      -4.879  -3.036 -33.981  1.00  0.00    -0.323 OA
HETATM   28  C   UNL     1      -6.537  -1.587 -35.026  1.00  0.00     0.040 A 
HETATM   29  C   UNL     1      -3.858  -2.674 -33.027  1.00  0.00     0.352 A 
HETATM   30  C   UNL     1      -7.020  -0.275 -35.106  1.00  0.00     0.012 A 
ENDBRANCH  21  22
ENDBRANCH   1  21
BRANCH   2  31
HETATM   31  C   UNL     1      -6.624   3.367 -31.745  1.00  0.00     0.101 C 
HETATM   32  N   UNL     1      -5.649   4.279 -32.086  1.00  0.00    -0.351 N 
HETATM   33  H   UNL     1      -5.765   4.969 -32.816  1.00  0.00     0.166 HD
HETATM   34  C   UNL     1      -4.478   4.033 -31.409  1.00  0.00     0.043 C 
HETATM   35  C   UNL     1      -4.767   3.031 -30.499  1.00  0.00     0.033 C 
HETATM   36  C   UNL     1      -6.113   2.629 -30.693  1.00  0.00     0.037 C 
BRANCH  34  37
HETATM   37  C   UNL     1      -3.226   4.731 -31.711  1.00  0.00    -0.009 A 
HETATM   38  C   UNL     1      -2.777   5.799 -30.920  1.00  0.00     0.013 A 
HETATM   39  C   UNL     1      -1.609   6.491 -31.251  1.00  0.00     0.001 A 
HETATM   40  C   UNL     1      -0.874   6.123 -32.376  1.00  0.00     0.000 A 
HETATM   41  C   UNL     1      -1.301   5.057 -33.164  1.00  0.00     0.001 A 
HETATM   42  C   UNL     1      -2.468   4.365 -32.832  1.00  0.00     0.013 A 
ENDBRANCH  34  37
ENDBRANCH   2  31
TORSDOF 8
ENDMDL
MODEL 9
REMARK VINA RESULT:      -8.8      2.112      8.754
REMARK  8 active torsions:
REMARK  status: ('A' for Active; 'I' for Inactive)
REMARK    1  A    between atoms: C_4  and  C_5 
REMARK    2  A    between atoms: C_5  and  N_6 
REMARK    3  A    between atoms: C_5  and  C_31 
REMARK       I    between atoms: N_6  and  C_7 
REMARK    4  A    between atoms: N_6  and  C_21 
REMARK    5  A    between atoms: C_7  and  C_8 
REMARK    6  A    between atoms: C_11  and  C_12 
REMARK    7  A    between atoms: C_21  and  C_22 
REMARK       I    between atoms: C_31  and  N_32 
REMARK    8  A    between atoms: N_32  and  C_33 
ROOT
HETATM    1  N   UNL     1      -4.083   4.635 -32.141  1.00  0.00    -0.323 N 
HETATM    2  C   UNL     1      -2.834   5.159 -32.476  1.00  0.00     0.271 C 
HETATM    3  O   UNL     1      -2.130   4.620 -33.333  1.00  0.00    -0.266 OA
ENDROOT
BRANCH   1   4
HETATM    4  C   UNL     1      -4.681   3.564 -32.977  1.00  0.00     0.237 C 
BRANCH   4   5
HETATM    5  C   UNL     1      -4.399   2.192 -32.441  1.00  0.00     0.085 A 
HETATM    6  O   UNL     1      -5.014   1.155 -33.086  1.00  0.00    -0.317 OA
HETATM    7  C   UNL     1      -4.658   0.009 -32.444  1.00  0.00     0.049 A 
HETATM    8  C   UNL     1      -5.220  -1.249 -32.973  1.00  0.00     0.076 C 
HETATM    9  C   UNL     1      -3.819   0.296 -31.392  1.00  0.00     0.035 A 
HETATM   10  C   UNL     1      -3.650   1.700 -31.388  1.00  0.00     0.038 A 
ENDBRANCH   4   5
BRANCH   4  11
HETATM   11  C   UNL     1      -6.191   3.728 -33.313  1.00  0.00     0.247 C 
HETATM   12  N   UNL     1      -7.056   2.881 -32.644  1.00  0.00    -0.354 N 
HETATM   13  H   UNL     1      -6.626   2.020 -32.309  1.00  0.00     0.162 HD
HETATM   14  O   UNL     1      -6.587   4.512 -34.176  1.00  0.00    -0.271 OA
BRANCH  12  15
HETATM   15  C   UNL     1      -8.482   2.823 -32.932  1.00  0.00     0.084 C 
HETATM   16  C   UNL     1      -8.753   2.067 -34.240  1.00  0.00     0.025 C 
HETATM   17  C   UNL     1      -8.507   0.563 -34.112  1.00  0.00     0.002 C 
HETATM   18  C   UNL     1      -9.281  -0.041 -32.945  1.00  0.00     0.000 C 
HETATM   19  C   UNL     1      -8.990   0.683 -31.635  1.00  0.00     0.002 C 
HETATM   20  C   UNL     1      -9.233   2.187 -31.756  1.00  0.00     0.025 C 
ENDBRANCH  12  15
ENDBRANCH   4  11
ENDBRANCH   1   4
BRANCH   1  21
HETATM   21  C   UNL     1      -4.569   4.683 -30.759  1.00  0.00     0.166 C 
BRANCH  21  22
HETATM   22  C   UNL     1      -5.404   5.891 -30.390  1.00  0.00    -0.037 A 
HETATM   23  C   UNL     1      -5.505   6.227 -29.026  1.00  0.00     0.048 A 
HETATM   24  C   UNL     1      -6.248   7.332 -28.671  1.00  0.00     0.105 A 
HETATM   25  C   UNL     1      -6.884   8.108 -29.609  1.00  0.00     0.105 A 
HETATM   26  O   UNL     1      -6.441   7.784 -27.403  1.00  0.00    -0.323 OA
HETATM   27  O   UNL     1      -7.562   9.145 -29.050  1.00  0.00    -0.323 OA
HETATM   28  C   UNL     1      -6.805   7.823 -30.953  1.00  0.00     0.040 A 
HETATM   29  C   UNL     1      -7.280   8.931 -27.652  1.00  0.00     0.352 A 
HETATM   30  C   UNL     1      -6.050   6.711 -31.344  1.00  0.00     0.012 A 
ENDBRANCH  21  22
ENDBRANCH   1  21
BRANCH   2  31
HETATM   31  C   UNL     1      -2.306   6.268 -31.712  1.00  0.00     0.101 C 
HETATM   32  N   UNL     1      -1.401   6.061 -30.694  1.00  0.00    -0.351 N 
HETATM   33  H   UNL     1      -1.061   5.145 -30.430  1.00  0.00     0.166 HD
HETATM   34  C   UNL     1      -1.141   7.227 -30.014  1.00  0.00     0.043 C 
HETATM   35  C   UNL     1      -1.781   8.231 -30.720  1.00  0.00     0.033 C 
HETATM   36  C   UNL     1      -2.491   7.636 -31.793  1.00  0.00     0.037 C 
BRANCH  34  37
HETATM   37  C   UNL     1      -0.360   7.266 -28.775  1.00  0.00    -0.009 A 
HETATM   38  C   UNL     1      -0.766   6.558 -27.634  1.00  0.00     0.013 A 
HETATM   39  C   UNL     1      -0.040   6.647 -26.444  1.00  0.00     0.001 A 
HETATM   40  C   UNL     1       1.102   7.444 -26.378  1.00  0.00     0.000 A 
HETATM   41  C   UNL     1       1.523   8.143 -27.507  1.00  0.00     0.001 A 
HETATM   42  C   UNL     1       0.797   8.052 -28.698  1.00  0.00     0.013 A 
ENDBRANCH  34  37
ENDBRANCH   2  31
TORSDOF 8
ENDMDL
MODEL 10
REMARK VINA RESULT:      -8.7      2.528      7.000
REMARK  8 active torsions:
REMARK  status: ('A' for Active; 'I' for Inactive)
REMARK    1  A    between atoms: C_4  and  C_5 
REMARK    2  A    between atoms: C_5  and  N_6 
REMARK    3  A    between atoms: C_5  and  C_31 
REMARK       I    between atoms: N_6  and  C_7 
REMARK    4  A    between atoms: N_6  and  C_21 
REMARK    5  A    between atoms: C_7  and  C_8 
REMARK    6  A    between atoms: C_11  and  C_12 
REMARK    7  A    between atoms: C_21  and  C_22 
REMARK       I    between atoms: C_31  and  N_32 
REMARK    8  A    between atoms: N_32  and  C_33 
ROOT
HETATM    1  N   UNL     1      -6.690   2.933 -32.822  1.00  0.00    -0.323 N 
HETATM    2  C   UNL     1      -6.369   1.898 -31.942  1.00  0.00     0.271 C 
HETATM    3  O   UNL     1      -6.723   1.937 -30.762  1.00  0.00    -0.266 OA
ENDROOT
BRANCH   1   4
HETATM    4  C   UNL     1      -7.662   3.976 -32.408  1.00  0.00     0.237 C 
BRANCH   4   5
HETATM    5  C   UNL     1      -6.992   5.214 -31.893  1.00  0.00     0.085 A 
HETATM    6  O   UNL     1      -6.314   5.085 -30.712  1.00  0.00    -0.317 OA
HETATM    7  C   UNL     1      -5.803   6.308 -30.401  1.00  0.00     0.049 A 
HETATM    8  C   UNL     1      -5.030   6.404 -29.148  1.00  0.00     0.076 C 
HETATM    9  C   UNL     1      -6.143   7.224 -31.370  1.00  0.00     0.035 A 
HETATM   10  C   UNL     1      -6.908   6.522 -32.331  1.00  0.00     0.038 A 
ENDBRANCH   4   5
BRANCH   4  11
HETATM   11  C   UNL     1      -8.760   4.333 -33.451  1.00  0.00     0.247 C 
HETATM   12  N   UNL     1     -10.002   3.762 -33.241  1.00  0.00    -0.354 N 
HETATM   13  H   UNL     1      -9.985   2.908 -32.687  1.00  0.00     0.162 HD
HETATM   14  O   UNL     1      -8.521   5.022 -34.443  1.00  0.00    -0.271 OA
BRANCH  12  15
HETATM   15  C   UNL     1     -11.101   3.898 -34.187  1.00  0.00     0.084 C 
HETATM   16  C   UNL     1     -11.381   2.571 -34.906  1.00  0.00     0.025 C 
HETATM   17  C   UNL     1     -12.023   1.529 -33.990  1.00  0.00     0.002 C 
HETATM   18  C   UNL     1     -13.275   2.070 -33.307  1.00  0.00     0.000 C 
HETATM   19  C   UNL     1     -12.998   3.371 -32.560  1.00  0.00     0.002 C 
HETATM   20  C   UNL     1     -12.355   4.417 -33.470  1.00  0.00     0.025 C 
ENDBRANCH  12  15
ENDBRANCH   4  11
ENDBRANCH   1   4
BRANCH   1  21
HETATM   21  C   UNL     1      -5.751   3.345 -33.868  1.00  0.00     0.166 C 
BRANCH  21  22
HETATM   22  C   UNL     1      -4.521   4.094 -33.400  1.00  0.00    -0.037 A 
HETATM   23  C   UNL     1      -4.115   5.218 -34.143  1.00  0.00     0.048 A 
HETATM   24  C   UNL     1      -3.006   5.922 -33.724  1.00  0.00     0.105 A 
HETATM   25  C   UNL     1      -2.297   5.556 -32.606  1.00  0.00     0.105 A 
HETATM   26  O   UNL     1      -2.490   7.024 -34.331  1.00  0.00    -0.323 OA
HETATM   27  O   UNL     1      -1.242   6.379 -32.369  1.00  0.00    -0.323 OA
HETATM   28  C   UNL     1      -2.664   4.471 -31.843  1.00  0.00     0.040 A 
HETATM   29  C   UNL     1      -1.368   7.305 -33.469  1.00  0.00     0.352 A 
HETATM   30  C   UNL     1      -3.791   3.741 -32.241  1.00  0.00     0.012 A 
ENDBRANCH  21  22
ENDBRANCH   1  21
BRANCH   2  31
HETATM   31  C   UNL     1      -5.496   0.835 -32.391  1.00  0.00     0.101 C 
HETATM   32  N   UNL     1      -5.986  -0.220 -33.129  1.00  0.00    -0.351 N 
HETATM   33  H   UNL     1      -6.958  -0.310 -33.395  1.00  0.00     0.166 HD
HETATM   34  C   UNL     1      -5.020  -1.179 -33.328  1.00  0.00     0.043 C 
HETATM   35  C   UNL     1      -3.843  -0.643 -32.833  1.00  0.00     0.033 C 
HETATM   36  C   UNL     1      -4.136   0.624 -32.268  1.00  0.00     0.037 C 
BRANCH  34  37
HETATM   37  C   UNL     1      -5.311  -2.487 -33.920  1.00  0.00    -0.009 A 
HETATM   38  C   UNL     1      -4.345  -3.503 -33.956  1.00  0.00     0.013 A 
HETATM   39  C   UNL     1      -4.619  -4.727 -34.572  1.00  0.00     0.001 A 
HETATM   40  C   UNL     1      -5.863  -4.951 -35.159  1.00  0.00     0.000 A 
HETATM   41  C   UNL     1      -6.836  -3.956 -35.121  1.00  0.00     0.001 A 
HETATM   42  C   UNL     1      -6.562  -2.732 -34.503  1.00  0.00     0.013 A 
ENDBRANCH  34  37
ENDBRANCH   2  31
TORSDOF 8
ENDMDL
