MODEL 1
REMARK VINA RESULT:      -8.4      0.000      0.000
REMARK  4 active torsions:
REMARK  status: ('A' for Active; 'I' for Inactive)
REMARK    1  A    between atoms: O_2  and  C_3 
REMARK    2  A    between atoms: C_6  and  C_7 
REMARK       I    between atoms: C_7  and  N_8 
REMARK    3  A    between atoms: N_8  and  C_9 
REMARK    4  A    between atoms: C_14  and  C_15 
ROOT
HETATM    1  C   UNL     1      -9.464   1.226 -33.482  1.00  0.00     0.259 C 
HETATM    2  N   UNL     1      -8.413   0.930 -34.328  1.00  0.00    -0.320 N 
HETATM    3  O   UNL     1      -9.501   0.998 -32.277  1.00  0.00    -0.267 OA
HETATM    4  H   UNL     1      -8.606   0.963 -35.325  1.00  0.00     0.169 HD
ENDROOT
BRANCH   2   5
HETATM    5  C   UNL     1      -7.131   0.447 -33.968  1.00  0.00     0.074 A 
HETATM    6  C   UNL     1      -6.113   1.208 -33.386  1.00  0.00     0.143 A 
HETATM    7  F   UNL     1      -6.222   2.530 -33.204  1.00  0.00    -0.204 F 
HETATM    8  C   UNL     1      -4.889   0.631 -33.055  1.00  0.00     0.045 A 
HETATM    9  C   UNL     1      -4.653  -0.720 -33.318  1.00  0.00     0.017 A 
HETATM   10  C   UNL     1      -5.637  -1.506 -33.932  1.00  0.00     0.000 A 
HETATM   11  C   UNL     1      -6.868  -0.904 -34.257  1.00  0.00     0.047 A 
BRANCH  10  12
HETATM   12  C   UNL     1      -5.380  -2.916 -34.223  1.00  0.00     0.085 A 
HETATM   13  O   UNL     1      -4.187  -3.420 -33.784  1.00  0.00    -0.322 OA
HETATM   14  C   UNL     1      -4.140  -4.728 -34.142  1.00  0.00     0.142 A 
HETATM   15  C   UNL     1      -5.286  -5.084 -34.810  1.00  0.00     0.027 A 
HETATM   16  C   UNL     1      -6.087  -3.917 -34.864  1.00  0.00     0.040 A 
ENDBRANCH  10  12
ENDBRANCH   2   5
BRANCH   1  17
HETATM   17  C   UNL     1     -10.681   1.828 -34.105  1.00  0.00     0.073 A 
HETATM   18  C   UNL     1     -11.925   1.195 -34.129  1.00  0.00     0.165 A 
HETATM   19  C   UNL     1     -13.044   1.805 -34.714  1.00  0.00     0.107 A 
HETATM   20  F   UNL     1     -12.074  -0.019 -33.569  1.00  0.00    -0.202 F 
HETATM   21  C   UNL     1     -12.905   3.065 -35.299  1.00  0.00     0.040 A 
HETATM   22  C   UNL     1     -11.667   3.710 -35.286  1.00  0.00     0.004 A 
HETATM   23  C   UNL     1     -10.564   3.099 -34.689  1.00  0.00     0.020 A 
BRANCH  19  24
HETATM   24  O   UNL     1     -14.207   1.081 -34.663  1.00  0.00    -0.353 OA
HETATM   25  C   UNL     1     -15.084   1.343 -33.575  1.00  0.00     0.210 C 
ENDBRANCH  19  24
ENDBRANCH   1  17
TORSDOF 4
ENDMDL
MODEL 2
REMARK VINA RESULT:      -8.4      1.955      8.001
REMARK  4 active torsions:
REMARK  status: ('A' for Active; 'I' for Inactive)
REMARK    1  A    between atoms: O_2  and  C_3 
REMARK    2  A    between atoms: C_6  and  C_7 
REMARK       I    between atoms: C_7  and  N_8 
REMARK    3  A    between atoms: N_8  and  C_9 
REMARK    4  A    between atoms: C_14  and  C_15 
ROOT
HETATM    1  C   UNL     1      -7.255  -0.265 -34.468  1.00  0.00     0.259 C 
HETATM    2  N   UNL     1      -8.180  -0.095 -33.455  1.00  0.00    -0.320 N 
HETATM    3  O   UNL     1      -7.154   0.432 -35.472  1.00  0.00    -0.267 OA
HETATM    4  H   UNL     1      -8.297  -0.869 -32.809  1.00  0.00     0.169 HD
ENDROOT
BRANCH   2   5
HETATM    5  C   UNL     1      -9.089   0.980 -33.296  1.00  0.00     0.074 A 
HETATM    6  C   UNL     1      -8.744   2.284 -32.925  1.00  0.00     0.143 A 
HETATM    7  F   UNL     1      -7.497   2.623 -32.577  1.00  0.00    -0.204 F 
HETATM    8  C   UNL     1      -9.717   3.275 -32.810  1.00  0.00     0.045 A 
HETATM    9  C   UNL     1     -11.060   2.974 -33.046  1.00  0.00     0.017 A 
HETATM   10  C   UNL     1     -11.447   1.671 -33.384  1.00  0.00     0.000 A 
HETATM   11  C   UNL     1     -10.448   0.684 -33.497  1.00  0.00     0.047 A 
BRANCH  10  12
HETATM   12  C   UNL     1     -12.857   1.355 -33.611  1.00  0.00     0.085 A 
HETATM   13  O   UNL     1     -13.760   1.992 -32.806  1.00  0.00    -0.322 OA
HETATM   14  C   UNL     1     -14.999   1.576 -33.173  1.00  0.00     0.142 A 
HETATM   15  C   UNL     1     -14.915   0.675 -34.205  1.00  0.00     0.027 A 
HETATM   16  C   UNL     1     -13.535   0.531 -34.490  1.00  0.00     0.040 A 
ENDBRANCH  10  12
ENDBRANCH   2   5
BRANCH   1  17
HETATM   17  C   UNL     1      -6.334  -1.434 -34.348  1.00  0.00     0.073 A 
HETATM   18  C   UNL     1      -5.181  -1.426 -33.560  1.00  0.00     0.165 A 
HETATM   19  C   UNL     1      -4.351  -2.553 -33.466  1.00  0.00     0.107 A 
HETATM   20  F   UNL     1      -4.854  -0.326 -32.856  1.00  0.00    -0.202 F 
HETATM   21  C   UNL     1      -4.678  -3.701 -34.190  1.00  0.00     0.040 A 
HETATM   22  C   UNL     1      -5.826  -3.725 -34.984  1.00  0.00     0.004 A 
HETATM   23  C   UNL     1      -6.651  -2.602 -35.060  1.00  0.00     0.020 A 
BRANCH  19  24
HETATM   24  O   UNL     1      -3.257  -2.416 -32.652  1.00  0.00    -0.353 OA
HETATM   25  C   UNL     1      -2.942  -3.511 -31.802  1.00  0.00     0.210 C 
ENDBRANCH  19  24
ENDBRANCH   1  17
TORSDOF 4
ENDMDL
MODEL 3
REMARK VINA RESULT:      -8.3      5.177      8.332
REMARK  4 active torsions:
REMARK  status: ('A' for Active; 'I' for Inactive)
REMARK    1  A    between atoms: O_2  and  C_3 
REMARK    2  A    between atoms: C_6  and  C_7 
REMARK       I    between atoms: C_7  and  N_8 
REMARK    3  A    between atoms: N_8  and  C_9 
REMARK    4  A    between atoms: C_14  and  C_15 
ROOT
HETATM    1  C   UNL     1      -4.452  -0.118 -31.953  1.00  0.00     0.259 C 
HETATM    2  N   UNL     1      -3.932   0.954 -32.653  1.00  0.00    -0.320 N 
HETATM    3  O   UNL     1      -5.021  -0.058 -30.868  1.00  0.00    -0.267 OA
HETATM    4  H   UNL     1      -3.296   0.736 -33.415  1.00  0.00     0.169 HD
ENDROOT
BRANCH   2   5
HETATM    5  C   UNL     1      -4.071   2.329 -32.344  1.00  0.00     0.074 A 
HETATM    6  C   UNL     1      -5.280   3.030 -32.295  1.00  0.00     0.143 A 
HETATM    7  F   UNL     1      -6.445   2.474 -32.647  1.00  0.00    -0.204 F 
HETATM    8  C   UNL     1      -5.308   4.384 -31.965  1.00  0.00     0.045 A 
HETATM    9  C   UNL     1      -4.121   5.067 -31.694  1.00  0.00     0.017 A 
HETATM   10  C   UNL     1      -2.888   4.407 -31.768  1.00  0.00     0.000 A 
HETATM   11  C   UNL     1      -2.881   3.039 -32.102  1.00  0.00     0.047 A 
BRANCH  10  12
HETATM   12  C   UNL     1      -1.645   5.131 -31.503  1.00  0.00     0.085 A 
HETATM   13  O   UNL     1      -0.665   4.438 -30.849  1.00  0.00    -0.322 OA
HETATM   14  C   UNL     1       0.397   5.271 -30.706  1.00  0.00     0.142 A 
HETATM   15  C   UNL     1       0.121   6.499 -31.256  1.00  0.00     0.027 A 
HETATM   16  C   UNL     1      -1.195   6.411 -31.771  1.00  0.00     0.040 A 
ENDBRANCH  10  12
ENDBRANCH   2   5
BRANCH   1  17
HETATM   17  C   UNL     1      -4.254  -1.472 -32.552  1.00  0.00     0.073 A 
HETATM   18  C   UNL     1      -4.922  -1.910 -33.698  1.00  0.00     0.165 A 
HETATM   19  C   UNL     1      -4.695  -3.186 -34.233  1.00  0.00     0.107 A 
HETATM   20  F   UNL     1      -5.792  -1.096 -34.322  1.00  0.00    -0.202 F 
HETATM   21  C   UNL     1      -3.794  -4.042 -33.596  1.00  0.00     0.040 A 
HETATM   22  C   UNL     1      -3.121  -3.620 -32.448  1.00  0.00     0.004 A 
HETATM   23  C   UNL     1      -3.345  -2.344 -31.932  1.00  0.00     0.020 A 
BRANCH  19  24
HETATM   24  O   UNL     1      -5.407  -3.488 -35.364  1.00  0.00    -0.353 OA
HETATM   25  C   UNL     1      -6.527  -4.351 -35.214  1.00  0.00     0.210 C 
ENDBRANCH  19  24
ENDBRANCH   1  17
TORSDOF 4
ENDMDL
MODEL 4
REMARK VINA RESULT:      -8.2      4.895      7.801
REMARK  4 active torsions:
REMARK  status: ('A' for Active; 'I' for Inactive)
REMARK    1  A    between atoms: O_2  and  C_3 
REMARK    2  A    between atoms: C_6  and  C_7 
REMARK       I    between atoms: C_7  and  N_8 
REMARK    3  A    between atoms: N_8  and  C_9 
REMARK    4  A    between atoms: C_14  and  C_15 
ROOT
HETATM    1  C   UNL     1      -3.191   3.335 -32.094  1.00  0.00     0.259 C 
HETATM    2  N   UNL     1      -4.462   3.083 -32.576  1.00  0.00    -0.320 N 
HETATM    3  O   UNL     1      -2.616   2.697 -31.219  1.00  0.00    -0.267 OA
HETATM    4  H   UNL     1      -4.895   3.817 -33.128  1.00  0.00     0.169 HD
ENDROOT
BRANCH   2   5
HETATM    5  C   UNL     1      -5.290   1.974 -32.271  1.00  0.00     0.074 A 
HETATM    6  C   UNL     1      -6.226   1.923 -31.234  1.00  0.00     0.143 A 
HETATM    7  F   UNL     1      -6.359   2.910 -30.340  1.00  0.00    -0.204 F 
HETATM    8  C   UNL     1      -7.003   0.785 -31.028  1.00  0.00     0.045 A 
HETATM    9  C   UNL     1      -6.845  -0.333 -31.848  1.00  0.00     0.017 A 
HETATM   10  C   UNL     1      -5.892  -0.332 -32.875  1.00  0.00     0.000 A 
HETATM   11  C   UNL     1      -5.117   0.828 -33.068  1.00  0.00     0.047 A 
BRANCH  10  12
HETATM   12  C   UNL     1      -5.715  -1.513 -33.720  1.00  0.00     0.085 A 
HETATM   13  O   UNL     1      -4.450  -2.029 -33.787  1.00  0.00    -0.322 OA
HETATM   14  C   UNL     1      -4.494  -3.111 -34.605  1.00  0.00     0.142 A 
HETATM   15  C   UNL     1      -5.770  -3.307 -35.074  1.00  0.00     0.027 A 
HETATM   16  C   UNL     1      -6.559  -2.278 -34.504  1.00  0.00     0.040 A 
ENDBRANCH  10  12
ENDBRANCH   2   5
BRANCH   1  17
HETATM   17  C   UNL     1      -2.482   4.523 -32.657  1.00  0.00     0.073 A 
HETATM   18  C   UNL     1      -2.149   5.648 -31.900  1.00  0.00     0.165 A 
HETATM   19  C   UNL     1      -1.471   6.736 -32.469  1.00  0.00     0.107 A 
HETATM   20  F   UNL     1      -2.463   5.698 -30.593  1.00  0.00    -0.202 F 
HETATM   21  C   UNL     1      -1.137   6.699 -33.824  1.00  0.00     0.040 A 
HETATM   22  C   UNL     1      -1.465   5.582 -34.595  1.00  0.00     0.004 A 
HETATM   23  C   UNL     1      -2.129   4.500 -34.016  1.00  0.00     0.020 A 
BRANCH  19  24
HETATM   24  O   UNL     1      -1.195   7.772 -31.615  1.00  0.00    -0.353 OA
HETATM   25  C   UNL     1      -2.208   8.755 -31.442  1.00  0.00     0.210 C 
ENDBRANCH  19  24
ENDBRANCH   1  17
TORSDOF 4
ENDMDL
MODEL 5
REMARK VINA RESULT:      -8.1      1.333      1.978
REMARK  4 active torsions:
REMARK  status: ('A' for Active; 'I' for Inactive)
REMARK    1  A    between atoms: O_2  and  C_3 
REMARK    2  A    between atoms: C_6  and  C_7 
REMARK       I    between atoms: C_7  and  N_8 
REMARK    3  A    between atoms: N_8  and  C_9 
REMARK    4  A    between atoms: C_14  and  C_15 
ROOT
HETATM    1  C   UNL     1      -9.534   0.714 -33.160  1.00  0.00     0.259 C 
HETATM    2  N   UNL     1      -8.526   0.406 -34.055  1.00  0.00    -0.320 N 
HETATM    3  O   UNL     1      -9.436   0.708 -31.938  1.00  0.00    -0.267 OA
HETATM    4  H   UNL     1      -8.806   0.232 -35.015  1.00  0.00     0.169 HD
ENDROOT
BRANCH   2   5
HETATM    5  C   UNL     1      -7.162   0.166 -33.759  1.00  0.00     0.074 A 
HETATM    6  C   UNL     1      -6.244   1.130 -33.330  1.00  0.00     0.143 A 
HETATM    7  F   UNL     1      -6.555   2.430 -33.253  1.00  0.00    -0.204 F 
HETATM    8  C   UNL     1      -4.923   0.786 -33.051  1.00  0.00     0.045 A 
HETATM    9  C   UNL     1      -4.489  -0.531 -33.215  1.00  0.00     0.017 A 
HETATM   10  C   UNL     1      -5.371  -1.516 -33.678  1.00  0.00     0.000 A 
HETATM   11  C   UNL     1      -6.702  -1.148 -33.953  1.00  0.00     0.047 A 
BRANCH  10  12
HETATM   12  C   UNL     1      -4.907  -2.891 -33.868  1.00  0.00     0.085 A 
HETATM   13  O   UNL     1      -5.728  -3.716 -34.585  1.00  0.00    -0.322 OA
HETATM   14  C   UNL     1      -5.126  -4.930 -34.655  1.00  0.00     0.142 A 
HETATM   15  C   UNL     1      -3.924  -4.908 -33.992  1.00  0.00     0.027 A 
HETATM   16  C   UNL     1      -3.781  -3.594 -33.483  1.00  0.00     0.040 A 
ENDBRANCH  10  12
ENDBRANCH   2   5
BRANCH   1  17
HETATM   17  C   UNL     1     -10.874   1.031 -33.740  1.00  0.00     0.073 A 
HETATM   18  C   UNL     1     -11.112   2.131 -34.567  1.00  0.00     0.165 A 
HETATM   19  C   UNL     1     -12.384   2.382 -35.100  1.00  0.00     0.107 A 
HETATM   20  F   UNL     1     -10.106   2.967 -34.881  1.00  0.00    -0.202 F 
HETATM   21  C   UNL     1     -13.438   1.522 -34.784  1.00  0.00     0.040 A 
HETATM   22  C   UNL     1     -13.217   0.419 -33.956  1.00  0.00     0.004 A 
HETATM   23  C   UNL     1     -11.944   0.172 -33.442  1.00  0.00     0.020 A 
BRANCH  19  24
HETATM   24  O   UNL     1     -12.481   3.489 -35.903  1.00  0.00    -0.353 OA
HETATM   25  C   UNL     1     -12.809   4.720 -35.273  1.00  0.00     0.210 C 
ENDBRANCH  19  24
ENDBRANCH   1  17
TORSDOF 4
ENDMDL
MODEL 6
REMARK VINA RESULT:      -7.9      1.877      2.434
REMARK  4 active torsions:
REMARK  status: ('A' for Active; 'I' for Inactive)
REMARK    1  A    between atoms: O_2  and  C_3 
REMARK    2  A    between atoms: C_6  and  C_7 
REMARK       I    between atoms: C_7  and  N_8 
REMARK    3  A    between atoms: N_8  and  C_9 
REMARK    4  A    between atoms: C_14  and  C_15 
ROOT
HETATM    1  C   UNL     1     -10.568   1.686 -33.827  1.00  0.00     0.259 C 
HETATM    2  N   UNL     1      -9.755   0.892 -33.041  1.00  0.00    -0.320 N 
HETATM    3  O   UNL     1     -10.190   2.444 -34.714  1.00  0.00    -0.267 OA
HETATM    4  H   UNL     1     -10.174   0.494 -32.207  1.00  0.00     0.169 HD
ENDROOT
BRANCH   2   5
HETATM    5  C   UNL     1      -8.361   0.682 -33.187  1.00  0.00     0.074 A 
HETATM    6  C   UNL     1      -7.369   1.639 -32.952  1.00  0.00     0.143 A 
HETATM    7  F   UNL     1      -7.657   2.912 -32.657  1.00  0.00    -0.204 F 
HETATM    8  C   UNL     1      -6.021   1.324 -33.113  1.00  0.00     0.045 A 
HETATM    9  C   UNL     1      -5.641   0.047 -33.529  1.00  0.00     0.017 A 
HETATM   10  C   UNL     1      -6.609  -0.926 -33.808  1.00  0.00     0.000 A 
HETATM   11  C   UNL     1      -7.965  -0.589 -33.639  1.00  0.00     0.047 A 
BRANCH  10  12
HETATM   12  C   UNL     1      -6.207  -2.257 -34.264  1.00  0.00     0.085 A 
HETATM   13  O   UNL     1      -7.212  -3.164 -34.454  1.00  0.00    -0.322 OA
HETATM   14  C   UNL     1      -6.644  -4.321 -34.878  1.00  0.00     0.142 A 
HETATM   15  C   UNL     1      -5.280  -4.181 -34.965  1.00  0.00     0.027 A 
HETATM   16  C   UNL     1      -4.996  -2.851 -34.570  1.00  0.00     0.040 A 
ENDBRANCH  10  12
ENDBRANCH   2   5
BRANCH   1  17
HETATM   17  C   UNL     1     -12.031   1.652 -33.530  1.00  0.00     0.073 A 
HETATM   18  C   UNL     1     -12.722   2.717 -32.947  1.00  0.00     0.165 A 
HETATM   19  C   UNL     1     -14.100   2.645 -32.698  1.00  0.00     0.107 A 
HETATM   20  F   UNL     1     -12.069   3.849 -32.627  1.00  0.00    -0.202 F 
HETATM   21  C   UNL     1     -14.792   1.477 -33.026  1.00  0.00     0.040 A 
HETATM   22  C   UNL     1     -14.116   0.402 -33.607  1.00  0.00     0.004 A 
HETATM   23  C   UNL     1     -12.747   0.490 -33.861  1.00  0.00     0.020 A 
BRANCH  19  24
HETATM   24  O   UNL     1     -14.657   3.761 -32.131  1.00  0.00    -0.353 OA
HETATM   25  C   UNL     1     -16.076   3.805 -32.046  1.00  0.00     0.210 C 
ENDBRANCH  19  24
ENDBRANCH   1  17
TORSDOF 4
ENDMDL
MODEL 7
REMARK VINA RESULT:      -7.9      3.925      7.210
REMARK  4 active torsions:
REMARK  status: ('A' for Active; 'I' for Inactive)
REMARK    1  A    between atoms: O_2  and  C_3 
REMARK    2  A    between atoms: C_6  and  C_7 
REMARK       I    between atoms: C_7  and  N_8 
REMARK    3  A    between atoms: N_8  and  C_9 
REMARK    4  A    between atoms: C_14  and  C_15 
ROOT
HETATM    1  C   UNL     1      -4.913   3.145 -32.430  1.00  0.00     0.259 C 
HETATM    2  N   UNL     1      -5.372   2.470 -33.545  1.00  0.00    -0.320 N 
HETATM    3  O   UNL     1      -5.367   3.047 -31.295  1.00  0.00    -0.267 OA
HETATM    4  H   UNL     1      -5.059   2.813 -34.448  1.00  0.00     0.169 HD
ENDROOT
BRANCH   2   5
HETATM    5  C   UNL     1      -6.343   1.439 -33.585  1.00  0.00     0.074 A 
HETATM    6  C   UNL     1      -7.707   1.601 -33.321  1.00  0.00     0.143 A 
HETATM    7  F   UNL     1      -8.221   2.760 -32.894  1.00  0.00    -0.204 F 
HETATM    8  C   UNL     1      -8.583   0.520 -33.402  1.00  0.00     0.045 A 
HETATM    9  C   UNL     1      -8.106  -0.750 -33.730  1.00  0.00     0.017 A 
HETATM   10  C   UNL     1      -6.741  -0.957 -33.966  1.00  0.00     0.000 A 
HETATM   11  C   UNL     1      -5.872   0.148 -33.881  1.00  0.00     0.047 A 
BRANCH  10  12
HETATM   12  C   UNL     1      -6.242  -2.293 -34.290  1.00  0.00     0.085 A 
HETATM   13  O   UNL     1      -4.906  -2.509 -34.091  1.00  0.00    -0.322 OA
HETATM   14  C   UNL     1      -4.644  -3.794 -34.440  1.00  0.00     0.142 A 
HETATM   15  C   UNL     1      -5.791  -4.419 -34.865  1.00  0.00     0.027 A 
HETATM   16  C   UNL     1      -6.822  -3.453 -34.770  1.00  0.00     0.040 A 
ENDBRANCH  10  12
ENDBRANCH   2   5
BRANCH   1  17
HETATM   17  C   UNL     1      -3.800   4.118 -32.644  1.00  0.00     0.073 A 
HETATM   18  C   UNL     1      -2.570   4.034 -31.987  1.00  0.00     0.165 A 
HETATM   19  C   UNL     1      -1.548   4.963 -32.228  1.00  0.00     0.107 A 
HETATM   20  F   UNL     1      -2.341   3.037 -31.113  1.00  0.00    -0.202 F 
HETATM   21  C   UNL     1      -1.772   6.002 -33.134  1.00  0.00     0.040 A 
HETATM   22  C   UNL     1      -2.996   6.102 -33.797  1.00  0.00     0.004 A 
HETATM   23  C   UNL     1      -4.002   5.164 -33.558  1.00  0.00     0.020 A 
BRANCH  19  24
HETATM   24  O   UNL     1      -0.388   4.762 -31.526  1.00  0.00    -0.353 OA
HETATM   25  C   UNL     1      -0.256   5.444 -30.286  1.00  0.00     0.210 C 
ENDBRANCH  19  24
ENDBRANCH   1  17
TORSDOF 4
ENDMDL
MODEL 8
REMARK VINA RESULT:      -7.9      5.851      8.814
REMARK  4 active torsions:
REMARK  status: ('A' for Active; 'I' for Inactive)
REMARK    1  A    between atoms: O_2  and  C_3 
REMARK    2  A    between atoms: C_6  and  C_7 
REMARK       I    between atoms: C_7  and  N_8 
REMARK    3  A    between atoms: N_8  and  C_9 
REMARK    4  A    between atoms: C_14  and  C_15 
ROOT
HETATM    1  C   UNL     1      -3.753   2.873 -32.114  1.00  0.00     0.259 C 
HETATM    2  N   UNL     1      -2.707   3.293 -32.915  1.00  0.00    -0.320 N 
HETATM    3  O   UNL     1      -4.190   3.469 -31.136  1.00  0.00    -0.267 OA
HETATM    4  H   UNL     1      -2.307   2.602 -33.543  1.00  0.00     0.169 HD
ENDROOT
BRANCH   2   5
HETATM    5  C   UNL     1      -2.033   4.538 -32.863  1.00  0.00     0.074 A 
HETATM    6  C   UNL     1      -1.882   5.423 -33.935  1.00  0.00     0.143 A 
HETATM    7  F   UNL     1      -2.285   5.120 -35.175  1.00  0.00    -0.204 F 
HETATM    8  C   UNL     1      -1.211   6.633 -33.774  1.00  0.00     0.045 A 
HETATM    9  C   UNL     1      -0.661   6.973 -32.537  1.00  0.00     0.017 A 
HETATM   10  C   UNL     1      -0.761   6.096 -31.449  1.00  0.00     0.000 A 
HETATM   11  C   UNL     1      -1.444   4.878 -31.632  1.00  0.00     0.047 A 
BRANCH  10  12
HETATM   12  C   UNL     1      -0.166   6.448 -30.160  1.00  0.00     0.085 A 
HETATM   13  O   UNL     1       0.131   5.408 -29.323  1.00  0.00    -0.322 OA
HETATM   14  C   UNL     1       0.674   5.933 -28.196  1.00  0.00     0.142 A 
HETATM   15  C   UNL     1       0.733   7.302 -28.285  1.00  0.00     0.027 A 
HETATM   16  C   UNL     1       0.192   7.636 -29.551  1.00  0.00     0.040 A 
ENDBRANCH  10  12
ENDBRANCH   2   5
BRANCH   1  17
HETATM   17  C   UNL     1      -4.365   1.552 -32.445  1.00  0.00     0.073 A 
HETATM   18  C   UNL     1      -5.638   1.414 -33.004  1.00  0.00     0.165 A 
HETATM   19  C   UNL     1      -6.168   0.152 -33.311  1.00  0.00     0.107 A 
HETATM   20  F   UNL     1      -6.377   2.505 -33.274  1.00  0.00    -0.202 F 
HETATM   21  C   UNL     1      -5.412  -0.990 -33.037  1.00  0.00     0.040 A 
HETATM   22  C   UNL     1      -4.139  -0.869 -32.476  1.00  0.00     0.004 A 
HETATM   23  C   UNL     1      -3.617   0.392 -32.187  1.00  0.00     0.020 A 
BRANCH  19  24
HETATM   24  O   UNL     1      -7.422   0.156 -33.863  1.00  0.00    -0.353 OA
HETATM   25  C   UNL     1      -7.504   0.101 -35.282  1.00  0.00     0.210 C 
ENDBRANCH  19  24
ENDBRANCH   1  17
TORSDOF 4
ENDMDL
MODEL 9
REMARK VINA RESULT:      -7.9      1.834      7.583
REMARK  4 active torsions:
REMARK  status: ('A' for Active; 'I' for Inactive)
REMARK    1  A    between atoms: O_2  and  C_3 
REMARK    2  A    between atoms: C_6  and  C_7 
REMARK       I    between atoms: C_7  and  N_8 
REMARK    3  A    between atoms: N_8  and  C_9 
REMARK    4  A    between atoms: C_14  and  C_15 
ROOT
HETATM    1  C   UNL     1      -7.335   0.263 -32.418  1.00  0.00     0.259 C 
HETATM    2  N   UNL     1      -7.959   0.998 -33.407  1.00  0.00    -0.320 N 
HETATM    3  O   UNL     1      -7.532   0.369 -31.212  1.00  0.00    -0.267 OA
HETATM    4  H   UNL     1      -7.540   0.967 -34.332  1.00  0.00     0.169 HD
ENDROOT
BRANCH   2   5
HETATM    5  C   UNL     1      -9.036   1.905 -33.251  1.00  0.00     0.074 A 
HETATM    6  C   UNL     1      -8.919   3.243 -32.861  1.00  0.00     0.143 A 
HETATM    7  F   UNL     1      -7.751   3.780 -32.488  1.00  0.00    -0.204 F 
HETATM    8  C   UNL     1     -10.045   4.056 -32.751  1.00  0.00     0.045 A 
HETATM    9  C   UNL     1     -11.315   3.540 -33.013  1.00  0.00     0.017 A 
HETATM   10  C   UNL     1     -11.475   2.195 -33.372  1.00  0.00     0.000 A 
HETATM   11  C   UNL     1     -10.324   1.390 -33.479  1.00  0.00     0.047 A 
BRANCH  10  12
HETATM   12  C   UNL     1     -12.809   1.653 -33.626  1.00  0.00     0.085 A 
HETATM   13  O   UNL     1     -13.808   2.079 -32.795  1.00  0.00    -0.322 OA
HETATM   14  C   UNL     1     -14.956   1.475 -33.193  1.00  0.00     0.142 A 
HETATM   15  C   UNL     1     -14.719   0.659 -34.272  1.00  0.00     0.027 A 
HETATM   16  C   UNL     1     -13.336   0.772 -34.553  1.00  0.00     0.040 A 
ENDBRANCH  10  12
ENDBRANCH   2   5
BRANCH   1  17
HETATM   17  C   UNL     1      -6.291  -0.710 -32.860  1.00  0.00     0.073 A 
HETATM   18  C   UNL     1      -6.455  -1.570 -33.949  1.00  0.00     0.165 A 
HETATM   19  C   UNL     1      -5.443  -2.459 -34.337  1.00  0.00     0.107 A 
HETATM   20  F   UNL     1      -7.597  -1.546 -34.660  1.00  0.00    -0.202 F 
HETATM   21  C   UNL     1      -4.252  -2.495 -33.608  1.00  0.00     0.040 A 
HETATM   22  C   UNL     1      -4.073  -1.644 -32.516  1.00  0.00     0.004 A 
HETATM   23  C   UNL     1      -5.083  -0.755 -32.147  1.00  0.00     0.020 A 
BRANCH  19  24
HETATM   24  O   UNL     1      -5.727  -3.240 -35.426  1.00  0.00    -0.353 OA
HETATM   25  C   UNL     1      -6.301  -4.517 -35.176  1.00  0.00     0.210 C 
ENDBRANCH  19  24
ENDBRANCH   1  17
TORSDOF 4
ENDMDL
MODEL 10
REMARK VINA RESULT:      -7.9      1.790      2.457
REMARK  4 active torsions:
REMARK  status: ('A' for Active; 'I' for Inactive)
REMARK    1  A    between atoms: O_2  and  C_3 
REMARK    2  A    between atoms: C_6  and  C_7 
REMARK       I    between atoms: C_7  and  N_8 
REMARK    3  A    between atoms: N_8  and  C_9 
REMARK    4  A    between atoms: C_14  and  C_15 
ROOT
HETATM    1  C   UNL     1      -9.409   1.825 -33.765  1.00  0.00     0.259 C 
HETATM    2  N   UNL     1      -8.339   1.449 -34.555  1.00  0.00    -0.320 N 
HETATM    3  O   UNL     1      -9.580   1.511 -32.593  1.00  0.00    -0.267 OA
HETATM    4  H   UNL     1      -8.439   1.588 -35.556  1.00  0.00     0.169 HD
ENDROOT
BRANCH   2   5
HETATM    5  C   UNL     1      -7.172   0.759 -34.146  1.00  0.00     0.074 A 
HETATM    6  C   UNL     1      -6.095   1.326 -33.456  1.00  0.00     0.143 A 
HETATM    7  F   UNL     1      -6.020   2.638 -33.202  1.00  0.00    -0.204 F 
HETATM    8  C   UNL     1      -4.997   0.554 -33.086  1.00  0.00     0.045 A 
HETATM    9  C   UNL     1      -4.946  -0.802 -33.415  1.00  0.00     0.017 A 
HETATM   10  C   UNL     1      -5.989  -1.397 -34.137  1.00  0.00     0.000 A 
HETATM   11  C   UNL     1      -7.091  -0.599 -34.500  1.00  0.00     0.047 A 
BRANCH  10  12
HETATM   12  C   UNL     1      -5.923  -2.813 -34.497  1.00  0.00     0.085 A 
HETATM   13  O   UNL     1      -4.750  -3.457 -34.220  1.00  0.00    -0.322 OA
HETATM   14  C   UNL     1      -4.888  -4.747 -34.618  1.00  0.00     0.142 A 
HETATM   15  C   UNL     1      -6.137  -4.953 -35.152  1.00  0.00     0.027 A 
HETATM   16  C   UNL     1      -6.806  -3.707 -35.075  1.00  0.00     0.040 A 
ENDBRANCH  10  12
ENDBRANCH   2   5
BRANCH   1  17
HETATM   17  C   UNL     1     -10.473   2.644 -34.420  1.00  0.00     0.073 A 
HETATM   18  C   UNL     1     -10.338   4.009 -34.682  1.00  0.00     0.165 A 
HETATM   19  C   UNL     1     -11.359   4.737 -35.311  1.00  0.00     0.107 A 
HETATM   20  F   UNL     1      -9.206   4.652 -34.344  1.00  0.00    -0.202 F 
HETATM   21  C   UNL     1     -12.541   4.083 -35.668  1.00  0.00     0.040 A 
HETATM   22  C   UNL     1     -12.691   2.719 -35.411  1.00  0.00     0.004 A 
HETATM   23  C   UNL     1     -11.664   2.003 -34.796  1.00  0.00     0.020 A 
BRANCH  19  24
HETATM   24  O   UNL     1     -11.097   6.066 -35.517  1.00  0.00    -0.353 OA
HETATM   25  C   UNL     1     -11.595   6.982 -34.550  1.00  0.00     0.210 C 
ENDBRANCH  19  24
ENDBRANCH   1  17
TORSDOF 4
ENDMDL
