MODEL 1
REMARK VINA RESULT:      -8.7      0.000      0.000
REMARK  7 active torsions:
REMARK  status: ('A' for Active; 'I' for Inactive)
REMARK    1  A    between atoms: C_2  and  C_3 
REMARK    2  A    between atoms: C_3  and  C_4 
REMARK    3  A    between atoms: C_5  and  O_6 
REMARK    4  A    between atoms: O_6  and  C_7 
REMARK    5  A    between atoms: C_7  and  C_8 
REMARK       I    between atoms: C_8  and  N_9 
REMARK    6  A    between atoms: N_9  and  C_10 
REMARK    7  A    between atoms: C_17  and  C_18 
REMARK       I    between atoms: C_18  and  N_19 
ROOT
HETATM    1  C   UNL     1      -3.792  -0.168 -31.621  1.00  0.00     0.246 C 
HETATM    2  N   UNL     1      -3.885   0.861 -32.555  1.00  0.00    -0.325 N 
HETATM    3  O   UNL     1      -3.934  -0.051 -30.408  1.00  0.00    -0.271 OA
HETATM    4  H   UNL     1      -3.787   0.605 -33.530  1.00  0.00     0.169 HD
ENDROOT
BRANCH   2   5
HETATM    5  C   UNL     1      -4.083   2.237 -32.305  1.00  0.00     0.035 A 
HETATM    6  C   UNL     1      -2.967   2.965 -31.856  1.00  0.00     0.046 A 
HETATM    7  C   UNL     1      -3.094   4.339 -31.564  1.00  0.00     0.030 A 
HETATM    8  C   UNL     1      -4.332   4.945 -31.734  1.00  0.00     0.063 A 
HETATM    9  C   UNL     1      -2.234   5.377 -31.098  1.00  0.00     0.156 A 
HETATM   10  N   UNL     1      -4.148   6.251 -31.376  1.00  0.00    -0.277 N 
HETATM   11  C   UNL     1      -5.459   4.255 -32.182  1.00  0.00     0.034 A 
HETATM   12  H   UNL     1      -4.843   6.990 -31.374  1.00  0.00     0.189 HD
HETATM   13  N   UNL     1      -2.897   6.551 -30.987  1.00  0.00    -0.168 NA
HETATM   14  C   UNL     1      -5.308   2.889 -32.463  1.00  0.00     0.032 A 
BRANCH   9  15
HETATM   15  C   UNL     1      -0.809   5.267 -30.760  1.00  0.00     0.270 C 
HETATM   16  N   UNL     1      -0.504   5.656 -29.486  1.00  0.00    -0.365 N 
HETATM   17  H   UNL     1      -1.253   5.981 -28.885  1.00  0.00     0.159 HD
HETATM   18  H   UNL     1       0.450   5.616 -29.161  1.00  0.00     0.159 HD
HETATM   19  O   UNL     1       0.056   4.865 -31.532  1.00  0.00    -0.266 OA
ENDBRANCH   9  15
ENDBRANCH   2   5
BRANCH   1  20
HETATM   20  C   UNL     1      -3.473  -1.514 -32.289  1.00  0.00     0.278 C 
BRANCH  20  21
HETATM   21  O   UNL     1      -3.719  -1.479 -33.695  1.00  0.00    -0.342 OA
BRANCH  21  22
HETATM   22  C   UNL     1      -4.658  -2.399 -34.081  1.00  0.00     0.076 A 
HETATM   23  C   UNL     1      -6.001  -2.035 -34.258  1.00  0.00    -0.021 A 
HETATM   24  C   UNL     1      -6.899  -3.052 -34.652  1.00  0.00     0.010 A 
HETATM   25  C   UNL     1      -6.489  -4.378 -34.812  1.00  0.00     0.001 A 
HETATM   26  C   UNL     1      -5.168  -4.726 -34.569  1.00  0.00     0.003 A 
HETATM   27  C   UNL     1      -4.259  -3.741 -34.196  1.00  0.00     0.037 A 
BRANCH  23  28
HETATM   28  C   UNL     1      -6.599  -0.646 -34.030  1.00  0.00     0.017 C 
HETATM   29  C   UNL     1      -7.262  -0.357 -32.680  1.00  0.00     0.015 C 
BRANCH  28  30
HETATM   30  C   UNL     1      -7.531  -0.221 -35.194  1.00  0.00     0.004 C 
HETATM   31  C   UNL     1      -8.697   0.672 -34.790  1.00  0.00     0.006 C 
ENDBRANCH  28  30
ENDBRANCH  23  28
ENDBRANCH  21  22
ENDBRANCH  20  21
ENDBRANCH   1  20
TORSDOF 7
ENDMDL
MODEL 2
REMARK VINA RESULT:      -8.6      1.524      1.881
REMARK  7 active torsions:
REMARK  status: ('A' for Active; 'I' for Inactive)
REMARK    1  A    between atoms: C_2  and  C_3 
REMARK    2  A    between atoms: C_3  and  C_4 
REMARK    3  A    between atoms: C_5  and  O_6 
REMARK    4  A    between atoms: O_6  and  C_7 
REMARK    5  A    between atoms: C_7  and  C_8 
REMARK       I    between atoms: C_8  and  N_9 
REMARK    6  A    between atoms: N_9  and  C_10 
REMARK    7  A    between atoms: C_17  and  C_18 
REMARK       I    between atoms: C_18  and  N_19 
ROOT
HETATM    1  C   UNL     1      -3.294   0.165 -31.850  1.00  0.00     0.246 C 
HETATM    2  N   UNL     1      -4.100   1.168 -32.384  1.00  0.00    -0.325 N 
HETATM    3  O   UNL     1      -2.516   0.292 -30.911  1.00  0.00    -0.271 OA
HETATM    4  H   UNL     1      -4.727   0.903 -33.133  1.00  0.00     0.169 HD
ENDROOT
BRANCH   2   5
HETATM    5  C   UNL     1      -4.137   2.531 -32.014  1.00  0.00     0.035 A 
HETATM    6  C   UNL     1      -3.355   3.415 -32.780  1.00  0.00     0.046 A 
HETATM    7  C   UNL     1      -3.325   4.787 -32.456  1.00  0.00     0.030 A 
HETATM    8  C   UNL     1      -4.078   5.236 -31.380  1.00  0.00     0.063 A 
HETATM    9  C   UNL     1      -2.676   5.952 -32.966  1.00  0.00     0.156 A 
HETATM   10  N   UNL     1      -3.848   6.582 -31.312  1.00  0.00    -0.277 N 
HETATM   11  C   UNL     1      -4.868   4.390 -30.602  1.00  0.00     0.034 A 
HETATM   12  H   UNL     1      -4.236   7.237 -30.642  1.00  0.00     0.189 HD
HETATM   13  N   UNL     1      -3.008   7.051 -32.251  1.00  0.00    -0.168 NA
HETATM   14  C   UNL     1      -4.880   3.029 -30.942  1.00  0.00     0.032 A 
BRANCH   9  15
HETATM   15  C   UNL     1      -1.756   6.030 -34.108  1.00  0.00     0.270 C 
HETATM   16  N   UNL     1      -1.946   5.056 -35.048  1.00  0.00    -0.365 N 
HETATM   17  H   UNL     1      -2.681   4.373 -34.897  1.00  0.00     0.159 HD
HETATM   18  H   UNL     1      -1.363   5.026 -35.870  1.00  0.00     0.159 HD
HETATM   19  O   UNL     1      -0.884   6.883 -34.238  1.00  0.00    -0.266 OA
ENDBRANCH   9  15
ENDBRANCH   2   5
BRANCH   1  20
HETATM   20  C   UNL     1      -3.481  -1.167 -32.592  1.00  0.00     0.278 C 
BRANCH  20  21
HETATM   21  O   UNL     1      -4.255  -1.007 -33.782  1.00  0.00    -0.342 OA
BRANCH  21  22
HETATM   22  C   UNL     1      -4.911  -2.157 -34.133  1.00  0.00     0.076 A 
HETATM   23  C   UNL     1      -6.287  -2.153 -34.408  1.00  0.00    -0.021 A 
HETATM   24  C   UNL     1      -6.879  -3.389 -34.756  1.00  0.00     0.010 A 
HETATM   25  C   UNL     1      -6.147  -4.578 -34.778  1.00  0.00     0.001 A 
HETATM   26  C   UNL     1      -4.801  -4.567 -34.440  1.00  0.00     0.003 A 
HETATM   27  C   UNL     1      -4.189  -3.362 -34.109  1.00  0.00     0.037 A 
BRANCH  23  28
HETATM   28  C   UNL     1      -7.221  -0.945 -34.333  1.00  0.00     0.017 C 
HETATM   29  C   UNL     1      -7.009   0.194 -35.335  1.00  0.00     0.015 C 
BRANCH  28  30
HETATM   30  C   UNL     1      -7.326  -0.386 -32.891  1.00  0.00     0.004 C 
HETATM   31  C   UNL     1      -7.720   1.083 -32.798  1.00  0.00     0.006 C 
ENDBRANCH  28  30
ENDBRANCH  23  28
ENDBRANCH  21  22
ENDBRANCH  20  21
ENDBRANCH   1  20
TORSDOF 7
ENDMDL
MODEL 3
REMARK VINA RESULT:      -8.3      1.752      2.624
REMARK  7 active torsions:
REMARK  status: ('A' for Active; 'I' for Inactive)
REMARK    1  A    between atoms: C_2  and  C_3 
REMARK    2  A    between atoms: C_3  and  C_4 
REMARK    3  A    between atoms: C_5  and  O_6 
REMARK    4  A    between atoms: O_6  and  C_7 
REMARK    5  A    between atoms: C_7  and  C_8 
REMARK       I    between atoms: C_8  and  N_9 
REMARK    6  A    between atoms: N_9  and  C_10 
REMARK    7  A    between atoms: C_17  and  C_18 
REMARK       I    between atoms: C_18  and  N_19 
ROOT
HETATM    1  C   UNL     1      -3.224   0.058 -31.825  1.00  0.00     0.246 C 
HETATM    2  N   UNL     1      -3.921   1.109 -32.415  1.00  0.00    -0.325 N 
HETATM    3  O   UNL     1      -2.416   0.158 -30.907  1.00  0.00    -0.271 OA
HETATM    4  H   UNL     1      -4.591   0.869 -33.136  1.00  0.00     0.169 HD
ENDROOT
BRANCH   2   5
HETATM    5  C   UNL     1      -3.794   2.490 -32.141  1.00  0.00     0.035 A 
HETATM    6  C   UNL     1      -4.635   3.015 -31.143  1.00  0.00     0.046 A 
HETATM    7  C   UNL     1      -4.581   4.389 -30.830  1.00  0.00     0.030 A 
HETATM    8  C   UNL     1      -3.686   5.196 -31.520  1.00  0.00     0.063 A 
HETATM    9  C   UNL     1      -5.249   5.267 -29.925  1.00  0.00     0.156 A 
HETATM   10  N   UNL     1      -3.862   6.452 -31.010  1.00  0.00    -0.277 N 
HETATM   11  C   UNL     1      -2.834   4.708 -32.511  1.00  0.00     0.034 A 
HETATM   12  H   UNL     1      -3.373   7.298 -31.282  1.00  0.00     0.189 HD
HETATM   13  N   UNL     1      -4.795   6.535 -30.046  1.00  0.00    -0.168 NA
HETATM   14  C   UNL     1      -2.908   3.339 -32.807  1.00  0.00     0.032 A 
BRANCH   9  15
HETATM   15  C   UNL     1      -6.300   4.918 -28.960  1.00  0.00     0.270 C 
HETATM   16  N   UNL     1      -5.998   5.233 -27.665  1.00  0.00    -0.365 N 
HETATM   17  H   UNL     1      -5.104   5.669 -27.467  1.00  0.00     0.159 HD
HETATM   18  H   UNL     1      -6.658   5.032 -26.930  1.00  0.00     0.159 HD
HETATM   19  O   UNL     1      -7.366   4.390 -29.260  1.00  0.00    -0.266 OA
ENDBRANCH   9  15
ENDBRANCH   2   5
BRANCH   1  20
HETATM   20  C   UNL     1      -3.578  -1.291 -32.470  1.00  0.00     0.278 C 
BRANCH  20  21
HETATM   21  O   UNL     1      -4.227  -1.121 -33.731  1.00  0.00    -0.342 OA
BRANCH  21  22
HETATM   22  C   UNL     1      -4.912  -2.242 -34.117  1.00  0.00     0.076 A 
HETATM   23  C   UNL     1      -6.287  -2.193 -34.397  1.00  0.00    -0.021 A 
HETATM   24  C   UNL     1      -6.910  -3.401 -34.783  1.00  0.00     0.010 A 
HETATM   25  C   UNL     1      -6.210  -4.608 -34.837  1.00  0.00     0.001 A 
HETATM   26  C   UNL     1      -4.866  -4.644 -34.494  1.00  0.00     0.003 A 
HETATM   27  C   UNL     1      -4.224  -3.466 -34.126  1.00  0.00     0.037 A 
BRANCH  23  28
HETATM   28  C   UNL     1      -7.187  -0.962 -34.290  1.00  0.00     0.017 C 
HETATM   29  C   UNL     1      -6.979   0.175 -35.296  1.00  0.00     0.015 C 
BRANCH  28  30
HETATM   30  C   UNL     1      -7.234  -0.404 -32.844  1.00  0.00     0.004 C 
HETATM   31  C   UNL     1      -8.500   0.366 -32.493  1.00  0.00     0.006 C 
ENDBRANCH  28  30
ENDBRANCH  23  28
ENDBRANCH  21  22
ENDBRANCH  20  21
ENDBRANCH   1  20
TORSDOF 7
ENDMDL
MODEL 4
REMARK VINA RESULT:      -8.3      4.568      7.630
REMARK  7 active torsions:
REMARK  status: ('A' for Active; 'I' for Inactive)
REMARK    1  A    between atoms: C_2  and  C_3 
REMARK    2  A    between atoms: C_3  and  C_4 
REMARK    3  A    between atoms: C_5  and  O_6 
REMARK    4  A    between atoms: O_6  and  C_7 
REMARK    5  A    between atoms: C_7  and  C_8 
REMARK       I    between atoms: C_8  and  N_9 
REMARK    6  A    between atoms: N_9  and  C_10 
REMARK    7  A    between atoms: C_17  and  C_18 
REMARK       I    between atoms: C_18  and  N_19 
ROOT
HETATM    1  C   UNL     1      -7.606   2.151 -31.939  1.00  0.00     0.246 C 
HETATM    2  N   UNL     1      -7.993   2.144 -33.278  1.00  0.00    -0.325 N 
HETATM    3  O   UNL     1      -8.333   2.404 -30.984  1.00  0.00    -0.271 OA
HETATM    4  H   UNL     1      -7.292   1.872 -33.956  1.00  0.00     0.169 HD
ENDROOT
BRANCH   2   5
HETATM    5  C   UNL     1      -9.254   2.490 -33.813  1.00  0.00     0.035 A 
HETATM    6  C   UNL     1     -10.286   1.548 -33.655  1.00  0.00     0.046 A 
HETATM    7  C   UNL     1     -11.567   1.815 -34.183  1.00  0.00     0.030 A 
HETATM    8  C   UNL     1     -11.778   3.015 -34.849  1.00  0.00     0.063 A 
HETATM    9  C   UNL     1     -12.822   1.137 -34.235  1.00  0.00     0.156 A 
HETATM   10  N   UNL     1     -13.087   2.987 -35.242  1.00  0.00    -0.277 N 
HETATM   11  C   UNL     1     -10.779   3.973 -35.019  1.00  0.00     0.034 A 
HETATM   12  H   UNL     1     -13.588   3.702 -35.757  1.00  0.00     0.189 HD
HETATM   13  N   UNL     1     -13.749   1.871 -34.890  1.00  0.00    -0.168 NA
HETATM   14  C   UNL     1      -9.513   3.685 -34.488  1.00  0.00     0.032 A 
BRANCH   9  15
HETATM   15  C   UNL     1     -13.143  -0.183 -33.677  1.00  0.00     0.270 C 
HETATM   16  N   UNL     1     -14.460  -0.531 -33.783  1.00  0.00    -0.365 N 
HETATM   17  H   UNL     1     -15.100   0.122 -34.222  1.00  0.00     0.159 HD
HETATM   18  H   UNL     1     -14.779  -1.419 -33.429  1.00  0.00     0.159 HD
HETATM   19  O   UNL     1     -12.322  -0.933 -33.157  1.00  0.00    -0.266 OA
ENDBRANCH   9  15
ENDBRANCH   2   5
BRANCH   1  20
HETATM   20  C   UNL     1      -6.119   1.805 -31.776  1.00  0.00     0.278 C 
BRANCH  20  21
HETATM   21  O   UNL     1      -5.573   1.236 -32.968  1.00  0.00    -0.342 OA
BRANCH  21  22
HETATM   22  C   UNL     1      -4.714   0.203 -32.703  1.00  0.00     0.076 A 
HETATM   23  C   UNL     1      -4.865  -1.046 -33.325  1.00  0.00    -0.021 A 
HETATM   24  C   UNL     1      -3.933  -2.053 -32.986  1.00  0.00     0.010 A 
HETATM   25  C   UNL     1      -2.932  -1.842 -32.034  1.00  0.00     0.001 A 
HETATM   26  C   UNL     1      -2.842  -0.620 -31.385  1.00  0.00     0.003 A 
HETATM   27  C   UNL     1      -3.737   0.395 -31.712  1.00  0.00     0.037 A 
BRANCH  23  28
HETATM   28  C   UNL     1      -5.964  -1.436 -34.312  1.00  0.00     0.017 C 
HETATM   29  C   UNL     1      -7.417  -1.405 -33.826  1.00  0.00     0.015 C 
BRANCH  28  30
HETATM   30  C   UNL     1      -5.657  -2.784 -35.016  1.00  0.00     0.004 C 
HETATM   31  C   UNL     1      -6.729  -3.853 -34.852  1.00  0.00     0.006 C 
ENDBRANCH  28  30
ENDBRANCH  23  28
ENDBRANCH  21  22
ENDBRANCH  20  21
ENDBRANCH   1  20
TORSDOF 7
ENDMDL
MODEL 5
REMARK VINA RESULT:      -8.1      2.572      8.358
REMARK  7 active torsions:
REMARK  status: ('A' for Active; 'I' for Inactive)
REMARK    1  A    between atoms: C_2  and  C_3 
REMARK    2  A    between atoms: C_3  and  C_4 
REMARK    3  A    between atoms: C_5  and  O_6 
REMARK    4  A    between atoms: O_6  and  C_7 
REMARK    5  A    between atoms: C_7  and  C_8 
REMARK       I    between atoms: C_8  and  N_9 
REMARK    6  A    between atoms: N_9  and  C_10 
REMARK    7  A    between atoms: C_17  and  C_18 
REMARK       I    between atoms: C_18  and  N_19 
ROOT
HETATM    1  C   UNL     1      -4.653   2.017 -31.549  1.00  0.00     0.246 C 
HETATM    2  N   UNL     1      -4.703   1.666 -32.896  1.00  0.00    -0.325 N 
HETATM    3  O   UNL     1      -5.089   1.349 -30.617  1.00  0.00    -0.271 OA
HETATM    4  H   UNL     1      -4.261   2.300 -33.551  1.00  0.00     0.169 HD
ENDROOT
BRANCH   2   5
HETATM    5  C   UNL     1      -5.317   0.530 -33.470  1.00  0.00     0.035 A 
HETATM    6  C   UNL     1      -4.654  -0.698 -33.301  1.00  0.00     0.046 A 
HETATM    7  C   UNL     1      -5.195  -1.872 -33.865  1.00  0.00     0.030 A 
HETATM    8  C   UNL     1      -6.384  -1.784 -34.576  1.00  0.00     0.063 A 
HETATM    9  C   UNL     1      -4.832  -3.251 -33.920  1.00  0.00     0.156 A 
HETATM   10  N   UNL     1      -6.652  -3.058 -34.996  1.00  0.00    -0.277 N 
HETATM   11  C   UNL     1      -7.071  -0.584 -34.758  1.00  0.00     0.034 A 
HETATM   12  H   UNL     1      -7.445  -3.367 -35.546  1.00  0.00     0.189 HD
HETATM   13  N   UNL     1      -5.739  -3.970 -34.620  1.00  0.00    -0.168 NA
HETATM   14  C   UNL     1      -6.512   0.571 -34.191  1.00  0.00     0.032 A 
BRANCH   9  15
HETATM   15  C   UNL     1      -3.648  -3.884 -33.324  1.00  0.00     0.270 C 
HETATM   16  N   UNL     1      -3.186  -4.969 -34.014  1.00  0.00    -0.365 N 
HETATM   17  H   UNL     1      -3.674  -5.252 -34.856  1.00  0.00     0.159 HD
HETATM   18  H   UNL     1      -2.377  -5.471 -33.683  1.00  0.00     0.159 HD
HETATM   19  O   UNL     1      -3.098  -3.495 -32.298  1.00  0.00    -0.266 OA
ENDBRANCH   9  15
ENDBRANCH   2   5
BRANCH   1  20
HETATM   20  C   UNL     1      -3.978   3.381 -31.342  1.00  0.00     0.278 C 
BRANCH  20  21
HETATM   21  O   UNL     1      -2.568   3.313 -31.559  1.00  0.00    -0.342 OA
BRANCH  21  22
HETATM   22  C   UNL     1      -2.128   4.284 -32.418  1.00  0.00     0.076 A 
HETATM   23  C   UNL     1      -1.481   5.435 -31.943  1.00  0.00    -0.021 A 
HETATM   24  C   UNL     1      -1.067   6.385 -32.904  1.00  0.00     0.010 A 
HETATM   25  C   UNL     1      -1.330   6.222 -34.266  1.00  0.00     0.001 A 
HETATM   26  C   UNL     1      -2.028   5.106 -34.705  1.00  0.00     0.003 A 
HETATM   27  C   UNL     1      -2.433   4.146 -33.782  1.00  0.00     0.037 A 
BRANCH  23  28
HETATM   28  C   UNL     1      -1.211   5.781 -30.479  1.00  0.00     0.017 C 
HETATM   29  C   UNL     1      -2.042   6.895 -29.834  1.00  0.00     0.015 C 
BRANCH  28  30
HETATM   30  C   UNL     1       0.299   6.005 -30.208  1.00  0.00     0.004 C 
HETATM   31  C   UNL     1       1.169   4.763 -30.348  1.00  0.00     0.006 C 
ENDBRANCH  28  30
ENDBRANCH  23  28
ENDBRANCH  21  22
ENDBRANCH  20  21
ENDBRANCH   1  20
TORSDOF 7
ENDMDL
MODEL 6
REMARK VINA RESULT:      -8.1      1.709      2.820
REMARK  7 active torsions:
REMARK  status: ('A' for Active; 'I' for Inactive)
REMARK    1  A    between atoms: C_2  and  C_3 
REMARK    2  A    between atoms: C_3  and  C_4 
REMARK    3  A    between atoms: C_5  and  O_6 
REMARK    4  A    between atoms: O_6  and  C_7 
REMARK    5  A    between atoms: C_7  and  C_8 
REMARK       I    between atoms: C_8  and  N_9 
REMARK    6  A    between atoms: N_9  and  C_10 
REMARK    7  A    between atoms: C_17  and  C_18 
REMARK       I    between atoms: C_18  and  N_19 
ROOT
HETATM    1  C   UNL     1      -4.686   2.087 -31.623  1.00  0.00     0.246 C 
HETATM    2  N   UNL     1      -4.051   2.653 -32.726  1.00  0.00    -0.325 N 
HETATM    3  O   UNL     1      -4.816   2.612 -30.522  1.00  0.00    -0.271 OA
HETATM    4  H   UNL     1      -4.060   2.117 -33.585  1.00  0.00     0.169 HD
ENDROOT
BRANCH   2   5
HETATM    5  C   UNL     1      -3.374   3.891 -32.790  1.00  0.00     0.035 A 
HETATM    6  C   UNL     1      -2.268   4.050 -31.935  1.00  0.00     0.046 A 
HETATM    7  C   UNL     1      -1.555   5.267 -31.926  1.00  0.00     0.030 A 
HETATM    8  C   UNL     1      -1.966   6.286 -32.774  1.00  0.00     0.063 A 
HETATM    9  C   UNL     1      -0.431   5.797 -31.226  1.00  0.00     0.156 A 
HETATM   10  N   UNL     1      -1.103   7.321 -32.543  1.00  0.00    -0.277 N 
HETATM   11  C   UNL     1      -3.054   6.162 -33.638  1.00  0.00     0.034 A 
HETATM   12  H   UNL     1      -1.105   8.232 -32.988  1.00  0.00     0.189 HD
HETATM   13  N   UNL     1      -0.163   7.064 -31.617  1.00  0.00    -0.168 NA
HETATM   14  C   UNL     1      -3.749   4.943 -33.627  1.00  0.00     0.032 A 
BRANCH   9  15
HETATM   15  C   UNL     1       0.379   5.123 -30.204  1.00  0.00     0.270 C 
HETATM   16  N   UNL     1       0.015   5.414 -28.919  1.00  0.00    -0.365 N 
HETATM   17  H   UNL     1      -0.759   6.050 -28.767  1.00  0.00     0.159 HD
HETATM   18  H   UNL     1       0.512   4.999 -28.147  1.00  0.00     0.159 HD
HETATM   19  O   UNL     1       1.308   4.359 -30.449  1.00  0.00    -0.266 OA
ENDBRANCH   9  15
ENDBRANCH   2   5
BRANCH   1  20
HETATM   20  C   UNL     1      -5.220   0.681 -31.935  1.00  0.00     0.278 C 
BRANCH  20  21
HETATM   21  O   UNL     1      -4.617   0.133 -33.108  1.00  0.00    -0.342 OA
BRANCH  21  22
HETATM   22  C   UNL     1      -4.106  -1.119 -32.891  1.00  0.00     0.076 A 
HETATM   23  C   UNL     1      -4.579  -2.231 -33.605  1.00  0.00    -0.021 A 
HETATM   24  C   UNL     1      -3.995  -3.483 -33.311  1.00  0.00     0.010 A 
HETATM   25  C   UNL     1      -3.025  -3.631 -32.317  1.00  0.00     0.001 A 
HETATM   26  C   UNL     1      -2.618  -2.528 -31.580  1.00  0.00     0.003 A 
HETATM   27  C   UNL     1      -3.165  -1.279 -31.861  1.00  0.00     0.037 A 
BRANCH  23  28
HETATM   28  C   UNL     1      -5.695  -2.225 -34.650  1.00  0.00     0.017 C 
HETATM   29  C   UNL     1      -7.110  -1.855 -34.195  1.00  0.00     0.015 C 
BRANCH  28  30
HETATM   30  C   UNL     1      -5.718  -3.536 -35.478  1.00  0.00     0.004 C 
HETATM   31  C   UNL     1      -6.872  -4.477 -35.160  1.00  0.00     0.006 C 
ENDBRANCH  28  30
ENDBRANCH  23  28
ENDBRANCH  21  22
ENDBRANCH  20  21
ENDBRANCH   1  20
TORSDOF 7
ENDMDL
MODEL 7
REMARK VINA RESULT:      -8.0      4.436      7.161
REMARK  7 active torsions:
REMARK  status: ('A' for Active; 'I' for Inactive)
REMARK    1  A    between atoms: C_2  and  C_3 
REMARK    2  A    between atoms: C_3  and  C_4 
REMARK    3  A    between atoms: C_5  and  O_6 
REMARK    4  A    between atoms: O_6  and  C_7 
REMARK    5  A    between atoms: C_7  and  C_8 
REMARK       I    between atoms: C_8  and  N_9 
REMARK    6  A    between atoms: N_9  and  C_10 
REMARK    7  A    between atoms: C_17  and  C_18 
REMARK       I    between atoms: C_18  and  N_19 
ROOT
HETATM    1  C   UNL     1      -7.569  -0.662 -34.558  1.00  0.00     0.246 C 
HETATM    2  N   UNL     1      -8.171  -0.363 -33.338  1.00  0.00    -0.325 N 
HETATM    3  O   UNL     1      -7.562   0.059 -35.551  1.00  0.00    -0.271 OA
HETATM    4  H   UNL     1      -8.056  -1.038 -32.593  1.00  0.00     0.169 HD
ENDROOT
BRANCH   2   5
HETATM    5  C   UNL     1      -8.947   0.772 -33.015  1.00  0.00     0.035 A 
HETATM    6  C   UNL     1     -10.300   0.742 -33.399  1.00  0.00     0.046 A 
HETATM    7  C   UNL     1     -11.131   1.850 -33.130  1.00  0.00     0.030 A 
HETATM    8  C   UNL     1     -10.587   2.951 -32.483  1.00  0.00     0.063 A 
HETATM    9  C   UNL     1     -12.498   2.191 -33.359  1.00  0.00     0.156 A 
HETATM   10  N   UNL     1     -11.613   3.847 -32.367  1.00  0.00    -0.277 N 
HETATM   11  C   UNL     1      -9.252   3.013 -32.084  1.00  0.00     0.034 A 
HETATM   12  H   UNL     1     -11.578   4.768 -31.944  1.00  0.00     0.189 HD
HETATM   13  N   UNL     1     -12.781   3.425 -32.883  1.00  0.00    -0.168 NA
HETATM   14  C   UNL     1      -8.444   1.901 -32.364  1.00  0.00     0.032 A 
BRANCH   9  15
HETATM   15  C   UNL     1     -13.522   1.370 -34.016  1.00  0.00     0.270 C 
HETATM   16  N   UNL     1     -14.299   0.647 -33.155  1.00  0.00    -0.365 N 
HETATM   17  H   UNL     1     -14.120   0.724 -32.160  1.00  0.00     0.159 HD
HETATM   18  H   UNL     1     -15.030   0.052 -33.513  1.00  0.00     0.159 HD
HETATM   19  O   UNL     1     -13.692   1.317 -35.231  1.00  0.00    -0.266 OA
ENDBRANCH   9  15
ENDBRANCH   2   5
BRANCH   1  20
HETATM   20  C   UNL     1      -6.895  -2.042 -34.536  1.00  0.00     0.278 C 
BRANCH  20  21
HETATM   21  O   UNL     1      -5.513  -1.963 -34.889  1.00  0.00    -0.342 OA
BRANCH  21  22
HETATM   22  C   UNL     1      -4.704  -2.559 -33.959  1.00  0.00     0.076 A 
HETATM   23  C   UNL     1      -4.212  -1.842 -32.858  1.00  0.00    -0.021 A 
HETATM   24  C   UNL     1      -3.380  -2.539 -31.953  1.00  0.00     0.010 A 
HETATM   25  C   UNL     1      -3.014  -3.871 -32.162  1.00  0.00     0.001 A 
HETATM   26  C   UNL     1      -3.461  -4.541 -33.292  1.00  0.00     0.003 A 
HETATM   27  C   UNL     1      -4.295  -3.883 -34.191  1.00  0.00     0.037 A 
BRANCH  23  28
HETATM   28  C   UNL     1      -4.460  -0.363 -32.558  1.00  0.00     0.017 C 
HETATM   29  C   UNL     1      -3.246   0.567 -32.460  1.00  0.00     0.015 C 
BRANCH  28  30
HETATM   30  C   UNL     1      -5.392  -0.170 -31.335  1.00  0.00     0.004 C 
HETATM   31  C   UNL     1      -5.193   1.135 -30.575  1.00  0.00     0.006 C 
ENDBRANCH  28  30
ENDBRANCH  23  28
ENDBRANCH  21  22
ENDBRANCH  20  21
ENDBRANCH   1  20
TORSDOF 7
ENDMDL
MODEL 8
REMARK VINA RESULT:      -7.9      1.876      3.346
REMARK  7 active torsions:
REMARK  status: ('A' for Active; 'I' for Inactive)
REMARK    1  A    between atoms: C_2  and  C_3 
REMARK    2  A    between atoms: C_3  and  C_4 
REMARK    3  A    between atoms: C_5  and  O_6 
REMARK    4  A    between atoms: O_6  and  C_7 
REMARK    5  A    between atoms: C_7  and  C_8 
REMARK       I    between atoms: C_8  and  N_9 
REMARK    6  A    between atoms: N_9  and  C_10 
REMARK    7  A    between atoms: C_17  and  C_18 
REMARK       I    between atoms: C_18  and  N_19 
ROOT
HETATM    1  C   UNL     1      -4.947   1.781 -31.357  1.00  0.00     0.246 C 
HETATM    2  N   UNL     1      -5.413   2.880 -32.075  1.00  0.00    -0.325 N 
HETATM    3  O   UNL     1      -3.773   1.444 -31.242  1.00  0.00    -0.271 OA
HETATM    4  H   UNL     1      -6.409   3.059 -32.044  1.00  0.00     0.169 HD
ENDROOT
BRANCH   2   5
HETATM    5  C   UNL     1      -4.659   3.777 -32.865  1.00  0.00     0.035 A 
HETATM    6  C   UNL     1      -3.436   4.217 -32.327  1.00  0.00     0.046 A 
HETATM    7  C   UNL     1      -2.639   5.130 -33.048  1.00  0.00     0.030 A 
HETATM    8  C   UNL     1      -3.086   5.573 -34.286  1.00  0.00     0.063 A 
HETATM    9  C   UNL     1      -1.391   5.792 -32.846  1.00  0.00     0.156 A 
HETATM   10  N   UNL     1      -2.123   6.434 -34.732  1.00  0.00    -0.277 N 
HETATM   11  C   UNL     1      -4.290   5.154 -34.851  1.00  0.00     0.034 A 
HETATM   12  H   UNL     1      -2.118   6.949 -35.606  1.00  0.00     0.189 HD
HETATM   13  N   UNL     1      -1.085   6.592 -33.892  1.00  0.00    -0.168 NA
HETATM   14  C   UNL     1      -5.067   4.248 -34.114  1.00  0.00     0.032 A 
BRANCH   9  15
HETATM   15  C   UNL     1      -0.499   5.674 -31.685  1.00  0.00     0.270 C 
HETATM   16  N   UNL     1       0.120   6.840 -31.334  1.00  0.00    -0.365 N 
HETATM   17  H   UNL     1      -0.071   7.674 -31.879  1.00  0.00     0.159 HD
HETATM   18  H   UNL     1       0.752   6.860 -30.549  1.00  0.00     0.159 HD
HETATM   19  O   UNL     1      -0.307   4.634 -31.063  1.00  0.00    -0.266 OA
ENDBRANCH   9  15
ENDBRANCH   2   5
BRANCH   1  20
HETATM   20  C   UNL     1      -6.098   0.999 -30.707  1.00  0.00     0.278 C 
BRANCH  20  21
HETATM   21  O   UNL     1      -6.202  -0.326 -31.232  1.00  0.00    -0.342 OA
BRANCH  21  22
HETATM   22  C   UNL     1      -6.707  -0.341 -32.505  1.00  0.00     0.076 A 
HETATM   23  C   UNL     1      -6.035  -1.002 -33.545  1.00  0.00    -0.021 A 
HETATM   24  C   UNL     1      -6.630  -0.960 -34.826  1.00  0.00     0.010 A 
HETATM   25  C   UNL     1      -7.808  -0.250 -35.070  1.00  0.00     0.001 A 
HETATM   26  C   UNL     1      -8.420   0.449 -34.040  1.00  0.00     0.003 A 
HETATM   27  C   UNL     1      -7.864   0.411 -32.764  1.00  0.00     0.037 A 
BRANCH  23  28
HETATM   28  C   UNL     1      -4.700  -1.737 -33.435  1.00  0.00     0.017 C 
HETATM   29  C   UNL     1      -3.413  -0.905 -33.449  1.00  0.00     0.015 C 
BRANCH  28  30
HETATM   30  C   UNL     1      -4.599  -2.907 -34.448  1.00  0.00     0.004 C 
HETATM   31  C   UNL     1      -3.924  -4.163 -33.914  1.00  0.00     0.006 C 
ENDBRANCH  28  30
ENDBRANCH  23  28
ENDBRANCH  21  22
ENDBRANCH  20  21
ENDBRANCH   1  20
TORSDOF 7
ENDMDL
MODEL 9
REMARK VINA RESULT:      -7.9      1.462      2.019
REMARK  7 active torsions:
REMARK  status: ('A' for Active; 'I' for Inactive)
REMARK    1  A    between atoms: C_2  and  C_3 
REMARK    2  A    between atoms: C_3  and  C_4 
REMARK    3  A    between atoms: C_5  and  O_6 
REMARK    4  A    between atoms: O_6  and  C_7 
REMARK    5  A    between atoms: C_7  and  C_8 
REMARK       I    between atoms: C_8  and  N_9 
REMARK    6  A    between atoms: N_9  and  C_10 
REMARK    7  A    between atoms: C_17  and  C_18 
REMARK       I    between atoms: C_18  and  N_19 
ROOT
HETATM    1  C   UNL     1      -4.577   1.784 -31.634  1.00  0.00     0.246 C 
HETATM    2  N   UNL     1      -3.919   2.472 -32.652  1.00  0.00    -0.325 N 
HETATM    3  O   UNL     1      -4.865   2.237 -30.532  1.00  0.00    -0.271 OA
HETATM    4  H   UNL     1      -3.788   1.980 -33.527  1.00  0.00     0.169 HD
ENDROOT
BRANCH   2   5
HETATM    5  C   UNL     1      -3.391   3.781 -32.605  1.00  0.00     0.035 A 
HETATM    6  C   UNL     1      -2.196   3.955 -31.885  1.00  0.00     0.046 A 
HETATM    7  C   UNL     1      -1.621   5.238 -31.775  1.00  0.00     0.030 A 
HETATM    8  C   UNL     1      -2.255   6.308 -32.392  1.00  0.00     0.063 A 
HETATM    9  C   UNL     1      -0.468   5.801 -31.150  1.00  0.00     0.156 A 
HETATM   10  N   UNL     1      -1.480   7.399 -32.113  1.00  0.00    -0.277 N 
HETATM   11  C   UNL     1      -3.438   6.172 -33.118  1.00  0.00     0.034 A 
HETATM   12  H   UNL     1      -1.643   8.357 -32.404  1.00  0.00     0.189 HD
HETATM   13  N   UNL     1      -0.394   7.134 -31.367  1.00  0.00    -0.168 NA
HETATM   14  C   UNL     1      -3.993   4.886 -33.211  1.00  0.00     0.032 A 
BRANCH   9  15
HETATM   15  C   UNL     1       0.548   5.096 -30.359  1.00  0.00     0.270 C 
HETATM   16  N   UNL     1       0.381   5.205 -29.007  1.00  0.00    -0.365 N 
HETATM   17  H   UNL     1      -0.403   5.745 -28.658  1.00  0.00     0.159 HD
HETATM   18  H   UNL     1       1.029   4.755 -28.380  1.00  0.00     0.159 HD
HETATM   19  O   UNL     1       1.478   4.455 -30.840  1.00  0.00    -0.266 OA
ENDBRANCH   9  15
ENDBRANCH   2   5
BRANCH   1  20
HETATM   20  C   UNL     1      -4.909   0.342 -32.047  1.00  0.00     0.278 C 
BRANCH  20  21
HETATM   21  O   UNL     1      -5.139   0.233 -33.453  1.00  0.00    -0.342 OA
BRANCH  21  22
HETATM   22  C   UNL     1      -5.297  -1.067 -33.853  1.00  0.00     0.076 A 
HETATM   23  C   UNL     1      -6.545  -1.551 -34.275  1.00  0.00    -0.021 A 
HETATM   24  C   UNL     1      -6.613  -2.908 -34.665  1.00  0.00     0.010 A 
HETATM   25  C   UNL     1      -5.505  -3.754 -34.589  1.00  0.00     0.001 A 
HETATM   26  C   UNL     1      -4.297  -3.270 -34.108  1.00  0.00     0.003 A 
HETATM   27  C   UNL     1      -4.197  -1.933 -33.733  1.00  0.00     0.037 A 
BRANCH  23  28
HETATM   28  C   UNL     1      -7.852  -0.760 -34.320  1.00  0.00     0.017 C 
HETATM   29  C   UNL     1      -7.977   0.371 -35.346  1.00  0.00     0.015 C 
BRANCH  28  30
HETATM   30  C   UNL     1      -8.277  -0.266 -32.914  1.00  0.00     0.004 C 
HETATM   31  C   UNL     1      -9.774  -0.046 -32.734  1.00  0.00     0.006 C 
ENDBRANCH  28  30
ENDBRANCH  23  28
ENDBRANCH  21  22
ENDBRANCH  20  21
ENDBRANCH   1  20
TORSDOF 7
ENDMDL
MODEL 10
REMARK VINA RESULT:      -7.6      2.245      3.789
REMARK  7 active torsions:
REMARK  status: ('A' for Active; 'I' for Inactive)
REMARK    1  A    between atoms: C_2  and  C_3 
REMARK    2  A    between atoms: C_3  and  C_4 
REMARK    3  A    between atoms: C_5  and  O_6 
REMARK    4  A    between atoms: O_6  and  C_7 
REMARK    5  A    between atoms: C_7  and  C_8 
REMARK       I    between atoms: C_8  and  N_9 
REMARK    6  A    between atoms: N_9  and  C_10 
REMARK    7  A    between atoms: C_17  and  C_18 
REMARK       I    between atoms: C_18  and  N_19 
ROOT
HETATM    1  C   UNL     1      -4.627   2.113 -31.230  1.00  0.00     0.246 C 
HETATM    2  N   UNL     1      -4.837   3.405 -31.707  1.00  0.00    -0.325 N 
HETATM    3  O   UNL     1      -3.538   1.567 -31.091  1.00  0.00    -0.271 OA
HETATM    4  H   UNL     1      -5.793   3.738 -31.725  1.00  0.00     0.169 HD
ENDROOT
BRANCH   2   5
HETATM    5  C   UNL     1      -3.869   4.312 -32.192  1.00  0.00     0.035 A 
HETATM    6  C   UNL     1      -3.921   5.623 -31.684  1.00  0.00     0.046 A 
HETATM    7  C   UNL     1      -3.001   6.590 -32.138  1.00  0.00     0.030 A 
HETATM    8  C   UNL     1      -2.054   6.218 -33.083  1.00  0.00     0.063 A 
HETATM    9  C   UNL     1      -2.745   7.970 -31.881  1.00  0.00     0.156 A 
HETATM   10  N   UNL     1      -1.320   7.347 -33.325  1.00  0.00    -0.277 N 
HETATM   11  C   UNL     1      -1.970   4.928 -33.605  1.00  0.00     0.034 A 
HETATM   12  H   UNL     1      -0.541   7.445 -33.966  1.00  0.00     0.189 HD
HETATM   13  N   UNL     1      -1.707   8.423 -32.619  1.00  0.00    -0.168 NA
HETATM   14  C   UNL     1      -2.897   3.984 -33.140  1.00  0.00     0.032 A 
BRANCH   9  15
HETATM   15  C   UNL     1      -3.469   8.851 -30.955  1.00  0.00     0.270 C 
HETATM   16  N   UNL     1      -3.224   8.598 -29.634  1.00  0.00    -0.365 N 
HETATM   17  H   UNL     1      -2.585   7.848 -29.395  1.00  0.00     0.159 HD
HETATM   18  H   UNL     1      -3.675   9.151 -28.922  1.00  0.00     0.159 HD
HETATM   19  O   UNL     1      -4.233   9.746 -31.305  1.00  0.00    -0.266 OA
ENDBRANCH   9  15
ENDBRANCH   2   5
BRANCH   1  20
HETATM   20  C   UNL     1      -5.951   1.412 -30.888  1.00  0.00     0.278 C 
BRANCH  20  21
HETATM   21  O   UNL     1      -6.051   0.133 -31.517  1.00  0.00    -0.342 OA
BRANCH  21  22
HETATM   22  C   UNL     1      -6.750   0.186 -32.693  1.00  0.00     0.076 A 
HETATM   23  C   UNL     1      -6.483  -0.711 -33.738  1.00  0.00    -0.021 A 
HETATM   24  C   UNL     1      -7.252  -0.577 -34.916  1.00  0.00     0.010 A 
HETATM   25  C   UNL     1      -8.204   0.435 -35.066  1.00  0.00     0.001 A 
HETATM   26  C   UNL     1      -8.405   1.350 -34.043  1.00  0.00     0.003 A 
HETATM   27  C   UNL     1      -7.673   1.231 -32.865  1.00  0.00     0.037 A 
BRANCH  23  28
HETATM   28  C   UNL     1      -5.414  -1.803 -33.741  1.00  0.00     0.017 C 
HETATM   29  C   UNL     1      -3.950  -1.381 -33.574  1.00  0.00     0.015 C 
BRANCH  28  30
HETATM   30  C   UNL     1      -5.567  -2.759 -34.951  1.00  0.00     0.004 C 
HETATM   31  C   UNL     1      -6.496  -3.944 -34.722  1.00  0.00     0.006 C 
ENDBRANCH  28  30
ENDBRANCH  23  28
ENDBRANCH  21  22
ENDBRANCH  20  21
ENDBRANCH   1  20
TORSDOF 7
ENDMDL
