MODEL 1
REMARK VINA RESULT:      -9.4      0.000      0.000
REMARK  5 active torsions:
REMARK  status: ('A' for Active; 'I' for Inactive)
REMARK    1  A    between atoms: C_2  and  C_3 
REMARK    2  A    between atoms: C_8  and  C_9 
REMARK       I    between atoms: C_9  and  N_10 
REMARK    3  A    between atoms: N_10  and  C_11 
REMARK    4  A    between atoms: C_11  and  C_12 
REMARK    5  A    between atoms: C_19  and  C_20 
ROOT
HETATM    1  C   UNL     1      -7.195   0.588 -33.900  1.00  0.00     0.118 C 
HETATM    2  N   UNL     1      -6.465   1.795 -34.264  1.00  0.00    -0.366 N 
HETATM    3  C   UNL     1      -5.968   2.643 -33.338  1.00  0.00     0.123 A 
HETATM    4  N   UNL     1      -6.230   2.490 -32.005  1.00  0.00    -0.240 N 
HETATM    5  N   UNL     1      -5.705   3.456 -31.232  1.00  0.00    -0.165 NA
HETATM    6  C   UNL     1      -5.011   4.222 -32.106  1.00  0.00     0.148 A 
HETATM    7  C   UNL     1      -5.170   3.751 -33.438  1.00  0.00     0.088 A 
HETATM    8  C   UNL     1      -7.041   1.426 -31.448  1.00  0.00     0.221 C 
HETATM    9  C   UNL     1      -7.903   0.769 -32.544  1.00  0.00     0.066 C 
HETATM   10  H   UNL     1      -6.181   1.864 -35.240  1.00  0.00     0.161 HD
ENDROOT
BRANCH   6  11
HETATM   11  C   UNL     1      -4.210   5.379 -31.673  1.00  0.00     0.272 C 
HETATM   12  N   UNL     1      -2.901   5.322 -32.092  1.00  0.00    -0.353 N 
HETATM   13  H   UNL     1      -2.611   4.442 -32.510  1.00  0.00     0.162 HD
HETATM   14  O   UNL     1      -4.672   6.303 -31.010  1.00  0.00    -0.266 OA
BRANCH  12  15
HETATM   15  C   UNL     1      -1.912   6.308 -31.721  1.00  0.00     0.155 C 
BRANCH  15  16
HETATM   16  C   UNL     1      -1.216   5.977 -30.399  1.00  0.00     0.139 C 
HETATM   17  O   UNL     1      -0.401   4.795 -30.535  1.00  0.00    -0.384 OA
HETATM   18  C   UNL     1       0.713   4.918 -29.639  1.00  0.00     0.168 C 
HETATM   19  C   UNL     1       0.660   6.304 -29.025  1.00  0.00     0.029 C 
HETATM   20  C   UNL     1      -0.250   7.061 -29.958  1.00  0.00     0.035 C 
ENDBRANCH  15  16
ENDBRANCH  12  15
ENDBRANCH   6  11
BRANCH   8  21
HETATM   21  C   UNL     1      -6.176   0.446 -30.687  1.00  0.00     0.409 C 
HETATM   22  F   UNL     1      -4.870   0.541 -31.029  1.00  0.00    -0.169 F 
HETATM   23  F   UNL     1      -6.237   0.715 -29.355  1.00  0.00    -0.169 F 
HETATM   24  F   UNL     1      -6.544  -0.839 -30.842  1.00  0.00    -0.169 F 
ENDBRANCH   8  21
BRANCH   1  25
HETATM   25  C   UNL     1      -6.349  -0.670 -34.028  1.00  0.00    -0.034 A 
HETATM   26  C   UNL     1      -4.981  -0.609 -33.714  1.00  0.00     0.011 A 
HETATM   27  C   UNL     1      -4.171  -1.747 -33.795  1.00  0.00     0.026 A 
HETATM   28  C   UNL     1      -4.714  -2.971 -34.193  1.00  0.00     0.055 A 
HETATM   29  C   UNL     1      -6.072  -3.055 -34.507  1.00  0.00     0.056 A 
HETATM   30 CL   UNL     1      -3.656  -4.334 -34.266  1.00  0.00    -0.083 Cl
HETATM   31  C   UNL     1      -6.879  -1.914 -34.418  1.00  0.00     0.034 A 
HETATM   32 CL   UNL     1      -6.817  -4.531 -35.008  1.00  0.00    -0.083 Cl
ENDBRANCH   1  25
TORSDOF 5
ENDMDL
MODEL 2
REMARK VINA RESULT:      -9.0      3.247      4.353
REMARK  5 active torsions:
REMARK  status: ('A' for Active; 'I' for Inactive)
REMARK    1  A    between atoms: C_2  and  C_3 
REMARK    2  A    between atoms: C_8  and  C_9 
REMARK       I    between atoms: C_9  and  N_10 
REMARK    3  A    between atoms: N_10  and  C_11 
REMARK    4  A    between atoms: C_11  and  C_12 
REMARK    5  A    between atoms: C_19  and  C_20 
ROOT
HETATM    1  C   UNL     1      -7.929   1.429 -31.129  1.00  0.00     0.118 C 
HETATM    2  N   UNL     1      -7.137   2.637 -30.946  1.00  0.00    -0.366 N 
HETATM    3  C   UNL     1      -5.870   2.745 -31.402  1.00  0.00     0.123 A 
HETATM    4  N   UNL     1      -5.208   1.681 -31.949  1.00  0.00    -0.240 N 
HETATM    5  N   UNL     1      -3.938   1.950 -32.295  1.00  0.00    -0.165 NA
HETATM    6  C   UNL     1      -3.806   3.269 -32.025  1.00  0.00     0.148 A 
HETATM    7  C   UNL     1      -4.993   3.795 -31.446  1.00  0.00     0.088 A 
HETATM    8  C   UNL     1      -5.776   0.357 -32.106  1.00  0.00     0.221 C 
HETATM    9  C   UNL     1      -7.018   0.189 -31.209  1.00  0.00     0.066 C 
HETATM   10  H   UNL     1      -7.649   3.460 -30.633  1.00  0.00     0.161 HD
ENDROOT
BRANCH   6  11
HETATM   11  C   UNL     1      -2.569   4.012 -32.318  1.00  0.00     0.272 C 
HETATM   12  N   UNL     1      -1.900   4.424 -31.189  1.00  0.00    -0.353 N 
HETATM   13  H   UNL     1      -2.400   4.302 -30.312  1.00  0.00     0.162 HD
HETATM   14  O   UNL     1      -2.175   4.234 -33.459  1.00  0.00    -0.266 OA
BRANCH  12  15
HETATM   15  C   UNL     1      -0.705   5.235 -31.233  1.00  0.00     0.155 C 
BRANCH  15  16
HETATM   16  C   UNL     1      -0.582   6.170 -30.027  1.00  0.00     0.139 C 
HETATM   17  O   UNL     1      -0.032   5.469 -28.893  1.00  0.00    -0.384 OA
HETATM   18  C   UNL     1       0.713   6.410 -28.108  1.00  0.00     0.168 C 
HETATM   19  C   UNL     1       0.743   7.723 -28.867  1.00  0.00     0.029 C 
HETATM   20  C   UNL     1       0.380   7.318 -30.273  1.00  0.00     0.035 C 
ENDBRANCH  15  16
ENDBRANCH  12  15
ENDBRANCH   6  11
BRANCH   8  21
HETATM   21  C   UNL     1      -6.036   0.064 -33.566  1.00  0.00     0.409 C 
HETATM   22  F   UNL     1      -6.281   1.188 -34.279  1.00  0.00    -0.169 F 
HETATM   23  F   UNL     1      -4.935  -0.505 -34.126  1.00  0.00    -0.169 F 
HETATM   24  F   UNL     1      -7.062  -0.782 -33.777  1.00  0.00    -0.169 F 
ENDBRANCH   8  21
BRANCH   1  25
HETATM   25  C   UNL     1      -8.947   1.559 -32.252  1.00  0.00    -0.034 A 
HETATM   26  C   UNL     1      -9.809   0.483 -32.523  1.00  0.00     0.011 A 
HETATM   27  C   UNL     1     -10.775   0.569 -33.532  1.00  0.00     0.026 A 
HETATM   28  C   UNL     1     -10.900   1.735 -34.290  1.00  0.00     0.055 A 
HETATM   29  C   UNL     1     -10.056   2.818 -34.036  1.00  0.00     0.056 A 
HETATM   30 CL   UNL     1     -12.117   1.772 -35.515  1.00  0.00    -0.083 Cl
HETATM   31  C   UNL     1      -9.095   2.729 -33.020  1.00  0.00     0.034 A 
HETATM   32 CL   UNL     1     -10.147   4.293 -34.931  1.00  0.00    -0.083 Cl
ENDBRANCH   1  25
TORSDOF 5
ENDMDL
MODEL 3
REMARK VINA RESULT:      -8.7      5.207      9.432
REMARK  5 active torsions:
REMARK  status: ('A' for Active; 'I' for Inactive)
REMARK    1  A    between atoms: C_2  and  C_3 
REMARK    2  A    between atoms: C_8  and  C_9 
REMARK       I    between atoms: C_9  and  N_10 
REMARK    3  A    between atoms: N_10  and  C_11 
REMARK    4  A    between atoms: C_11  and  C_12 
REMARK    5  A    between atoms: C_19  and  C_20 
ROOT
HETATM    1  C   UNL     1      -3.047   7.559 -31.069  1.00  0.00     0.118 C 
HETATM    2  N   UNL     1      -3.982   6.447 -30.946  1.00  0.00    -0.366 N 
HETATM    3  C   UNL     1      -3.621   5.171 -31.199  1.00  0.00     0.123 A 
HETATM    4  N   UNL     1      -2.393   4.856 -31.710  1.00  0.00    -0.240 N 
HETATM    5  N   UNL     1      -2.224   3.545 -31.954  1.00  0.00    -0.165 NA
HETATM    6  C   UNL     1      -3.373   2.987 -31.508  1.00  0.00     0.148 A 
HETATM    7  C   UNL     1      -4.279   3.980 -31.044  1.00  0.00     0.088 A 
HETATM    8  C   UNL     1      -1.364   5.827 -32.023  1.00  0.00     0.221 C 
HETATM    9  C   UNL     1      -1.964   7.243 -32.118  1.00  0.00     0.066 C 
HETATM   10  H   UNL     1      -4.860   6.657 -30.475  1.00  0.00     0.161 HD
ENDROOT
BRANCH   6  11
HETATM   11  C   UNL     1      -3.598   1.532 -31.522  1.00  0.00     0.272 C 
HETATM   12  N   UNL     1      -4.838   1.177 -32.000  1.00  0.00    -0.353 N 
HETATM   13  H   UNL     1      -5.490   1.943 -32.142  1.00  0.00     0.162 HD
HETATM   14  O   UNL     1      -2.755   0.721 -31.148  1.00  0.00    -0.266 OA
BRANCH  12  15
HETATM   15  C   UNL     1      -5.308  -0.189 -32.032  1.00  0.00     0.155 C 
BRANCH  15  16
HETATM   16  C   UNL     1      -5.099  -0.852 -33.395  1.00  0.00     0.139 C 
HETATM   17  O   UNL     1      -4.109  -1.897 -33.308  1.00  0.00    -0.384 OA
HETATM   18  C   UNL     1      -4.438  -2.903 -34.275  1.00  0.00     0.168 C 
HETATM   19  C   UNL     1      -5.773  -2.532 -34.892  1.00  0.00     0.029 C 
HETATM   20  C   UNL     1      -6.348  -1.548 -33.904  1.00  0.00     0.035 C 
ENDBRANCH  15  16
ENDBRANCH  12  15
ENDBRANCH   6  11
BRANCH   8  21
HETATM   21  C   UNL     1      -0.219   5.718 -31.040  1.00  0.00     0.409 C 
HETATM   22  F   UNL     1      -0.616   5.231 -29.842  1.00  0.00    -0.169 F 
HETATM   23  F   UNL     1       0.712   4.846 -31.512  1.00  0.00    -0.169 F 
HETATM   24  F   UNL     1       0.417   6.883 -30.814  1.00  0.00    -0.169 F 
ENDBRANCH   8  21
BRANCH   1  25
HETATM   25  C   UNL     1      -2.526   8.038 -29.723  1.00  0.00    -0.034 A 
HETATM   26  C   UNL     1      -1.914   9.300 -29.635  1.00  0.00     0.011 A 
HETATM   27  C   UNL     1      -1.442   9.789 -28.413  1.00  0.00     0.026 A 
HETATM   28  C   UNL     1      -1.571   9.025 -27.250  1.00  0.00     0.055 A 
HETATM   29  C   UNL     1      -2.177   7.769 -27.314  1.00  0.00     0.056 A 
HETATM   30 CL   UNL     1      -0.969   9.694 -25.777  1.00  0.00    -0.083 Cl
HETATM   31  C   UNL     1      -2.655   7.287 -28.540  1.00  0.00     0.034 A 
HETATM   32 CL   UNL     1      -2.373   6.764 -25.922  1.00  0.00    -0.083 Cl
ENDBRANCH   1  25
TORSDOF 5
ENDMDL
MODEL 4
REMARK VINA RESULT:      -8.6      5.130      7.554
REMARK  5 active torsions:
REMARK  status: ('A' for Active; 'I' for Inactive)
REMARK    1  A    between atoms: C_2  and  C_3 
REMARK    2  A    between atoms: C_8  and  C_9 
REMARK       I    between atoms: C_9  and  N_10 
REMARK    3  A    between atoms: N_10  and  C_11 
REMARK    4  A    between atoms: C_11  and  C_12 
REMARK    5  A    between atoms: C_19  and  C_20 
ROOT
HETATM    1  C   UNL     1      -7.988   0.560 -31.729  1.00  0.00     0.118 C 
HETATM    2  N   UNL     1      -9.329   0.519 -32.298  1.00  0.00    -0.366 N 
HETATM    3  C   UNL     1      -9.800   1.493 -33.106  1.00  0.00     0.123 A 
HETATM    4  N   UNL     1      -9.095   2.641 -33.337  1.00  0.00    -0.240 N 
HETATM    5  N   UNL     1      -9.737   3.527 -34.118  1.00  0.00    -0.165 NA
HETATM    6  C   UNL     1     -10.875   2.881 -34.463  1.00  0.00     0.148 A 
HETATM    7  C   UNL     1     -10.955   1.610 -33.832  1.00  0.00     0.088 A 
HETATM    8  C   UNL     1      -7.796   2.934 -32.764  1.00  0.00     0.221 C 
HETATM    9  C   UNL     1      -7.517   2.016 -31.557  1.00  0.00     0.066 C 
HETATM   10  H   UNL     1      -9.818  -0.371 -32.214  1.00  0.00     0.161 HD
ENDROOT
BRANCH   6  11
HETATM   11  C   UNL     1     -11.864   3.468 -35.383  1.00  0.00     0.272 C 
HETATM   12  N   UNL     1     -12.097   4.804 -35.152  1.00  0.00    -0.353 N 
HETATM   13  H   UNL     1     -11.683   5.182 -34.304  1.00  0.00     0.162 HD
HETATM   14  O   UNL     1     -12.418   2.825 -36.269  1.00  0.00    -0.266 OA
BRANCH  12  15
HETATM   15  C   UNL     1     -13.084   5.569 -35.880  1.00  0.00     0.155 C 
BRANCH  15  16
HETATM   16  C   UNL     1     -12.771   7.066 -35.901  1.00  0.00     0.139 C 
HETATM   17  O   UNL     1     -11.348   7.289 -35.959  1.00  0.00    -0.384 OA
HETATM   18  C   UNL     1     -11.118   8.512 -36.673  1.00  0.00     0.168 C 
HETATM   19  C   UNL     1     -12.455   8.994 -37.204  1.00  0.00     0.029 C 
HETATM   20  C   UNL     1     -13.320   7.762 -37.133  1.00  0.00     0.035 C 
ENDBRANCH  15  16
ENDBRANCH  12  15
ENDBRANCH   6  11
BRANCH   8  21
HETATM   21  C   UNL     1      -6.725   2.878 -33.830  1.00  0.00     0.409 C 
HETATM   22  F   UNL     1      -6.527   4.079 -34.421  1.00  0.00    -0.169 F 
HETATM   23  F   UNL     1      -5.535   2.533 -33.270  1.00  0.00    -0.169 F 
HETATM   24  F   UNL     1      -6.972   1.983 -34.804  1.00  0.00    -0.169 F 
ENDBRANCH   8  21
BRANCH   1  25
HETATM   25  C   UNL     1      -7.015  -0.356 -32.455  1.00  0.00    -0.034 A 
HETATM   26  C   UNL     1      -7.429  -0.998 -33.635  1.00  0.00     0.011 A 
HETATM   27  C   UNL     1      -6.558  -1.830 -34.346  1.00  0.00     0.026 A 
HETATM   28  C   UNL     1      -5.254  -2.039 -33.893  1.00  0.00     0.055 A 
HETATM   29  C   UNL     1      -4.821  -1.409 -32.724  1.00  0.00     0.056 A 
HETATM   30 CL   UNL     1      -4.234  -3.075 -34.824  1.00  0.00    -0.083 Cl
HETATM   31  C   UNL     1      -5.695  -0.571 -32.019  1.00  0.00     0.034 A 
HETATM   32 CL   UNL     1      -3.224  -1.617 -32.097  1.00  0.00    -0.083 Cl
ENDBRANCH   1  25
TORSDOF 5
ENDMDL
MODEL 5
REMARK VINA RESULT:      -8.6      1.978      2.186
REMARK  5 active torsions:
REMARK  status: ('A' for Active; 'I' for Inactive)
REMARK    1  A    between atoms: C_2  and  C_3 
REMARK    2  A    between atoms: C_8  and  C_9 
REMARK       I    between atoms: C_9  and  N_10 
REMARK    3  A    between atoms: N_10  and  C_11 
REMARK    4  A    between atoms: C_11  and  C_12 
REMARK    5  A    between atoms: C_19  and  C_20 
ROOT
HETATM    1  C   UNL     1      -6.886   0.961 -33.579  1.00  0.00     0.118 C 
HETATM    2  N   UNL     1      -6.039   2.124 -33.811  1.00  0.00    -0.366 N 
HETATM    3  C   UNL     1      -5.515   2.848 -32.799  1.00  0.00     0.123 A 
HETATM    4  N   UNL     1      -5.851   2.612 -31.495  1.00  0.00    -0.240 N 
HETATM    5  N   UNL     1      -5.282   3.463 -30.623  1.00  0.00    -0.165 NA
HETATM    6  C   UNL     1      -4.486   4.232 -31.402  1.00  0.00     0.148 A 
HETATM    7  C   UNL     1      -4.622   3.885 -32.774  1.00  0.00     0.088 A 
HETATM    8  C   UNL     1      -6.774   1.583 -31.061  1.00  0.00     0.221 C 
HETATM    9  C   UNL     1      -7.637   1.095 -32.242  1.00  0.00     0.066 C 
HETATM   10  H   UNL     1      -5.705   2.246 -34.766  1.00  0.00     0.161 HD
ENDROOT
BRANCH   6  11
HETATM   11  C   UNL     1      -3.610   5.275 -30.843  1.00  0.00     0.272 C 
HETATM   12  N   UNL     1      -4.231   6.058 -29.897  1.00  0.00    -0.353 N 
HETATM   13  H   UNL     1      -5.235   5.926 -29.807  1.00  0.00     0.162 HD
HETATM   14  O   UNL     1      -2.441   5.422 -31.186  1.00  0.00    -0.266 OA
BRANCH  12  15
HETATM   15  C   UNL     1      -3.591   7.192 -29.270  1.00  0.00     0.155 C 
BRANCH  15  16
HETATM   16  C   UNL     1      -3.148   6.900 -27.835  1.00  0.00     0.139 C 
HETATM   17  O   UNL     1      -1.748   7.197 -27.664  1.00  0.00    -0.384 OA
HETATM   18  C   UNL     1      -1.544   7.612 -26.306  1.00  0.00     0.168 C 
HETATM   19  C   UNL     1      -2.905   7.713 -25.645  1.00  0.00     0.029 C 
HETATM   20  C   UNL     1      -3.854   7.775 -26.816  1.00  0.00     0.035 C 
ENDBRANCH  15  16
ENDBRANCH  12  15
ENDBRANCH   6  11
BRANCH   8  21
HETATM   21  C   UNL     1      -6.032   0.473 -30.352  1.00  0.00     0.409 C 
HETATM   22  F   UNL     1      -6.516  -0.750 -30.666  1.00  0.00    -0.169 F 
HETATM   23  F   UNL     1      -4.727   0.472 -30.736  1.00  0.00    -0.169 F 
HETATM   24  F   UNL     1      -6.043   0.581 -29.010  1.00  0.00    -0.169 F 
ENDBRANCH   8  21
BRANCH   1  25
HETATM   25  C   UNL     1      -6.145  -0.352 -33.778  1.00  0.00    -0.034 A 
HETATM   26  C   UNL     1      -4.762  -0.403 -33.530  1.00  0.00     0.011 A 
HETATM   27  C   UNL     1      -4.047  -1.596 -33.678  1.00  0.00     0.026 A 
HETATM   28  C   UNL     1      -4.698  -2.764 -34.079  1.00  0.00     0.055 A 
HETATM   29  C   UNL     1      -6.072  -2.737 -34.328  1.00  0.00     0.056 A 
HETATM   30 CL   UNL     1      -3.752  -4.200 -34.237  1.00  0.00    -0.083 Cl
HETATM   31  C   UNL     1      -6.786  -1.542 -34.172  1.00  0.00     0.034 A 
HETATM   32 CL   UNL     1      -6.950  -4.139 -34.828  1.00  0.00    -0.083 Cl
ENDBRANCH   1  25
TORSDOF 5
ENDMDL
MODEL 6
REMARK VINA RESULT:      -8.4      2.999      3.655
REMARK  5 active torsions:
REMARK  status: ('A' for Active; 'I' for Inactive)
REMARK    1  A    between atoms: C_2  and  C_3 
REMARK    2  A    between atoms: C_8  and  C_9 
REMARK       I    between atoms: C_9  and  N_10 
REMARK    3  A    between atoms: N_10  and  C_11 
REMARK    4  A    between atoms: C_11  and  C_12 
REMARK    5  A    between atoms: C_19  and  C_20 
ROOT
HETATM    1  C   UNL     1      -6.538   1.437 -34.402  1.00  0.00     0.118 C 
HETATM    2  N   UNL     1      -5.869   2.449 -33.595  1.00  0.00    -0.366 N 
HETATM    3  C   UNL     1      -6.405   2.929 -32.452  1.00  0.00     0.123 A 
HETATM    4  N   UNL     1      -7.667   2.591 -32.050  1.00  0.00    -0.240 N 
HETATM    5  N   UNL     1      -8.062   3.206 -30.922  1.00  0.00    -0.165 NA
HETATM    6  C   UNL     1      -6.972   3.913 -30.545  1.00  0.00     0.148 A 
HETATM    7  C   UNL     1      -5.920   3.777 -31.492  1.00  0.00     0.088 A 
HETATM    8  C   UNL     1      -8.546   1.698 -32.777  1.00  0.00     0.221 C 
HETATM    9  C   UNL     1      -8.066   1.530 -34.233  1.00  0.00     0.066 C 
HETATM   10  H   UNL     1      -4.895   2.631 -33.830  1.00  0.00     0.161 HD
ENDROOT
BRANCH   6  11
HETATM   11  C   UNL     1      -6.936   4.700 -29.302  1.00  0.00     0.272 C 
HETATM   12  N   UNL     1      -5.693   4.732 -28.713  1.00  0.00    -0.353 N 
HETATM   13  H   UNL     1      -5.001   4.104 -29.112  1.00  0.00     0.162 HD
HETATM   14  O   UNL     1      -7.920   5.274 -28.844  1.00  0.00    -0.266 OA
BRANCH  12  15
HETATM   15  C   UNL     1      -5.439   5.379 -27.445  1.00  0.00     0.155 C 
BRANCH  15  16
HETATM   16  C   UNL     1      -4.982   6.831 -27.605  1.00  0.00     0.139 C 
HETATM   17  O   UNL     1      -5.949   7.735 -27.033  1.00  0.00    -0.384 OA
HETATM   18  C   UNL     1      -5.247   8.888 -26.549  1.00  0.00     0.168 C 
HETATM   19  C   UNL     1      -3.761   8.622 -26.702  1.00  0.00     0.029 C 
HETATM   20  C   UNL     1      -3.693   7.124 -26.860  1.00  0.00     0.035 C 
ENDBRANCH  15  16
ENDBRANCH  12  15
ENDBRANCH   6  11
BRANCH   8  21
HETATM   21  C   UNL     1      -8.701   0.390 -32.035  1.00  0.00     0.409 C 
HETATM   22  F   UNL     1      -8.961  -0.645 -32.866  1.00  0.00    -0.169 F 
HETATM   23  F   UNL     1      -7.539   0.080 -31.399  1.00  0.00    -0.169 F 
HETATM   24  F   UNL     1      -9.666   0.408 -31.096  1.00  0.00    -0.169 F 
ENDBRANCH   8  21
BRANCH   1  25
HETATM   25  C   UNL     1      -5.947   0.049 -34.210  1.00  0.00    -0.034 A 
HETATM   26  C   UNL     1      -6.446  -1.020 -34.974  1.00  0.00     0.011 A 
HETATM   27  C   UNL     1      -5.916  -2.308 -34.845  1.00  0.00     0.026 A 
HETATM   28  C   UNL     1      -4.874  -2.555 -33.948  1.00  0.00     0.055 A 
HETATM   29  C   UNL     1      -4.361  -1.507 -33.181  1.00  0.00     0.056 A 
HETATM   30 CL   UNL     1      -4.266  -4.168 -33.846  1.00  0.00    -0.083 Cl
HETATM   31  C   UNL     1      -4.891  -0.218 -33.318  1.00  0.00     0.034 A 
HETATM   32 CL   UNL     1      -3.075  -1.733 -32.049  1.00  0.00    -0.083 Cl
ENDBRANCH   1  25
TORSDOF 5
ENDMDL
MODEL 7
REMARK VINA RESULT:      -8.4      4.754      8.804
REMARK  5 active torsions:
REMARK  status: ('A' for Active; 'I' for Inactive)
REMARK    1  A    between atoms: C_2  and  C_3 
REMARK    2  A    between atoms: C_8  and  C_9 
REMARK       I    between atoms: C_9  and  N_10 
REMARK    3  A    between atoms: N_10  and  C_11 
REMARK    4  A    between atoms: C_11  and  C_12 
REMARK    5  A    between atoms: C_19  and  C_20 
ROOT
HETATM    1  C   UNL     1      -2.551   8.270 -31.508  1.00  0.00     0.118 C 
HETATM    2  N   UNL     1      -3.989   8.046 -31.591  1.00  0.00    -0.366 N 
HETATM    3  C   UNL     1      -4.521   7.036 -32.311  1.00  0.00     0.123 A 
HETATM    4  N   UNL     1      -3.752   6.238 -33.112  1.00  0.00    -0.240 N 
HETATM    5  N   UNL     1      -4.452   5.322 -33.802  1.00  0.00    -0.165 NA
HETATM    6  C   UNL     1      -5.721   5.493 -33.363  1.00  0.00     0.148 A 
HETATM    7  C   UNL     1      -5.803   6.572 -32.441  1.00  0.00     0.088 A 
HETATM    8  C   UNL     1      -2.318   6.376 -33.269  1.00  0.00     0.221 C 
HETATM    9  C   UNL     1      -1.849   7.761 -32.781  1.00  0.00     0.066 C 
HETATM   10  H   UNL     1      -4.557   8.567 -30.925  1.00  0.00     0.161 HD
ENDROOT
BRANCH   6  11
HETATM   11  C   UNL     1      -6.831   4.639 -33.815  1.00  0.00     0.272 C 
HETATM   12  N   UNL     1      -6.554   3.294 -33.730  1.00  0.00    -0.353 N 
HETATM   13  H   UNL     1      -5.589   3.057 -33.514  1.00  0.00     0.162 HD
HETATM   14  O   UNL     1      -7.899   5.088 -34.221  1.00  0.00    -0.266 OA
BRANCH  12  15
HETATM   15  C   UNL     1      -7.465   2.271 -34.191  1.00  0.00     0.155 C 
BRANCH  15  16
HETATM   16  C   UNL     1      -6.741   1.017 -34.686  1.00  0.00     0.139 C 
HETATM   17  O   UNL     1      -5.848   0.510 -33.674  1.00  0.00    -0.384 OA
HETATM   18  C   UNL     1      -5.769  -0.914 -33.824  1.00  0.00     0.168 C 
HETATM   19  C   UNL     1      -6.769  -1.323 -34.889  1.00  0.00     0.029 C 
HETATM   20  C   UNL     1      -7.691  -0.132 -34.972  1.00  0.00     0.035 C 
ENDBRANCH  15  16
ENDBRANCH  12  15
ENDBRANCH   6  11
BRANCH   8  21
HETATM   21  C   UNL     1      -1.601   5.223 -32.603  1.00  0.00     0.409 C 
HETATM   22  F   UNL     1      -0.305   5.508 -32.340  1.00  0.00    -0.169 F 
HETATM   23  F   UNL     1      -2.179   4.954 -31.401  1.00  0.00    -0.169 F 
HETATM   24  F   UNL     1      -1.630   4.081 -33.314  1.00  0.00    -0.169 F 
ENDBRANCH   8  21
BRANCH   1  25
HETATM   25  C   UNL     1      -1.956   7.777 -30.198  1.00  0.00    -0.034 A 
HETATM   26  C   UNL     1      -0.565   7.602 -30.101  1.00  0.00     0.011 A 
HETATM   27  C   UNL     1       0.027   7.173 -28.908  1.00  0.00     0.026 A 
HETATM   28  C   UNL     1      -0.761   6.910 -27.785  1.00  0.00     0.055 A 
HETATM   29  C   UNL     1      -2.145   7.080 -27.858  1.00  0.00     0.056 A 
HETATM   30 CL   UNL     1       0.037   6.389 -26.346  1.00  0.00    -0.083 Cl
HETATM   31  C   UNL     1      -2.732   7.516 -29.053  1.00  0.00     0.034 A 
HETATM   32 CL   UNL     1      -3.188   6.774 -26.514  1.00  0.00    -0.083 Cl
ENDBRANCH   1  25
TORSDOF 5
ENDMDL
MODEL 8
REMARK VINA RESULT:      -8.3      1.481      2.136
REMARK  5 active torsions:
REMARK  status: ('A' for Active; 'I' for Inactive)
REMARK    1  A    between atoms: C_2  and  C_3 
REMARK    2  A    between atoms: C_8  and  C_9 
REMARK       I    between atoms: C_9  and  N_10 
REMARK    3  A    between atoms: N_10  and  C_11 
REMARK    4  A    between atoms: C_11  and  C_12 
REMARK    5  A    between atoms: C_19  and  C_20 
ROOT
HETATM    1  C   UNL     1      -6.993   2.059 -33.615  1.00  0.00     0.118 C 
HETATM    2  N   UNL     1      -5.829   2.862 -33.965  1.00  0.00    -0.366 N 
HETATM    3  C   UNL     1      -4.967   3.327 -33.034  1.00  0.00     0.123 A 
HETATM    4  N   UNL     1      -5.204   3.182 -31.696  1.00  0.00    -0.240 N 
HETATM    5  N   UNL     1      -4.274   3.755 -30.913  1.00  0.00    -0.165 NA
HETATM    6  C   UNL     1      -3.360   4.223 -31.794  1.00  0.00     0.148 A 
HETATM    7  C   UNL     1      -3.772   3.988 -33.134  1.00  0.00     0.088 A 
HETATM    8  C   UNL     1      -6.369   2.526 -31.138  1.00  0.00     0.221 C 
HETATM    9  C   UNL     1      -7.483   2.405 -32.196  1.00  0.00     0.066 C 
HETATM   10  H   UNL     1      -5.591   2.890 -34.955  1.00  0.00     0.161 HD
ENDROOT
BRANCH   6  11
HETATM   11  C   UNL     1      -2.114   4.879 -31.362  1.00  0.00     0.272 C 
HETATM   12  N   UNL     1      -2.289   6.194 -30.999  1.00  0.00    -0.353 N 
HETATM   13  H   UNL     1      -3.201   6.591 -31.208  1.00  0.00     0.162 HD
HETATM   14  O   UNL     1      -1.032   4.302 -31.325  1.00  0.00    -0.266 OA
BRANCH  12  15
HETATM   15  C   UNL     1      -1.196   7.058 -30.616  1.00  0.00     0.155 C 
BRANCH  15  16
HETATM   16  C   UNL     1      -0.957   7.072 -29.104  1.00  0.00     0.139 C 
HETATM   17  O   UNL     1       0.208   6.293 -28.765  1.00  0.00    -0.384 OA
HETATM   18  C   UNL     1       0.804   6.872 -27.595  1.00  0.00     0.168 C 
HETATM   19  C   UNL     1       0.053   8.151 -27.280  1.00  0.00     0.029 C 
HETATM   20  C   UNL     1      -0.659   8.462 -28.572  1.00  0.00     0.035 C 
ENDBRANCH  15  16
ENDBRANCH  12  15
ENDBRANCH   6  11
BRANCH   8  21
HETATM   21  C   UNL     1      -5.981   1.205 -30.511  1.00  0.00     0.409 C 
HETATM   22  F   UNL     1      -4.795   0.747 -30.974  1.00  0.00    -0.169 F 
HETATM   23  F   UNL     1      -5.827   1.359 -29.168  1.00  0.00    -0.169 F 
HETATM   24  F   UNL     1      -6.891   0.230 -30.690  1.00  0.00    -0.169 F 
ENDBRANCH   8  21
BRANCH   1  25
HETATM   25  C   UNL     1      -6.786   0.578 -33.887  1.00  0.00    -0.034 A 
HETATM   26  C   UNL     1      -7.871  -0.193 -34.340  1.00  0.00     0.011 A 
HETATM   27  C   UNL     1      -7.719  -1.554 -34.624  1.00  0.00     0.026 A 
HETATM   28  C   UNL     1      -6.478  -2.175 -34.461  1.00  0.00     0.055 A 
HETATM   29  C   UNL     1      -5.387  -1.427 -34.014  1.00  0.00     0.056 A 
HETATM   30 CL   UNL     1      -6.364  -3.857 -34.835  1.00  0.00    -0.083 Cl
HETATM   31  C   UNL     1      -5.542  -0.063 -33.737  1.00  0.00     0.034 A 
HETATM   32 CL   UNL     1      -3.821  -2.122 -33.786  1.00  0.00    -0.083 Cl
ENDBRANCH   1  25
TORSDOF 5
ENDMDL
MODEL 9
REMARK VINA RESULT:      -8.2      4.675      8.170
REMARK  5 active torsions:
REMARK  status: ('A' for Active; 'I' for Inactive)
REMARK    1  A    between atoms: C_2  and  C_3 
REMARK    2  A    between atoms: C_8  and  C_9 
REMARK       I    between atoms: C_9  and  N_10 
REMARK    3  A    between atoms: N_10  and  C_11 
REMARK    4  A    between atoms: C_11  and  C_12 
REMARK    5  A    between atoms: C_19  and  C_20 
ROOT
HETATM    1  C   UNL     1      -5.163   4.264 -30.294  1.00  0.00     0.118 C 
HETATM    2  N   UNL     1      -5.014   2.820 -30.422  1.00  0.00    -0.366 N 
HETATM    3  C   UNL     1      -5.694   2.104 -31.344  1.00  0.00     0.123 A 
HETATM    4  N   UNL     1      -6.660   2.670 -32.128  1.00  0.00    -0.240 N 
HETATM    5  N   UNL     1      -7.275   1.801 -32.948  1.00  0.00    -0.165 NA
HETATM    6  C   UNL     1      -6.618   0.638 -32.730  1.00  0.00     0.148 A 
HETATM    7  C   UNL     1      -5.632   0.788 -31.717  1.00  0.00     0.088 A 
HETATM    8  C   UNL     1      -7.049   4.065 -32.068  1.00  0.00     0.221 C 
HETATM    9  C   UNL     1      -6.566   4.707 -30.752  1.00  0.00     0.066 C 
HETATM   10  H   UNL     1      -4.232   2.409 -29.916  1.00  0.00     0.161 HD
ENDROOT
BRANCH   6  11
HETATM   11  C   UNL     1      -6.925  -0.591 -33.480  1.00  0.00     0.272 C 
HETATM   12  N   UNL     1      -5.809  -1.207 -33.998  1.00  0.00    -0.353 N 
HETATM   13  H   UNL     1      -4.945  -0.677 -33.933  1.00  0.00     0.162 HD
HETATM   14  O   UNL     1      -8.066  -1.022 -33.620  1.00  0.00    -0.266 OA
BRANCH  12  15
HETATM   15  C   UNL     1      -5.876  -2.383 -34.835  1.00  0.00     0.155 C 
BRANCH  15  16
HETATM   16  C   UNL     1      -4.686  -3.323 -34.626  1.00  0.00     0.139 C 
HETATM   17  O   UNL     1      -3.958  -2.966 -33.434  1.00  0.00    -0.384 OA
HETATM   18  C   UNL     1      -3.388  -4.162 -32.886  1.00  0.00     0.168 C 
HETATM   19  C   UNL     1      -3.905  -5.334 -33.698  1.00  0.00     0.029 C 
HETATM   20  C   UNL     1      -5.111  -4.763 -34.400  1.00  0.00     0.035 C 
ENDBRANCH  15  16
ENDBRANCH  12  15
ENDBRANCH   6  11
BRANCH   8  21
HETATM   21  C   UNL     1      -6.585   4.796 -33.307  1.00  0.00     0.409 C 
HETATM   22  F   UNL     1      -5.498   4.217 -33.867  1.00  0.00    -0.169 F 
HETATM   23  F   UNL     1      -7.561   4.762 -34.254  1.00  0.00    -0.169 F 
HETATM   24  F   UNL     1      -6.291   6.092 -33.096  1.00  0.00    -0.169 F 
ENDBRANCH   8  21
BRANCH   1  25
HETATM   25  C   UNL     1      -4.005   5.030 -30.914  1.00  0.00    -0.034 A 
HETATM   26  C   UNL     1      -3.023   4.325 -31.631  1.00  0.00     0.011 A 
HETATM   27  C   UNL     1      -1.954   4.992 -32.236  1.00  0.00     0.026 A 
HETATM   28  C   UNL     1      -1.843   6.381 -32.139  1.00  0.00     0.055 A 
HETATM   29  C   UNL     1      -2.810   7.102 -31.434  1.00  0.00     0.056 A 
HETATM   30 CL   UNL     1      -0.500   7.139 -32.915  1.00  0.00    -0.083 Cl
HETATM   31  C   UNL     1      -3.882   6.429 -30.834  1.00  0.00     0.034 A 
HETATM   32 CL   UNL     1      -2.743   8.821 -31.266  1.00  0.00    -0.083 Cl
ENDBRANCH   1  25
TORSDOF 5
ENDMDL
MODEL 10
REMARK VINA RESULT:      -8.1      4.845      8.121
REMARK  5 active torsions:
REMARK  status: ('A' for Active; 'I' for Inactive)
REMARK    1  A    between atoms: C_2  and  C_3 
REMARK    2  A    between atoms: C_8  and  C_9 
REMARK       I    between atoms: C_9  and  N_10 
REMARK    3  A    between atoms: N_10  and  C_11 
REMARK    4  A    between atoms: C_11  and  C_12 
REMARK    5  A    between atoms: C_19  and  C_20 
ROOT
HETATM    1  C   UNL     1      -4.638   1.328 -32.194  1.00  0.00     0.118 C 
HETATM    2  N   UNL     1      -5.559   0.940 -33.254  1.00  0.00    -0.366 N 
HETATM    3  C   UNL     1      -6.899   0.952 -33.085  1.00  0.00     0.123 A 
HETATM    4  N   UNL     1      -7.471   1.205 -31.869  1.00  0.00    -0.240 N 
HETATM    5  N   UNL     1      -8.812   1.119 -31.869  1.00  0.00    -0.165 NA
HETATM    6  C   UNL     1      -9.116   0.873 -33.165  1.00  0.00     0.148 A 
HETATM    7  C   UNL     1      -7.939   0.744 -33.952  1.00  0.00     0.088 A 
HETATM    8  C   UNL     1      -6.726   1.489 -30.659  1.00  0.00     0.221 C 
HETATM    9  C   UNL     1      -5.256   1.051 -30.810  1.00  0.00     0.066 C 
HETATM   10  H   UNL     1      -5.152   0.848 -34.183  1.00  0.00     0.161 HD
ENDROOT
BRANCH   6  11
HETATM   11  C   UNL     1     -10.505   0.767 -33.640  1.00  0.00     0.272 C 
HETATM   12  N   UNL     1     -10.784   1.603 -34.697  1.00  0.00    -0.353 N 
HETATM   13  H   UNL     1     -10.064   2.283 -34.922  1.00  0.00     0.162 HD
HETATM   14  O   UNL     1     -11.327   0.003 -33.143  1.00  0.00    -0.266 OA
BRANCH  12  15
HETATM   15  C   UNL     1     -12.102   1.726 -35.277  1.00  0.00     0.155 C 
BRANCH  15  16
HETATM   16  C   UNL     1     -12.596   3.174 -35.316  1.00  0.00     0.139 C 
HETATM   17  O   UNL     1     -13.216   3.534 -34.065  1.00  0.00    -0.384 OA
HETATM   18  C   UNL     1     -13.004   4.937 -33.852  1.00  0.00     0.168 C 
HETATM   19  C   UNL     1     -12.089   5.438 -34.953  1.00  0.00     0.029 C 
HETATM   20  C   UNL     1     -11.467   4.172 -35.487  1.00  0.00     0.035 C 
ENDBRANCH  15  16
ENDBRANCH  12  15
ENDBRANCH   6  11
BRANCH   8  21
HETATM   21  C   UNL     1      -6.891   2.940 -30.266  1.00  0.00     0.409 C 
HETATM   22  F   UNL     1      -7.192   3.726 -31.325  1.00  0.00    -0.169 F 
HETATM   23  F   UNL     1      -7.927   3.067 -29.394  1.00  0.00    -0.169 F 
HETATM   24  F   UNL     1      -5.808   3.467 -29.665  1.00  0.00    -0.169 F 
ENDBRANCH   8  21
BRANCH   1  25
HETATM   25  C   UNL     1      -4.080   2.729 -32.386  1.00  0.00    -0.034 A 
HETATM   26  C   UNL     1      -4.732   3.612 -33.265  1.00  0.00     0.011 A 
HETATM   27  C   UNL     1      -4.265   4.917 -33.453  1.00  0.00     0.026 A 
HETATM   28  C   UNL     1      -3.136   5.369 -32.767  1.00  0.00     0.055 A 
HETATM   29  C   UNL     1      -2.474   4.509 -31.887  1.00  0.00     0.056 A 
HETATM   30 CL   UNL     1      -2.620   6.992 -33.046  1.00  0.00    -0.083 Cl
HETATM   31  C   UNL     1      -2.949   3.205 -31.696  1.00  0.00     0.034 A 
HETATM   32 CL   UNL     1      -1.071   4.992 -31.002  1.00  0.00    -0.083 Cl
ENDBRANCH   1  25
TORSDOF 5
ENDMDL
