MODEL 1
REMARK VINA RESULT:      -8.1      0.000      0.000
REMARK  8 active torsions:
REMARK  status: ('A' for Active; 'I' for Inactive)
REMARK    1  A    between atoms: C_2  and  O_3 
REMARK    2  A    between atoms: O_3  and  C_4 
REMARK    3  A    between atoms: C_5  and  N_6 
REMARK       I    between atoms: N_6  and  C_7 
REMARK    4  A    between atoms: C_7  and  C_8 
REMARK    5  A    between atoms: C_8  and  C_9 
REMARK    6  A    between atoms: C_9  and  N_10 
REMARK    7  A    between atoms: N_10  and  S_11 
REMARK    8  A    between atoms: S_11  and  C_12 
ROOT
HETATM    1  N   UNL     1      -5.195   1.529 -32.066  1.00  0.00    -0.315 N 
HETATM    2  H   UNL     1      -5.179   0.896 -32.865  1.00  0.00     0.172 HD
ENDROOT
BRANCH   1   3
HETATM    3  C   UNL     1      -3.932   1.850 -31.385  1.00  0.00     0.141 C 
BRANCH   3   4
HETATM    4  C   UNL     1      -3.203   0.573 -30.982  1.00  0.00     0.123 C 
BRANCH   4   5
HETATM    5  C   UNL     1      -3.173  -0.398 -32.149  1.00  0.00     0.223 C 
HETATM    6  N   UNL     1      -3.817  -1.587 -31.874  1.00  0.00    -0.325 N 
HETATM    7  H   UNL     1      -4.128  -1.768 -30.924  1.00  0.00     0.169 HD
HETATM    8  O   UNL     1      -2.648  -0.092 -33.215  1.00  0.00    -0.273 OA
BRANCH   6   9
HETATM    9  C   UNL     1      -4.029  -2.677 -32.750  1.00  0.00     0.068 A 
HETATM   10  C   UNL     1      -4.994  -2.508 -33.768  1.00  0.00     0.095 A 
HETATM   11  C   UNL     1      -5.238  -3.546 -34.672  1.00  0.00     0.039 A 
HETATM   12  C   UNL     1      -4.535  -4.748 -34.569  1.00  0.00     0.003 A 
HETATM   13  C   UNL     1      -3.585  -4.916 -33.566  1.00  0.00     0.002 A 
HETATM   14  C   UNL     1      -3.333  -3.885 -32.660  1.00  0.00     0.032 A 
BRANCH  10  15
HETATM   15  O   UNL     1      -5.636  -1.288 -33.781  1.00  0.00    -0.349 OA
BRANCH  15  16
HETATM   16  C   UNL     1      -6.951  -1.260 -34.335  1.00  0.00     0.171 C 
HETATM   17  C   UNL     1      -7.023  -0.106 -35.318  1.00  0.00     0.034 C 
ENDBRANCH  15  16
ENDBRANCH  10  15
ENDBRANCH   6   9
ENDBRANCH   4   5
ENDBRANCH   3   4
ENDBRANCH   1   3
BRANCH   1  18
HETATM   18  S   UNL     1      -6.552   1.248 -31.100  1.00  0.00     0.258 S 
HETATM   19  O   UNL     1      -6.552  -0.175 -30.836  1.00  0.00    -0.201 OA
HETATM   20  O   UNL     1      -6.558   2.216 -30.028  1.00  0.00    -0.201 OA
BRANCH  18  21
HETATM   21  C   UNL     1      -7.904   1.604 -32.197  1.00  0.00     0.080 A 
HETATM   22  C   UNL     1      -8.988   0.720 -32.254  1.00  0.00     0.034 A 
HETATM   23  C   UNL     1     -10.051   0.980 -33.126  1.00  0.00    -0.029 A 
HETATM   24  C   UNL     1      -9.991   2.096 -33.968  1.00  0.00     0.041 A 
HETATM   25  C   UNL     1     -11.201   0.020 -33.256  1.00  0.00     0.050 C 
HETATM   26  N   UNL     1     -11.033   2.337 -34.867  1.00  0.00    -0.327 N 
HETATM   27  C   UNL     1      -8.888   2.951 -33.943  1.00  0.00     0.031 A 
HETATM   28  C   UNL     1     -12.223   1.657 -34.865  1.00  0.00     0.222 C 
HETATM   29  H   UNL     1     -10.937   3.048 -35.580  1.00  0.00     0.169 HD
HETATM   30  O   UNL     1     -13.080   1.880 -35.717  1.00  0.00    -0.273 OA
HETATM   31  C   UNL     1     -12.469   0.736 -33.691  1.00  0.00     0.108 C 
HETATM   32  C   UNL     1      -7.842   2.711 -33.048  1.00  0.00     0.027 A 
ENDBRANCH  18  21
ENDBRANCH   1  18
TORSDOF 8
ENDMDL
MODEL 2
REMARK VINA RESULT:      -8.0      3.679      7.521
REMARK  8 active torsions:
REMARK  status: ('A' for Active; 'I' for Inactive)
REMARK    1  A    between atoms: C_2  and  O_3 
REMARK    2  A    between atoms: O_3  and  C_4 
REMARK    3  A    between atoms: C_5  and  N_6 
REMARK       I    between atoms: N_6  and  C_7 
REMARK    4  A    between atoms: C_7  and  C_8 
REMARK    5  A    between atoms: C_8  and  C_9 
REMARK    6  A    between atoms: C_9  and  N_10 
REMARK    7  A    between atoms: N_10  and  S_11 
REMARK    8  A    between atoms: S_11  and  C_12 
ROOT
HETATM    1  N   UNL     1      -6.019   2.846 -33.098  1.00  0.00    -0.315 N 
HETATM    2  H   UNL     1      -5.188   2.429 -33.515  1.00  0.00     0.172 HD
ENDROOT
BRANCH   1   3
HETATM    3  C   UNL     1      -5.875   3.661 -31.882  1.00  0.00     0.141 C 
BRANCH   3   4
HETATM    4  C   UNL     1      -4.797   3.080 -30.975  1.00  0.00     0.123 C 
BRANCH   4   5
HETATM    5  C   UNL     1      -3.423   3.504 -31.463  1.00  0.00     0.223 C 
HETATM    6  N   UNL     1      -3.004   4.698 -30.912  1.00  0.00    -0.325 N 
HETATM    7  H   UNL     1      -3.660   5.240 -30.358  1.00  0.00     0.169 HD
HETATM    8  O   UNL     1      -2.783   2.804 -32.240  1.00  0.00    -0.273 OA
BRANCH   6   9
HETATM    9  C   UNL     1      -1.760   5.346 -31.100  1.00  0.00     0.068 A 
HETATM   10  C   UNL     1      -1.682   6.303 -32.136  1.00  0.00     0.095 A 
HETATM   11  C   UNL     1      -0.482   6.985 -32.362  1.00  0.00     0.039 A 
HETATM   12  C   UNL     1       0.637   6.720 -31.570  1.00  0.00     0.003 A 
HETATM   13  C   UNL     1       0.561   5.775 -30.550  1.00  0.00     0.002 A 
HETATM   14  C   UNL     1      -0.633   5.092 -30.315  1.00  0.00     0.032 A 
BRANCH  10  15
HETATM   15  O   UNL     1      -2.838   6.487 -32.863  1.00  0.00    -0.349 OA
BRANCH  15  16
HETATM   16  C   UNL     1      -2.730   6.374 -34.281  1.00  0.00     0.171 C 
HETATM   17  C   UNL     1      -3.651   5.257 -34.737  1.00  0.00     0.034 C 
ENDBRANCH  15  16
ENDBRANCH  10  15
ENDBRANCH   6   9
ENDBRANCH   4   5
ENDBRANCH   3   4
ENDBRANCH   1   3
BRANCH   1  18
HETATM   18  S   UNL     1      -7.330   1.784 -33.174  1.00  0.00     0.258 S 
HETATM   19  O   UNL     1      -7.880   1.752 -31.836  1.00  0.00    -0.201 OA
HETATM   20  O   UNL     1      -8.141   2.139 -34.316  1.00  0.00    -0.201 OA
BRANCH  18  21
HETATM   21  C   UNL     1      -6.557   0.216 -33.489  1.00  0.00     0.080 A 
HETATM   22  C   UNL     1      -5.404  -0.133 -32.776  1.00  0.00     0.034 A 
HETATM   23  C   UNL     1      -4.776  -1.357 -33.027  1.00  0.00    -0.029 A 
HETATM   24  C   UNL     1      -5.280  -2.196 -34.027  1.00  0.00     0.041 A 
HETATM   25  C   UNL     1      -3.502  -1.736 -32.323  1.00  0.00     0.050 C 
HETATM   26  N   UNL     1      -4.633  -3.402 -34.307  1.00  0.00    -0.327 N 
HETATM   27  C   UNL     1      -6.404  -1.826 -34.770  1.00  0.00     0.031 A 
HETATM   28  C   UNL     1      -3.627  -3.930 -33.540  1.00  0.00     0.222 C 
HETATM   29  H   UNL     1      -4.894  -3.945 -35.119  1.00  0.00     0.169 HD
HETATM   30  O   UNL     1      -3.060  -4.969 -33.869  1.00  0.00    -0.273 OA
HETATM   31  C   UNL     1      -3.358  -3.245 -32.219  1.00  0.00     0.108 C 
HETATM   32  C   UNL     1      -7.051  -0.619 -34.495  1.00  0.00     0.027 A 
ENDBRANCH  18  21
ENDBRANCH   1  18
TORSDOF 8
ENDMDL
MODEL 3
REMARK VINA RESULT:      -8.0      3.681      7.253
REMARK  8 active torsions:
REMARK  status: ('A' for Active; 'I' for Inactive)
REMARK    1  A    between atoms: C_2  and  O_3 
REMARK    2  A    between atoms: O_3  and  C_4 
REMARK    3  A    between atoms: C_5  and  N_6 
REMARK       I    between atoms: N_6  and  C_7 
REMARK    4  A    between atoms: C_7  and  C_8 
REMARK    5  A    between atoms: C_8  and  C_9 
REMARK    6  A    between atoms: C_9  and  N_10 
REMARK    7  A    between atoms: N_10  and  S_11 
REMARK    8  A    between atoms: S_11  and  C_12 
ROOT
HETATM    1  N   UNL     1      -5.909   2.787 -33.060  1.00  0.00    -0.315 N 
HETATM    2  H   UNL     1      -5.048   2.412 -33.455  1.00  0.00     0.172 HD
ENDROOT
BRANCH   1   3
HETATM    3  C   UNL     1      -5.849   3.523 -31.787  1.00  0.00     0.141 C 
BRANCH   3   4
HETATM    4  C   UNL     1      -4.740   2.968 -30.901  1.00  0.00     0.123 C 
BRANCH   4   5
HETATM    5  C   UNL     1      -3.387   3.433 -31.409  1.00  0.00     0.223 C 
HETATM    6  N   UNL     1      -3.015   4.658 -30.896  1.00  0.00    -0.325 N 
HETATM    7  H   UNL     1      -3.690   5.190 -30.356  1.00  0.00     0.169 HD
HETATM    8  O   UNL     1      -2.722   2.736 -32.169  1.00  0.00    -0.273 OA
BRANCH   6   9
HETATM    9  C   UNL     1      -1.799   5.350 -31.110  1.00  0.00     0.068 A 
HETATM   10  C   UNL     1      -1.739   6.221 -32.220  1.00  0.00     0.095 A 
HETATM   11  C   UNL     1      -0.569   6.942 -32.475  1.00  0.00     0.039 A 
HETATM   12  C   UNL     1       0.540   6.799 -31.639  1.00  0.00     0.003 A 
HETATM   13  C   UNL     1       0.484   5.939 -30.546  1.00  0.00     0.002 A 
HETATM   14  C   UNL     1      -0.682   5.218 -30.282  1.00  0.00     0.032 A 
BRANCH  10  15
HETATM   15  O   UNL     1      -2.884   6.287 -32.985  1.00  0.00    -0.349 OA
BRANCH  15  16
HETATM   16  C   UNL     1      -2.730   6.092 -34.390  1.00  0.00     0.171 C 
HETATM   17  C   UNL     1      -3.894   5.250 -34.880  1.00  0.00     0.034 C 
ENDBRANCH  15  16
ENDBRANCH  10  15
ENDBRANCH   6   9
ENDBRANCH   4   5
ENDBRANCH   3   4
ENDBRANCH   1   3
BRANCH   1  18
HETATM   18  S   UNL     1      -7.192   1.711 -33.278  1.00  0.00     0.258 S 
HETATM   19  O   UNL     1      -7.858   1.637 -31.995  1.00  0.00    -0.201 OA
HETATM   20  O   UNL     1      -7.904   2.086 -34.478  1.00  0.00    -0.201 OA
BRANCH  18  21
HETATM   21  C   UNL     1      -6.371   0.162 -33.562  1.00  0.00     0.080 A 
HETATM   22  C   UNL     1      -7.134  -0.964 -33.896  1.00  0.00     0.034 A 
HETATM   23  C   UNL     1      -6.501  -2.194 -34.106  1.00  0.00    -0.029 A 
HETATM   24  C   UNL     1      -5.117  -2.294 -33.927  1.00  0.00     0.041 A 
HETATM   25  C   UNL     1      -7.296  -3.435 -34.406  1.00  0.00     0.050 C 
HETATM   26  N   UNL     1      -4.487  -3.529 -34.098  1.00  0.00    -0.327 N 
HETATM   27  C   UNL     1      -4.364  -1.180 -33.548  1.00  0.00     0.031 A 
HETATM   28  C   UNL     1      -5.101  -4.640 -34.617  1.00  0.00     0.222 C 
HETATM   29  H   UNL     1      -3.519  -3.650 -33.830  1.00  0.00     0.169 HD
HETATM   30  O   UNL     1      -4.508  -5.713 -34.692  1.00  0.00    -0.273 OA
HETATM   31  C   UNL     1      -6.477  -4.432 -35.209  1.00  0.00     0.108 C 
HETATM   32  C   UNL     1      -4.991   0.056 -33.373  1.00  0.00     0.027 A 
ENDBRANCH  18  21
ENDBRANCH   1  18
TORSDOF 8
ENDMDL
MODEL 4
REMARK VINA RESULT:      -7.9      3.608      7.227
REMARK  8 active torsions:
REMARK  status: ('A' for Active; 'I' for Inactive)
REMARK    1  A    between atoms: C_2  and  O_3 
REMARK    2  A    between atoms: O_3  and  C_4 
REMARK    3  A    between atoms: C_5  and  N_6 
REMARK       I    between atoms: N_6  and  C_7 
REMARK    4  A    between atoms: C_7  and  C_8 
REMARK    5  A    between atoms: C_8  and  C_9 
REMARK    6  A    between atoms: C_9  and  N_10 
REMARK    7  A    between atoms: N_10  and  S_11 
REMARK    8  A    between atoms: S_11  and  C_12 
ROOT
HETATM    1  N   UNL     1      -7.015   2.096 -31.863  1.00  0.00    -0.315 N 
HETATM    2  H   UNL     1      -7.952   1.862 -31.537  1.00  0.00     0.172 HD
ENDROOT
BRANCH   1   3
HETATM    3  C   UNL     1      -6.314   3.240 -31.259  1.00  0.00     0.141 C 
BRANCH   3   4
HETATM    4  C   UNL     1      -5.071   2.770 -30.512  1.00  0.00     0.123 C 
BRANCH   4   5
HETATM    5  C   UNL     1      -3.824   3.149 -31.290  1.00  0.00     0.223 C 
HETATM    6  N   UNL     1      -3.977   4.315 -32.012  1.00  0.00    -0.325 N 
HETATM    7  H   UNL     1      -4.898   4.736 -32.075  1.00  0.00     0.169 HD
HETATM    8  O   UNL     1      -2.804   2.472 -31.220  1.00  0.00    -0.273 OA
BRANCH   6   9
HETATM    9  C   UNL     1      -3.002   4.982 -32.792  1.00  0.00     0.068 A 
HETATM   10  C   UNL     1      -2.486   6.193 -32.280  1.00  0.00     0.095 A 
HETATM   11  C   UNL     1      -1.511   6.891 -32.999  1.00  0.00     0.039 A 
HETATM   12  C   UNL     1      -1.051   6.397 -34.221  1.00  0.00     0.003 A 
HETATM   13  C   UNL     1      -1.560   5.204 -34.727  1.00  0.00     0.002 A 
HETATM   14  C   UNL     1      -2.531   4.499 -34.015  1.00  0.00     0.032 A 
BRANCH  10  15
HETATM   15  O   UNL     1      -3.009   6.597 -31.070  1.00  0.00    -0.349 OA
BRANCH  15  16
HETATM   16  C   UNL     1      -3.532   7.924 -31.008  1.00  0.00     0.171 C 
HETATM   17  C   UNL     1      -5.044   7.830 -30.914  1.00  0.00     0.034 C 
ENDBRANCH  15  16
ENDBRANCH  10  15
ENDBRANCH   6   9
ENDBRANCH   4   5
ENDBRANCH   3   4
ENDBRANCH   1   3
BRANCH   1  18
HETATM   18  S   UNL     1      -6.893   1.903 -33.537  1.00  0.00     0.258 S 
HETATM   19  O   UNL     1      -8.255   1.797 -34.015  1.00  0.00    -0.201 OA
HETATM   20  O   UNL     1      -5.988   2.907 -34.048  1.00  0.00    -0.201 OA
BRANCH  18  21
HETATM   21  C   UNL     1      -6.127   0.309 -33.700  1.00  0.00     0.080 A 
HETATM   22  C   UNL     1      -6.897  -0.778 -34.132  1.00  0.00     0.034 A 
HETATM   23  C   UNL     1      -6.309  -2.042 -34.249  1.00  0.00    -0.029 A 
HETATM   24  C   UNL     1      -4.970  -2.215 -33.882  1.00  0.00     0.041 A 
HETATM   25  C   UNL     1      -7.122  -3.242 -34.652  1.00  0.00     0.050 C 
HETATM   26  N   UNL     1      -4.392  -3.484 -33.960  1.00  0.00    -0.327 N 
HETATM   27  C   UNL     1      -4.216  -1.139 -33.407  1.00  0.00     0.031 A 
HETATM   28  C   UNL     1      -4.989  -4.565 -34.555  1.00  0.00     0.222 C 
HETATM   29  H   UNL     1      -3.478  -3.653 -33.562  1.00  0.00     0.169 HD
HETATM   30  O   UNL     1      -4.450  -5.669 -34.545  1.00  0.00    -0.273 OA
HETATM   31  C   UNL     1      -6.256  -4.290 -35.331  1.00  0.00     0.108 C 
HETATM   32  C   UNL     1      -4.793   0.131 -33.323  1.00  0.00     0.027 A 
ENDBRANCH  18  21
ENDBRANCH   1  18
TORSDOF 8
ENDMDL
MODEL 5
REMARK VINA RESULT:      -7.9      3.300      7.109
REMARK  8 active torsions:
REMARK  status: ('A' for Active; 'I' for Inactive)
REMARK    1  A    between atoms: C_2  and  O_3 
REMARK    2  A    between atoms: O_3  and  C_4 
REMARK    3  A    between atoms: C_5  and  N_6 
REMARK       I    between atoms: N_6  and  C_7 
REMARK    4  A    between atoms: C_7  and  C_8 
REMARK    5  A    between atoms: C_8  and  C_9 
REMARK    6  A    between atoms: C_9  and  N_10 
REMARK    7  A    between atoms: N_10  and  S_11 
REMARK    8  A    between atoms: S_11  and  C_12 
ROOT
HETATM    1  N   UNL     1      -7.237   2.332 -30.667  1.00  0.00    -0.315 N 
HETATM    2  H   UNL     1      -7.801   1.695 -30.106  1.00  0.00     0.172 HD
ENDROOT
BRANCH   1   3
HETATM    3  C   UNL     1      -7.087   3.728 -30.226  1.00  0.00     0.141 C 
BRANCH   3   4
HETATM    4  C   UNL     1      -5.666   3.984 -29.740  1.00  0.00     0.123 C 
BRANCH   4   5
HETATM    5  C   UNL     1      -4.919   4.840 -30.746  1.00  0.00     0.223 C 
HETATM    6  N   UNL     1      -4.201   4.092 -31.657  1.00  0.00    -0.325 N 
HETATM    7  H   UNL     1      -4.121   3.090 -31.515  1.00  0.00     0.169 HD
HETATM    8  O   UNL     1      -5.007   6.063 -30.727  1.00  0.00    -0.273 OA
BRANCH   6   9
HETATM    9  C   UNL     1      -3.448   4.563 -32.759  1.00  0.00     0.068 A 
HETATM   10  C   UNL     1      -2.055   4.703 -32.574  1.00  0.00     0.095 A 
HETATM   11  C   UNL     1      -1.257   5.153 -33.631  1.00  0.00     0.039 A 
HETATM   12  C   UNL     1      -1.833   5.465 -34.863  1.00  0.00     0.003 A 
HETATM   13  C   UNL     1      -3.206   5.329 -35.046  1.00  0.00     0.002 A 
HETATM   14  C   UNL     1      -4.010   4.878 -33.998  1.00  0.00     0.032 A 
BRANCH  10  15
HETATM   15  O   UNL     1      -1.586   4.374 -31.321  1.00  0.00    -0.349 OA
BRANCH  15  16
HETATM   16  C   UNL     1      -0.990   5.426 -30.561  1.00  0.00     0.171 C 
HETATM   17  C   UNL     1       0.441   5.028 -30.248  1.00  0.00     0.034 C 
ENDBRANCH  15  16
ENDBRANCH  10  15
ENDBRANCH   6   9
ENDBRANCH   4   5
ENDBRANCH   3   4
ENDBRANCH   1   3
BRANCH   1  18
HETATM   18  S   UNL     1      -7.475   2.057 -32.316  1.00  0.00     0.258 S 
HETATM   19  O   UNL     1      -8.847   1.612 -32.440  1.00  0.00    -0.201 OA
HETATM   20  O   UNL     1      -6.983   3.202 -33.047  1.00  0.00    -0.201 OA
BRANCH  18  21
HETATM   21  C   UNL     1      -6.415   0.671 -32.647  1.00  0.00     0.080 A 
HETATM   22  C   UNL     1      -6.895  -0.385 -33.430  1.00  0.00     0.034 A 
HETATM   23  C   UNL     1      -6.076  -1.491 -33.684  1.00  0.00    -0.029 A 
HETATM   24  C   UNL     1      -4.803  -1.550 -33.106  1.00  0.00     0.041 A 
HETATM   25  C   UNL     1      -6.582  -2.668 -34.471  1.00  0.00     0.050 C 
HETATM   26  N   UNL     1      -3.997  -2.669 -33.326  1.00  0.00    -0.327 N 
HETATM   27  C   UNL     1      -4.343  -0.517 -32.286  1.00  0.00     0.031 A 
HETATM   28  C   UNL     1      -4.285  -3.657 -34.232  1.00  0.00     0.222 C 
HETATM   29  H   UNL     1      -3.142  -2.794 -32.800  1.00  0.00     0.169 HD
HETATM   30  O   UNL     1      -3.562  -4.645 -34.340  1.00  0.00    -0.273 OA
HETATM   31  C   UNL     1      -5.443  -3.395 -35.167  1.00  0.00     0.108 C 
HETATM   32  C   UNL     1      -5.148   0.603 -32.061  1.00  0.00     0.027 A 
ENDBRANCH  18  21
ENDBRANCH   1  18
TORSDOF 8
ENDMDL
MODEL 6
REMARK VINA RESULT:      -7.8      3.016      5.807
REMARK  8 active torsions:
REMARK  status: ('A' for Active; 'I' for Inactive)
REMARK    1  A    between atoms: C_2  and  O_3 
REMARK    2  A    between atoms: O_3  and  C_4 
REMARK    3  A    between atoms: C_5  and  N_6 
REMARK       I    between atoms: N_6  and  C_7 
REMARK    4  A    between atoms: C_7  and  C_8 
REMARK    5  A    between atoms: C_8  and  C_9 
REMARK    6  A    between atoms: C_9  and  N_10 
REMARK    7  A    between atoms: N_10  and  S_11 
REMARK    8  A    between atoms: S_11  and  C_12 
ROOT
HETATM    1  N   UNL     1      -7.111   1.321 -32.548  1.00  0.00    -0.315 N 
HETATM    2  H   UNL     1      -6.208   0.886 -32.731  1.00  0.00     0.172 HD
ENDROOT
BRANCH   1   3
HETATM    3  C   UNL     1      -7.961   1.708 -33.685  1.00  0.00     0.141 C 
BRANCH   3   4
HETATM    4  C   UNL     1      -7.720   0.781 -34.870  1.00  0.00     0.123 C 
BRANCH   4   5
HETATM    5  C   UNL     1      -7.438  -0.627 -34.379  1.00  0.00     0.223 C 
HETATM    6  N   UNL     1      -6.354  -1.206 -35.006  1.00  0.00    -0.325 N 
HETATM    7  H   UNL     1      -5.931  -0.729 -35.796  1.00  0.00     0.169 HD
HETATM    8  O   UNL     1      -8.115  -1.136 -33.492  1.00  0.00    -0.273 OA
BRANCH   6   9
HETATM    9  C   UNL     1      -5.782  -2.475 -34.747  1.00  0.00     0.068 A 
HETATM   10  C   UNL     1      -4.515  -2.496 -34.123  1.00  0.00     0.095 A 
HETATM   11  C   UNL     1      -3.906  -3.720 -33.831  1.00  0.00     0.039 A 
HETATM   12  C   UNL     1      -4.544  -4.918 -34.157  1.00  0.00     0.003 A 
HETATM   13  C   UNL     1      -5.792  -4.898 -34.773  1.00  0.00     0.002 A 
HETATM   14  C   UNL     1      -6.409  -3.681 -35.066  1.00  0.00     0.032 A 
BRANCH  10  15
HETATM   15  O   UNL     1      -3.968  -1.261 -33.848  1.00  0.00    -0.349 OA
BRANCH  15  16
HETATM   16  C   UNL     1      -3.359  -1.099 -32.567  1.00  0.00     0.171 C 
HETATM   17  C   UNL     1      -4.452  -0.780 -31.563  1.00  0.00     0.034 C 
ENDBRANCH  15  16
ENDBRANCH  10  15
ENDBRANCH   6   9
ENDBRANCH   4   5
ENDBRANCH   3   4
ENDBRANCH   1   3
BRANCH   1  18
HETATM   18  S   UNL     1      -7.012   2.394 -31.248  1.00  0.00     0.258 S 
HETATM   19  O   UNL     1      -8.348   2.927 -31.083  1.00  0.00    -0.201 OA
HETATM   20  O   UNL     1      -6.324   1.735 -30.162  1.00  0.00    -0.201 OA
BRANCH  18  21
HETATM   21  C   UNL     1      -5.975   3.691 -31.877  1.00  0.00     0.080 A 
HETATM   22  C   UNL     1      -4.662   3.390 -32.261  1.00  0.00     0.034 A 
HETATM   23  C   UNL     1      -3.830   4.406 -32.743  1.00  0.00    -0.029 A 
HETATM   24  C   UNL     1      -4.305   5.721 -32.785  1.00  0.00     0.041 A 
HETATM   25  C   UNL     1      -2.397   4.129 -33.106  1.00  0.00     0.050 C 
HETATM   26  N   UNL     1      -3.463   6.744 -33.229  1.00  0.00    -0.327 N 
HETATM   27  C   UNL     1      -5.599   6.027 -32.358  1.00  0.00     0.031 A 
HETATM   28  C   UNL     1      -2.241   6.534 -33.813  1.00  0.00     0.222 C 
HETATM   29  H   UNL     1      -3.738   7.712 -33.127  1.00  0.00     0.169 HD
HETATM   30  O   UNL     1      -1.523   7.479 -34.134  1.00  0.00    -0.273 OA
HETATM   31  C   UNL     1      -1.898   5.103 -34.160  1.00  0.00     0.108 C 
HETATM   32  C   UNL     1      -6.442   5.007 -31.910  1.00  0.00     0.027 A 
ENDBRANCH  18  21
ENDBRANCH   1  18
TORSDOF 8
ENDMDL
MODEL 7
REMARK VINA RESULT:      -7.7      3.577      6.943
REMARK  8 active torsions:
REMARK  status: ('A' for Active; 'I' for Inactive)
REMARK    1  A    between atoms: C_2  and  O_3 
REMARK    2  A    between atoms: O_3  and  C_4 
REMARK    3  A    between atoms: C_5  and  N_6 
REMARK       I    between atoms: N_6  and  C_7 
REMARK    4  A    between atoms: C_7  and  C_8 
REMARK    5  A    between atoms: C_8  and  C_9 
REMARK    6  A    between atoms: C_9  and  N_10 
REMARK    7  A    between atoms: N_10  and  S_11 
REMARK    8  A    between atoms: S_11  and  C_12 
ROOT
HETATM    1  N   UNL     1      -7.219   3.653 -32.316  1.00  0.00    -0.315 N 
HETATM    2  H   UNL     1      -6.698   3.881 -31.470  1.00  0.00     0.172 HD
ENDROOT
BRANCH   1   3
HETATM    3  C   UNL     1      -8.081   2.461 -32.323  1.00  0.00     0.141 C 
BRANCH   3   4
HETATM    4  C   UNL     1      -7.838   1.620 -31.075  1.00  0.00     0.123 C 
BRANCH   4   5
HETATM    5  C   UNL     1      -7.178   0.307 -31.455  1.00  0.00     0.223 C 
HETATM    6  N   UNL     1      -7.148   0.096 -32.818  1.00  0.00    -0.325 N 
HETATM    7  H   UNL     1      -7.657   0.731 -33.424  1.00  0.00     0.169 HD
HETATM    8  O   UNL     1      -6.707  -0.436 -30.599  1.00  0.00    -0.273 OA
BRANCH   6   9
HETATM    9  C   UNL     1      -6.556  -0.986 -33.512  1.00  0.00     0.068 A 
HETATM   10  C   UNL     1      -5.150  -0.977 -33.642  1.00  0.00     0.095 A 
HETATM   11  C   UNL     1      -4.507  -2.026 -34.306  1.00  0.00     0.039 A 
HETATM   12  C   UNL     1      -5.251  -3.077 -34.844  1.00  0.00     0.003 A 
HETATM   13  C   UNL     1      -6.637  -3.087 -34.718  1.00  0.00     0.002 A 
HETATM   14  C   UNL     1      -7.287  -2.045 -34.054  1.00  0.00     0.032 A 
BRANCH  10  15
HETATM   15  O   UNL     1      -4.509   0.108 -33.081  1.00  0.00    -0.349 OA
BRANCH  15  16
HETATM   16  C   UNL     1      -3.189  -0.112 -32.586  1.00  0.00     0.171 C 
HETATM   17  C   UNL     1      -3.226   0.016 -31.073  1.00  0.00     0.034 C 
ENDBRANCH  15  16
ENDBRANCH  10  15
ENDBRANCH   6   9
ENDBRANCH   4   5
ENDBRANCH   3   4
ENDBRANCH   1   3
BRANCH   1  18
HETATM   18  S   UNL     1      -6.293   3.954 -33.696  1.00  0.00     0.258 S 
HETATM   19  O   UNL     1      -6.161   2.674 -34.359  1.00  0.00    -0.201 OA
HETATM   20  O   UNL     1      -6.844   5.103 -34.375  1.00  0.00    -0.201 OA
BRANCH  18  21
HETATM   21  C   UNL     1      -4.708   4.393 -33.026  1.00  0.00     0.080 A 
HETATM   22  C   UNL     1      -4.109   5.596 -33.420  1.00  0.00     0.034 A 
HETATM   23  C   UNL     1      -2.853   5.946 -32.913  1.00  0.00    -0.029 A 
HETATM   24  C   UNL     1      -2.187   5.062 -32.057  1.00  0.00     0.041 A 
HETATM   25  C   UNL     1      -2.156   7.200 -33.362  1.00  0.00     0.050 C 
HETATM   26  N   UNL     1      -0.916   5.390 -31.580  1.00  0.00    -0.327 N 
HETATM   27  C   UNL     1      -2.765   3.841 -31.702  1.00  0.00     0.031 A 
HETATM   28  C   UNL     1      -0.330   6.619 -31.738  1.00  0.00     0.222 C 
HETATM   29  H   UNL     1      -0.364   4.703 -31.085  1.00  0.00     0.169 HD
HETATM   30  O   UNL     1       0.813   6.829 -31.341  1.00  0.00    -0.273 OA
HETATM   31  C   UNL     1      -1.209   7.717 -32.292  1.00  0.00     0.108 C 
HETATM   32  C   UNL     1      -4.035   3.507 -32.181  1.00  0.00     0.027 A 
ENDBRANCH  18  21
ENDBRANCH   1  18
TORSDOF 8
ENDMDL
MODEL 8
REMARK VINA RESULT:      -7.6      3.540      7.567
REMARK  8 active torsions:
REMARK  status: ('A' for Active; 'I' for Inactive)
REMARK    1  A    between atoms: C_2  and  O_3 
REMARK    2  A    between atoms: O_3  and  C_4 
REMARK    3  A    between atoms: C_5  and  N_6 
REMARK       I    between atoms: N_6  and  C_7 
REMARK    4  A    between atoms: C_7  and  C_8 
REMARK    5  A    between atoms: C_8  and  C_9 
REMARK    6  A    between atoms: C_9  and  N_10 
REMARK    7  A    between atoms: N_10  and  S_11 
REMARK    8  A    between atoms: S_11  and  C_12 
ROOT
HETATM    1  N   UNL     1      -6.529   2.396 -32.230  1.00  0.00    -0.315 N 
HETATM    2  H   UNL     1      -5.728   2.428 -32.859  1.00  0.00     0.172 HD
ENDROOT
BRANCH   1   3
HETATM    3  C   UNL     1      -6.295   2.345 -30.778  1.00  0.00     0.141 C 
BRANCH   3   4
HETATM    4  C   UNL     1      -4.830   2.624 -30.464  1.00  0.00     0.123 C 
BRANCH   4   5
HETATM    5  C   UNL     1      -4.362   3.853 -31.221  1.00  0.00     0.223 C 
HETATM    6  N   UNL     1      -3.094   3.710 -31.745  1.00  0.00    -0.325 N 
HETATM    7  H   UNL     1      -2.546   2.894 -31.488  1.00  0.00     0.169 HD
HETATM    8  O   UNL     1      -5.090   4.833 -31.351  1.00  0.00    -0.273 OA
BRANCH   6   9
HETATM    9  C   UNL     1      -2.383   4.631 -32.551  1.00  0.00     0.068 A 
HETATM   10  C   UNL     1      -1.387   5.407 -31.917  1.00  0.00     0.095 A 
HETATM   11  C   UNL     1      -0.643   6.325 -32.665  1.00  0.00     0.039 A 
HETATM   12  C   UNL     1      -0.884   6.478 -34.031  1.00  0.00     0.003 A 
HETATM   13  C   UNL     1      -1.866   5.715 -34.656  1.00  0.00     0.002 A 
HETATM   14  C   UNL     1      -2.612   4.794 -33.919  1.00  0.00     0.032 A 
BRANCH  10  15
HETATM   15  O   UNL     1      -1.231   5.185 -30.566  1.00  0.00    -0.349 OA
BRANCH  15  16
HETATM   16  C   UNL     1       0.108   5.106 -30.078  1.00  0.00     0.171 C 
HETATM   17  C   UNL     1       0.318   6.243 -29.094  1.00  0.00     0.034 C 
ENDBRANCH  15  16
ENDBRANCH  10  15
ENDBRANCH   6   9
ENDBRANCH   4   5
ENDBRANCH   3   4
ENDBRANCH   1   3
BRANCH   1  18
HETATM   18  S   UNL     1      -7.752   1.415 -32.858  1.00  0.00     0.258 S 
HETATM   19  O   UNL     1      -8.619   1.113 -31.738  1.00  0.00    -0.201 OA
HETATM   20  O   UNL     1      -8.259   2.030 -34.062  1.00  0.00    -0.201 OA
BRANCH  18  21
HETATM   21  C   UNL     1      -6.885  -0.072 -33.298  1.00  0.00     0.080 A 
HETATM   22  C   UNL     1      -5.677  -0.374 -32.657  1.00  0.00     0.034 A 
HETATM   23  C   UNL     1      -4.976  -1.533 -33.007  1.00  0.00    -0.029 A 
HETATM   24  C   UNL     1      -5.466  -2.349 -34.033  1.00  0.00     0.041 A 
HETATM   25  C   UNL     1      -3.647  -1.855 -32.381  1.00  0.00     0.050 C 
HETATM   26  N   UNL     1      -4.748  -3.486 -34.411  1.00  0.00    -0.327 N 
HETATM   27  C   UNL     1      -6.646  -2.021 -34.703  1.00  0.00     0.031 A 
HETATM   28  C   UNL     1      -3.672  -3.980 -33.720  1.00  0.00     0.222 C 
HETATM   29  H   UNL     1      -5.008  -4.000 -35.242  1.00  0.00     0.169 HD
HETATM   30  O   UNL     1      -3.049  -4.955 -34.135  1.00  0.00    -0.273 OA
HETATM   31  C   UNL     1      -3.391  -3.353 -32.374  1.00  0.00     0.108 C 
HETATM   32  C   UNL     1      -7.365  -0.882 -34.330  1.00  0.00     0.027 A 
ENDBRANCH  18  21
ENDBRANCH   1  18
TORSDOF 8
ENDMDL
MODEL 9
REMARK VINA RESULT:      -7.6      2.597      7.703
REMARK  8 active torsions:
REMARK  status: ('A' for Active; 'I' for Inactive)
REMARK    1  A    between atoms: C_2  and  O_3 
REMARK    2  A    between atoms: O_3  and  C_4 
REMARK    3  A    between atoms: C_5  and  N_6 
REMARK       I    between atoms: N_6  and  C_7 
REMARK    4  A    between atoms: C_7  and  C_8 
REMARK    5  A    between atoms: C_8  and  C_9 
REMARK    6  A    between atoms: C_9  and  N_10 
REMARK    7  A    between atoms: N_10  and  S_11 
REMARK    8  A    between atoms: S_11  and  C_12 
ROOT
HETATM    1  N   UNL     1      -7.386   2.024 -32.271  1.00  0.00    -0.315 N 
HETATM    2  H   UNL     1      -8.102   1.364 -31.969  1.00  0.00     0.172 HD
ENDROOT
BRANCH   1   3
HETATM    3  C   UNL     1      -7.415   3.398 -31.745  1.00  0.00     0.141 C 
BRANCH   3   4
HETATM    4  C   UNL     1      -8.706   4.098 -32.151  1.00  0.00     0.123 C 
BRANCH   4   5
HETATM    5  C   UNL     1      -9.888   3.170 -31.940  1.00  0.00     0.223 C 
HETATM    6  N   UNL     1     -10.653   3.008 -33.077  1.00  0.00    -0.325 N 
HETATM    7  H   UNL     1     -10.459   3.590 -33.886  1.00  0.00     0.169 HD
HETATM    8  O   UNL     1     -10.078   2.622 -30.858  1.00  0.00    -0.273 OA
BRANCH   6   9
HETATM    9  C   UNL     1     -11.782   2.171 -33.247  1.00  0.00     0.068 A 
HETATM   10  C   UNL     1     -13.053   2.778 -33.150  1.00  0.00     0.095 A 
HETATM   11  C   UNL     1     -14.206   2.005 -33.322  1.00  0.00     0.039 A 
HETATM   12  C   UNL     1     -14.102   0.637 -33.583  1.00  0.00     0.003 A 
HETATM   13  C   UNL     1     -12.849   0.038 -33.676  1.00  0.00     0.002 A 
HETATM   14  C   UNL     1     -11.693   0.802 -33.509  1.00  0.00     0.032 A 
BRANCH  10  15
HETATM   15  O   UNL     1     -13.048   4.130 -32.885  1.00  0.00    -0.349 OA
BRANCH  15  16
HETATM   16  C   UNL     1     -13.898   4.582 -31.831  1.00  0.00     0.171 C 
HETATM   17  C   UNL     1     -13.279   4.154 -30.512  1.00  0.00     0.034 C 
ENDBRANCH  15  16
ENDBRANCH  10  15
ENDBRANCH   6   9
ENDBRANCH   4   5
ENDBRANCH   3   4
ENDBRANCH   1   3
BRANCH   1  18
HETATM   18  S   UNL     1      -7.034   1.824 -33.911  1.00  0.00     0.258 S 
HETATM   19  O   UNL     1      -8.317   1.701 -34.570  1.00  0.00    -0.201 OA
HETATM   20  O   UNL     1      -6.079   2.835 -34.300  1.00  0.00    -0.201 OA
BRANCH  18  21
HETATM   21  C   UNL     1      -6.236   0.238 -33.958  1.00  0.00     0.080 A 
HETATM   22  C   UNL     1      -6.976  -0.888 -34.340  1.00  0.00     0.034 A 
HETATM   23  C   UNL     1      -6.364  -2.146 -34.365  1.00  0.00    -0.029 A 
HETATM   24  C   UNL     1      -5.032  -2.270 -33.956  1.00  0.00     0.041 A 
HETATM   25  C   UNL     1      -7.146  -3.383 -34.712  1.00  0.00     0.050 C 
HETATM   26  N   UNL     1      -4.429  -3.530 -33.943  1.00  0.00    -0.327 N 
HETATM   27  C   UNL     1      -4.309  -1.153 -33.530  1.00  0.00     0.031 A 
HETATM   28  C   UNL     1      -4.992  -4.657 -34.484  1.00  0.00     0.222 C 
HETATM   29  H   UNL     1      -3.523  -3.658 -33.513  1.00  0.00     0.169 HD
HETATM   30  O   UNL     1      -4.435  -5.748 -34.393  1.00  0.00    -0.273 OA
HETATM   31  C   UNL     1      -6.245  -4.454 -35.306  1.00  0.00     0.108 C 
HETATM   32  C   UNL     1      -4.910   0.108 -33.539  1.00  0.00     0.027 A 
ENDBRANCH  18  21
ENDBRANCH   1  18
TORSDOF 8
ENDMDL
MODEL 10
REMARK VINA RESULT:      -7.5      4.022      7.779
REMARK  8 active torsions:
REMARK  status: ('A' for Active; 'I' for Inactive)
REMARK    1  A    between atoms: C_2  and  O_3 
REMARK    2  A    between atoms: O_3  and  C_4 
REMARK    3  A    between atoms: C_5  and  N_6 
REMARK       I    between atoms: N_6  and  C_7 
REMARK    4  A    between atoms: C_7  and  C_8 
REMARK    5  A    between atoms: C_8  and  C_9 
REMARK    6  A    between atoms: C_9  and  N_10 
REMARK    7  A    between atoms: N_10  and  S_11 
REMARK    8  A    between atoms: S_11  and  C_12 
ROOT
HETATM    1  N   UNL     1      -5.636   3.638 -34.100  1.00  0.00    -0.315 N 
HETATM    2  H   UNL     1      -5.247   2.996 -34.790  1.00  0.00     0.172 HD
ENDROOT
BRANCH   1   3
HETATM    3  C   UNL     1      -5.207   5.045 -34.114  1.00  0.00     0.141 C 
BRANCH   3   4
HETATM    4  C   UNL     1      -3.896   5.196 -34.877  1.00  0.00     0.123 C 
BRANCH   4   5
HETATM    5  C   UNL     1      -2.895   5.973 -34.041  1.00  0.00     0.223 C 
HETATM    6  N   UNL     1      -2.646   5.383 -32.819  1.00  0.00    -0.325 N 
HETATM    7  H   UNL     1      -3.215   4.595 -32.529  1.00  0.00     0.169 HD
HETATM    8  O   UNL     1      -2.367   6.994 -34.471  1.00  0.00    -0.273 OA
BRANCH   6   9
HETATM    9  C   UNL     1      -1.728   5.805 -31.828  1.00  0.00     0.068 A 
HETATM   10  C   UNL     1      -2.265   6.370 -30.650  1.00  0.00     0.095 A 
HETATM   11  C   UNL     1      -1.408   6.793 -29.629  1.00  0.00     0.039 A 
HETATM   12  C   UNL     1      -0.026   6.664 -29.774  1.00  0.00     0.003 A 
HETATM   13  C   UNL     1       0.505   6.110 -30.935  1.00  0.00     0.002 A 
HETATM   14  C   UNL     1      -0.343   5.682 -31.958  1.00  0.00     0.032 A 
BRANCH  10  15
HETATM   15  O   UNL     1      -3.640   6.458 -30.607  1.00  0.00    -0.349 OA
BRANCH  15  16
HETATM   16  C   UNL     1      -4.209   7.088 -29.460  1.00  0.00     0.171 C 
HETATM   17  C   UNL     1      -5.348   6.219 -28.961  1.00  0.00     0.034 C 
ENDBRANCH  15  16
ENDBRANCH  10  15
ENDBRANCH   6   9
ENDBRANCH   4   5
ENDBRANCH   3   4
ENDBRANCH   1   3
BRANCH   1  18
HETATM   18  S   UNL     1      -5.795   2.886 -32.597  1.00  0.00     0.258 S 
HETATM   19  O   UNL     1      -4.822   3.528 -31.738  1.00  0.00    -0.201 OA
HETATM   20  O   UNL     1      -7.197   2.845 -32.251  1.00  0.00    -0.201 OA
BRANCH  18  21
HETATM   21  C   UNL     1      -5.238   1.230 -32.917  1.00  0.00     0.080 A 
HETATM   22  C   UNL     1      -6.126   0.308 -33.484  1.00  0.00     0.034 A 
HETATM   23  C   UNL     1      -5.705  -1.004 -33.725  1.00  0.00    -0.029 A 
HETATM   24  C   UNL     1      -4.415  -1.392 -33.347  1.00  0.00     0.041 A 
HETATM   25  C   UNL     1      -6.652  -2.034 -34.277  1.00  0.00     0.050 C 
HETATM   26  N   UNL     1      -4.005  -2.712 -33.552  1.00  0.00    -0.327 N 
HETATM   27  C   UNL     1      -3.546  -0.484 -32.739  1.00  0.00     0.031 A 
HETATM   28  C   UNL     1      -4.715  -3.634 -34.276  1.00  0.00     0.222 C 
HETATM   29  H   UNL     1      -3.137  -3.044 -33.152  1.00  0.00     0.169 HD
HETATM   30  O   UNL     1      -4.326  -4.795 -34.374  1.00  0.00    -0.273 OA
HETATM   31  C   UNL     1      -5.905  -3.111 -35.047  1.00  0.00     0.108 C 
HETATM   32  C   UNL     1      -3.954   0.836 -32.530  1.00  0.00     0.027 A 
ENDBRANCH  18  21
ENDBRANCH   1  18
TORSDOF 8
ENDMDL
