MODEL 1
REMARK VINA RESULT:      -9.8      0.000      0.000
REMARK  6 active torsions:
REMARK  status: ('A' for Active; 'I' for Inactive)
REMARK    1  A    between atoms: O_2  and  C_3 
REMARK    2  A    between atoms: C_6  and  C_7 
REMARK    3  A    between atoms: C_12  and  C_13 
REMARK       I    between atoms: C_13  and  N_14 
REMARK    4  A    between atoms: N_14  and  C_15 
REMARK    5  A    between atoms: C_15  and  C_16 
REMARK    6  A    between atoms: C_24  and  C_25 
ROOT
HETATM    1  C   UNL     1      -1.566   5.854 -31.544  1.00  0.00     0.118 C 
HETATM    2  N   UNL     1      -1.936   4.500 -31.139  1.00  0.00    -0.366 N 
HETATM    3  C   UNL     1      -3.035   3.878 -31.606  1.00  0.00     0.123 A 
HETATM    4  N   UNL     1      -3.801   4.431 -32.591  1.00  0.00    -0.240 N 
HETATM    5  N   UNL     1      -4.924   3.747 -32.869  1.00  0.00    -0.165 NA
HETATM    6  C   UNL     1      -4.830   2.658 -32.068  1.00  0.00     0.148 A 
HETATM    7  C   UNL     1      -3.648   2.699 -31.275  1.00  0.00     0.088 A 
HETATM    8  C   UNL     1      -3.501   5.710 -33.206  1.00  0.00     0.221 C 
HETATM    9  C   UNL     1      -2.758   6.592 -32.189  1.00  0.00     0.066 C 
HETATM   10  H   UNL     1      -1.340   4.070 -30.431  1.00  0.00     0.161 HD
ENDROOT
BRANCH   6  11
HETATM   11  C   UNL     1      -5.856   1.607 -32.048  1.00  0.00     0.272 C 
HETATM   12  N   UNL     1      -6.017   0.981 -33.259  1.00  0.00    -0.351 N 
HETATM   13  H   UNL     1      -5.466   1.347 -34.031  1.00  0.00     0.163 HD
HETATM   14  O   UNL     1      -6.499   1.327 -31.041  1.00  0.00    -0.266 OA
BRANCH  12  15
HETATM   15  C   UNL     1      -6.983  -0.062 -33.481  1.00  0.00     0.161 C 
BRANCH  15  16
HETATM   16  C   UNL     1      -6.329  -1.365 -33.865  1.00  0.00    -0.041 A 
HETATM   17  C   UNL     1      -7.065  -2.392 -34.477  1.00  0.00     0.009 A 
HETATM   18  C   UNL     1      -6.444  -3.580 -34.864  1.00  0.00     0.001 A 
HETATM   19  C   UNL     1      -5.076  -3.749 -34.661  1.00  0.00     0.000 A 
HETATM   20  C   UNL     1      -4.329  -2.731 -34.073  1.00  0.00     0.001 A 
HETATM   21  C   UNL     1      -4.950  -1.544 -33.679  1.00  0.00     0.009 A 
ENDBRANCH  15  16
ENDBRANCH  12  15
ENDBRANCH   6  11
BRANCH   8  22
HETATM   22  C   UNL     1      -2.718   5.501 -34.481  1.00  0.00     0.409 C 
HETATM   23  F   UNL     1      -3.514   5.404 -35.568  1.00  0.00    -0.169 F 
HETATM   24  F   UNL     1      -1.903   6.568 -34.696  1.00  0.00    -0.169 F 
HETATM   25  F   UNL     1      -1.922   4.412 -34.454  1.00  0.00    -0.169 F 
ENDBRANCH   8  22
BRANCH   1  26
HETATM   26  C   UNL     1      -1.060   6.612 -30.328  1.00  0.00    -0.035 A 
HETATM   27  C   UNL     1      -1.952   7.070 -29.349  1.00  0.00     0.012 A 
HETATM   28  C   UNL     1      -1.487   7.761 -28.222  1.00  0.00     0.037 A 
HETATM   29  C   UNL     1      -0.123   8.001 -28.057  1.00  0.00     0.068 A 
HETATM   30  C   UNL     1       0.770   7.556 -29.032  1.00  0.00     0.037 A 
HETATM   31  C   UNL     1       0.310   6.867 -30.155  1.00  0.00     0.012 A 
BRANCH  29  32
HETATM   32  O   UNL     1       0.460   8.656 -27.008  1.00  0.00    -0.356 OA
HETATM   33  C   UNL     1       1.573   8.020 -26.392  1.00  0.00     0.210 C 
ENDBRANCH  29  32
ENDBRANCH   1  26
TORSDOF 6
ENDMDL
MODEL 2
REMARK VINA RESULT:      -9.1      2.835      9.326
REMARK  6 active torsions:
REMARK  status: ('A' for Active; 'I' for Inactive)
REMARK    1  A    between atoms: O_2  and  C_3 
REMARK    2  A    between atoms: C_6  and  C_7 
REMARK    3  A    between atoms: C_12  and  C_13 
REMARK       I    between atoms: C_13  and  N_14 
REMARK    4  A    between atoms: N_14  and  C_15 
REMARK    5  A    between atoms: C_15  and  C_16 
REMARK    6  A    between atoms: C_24  and  C_25 
ROOT
HETATM    1  C   UNL     1      -6.369   0.765 -33.224  1.00  0.00     0.118 C 
HETATM    2  N   UNL     1      -5.305   1.359 -32.418  1.00  0.00    -0.366 N 
HETATM    3  C   UNL     1      -4.911   2.638 -32.567  1.00  0.00     0.123 A 
HETATM    4  N   UNL     1      -5.577   3.496 -33.394  1.00  0.00    -0.240 N 
HETATM    5  N   UNL     1      -4.997   4.702 -33.522  1.00  0.00    -0.165 NA
HETATM    6  C   UNL     1      -3.946   4.633 -32.672  1.00  0.00     0.148 A 
HETATM    7  C   UNL     1      -3.871   3.358 -32.042  1.00  0.00     0.088 A 
HETATM    8  C   UNL     1      -6.742   3.110 -34.167  1.00  0.00     0.221 C 
HETATM    9  C   UNL     1      -6.657   1.609 -34.484  1.00  0.00     0.066 C 
HETATM   10  H   UNL     1      -4.834   0.728 -31.771  1.00  0.00     0.161 HD
ENDROOT
BRANCH   6  11
HETATM   11  C   UNL     1      -3.018   5.755 -32.477  1.00  0.00     0.272 C 
HETATM   12  N   UNL     1      -1.697   5.383 -32.525  1.00  0.00    -0.351 N 
HETATM   13  H   UNL     1      -1.514   4.388 -32.624  1.00  0.00     0.163 HD
HETATM   14  O   UNL     1      -3.399   6.907 -32.292  1.00  0.00    -0.266 OA
BRANCH  12  15
HETATM   15  C   UNL     1      -0.613   6.310 -32.337  1.00  0.00     0.161 C 
BRANCH  15  16
HETATM   16  C   UNL     1      -0.116   6.317 -30.913  1.00  0.00    -0.041 A 
HETATM   17  C   UNL     1      -0.265   7.451 -30.099  1.00  0.00     0.009 A 
HETATM   18  C   UNL     1       0.162   7.437 -28.772  1.00  0.00     0.001 A 
HETATM   19  C   UNL     1       0.727   6.282 -28.234  1.00  0.00     0.000 A 
HETATM   20  C   UNL     1       0.863   5.142 -29.024  1.00  0.00     0.001 A 
HETATM   21  C   UNL     1       0.441   5.157 -30.355  1.00  0.00     0.009 A 
ENDBRANCH  15  16
ENDBRANCH  12  15
ENDBRANCH   6  11
BRANCH   8  22
HETATM   22  C   UNL     1      -8.004   3.479 -33.423  1.00  0.00     0.409 C 
HETATM   23  F   UNL     1      -7.812   3.562 -32.088  1.00  0.00    -0.169 F 
HETATM   24  F   UNL     1      -8.431   4.705 -33.827  1.00  0.00    -0.169 F 
HETATM   25  F   UNL     1      -9.027   2.627 -33.640  1.00  0.00    -0.169 F 
ENDBRANCH   8  22
BRANCH   1  26
HETATM   26  C   UNL     1      -5.969  -0.650 -33.605  1.00  0.00    -0.035 A 
HETATM   27  C   UNL     1      -6.884  -1.508 -34.231  1.00  0.00     0.012 A 
HETATM   28  C   UNL     1      -6.514  -2.811 -34.592  1.00  0.00     0.037 A 
HETATM   29  C   UNL     1      -5.223  -3.273 -34.335  1.00  0.00     0.068 A 
HETATM   30  C   UNL     1      -4.311  -2.429 -33.703  1.00  0.00     0.037 A 
HETATM   31  C   UNL     1      -4.675  -1.131 -33.343  1.00  0.00     0.012 A 
BRANCH  29  32
HETATM   32  O   UNL     1      -4.735  -4.514 -34.637  1.00  0.00    -0.356 OA
HETATM   33  C   UNL     1      -3.691  -5.013 -33.811  1.00  0.00     0.210 C 
ENDBRANCH  29  32
ENDBRANCH   1  26
TORSDOF 6
ENDMDL
MODEL 3
REMARK VINA RESULT:      -9.1      2.950      9.783
REMARK  6 active torsions:
REMARK  status: ('A' for Active; 'I' for Inactive)
REMARK    1  A    between atoms: O_2  and  C_3 
REMARK    2  A    between atoms: C_6  and  C_7 
REMARK    3  A    between atoms: C_12  and  C_13 
REMARK       I    between atoms: C_13  and  N_14 
REMARK    4  A    between atoms: N_14  and  C_15 
REMARK    5  A    between atoms: C_15  and  C_16 
REMARK    6  A    between atoms: C_24  and  C_25 
ROOT
HETATM    1  C   UNL     1      -5.528   1.077 -31.892  1.00  0.00     0.118 C 
HETATM    2  N   UNL     1      -4.157   1.537 -31.679  1.00  0.00    -0.366 N 
HETATM    3  C   UNL     1      -3.827   2.842 -31.642  1.00  0.00     0.123 A 
HETATM    4  N   UNL     1      -4.782   3.818 -31.670  1.00  0.00    -0.240 N 
HETATM    5  N   UNL     1      -4.292   5.067 -31.740  1.00  0.00    -0.165 NA
HETATM    6  C   UNL     1      -2.952   4.880 -31.678  1.00  0.00     0.148 A 
HETATM    7  C   UNL     1      -2.626   3.497 -31.599  1.00  0.00     0.088 A 
HETATM    8  C   UNL     1      -6.203   3.537 -31.740  1.00  0.00     0.221 C 
HETATM    9  C   UNL     1      -6.413   2.202 -32.472  1.00  0.00     0.066 C 
HETATM   10  H   UNL     1      -3.449   0.806 -31.619  1.00  0.00     0.161 HD
ENDROOT
BRANCH   6  11
HETATM   11  C   UNL     1      -2.000   5.999 -31.714  1.00  0.00     0.272 C 
HETATM   12  N   UNL     1      -1.242   6.103 -30.573  1.00  0.00    -0.351 N 
HETATM   13  H   UNL     1      -1.462   5.450 -29.826  1.00  0.00     0.163 HD
HETATM   14  O   UNL     1      -1.902   6.757 -32.673  1.00  0.00    -0.266 OA
BRANCH  12  15
HETATM   15  C   UNL     1      -0.262   7.137 -30.375  1.00  0.00     0.161 C 
BRANCH  15  16
HETATM   16  C   UNL     1       0.151   7.255 -28.929  1.00  0.00    -0.041 A 
HETATM   17  C   UNL     1      -0.375   6.394 -27.954  1.00  0.00     0.009 A 
HETATM   18  C   UNL     1       0.040   6.484 -26.625  1.00  0.00     0.001 A 
HETATM   19  C   UNL     1       1.001   7.423 -26.258  1.00  0.00     0.000 A 
HETATM   20  C   UNL     1       1.548   8.271 -27.220  1.00  0.00     0.001 A 
HETATM   21  C   UNL     1       1.128   8.186 -28.549  1.00  0.00     0.009 A 
ENDBRANCH  15  16
ENDBRANCH  12  15
ENDBRANCH   6  11
BRANCH   8  22
HETATM   22  C   UNL     1      -6.802   3.544 -30.354  1.00  0.00     0.409 C 
HETATM   23  F   UNL     1      -5.879   3.344 -29.388  1.00  0.00    -0.169 F 
HETATM   24  F   UNL     1      -7.361   4.759 -30.104  1.00  0.00    -0.169 F 
HETATM   25  F   UNL     1      -7.781   2.631 -30.184  1.00  0.00    -0.169 F 
ENDBRANCH   8  22
BRANCH   1  26
HETATM   26  C   UNL     1      -5.507  -0.123 -32.823  1.00  0.00    -0.035 A 
HETATM   27  C   UNL     1      -4.379  -0.952 -32.894  1.00  0.00     0.012 A 
HETATM   28  C   UNL     1      -4.360  -2.066 -33.744  1.00  0.00     0.037 A 
HETATM   29  C   UNL     1      -5.471  -2.369 -34.532  1.00  0.00     0.068 A 
HETATM   30  C   UNL     1      -6.593  -1.543 -34.473  1.00  0.00     0.037 A 
HETATM   31  C   UNL     1      -6.615  -0.434 -33.628  1.00  0.00     0.012 A 
BRANCH  29  32
HETATM   32  O   UNL     1      -5.585  -3.422 -35.397  1.00  0.00    -0.356 OA
HETATM   33  C   UNL     1      -6.396  -4.512 -34.979  1.00  0.00     0.210 C 
ENDBRANCH  29  32
ENDBRANCH   1  26
TORSDOF 6
ENDMDL
MODEL 4
REMARK VINA RESULT:      -8.8      7.565      9.428
REMARK  6 active torsions:
REMARK  status: ('A' for Active; 'I' for Inactive)
REMARK    1  A    between atoms: O_2  and  C_3 
REMARK    2  A    between atoms: C_6  and  C_7 
REMARK    3  A    between atoms: C_12  and  C_13 
REMARK       I    between atoms: C_13  and  N_14 
REMARK    4  A    between atoms: N_14  and  C_15 
REMARK    5  A    between atoms: C_15  and  C_16 
REMARK    6  A    between atoms: C_24  and  C_25 
ROOT
HETATM    1  C   UNL     1     -11.837   3.535 -35.038  1.00  0.00     0.118 C 
HETATM    2  N   UNL     1     -10.489   3.042 -35.311  1.00  0.00    -0.366 N 
HETATM    3  C   UNL     1      -9.857   2.171 -34.500  1.00  0.00     0.123 A 
HETATM    4  N   UNL     1     -10.496   1.596 -33.439  1.00  0.00    -0.240 N 
HETATM    5  N   UNL     1      -9.702   0.840 -32.662  1.00  0.00    -0.165 NA
HETATM    6  C   UNL     1      -8.511   0.876 -33.305  1.00  0.00     0.148 A 
HETATM    7  C   UNL     1      -8.577   1.689 -34.472  1.00  0.00     0.088 A 
HETATM    8  C   UNL     1     -11.880   1.867 -33.103  1.00  0.00     0.221 C 
HETATM    9  C   UNL     1     -12.239   3.288 -33.568  1.00  0.00     0.066 C 
HETATM   10  H   UNL     1     -10.027   3.442 -36.127  1.00  0.00     0.161 HD
ENDROOT
BRANCH   6  11
HETATM   11  C   UNL     1      -7.327   0.164 -32.805  1.00  0.00     0.272 C 
HETATM   12  N   UNL     1      -6.453  -0.203 -33.799  1.00  0.00    -0.351 N 
HETATM   13  H   UNL     1      -6.746  -0.001 -34.751  1.00  0.00     0.163 HD
HETATM   14  O   UNL     1      -7.148  -0.072 -31.614  1.00  0.00    -0.266 OA
BRANCH  12  15
HETATM   15  C   UNL     1      -5.239  -0.931 -33.547  1.00  0.00     0.161 C 
BRANCH  15  16
HETATM   16  C   UNL     1      -5.345  -2.373 -33.975  1.00  0.00    -0.041 A 
HETATM   17  C   UNL     1      -6.500  -2.857 -34.609  1.00  0.00     0.009 A 
HETATM   18  C   UNL     1      -6.575  -4.182 -35.036  1.00  0.00     0.001 A 
HETATM   19  C   UNL     1      -5.490  -5.037 -34.852  1.00  0.00     0.000 A 
HETATM   20  C   UNL     1      -4.330  -4.565 -34.242  1.00  0.00     0.001 A 
HETATM   21  C   UNL     1      -4.255  -3.240 -33.808  1.00  0.00     0.009 A 
ENDBRANCH  15  16
ENDBRANCH  12  15
ENDBRANCH   6  11
BRANCH   8  22
HETATM   22  C   UNL     1     -12.777   0.811 -33.706  1.00  0.00     0.409 C 
HETATM   23  F   UNL     1     -12.444  -0.438 -33.313  1.00  0.00    -0.169 F 
HETATM   24  F   UNL     1     -14.058   1.013 -33.298  1.00  0.00    -0.169 F 
HETATM   25  F   UNL     1     -12.798   0.827 -35.055  1.00  0.00    -0.169 F 
ENDBRANCH   8  22
BRANCH   1  26
HETATM   26  C   UNL     1     -11.897   5.017 -35.369  1.00  0.00    -0.035 A 
HETATM   27  C   UNL     1     -13.117   5.628 -35.692  1.00  0.00     0.012 A 
HETATM   28  C   UNL     1     -13.177   6.996 -35.988  1.00  0.00     0.037 A 
HETATM   29  C   UNL     1     -12.018   7.773 -35.963  1.00  0.00     0.068 A 
HETATM   30  C   UNL     1     -10.800   7.170 -35.653  1.00  0.00     0.037 A 
HETATM   31  C   UNL     1     -10.737   5.808 -35.356  1.00  0.00     0.012 A 
BRANCH  29  32
HETATM   32  O   UNL     1     -11.938   9.113 -36.227  1.00  0.00    -0.356 OA
HETATM   33  C   UNL     1     -11.441   9.488 -37.505  1.00  0.00     0.210 C 
ENDBRANCH  29  32
ENDBRANCH   1  26
TORSDOF 6
ENDMDL
MODEL 5
REMARK VINA RESULT:      -8.7      2.109      3.043
REMARK  6 active torsions:
REMARK  status: ('A' for Active; 'I' for Inactive)
REMARK    1  A    between atoms: O_2  and  C_3 
REMARK    2  A    between atoms: C_6  and  C_7 
REMARK    3  A    between atoms: C_12  and  C_13 
REMARK       I    between atoms: C_13  and  N_14 
REMARK    4  A    between atoms: N_14  and  C_15 
REMARK    5  A    between atoms: C_15  and  C_16 
REMARK    6  A    between atoms: C_24  and  C_25 
ROOT
HETATM    1  C   UNL     1      -1.518   5.843 -31.531  1.00  0.00     0.118 C 
HETATM    2  N   UNL     1      -1.833   4.454 -31.208  1.00  0.00    -0.366 N 
HETATM    3  C   UNL     1      -2.898   3.812 -31.726  1.00  0.00     0.123 A 
HETATM    4  N   UNL     1      -3.675   4.387 -32.690  1.00  0.00    -0.240 N 
HETATM    5  N   UNL     1      -4.762   3.671 -33.023  1.00  0.00    -0.165 NA
HETATM    6  C   UNL     1      -4.631   2.544 -32.283  1.00  0.00     0.148 A 
HETATM    7  C   UNL     1      -3.463   2.591 -31.470  1.00  0.00     0.088 A 
HETATM    8  C   UNL     1      -3.423   5.710 -33.228  1.00  0.00     0.221 C 
HETATM    9  C   UNL     1      -2.733   6.564 -32.153  1.00  0.00     0.066 C 
HETATM   10  H   UNL     1      -1.228   4.011 -30.516  1.00  0.00     0.161 HD
ENDROOT
BRANCH   6  11
HETATM   11  C   UNL     1      -5.611   1.451 -32.337  1.00  0.00     0.272 C 
HETATM   12  N   UNL     1      -6.593   1.554 -31.382  1.00  0.00    -0.351 N 
HETATM   13  H   UNL     1      -6.499   2.322 -30.723  1.00  0.00     0.163 HD
HETATM   14  O   UNL     1      -5.547   0.541 -33.158  1.00  0.00    -0.266 OA
BRANCH  12  15
HETATM   15  C   UNL     1      -7.645   0.585 -31.231  1.00  0.00     0.161 C 
BRANCH  15  16
HETATM   16  C   UNL     1      -8.900   0.993 -31.960  1.00  0.00    -0.041 A 
HETATM   17  C   UNL     1      -9.283   2.341 -32.043  1.00  0.00     0.009 A 
HETATM   18  C   UNL     1     -10.424   2.715 -32.751  1.00  0.00     0.001 A 
HETATM   19  C   UNL     1     -11.187   1.749 -33.403  1.00  0.00     0.000 A 
HETATM   20  C   UNL     1     -10.808   0.409 -33.346  1.00  0.00     0.001 A 
HETATM   21  C   UNL     1      -9.669   0.033 -32.632  1.00  0.00     0.009 A 
ENDBRANCH  15  16
ENDBRANCH  12  15
ENDBRANCH   6  11
BRANCH   8  22
HETATM   22  C   UNL     1      -2.615   5.608 -34.500  1.00  0.00     0.409 C 
HETATM   23  F   UNL     1      -1.879   4.476 -34.557  1.00  0.00    -0.169 F 
HETATM   24  F   UNL     1      -3.452   5.575 -35.572  1.00  0.00    -0.169 F 
HETATM   25  F   UNL     1      -1.783   6.651 -34.697  1.00  0.00    -0.169 F 
ENDBRANCH   8  22
BRANCH   1  26
HETATM   26  C   UNL     1      -1.061   6.552 -30.268  1.00  0.00    -0.035 A 
HETATM   27  C   UNL     1      -1.996   7.022 -29.334  1.00  0.00     0.012 A 
HETATM   28  C   UNL     1      -1.577   7.668 -28.163  1.00  0.00     0.037 A 
HETATM   29  C   UNL     1      -0.218   7.851 -27.908  1.00  0.00     0.068 A 
HETATM   30  C   UNL     1       0.717   7.396 -28.836  1.00  0.00     0.037 A 
HETATM   31  C   UNL     1       0.304   6.751 -30.003  1.00  0.00     0.012 A 
BRANCH  29  32
HETATM   32  O   UNL     1       0.322   8.458 -26.808  1.00  0.00    -0.356 OA
HETATM   33  C   UNL     1       1.531   7.910 -26.299  1.00  0.00     0.210 C 
ENDBRANCH  29  32
ENDBRANCH   1  26
TORSDOF 6
ENDMDL
MODEL 6
REMARK VINA RESULT:      -8.7      4.021     10.010
REMARK  6 active torsions:
REMARK  status: ('A' for Active; 'I' for Inactive)
REMARK    1  A    between atoms: O_2  and  C_3 
REMARK    2  A    between atoms: C_6  and  C_7 
REMARK    3  A    between atoms: C_12  and  C_13 
REMARK       I    between atoms: C_13  and  N_14 
REMARK    4  A    between atoms: N_14  and  C_15 
REMARK    5  A    between atoms: C_15  and  C_16 
REMARK    6  A    between atoms: C_24  and  C_25 
ROOT
HETATM    1  C   UNL     1      -8.503   1.190 -33.004  1.00  0.00     0.118 C 
HETATM    2  N   UNL     1      -7.600   1.868 -33.931  1.00  0.00    -0.366 N 
HETATM    3  C   UNL     1      -6.569   2.628 -33.515  1.00  0.00     0.123 A 
HETATM    4  N   UNL     1      -6.228   2.703 -32.195  1.00  0.00    -0.240 N 
HETATM    5  N   UNL     1      -5.253   3.588 -31.926  1.00  0.00    -0.165 NA
HETATM    6  C   UNL     1      -4.904   4.048 -33.151  1.00  0.00     0.148 A 
HETATM    7  C   UNL     1      -5.698   3.454 -34.173  1.00  0.00     0.088 A 
HETATM    8  C   UNL     1      -6.932   1.983 -31.151  1.00  0.00     0.221 C 
HETATM    9  C   UNL     1      -8.393   1.780 -31.582  1.00  0.00     0.066 C 
HETATM   10  H   UNL     1      -7.832   1.780 -34.920  1.00  0.00     0.161 HD
ENDROOT
BRANCH   6  11
HETATM   11  C   UNL     1      -3.845   5.048 -33.342  1.00  0.00     0.272 C 
HETATM   12  N   UNL     1      -2.616   4.631 -32.894  1.00  0.00    -0.351 N 
HETATM   13  H   UNL     1      -2.589   3.724 -32.435  1.00  0.00     0.163 HD
HETATM   14  O   UNL     1      -4.051   6.145 -33.852  1.00  0.00    -0.266 OA
BRANCH  12  15
HETATM   15  C   UNL     1      -1.437   5.453 -32.955  1.00  0.00     0.161 C 
BRANCH  15  16
HETATM   16  C   UNL     1      -0.890   5.761 -31.584  1.00  0.00    -0.041 A 
HETATM   17  C   UNL     1      -1.446   6.780 -30.794  1.00  0.00     0.009 A 
HETATM   18  C   UNL     1      -0.960   7.033 -29.512  1.00  0.00     0.001 A 
HETATM   19  C   UNL     1       0.076   6.258 -28.995  1.00  0.00     0.000 A 
HETATM   20  C   UNL     1       0.624   5.230 -29.759  1.00  0.00     0.001 A 
HETATM   21  C   UNL     1       0.143   4.980 -31.046  1.00  0.00     0.009 A 
ENDBRANCH  15  16
ENDBRANCH  12  15
ENDBRANCH   6  11
BRANCH   8  22
HETATM   22  C   UNL     1      -6.225   0.682 -30.851  1.00  0.00     0.409 C 
HETATM   23  F   UNL     1      -5.460   0.258 -31.881  1.00  0.00    -0.169 F 
HETATM   24  F   UNL     1      -5.386   0.851 -29.794  1.00  0.00    -0.169 F 
HETATM   25  F   UNL     1      -7.062  -0.323 -30.519  1.00  0.00    -0.169 F 
ENDBRANCH   8  22
BRANCH   1  26
HETATM   26  C   UNL     1      -9.925   1.305 -33.525  1.00  0.00    -0.035 A 
HETATM   27  C   UNL     1     -10.304   2.386 -34.334  1.00  0.00     0.012 A 
HETATM   28  C   UNL     1     -11.612   2.489 -34.825  1.00  0.00     0.037 A 
HETATM   29  C   UNL     1     -12.559   1.513 -34.516  1.00  0.00     0.068 A 
HETATM   30  C   UNL     1     -12.192   0.440 -33.704  1.00  0.00     0.037 A 
HETATM   31  C   UNL     1     -10.890   0.333 -33.215  1.00  0.00     0.012 A 
BRANCH  29  32
HETATM   32  O   UNL     1     -13.862   1.492 -34.931  1.00  0.00    -0.356 OA
HETATM   33  C   UNL     1     -14.760   0.676 -34.190  1.00  0.00     0.210 C 
ENDBRANCH  29  32
ENDBRANCH   1  26
TORSDOF 6
ENDMDL
MODEL 7
REMARK VINA RESULT:      -8.6      3.121      9.357
REMARK  6 active torsions:
REMARK  status: ('A' for Active; 'I' for Inactive)
REMARK    1  A    between atoms: O_2  and  C_3 
REMARK    2  A    between atoms: C_6  and  C_7 
REMARK    3  A    between atoms: C_12  and  C_13 
REMARK       I    between atoms: C_13  and  N_14 
REMARK    4  A    between atoms: N_14  and  C_15 
REMARK    5  A    between atoms: C_15  and  C_16 
REMARK    6  A    between atoms: C_24  and  C_25 
ROOT
HETATM    1  C   UNL     1      -7.069   0.468 -33.234  1.00  0.00     0.118 C 
HETATM    2  N   UNL     1      -6.679   0.866 -31.884  1.00  0.00    -0.366 N 
HETATM    3  C   UNL     1      -6.444   2.148 -31.545  1.00  0.00     0.123 A 
HETATM    4  N   UNL     1      -6.687   3.170 -32.417  1.00  0.00    -0.240 N 
HETATM    5  N   UNL     1      -6.297   4.378 -31.975  1.00  0.00    -0.165 NA
HETATM    6  C   UNL     1      -5.850   4.121 -30.722  1.00  0.00     0.148 A 
HETATM    7  C   UNL     1      -5.943   2.734 -30.414  1.00  0.00     0.088 A 
HETATM    8  C   UNL     1      -7.209   2.965 -33.755  1.00  0.00     0.221 C 
HETATM    9  C   UNL     1      -6.765   1.582 -34.258  1.00  0.00     0.066 C 
HETATM   10  H   UNL     1      -6.536   0.104 -31.221  1.00  0.00     0.161 HD
ENDROOT
BRANCH   6  11
HETATM   11  C   UNL     1      -5.325   5.175 -29.844  1.00  0.00     0.272 C 
HETATM   12  N   UNL     1      -4.132   5.700 -30.278  1.00  0.00    -0.351 N 
HETATM   13  H   UNL     1      -3.725   5.268 -31.103  1.00  0.00     0.163 HD
HETATM   14  O   UNL     1      -5.905   5.542 -28.827  1.00  0.00    -0.266 OA
BRANCH  12  15
HETATM   15  C   UNL     1      -3.422   6.727 -29.564  1.00  0.00     0.161 C 
BRANCH  15  16
HETATM   16  C   UNL     1      -1.995   6.859 -30.036  1.00  0.00    -0.041 A 
HETATM   17  C   UNL     1      -0.952   7.100 -29.129  1.00  0.00     0.009 A 
HETATM   18  C   UNL     1       0.370   7.183 -29.568  1.00  0.00     0.001 A 
HETATM   19  C   UNL     1       0.667   7.007 -30.917  1.00  0.00     0.000 A 
HETATM   20  C   UNL     1      -0.356   6.747 -31.827  1.00  0.00     0.001 A 
HETATM   21  C   UNL     1      -1.680   6.671 -31.390  1.00  0.00     0.009 A 
ENDBRANCH  15  16
ENDBRANCH  12  15
ENDBRANCH   6  11
BRANCH   8  22
HETATM   22  C   UNL     1      -8.709   3.135 -33.758  1.00  0.00     0.409 C 
HETATM   23  F   UNL     1      -9.327   2.273 -34.595  1.00  0.00    -0.169 F 
HETATM   24  F   UNL     1      -9.201   2.881 -32.515  1.00  0.00    -0.169 F 
HETATM   25  F   UNL     1      -9.112   4.381 -34.080  1.00  0.00    -0.169 F 
ENDBRANCH   8  22
BRANCH   1  26
HETATM   26  C   UNL     1      -6.340  -0.813 -33.602  1.00  0.00    -0.035 A 
HETATM   27  C   UNL     1      -5.002  -1.005 -33.229  1.00  0.00     0.012 A 
HETATM   28  C   UNL     1      -4.329  -2.190 -33.558  1.00  0.00     0.037 A 
HETATM   29  C   UNL     1      -4.985  -3.200 -34.262  1.00  0.00     0.068 A 
HETATM   30  C   UNL     1      -6.313  -3.011 -34.645  1.00  0.00     0.037 A 
HETATM   31  C   UNL     1      -6.986  -1.833 -34.318  1.00  0.00     0.012 A 
BRANCH  29  32
HETATM   32  O   UNL     1      -4.449  -4.399 -34.642  1.00  0.00    -0.356 OA
HETATM   33  C   UNL     1      -3.397  -4.916 -33.838  1.00  0.00     0.210 C 
ENDBRANCH  29  32
ENDBRANCH   1  26
TORSDOF 6
ENDMDL
MODEL 8
REMARK VINA RESULT:      -8.5      2.761      9.787
REMARK  6 active torsions:
REMARK  status: ('A' for Active; 'I' for Inactive)
REMARK    1  A    between atoms: O_2  and  C_3 
REMARK    2  A    between atoms: C_6  and  C_7 
REMARK    3  A    between atoms: C_12  and  C_13 
REMARK       I    between atoms: C_13  and  N_14 
REMARK    4  A    between atoms: N_14  and  C_15 
REMARK    5  A    between atoms: C_15  and  C_16 
REMARK    6  A    between atoms: C_24  and  C_25 
ROOT
HETATM    1  C   UNL     1      -6.087   1.195 -32.946  1.00  0.00     0.118 C 
HETATM    2  N   UNL     1      -4.945   1.436 -32.067  1.00  0.00    -0.366 N 
HETATM    3  C   UNL     1      -4.281   2.608 -32.043  1.00  0.00     0.123 A 
HETATM    4  N   UNL     1      -4.724   3.689 -32.750  1.00  0.00    -0.240 N 
HETATM    5  N   UNL     1      -3.896   4.747 -32.716  1.00  0.00    -0.165 NA
HETATM    6  C   UNL     1      -2.909   4.343 -31.881  1.00  0.00     0.148 A 
HETATM    7  C   UNL     1      -3.128   3.012 -31.427  1.00  0.00     0.088 A 
HETATM    8  C   UNL     1      -5.920   3.668 -33.569  1.00  0.00     0.221 C 
HETATM    9  C   UNL     1      -6.149   2.237 -34.083  1.00  0.00     0.066 C 
HETATM   10  H   UNL     1      -4.639   0.639 -31.508  1.00  0.00     0.161 HD
ENDROOT
BRANCH   6  11
HETATM   11  C   UNL     1      -1.769   5.204 -31.538  1.00  0.00     0.272 C 
HETATM   12  N   UNL     1      -1.897   5.813 -30.314  1.00  0.00    -0.351 N 
HETATM   13  H   UNL     1      -2.772   5.653 -29.822  1.00  0.00     0.163 HD
HETATM   14  O   UNL     1      -0.804   5.355 -32.281  1.00  0.00    -0.266 OA
BRANCH  12  15
HETATM   15  C   UNL     1      -0.914   6.718 -29.781  1.00  0.00     0.161 C 
BRANCH  15  16
HETATM   16  C   UNL     1      -1.445   8.125 -29.667  1.00  0.00    -0.041 A 
HETATM   17  C   UNL     1      -1.252   8.878 -28.498  1.00  0.00     0.009 A 
HETATM   18  C   UNL     1      -1.713  10.192 -28.413  1.00  0.00     0.001 A 
HETATM   19  C   UNL     1      -2.356  10.776 -29.503  1.00  0.00     0.000 A 
HETATM   20  C   UNL     1      -2.536  10.047 -30.676  1.00  0.00     0.001 A 
HETATM   21  C   UNL     1      -2.081   8.730 -30.760  1.00  0.00     0.009 A 
ENDBRANCH  15  16
ENDBRANCH  12  15
ENDBRANCH   6  11
BRANCH   8  22
HETATM   22  C   UNL     1      -7.095   4.201 -32.783  1.00  0.00     0.409 C 
HETATM   23  F   UNL     1      -6.930   4.069 -31.449  1.00  0.00    -0.169 F 
HETATM   24  F   UNL     1      -7.239   5.532 -33.022  1.00  0.00    -0.169 F 
HETATM   25  F   UNL     1      -8.271   3.625 -33.112  1.00  0.00    -0.169 F 
ENDBRANCH   8  22
BRANCH   1  26
HETATM   26  C   UNL     1      -5.987  -0.211 -33.511  1.00  0.00    -0.035 A 
HETATM   27  C   UNL     1      -4.845  -0.993 -33.284  1.00  0.00     0.012 A 
HETATM   28  C   UNL     1      -4.754  -2.295 -33.796  1.00  0.00     0.037 A 
HETATM   29  C   UNL     1      -5.805  -2.834 -34.539  1.00  0.00     0.068 A 
HETATM   30  C   UNL     1      -6.939  -2.059 -34.776  1.00  0.00     0.037 A 
HETATM   31  C   UNL     1      -7.033  -0.762 -34.268  1.00  0.00     0.012 A 
BRANCH  29  32
HETATM   32  O   UNL     1      -5.845  -4.085 -35.089  1.00  0.00    -0.356 OA
HETATM   33  C   UNL     1      -4.947  -5.050 -34.559  1.00  0.00     0.210 C 
ENDBRANCH  29  32
ENDBRANCH   1  26
TORSDOF 6
ENDMDL
MODEL 9
REMARK VINA RESULT:      -8.3      3.216      9.557
REMARK  6 active torsions:
REMARK  status: ('A' for Active; 'I' for Inactive)
REMARK    1  A    between atoms: O_2  and  C_3 
REMARK    2  A    between atoms: C_6  and  C_7 
REMARK    3  A    between atoms: C_12  and  C_13 
REMARK       I    between atoms: C_13  and  N_14 
REMARK    4  A    between atoms: N_14  and  C_15 
REMARK    5  A    between atoms: C_15  and  C_16 
REMARK    6  A    between atoms: C_24  and  C_25 
ROOT
HETATM    1  C   UNL     1      -6.027   1.413 -32.621  1.00  0.00     0.118 C 
HETATM    2  N   UNL     1      -5.346   2.508 -33.308  1.00  0.00    -0.366 N 
HETATM    3  C   UNL     1      -4.236   3.094 -32.818  1.00  0.00     0.123 A 
HETATM    4  N   UNL     1      -3.606   2.607 -31.708  1.00  0.00    -0.240 N 
HETATM    5  N   UNL     1      -2.583   3.365 -31.278  1.00  0.00    -0.165 NA
HETATM    6  C   UNL     1      -2.511   4.348 -32.207  1.00  0.00     0.148 A 
HETATM    7  C   UNL     1      -3.523   4.199 -33.198  1.00  0.00     0.088 A 
HETATM    8  C   UNL     1      -4.068   1.442 -30.980  1.00  0.00     0.221 C 
HETATM    9  C   UNL     1      -5.592   1.322 -31.143  1.00  0.00     0.066 C 
HETATM   10  H   UNL     1      -5.795   2.846 -34.159  1.00  0.00     0.161 HD
ENDROOT
BRANCH   6  11
HETATM   11  C   UNL     1      -1.507   5.418 -32.141  1.00  0.00     0.272 C 
HETATM   12  N   UNL     1      -1.434   6.019 -30.908  1.00  0.00    -0.351 N 
HETATM   13  H   UNL     1      -2.109   5.706 -30.215  1.00  0.00     0.163 HD
HETATM   14  O   UNL     1      -0.810   5.735 -33.099  1.00  0.00    -0.266 OA
BRANCH  12  15
HETATM   15  C   UNL     1      -0.541   7.108 -30.618  1.00  0.00     0.161 C 
BRANCH  15  16
HETATM   16  C   UNL     1      -0.138   7.137 -29.165  1.00  0.00    -0.041 A 
HETATM   17  C   UNL     1      -0.792   6.335 -28.216  1.00  0.00     0.009 A 
HETATM   18  C   UNL     1      -0.389   6.339 -26.881  1.00  0.00     0.001 A 
HETATM   19  C   UNL     1       0.687   7.128 -26.480  1.00  0.00     0.000 A 
HETATM   20  C   UNL     1       1.359   7.914 -27.415  1.00  0.00     0.001 A 
HETATM   21  C   UNL     1       0.952   7.916 -28.751  1.00  0.00     0.009 A 
ENDBRANCH  15  16
ENDBRANCH  12  15
ENDBRANCH   6  11
BRANCH   8  22
HETATM   22  C   UNL     1      -3.332   0.210 -31.452  1.00  0.00     0.409 C 
HETATM   23  F   UNL     1      -2.943   0.301 -32.742  1.00  0.00    -0.169 F 
HETATM   24  F   UNL     1      -2.197   0.047 -30.720  1.00  0.00    -0.169 F 
HETATM   25  F   UNL     1      -4.042  -0.929 -31.315  1.00  0.00    -0.169 F 
ENDBRANCH   8  22
BRANCH   1  26
HETATM   26  C   UNL     1      -7.528   1.621 -32.728  1.00  0.00    -0.035 A 
HETATM   27  C   UNL     1      -8.407   0.531 -32.654  1.00  0.00     0.012 A 
HETATM   28  C   UNL     1      -9.793   0.721 -32.743  1.00  0.00     0.037 A 
HETATM   29  C   UNL     1     -10.319   2.003 -32.904  1.00  0.00     0.068 A 
HETATM   30  C   UNL     1      -9.450   3.090 -32.988  1.00  0.00     0.037 A 
HETATM   31  C   UNL     1      -8.070   2.905 -32.899  1.00  0.00     0.012 A 
BRANCH  29  32
HETATM   32  O   UNL     1     -11.644   2.325 -33.000  1.00  0.00    -0.356 OA
HETATM   33  C   UNL     1     -12.486   1.394 -33.666  1.00  0.00     0.210 C 
ENDBRANCH  29  32
ENDBRANCH   1  26
TORSDOF 6
ENDMDL
MODEL 10
REMARK VINA RESULT:      -8.3      5.051      9.255
REMARK  6 active torsions:
REMARK  status: ('A' for Active; 'I' for Inactive)
REMARK    1  A    between atoms: O_2  and  C_3 
REMARK    2  A    between atoms: C_6  and  C_7 
REMARK    3  A    between atoms: C_12  and  C_13 
REMARK       I    between atoms: C_13  and  N_14 
REMARK    4  A    between atoms: N_14  and  C_15 
REMARK    5  A    between atoms: C_15  and  C_16 
REMARK    6  A    between atoms: C_24  and  C_25 
ROOT
HETATM    1  C   UNL     1      -6.078   0.794 -33.891  1.00  0.00     0.118 C 
HETATM    2  N   UNL     1      -7.491   1.096 -34.102  1.00  0.00    -0.366 N 
HETATM    3  C   UNL     1      -8.165   1.982 -33.344  1.00  0.00     0.123 A 
HETATM    4  N   UNL     1      -7.527   2.751 -32.413  1.00  0.00    -0.240 N 
HETATM    5  N   UNL     1      -8.349   3.502 -31.661  1.00  0.00    -0.165 NA
HETATM    6  C   UNL     1      -9.570   3.255 -32.192  1.00  0.00     0.148 A 
HETATM    7  C   UNL     1      -9.489   2.318 -33.261  1.00  0.00     0.088 A 
HETATM    8  C   UNL     1      -6.100   2.680 -32.168  1.00  0.00     0.221 C 
HETATM    9  C   UNL     1      -5.605   1.263 -32.499  1.00  0.00     0.066 C 
HETATM   10  H   UNL     1      -7.959   0.550 -34.826  1.00  0.00     0.161 HD
ENDROOT
BRANCH   6  11
HETATM   11  C   UNL     1     -10.793   3.885 -31.676  1.00  0.00     0.272 C 
HETATM   12  N   UNL     1     -11.675   4.248 -32.664  1.00  0.00    -0.351 N 
HETATM   13  H   UNL     1     -11.364   4.101 -33.621  1.00  0.00     0.163 HD
HETATM   14  O   UNL     1     -10.995   4.063 -30.479  1.00  0.00    -0.266 OA
BRANCH  12  15
HETATM   15  C   UNL     1     -12.927   4.903 -32.396  1.00  0.00     0.161 C 
BRANCH  15  16
HETATM   16  C   UNL     1     -14.080   3.931 -32.375  1.00  0.00    -0.041 A 
HETATM   17  C   UNL     1     -15.361   4.336 -31.966  1.00  0.00     0.009 A 
HETATM   18  C   UNL     1     -16.431   3.441 -31.985  1.00  0.00     0.001 A 
HETATM   19  C   UNL     1     -16.238   2.135 -32.431  1.00  0.00     0.000 A 
HETATM   20  C   UNL     1     -14.977   1.725 -32.859  1.00  0.00     0.001 A 
HETATM   21  C   UNL     1     -13.904   2.618 -32.834  1.00  0.00     0.009 A 
ENDBRANCH  15  16
ENDBRANCH  12  15
ENDBRANCH   6  11
BRANCH   8  22
HETATM   22  C   UNL     1      -5.383   3.748 -32.960  1.00  0.00     0.409 C 
HETATM   23  F   UNL     1      -5.320   4.927 -32.302  1.00  0.00    -0.169 F 
HETATM   24  F   UNL     1      -4.098   3.365 -33.185  1.00  0.00    -0.169 F 
HETATM   25  F   UNL     1      -5.931   3.981 -34.171  1.00  0.00    -0.169 F 
ENDBRANCH   8  22
BRANCH   1  26
HETATM   26  C   UNL     1      -5.862  -0.701 -34.057  1.00  0.00    -0.035 A 
HETATM   27  C   UNL     1      -6.897  -1.524 -34.522  1.00  0.00     0.012 A 
HETATM   28  C   UNL     1      -6.698  -2.902 -34.685  1.00  0.00     0.037 A 
HETATM   29  C   UNL     1      -5.461  -3.475 -34.389  1.00  0.00     0.068 A 
HETATM   30  C   UNL     1      -4.430  -2.663 -33.916  1.00  0.00     0.037 A 
HETATM   31  C   UNL     1      -4.625  -1.291 -33.753  1.00  0.00     0.012 A 
BRANCH  29  32
HETATM   32  O   UNL     1      -5.135  -4.797 -34.506  1.00  0.00    -0.356 OA
HETATM   33  C   UNL     1      -3.986  -5.242 -33.796  1.00  0.00     0.210 C 
ENDBRANCH  29  32
ENDBRANCH   1  26
TORSDOF 6
ENDMDL
