MODEL 1
REMARK VINA RESULT:      -8.7      0.000      0.000
REMARK  3 active torsions:
REMARK  status: ('A' for Active; 'I' for Inactive)
REMARK    1  A    between atoms: C_2  and  N_3 
REMARK       I    between atoms: N_3  and  C_4 
REMARK    2  A    between atoms: C_4  and  C_5 
REMARK    3  A    between atoms: C_20  and  C_21 
REMARK       I    between atoms: C_21  and  N_22 
ROOT
HETATM    1  C   UNL     1      -9.130   2.575 -33.190  1.00  0.00     0.032 A 
HETATM    2  C   UNL     1      -9.294   1.197 -33.343  1.00  0.00     0.036 A 
HETATM    3  C   UNL     1     -10.589   0.666 -33.478  1.00  0.00     0.046 A 
HETATM    4  C   UNL     1     -11.706   1.526 -33.451  1.00  0.00     0.030 A 
HETATM    5  C   UNL     1     -11.498   2.888 -33.290  1.00  0.00     0.063 A 
HETATM    6  N   UNL     1     -12.744   3.449 -33.298  1.00  0.00    -0.277 N 
HETATM    7  H   UNL     1     -12.975   4.431 -33.199  1.00  0.00     0.189 HD
HETATM    8  N   UNL     1     -13.748   2.570 -33.460  1.00  0.00    -0.168 NA
HETATM    9  C   UNL     1     -13.120   1.377 -33.558  1.00  0.00     0.156 A 
HETATM   10  C   UNL     1     -10.227   3.450 -33.157  1.00  0.00     0.034 A 
ENDROOT
BRANCH   2  11
HETATM   11  N   UNL     1      -8.226   0.272 -33.375  1.00  0.00    -0.323 N 
HETATM   12  C   UNL     1      -7.390  -0.005 -34.441  1.00  0.00     0.256 C 
HETATM   13  O   UNL     1      -7.400   0.529 -35.543  1.00  0.00    -0.267 OA
HETATM   14  H   UNL     1      -8.035  -0.183 -32.491  1.00  0.00     0.169 HD
BRANCH  12  15
HETATM   15  C   UNL     1      -6.352  -1.043 -34.193  1.00  0.00     0.038 A 
HETATM   16  C   UNL     1      -5.253  -0.819 -33.366  1.00  0.00     0.061 A 
HETATM   17  C   UNL     1      -4.359  -1.860 -33.204  1.00  0.00     0.128 A 
HETATM   18 CL   UNL     1      -2.972  -1.674 -32.212  1.00  0.00    -0.062 Cl
HETATM   19  N   UNL     1      -4.476  -3.070 -33.778  1.00  0.00    -0.225 NA
HETATM   20  C   UNL     1      -5.562  -3.254 -34.550  1.00  0.00     0.128 A 
HETATM   21 CL   UNL     1      -5.684  -4.814 -35.250  1.00  0.00    -0.062 Cl
HETATM   22  C   UNL     1      -6.523  -2.294 -34.789  1.00  0.00     0.061 A 
ENDBRANCH  12  15
ENDBRANCH   2  11
BRANCH   9  23
HETATM   23  C   UNL     1     -13.867   0.126 -33.751  1.00  0.00     0.270 C 
HETATM   24  N   UNL     1     -15.033   0.274 -34.451  1.00  0.00    -0.365 N 
HETATM   25  H   UNL     1     -15.290   1.197 -34.777  1.00  0.00     0.159 HD
HETATM   26  H   UNL     1     -15.612  -0.530 -34.640  1.00  0.00     0.159 HD
HETATM   27  O   UNL     1     -13.501  -0.969 -33.336  1.00  0.00    -0.266 OA
ENDBRANCH   9  23
TORSDOF 3
ENDMDL
MODEL 2
REMARK VINA RESULT:      -8.6      0.459      1.854
REMARK  3 active torsions:
REMARK  status: ('A' for Active; 'I' for Inactive)
REMARK    1  A    between atoms: C_2  and  N_3 
REMARK       I    between atoms: N_3  and  C_4 
REMARK    2  A    between atoms: C_4  and  C_5 
REMARK    3  A    between atoms: C_20  and  C_21 
REMARK       I    between atoms: C_21  and  N_22 
ROOT
HETATM    1  C   UNL     1      -8.876   2.624 -33.689  1.00  0.00     0.032 A 
HETATM    2  C   UNL     1      -9.040   1.238 -33.633  1.00  0.00     0.036 A 
HETATM    3  C   UNL     1     -10.337   0.695 -33.661  1.00  0.00     0.046 A 
HETATM    4  C   UNL     1     -11.454   1.551 -33.740  1.00  0.00     0.030 A 
HETATM    5  C   UNL     1     -11.245   2.922 -33.786  1.00  0.00     0.063 A 
HETATM    6  N   UNL     1     -12.493   3.477 -33.851  1.00  0.00    -0.277 N 
HETATM    7  H   UNL     1     -12.724   4.463 -33.894  1.00  0.00     0.189 HD
HETATM    8  N   UNL     1     -13.498   2.584 -33.861  1.00  0.00    -0.168 NA
HETATM    9  C   UNL     1     -12.870   1.389 -33.794  1.00  0.00     0.156 A 
HETATM   10  C   UNL     1      -9.973   3.496 -33.763  1.00  0.00     0.034 A 
ENDROOT
BRANCH   2  11
HETATM   11  N   UNL     1      -7.971   0.318 -33.549  1.00  0.00    -0.323 N 
HETATM   12  C   UNL     1      -7.102  -0.050 -34.560  1.00  0.00     0.256 C 
HETATM   13  O   UNL     1      -7.078   0.384 -35.705  1.00  0.00    -0.267 OA
HETATM   14  H   UNL     1      -7.808  -0.056 -32.623  1.00  0.00     0.169 HD
BRANCH  12  15
HETATM   15  C   UNL     1      -6.072  -1.059 -34.189  1.00  0.00     0.038 A 
HETATM   16  C   UNL     1      -6.104  -2.369 -34.664  1.00  0.00     0.061 A 
HETATM   17  C   UNL     1      -5.089  -3.215 -34.258  1.00  0.00     0.128 A 
HETATM   18 CL   UNL     1      -5.049  -4.846 -34.785  1.00  0.00    -0.062 Cl
HETATM   19  N   UNL     1      -4.076  -2.865 -33.447  1.00  0.00    -0.225 NA
HETATM   20  C   UNL     1      -4.068  -1.586 -33.029  1.00  0.00     0.128 A 
HETATM   21 CL   UNL     1      -2.751  -1.176 -32.012  1.00  0.00    -0.062 Cl
HETATM   22  C   UNL     1      -5.023  -0.649 -33.363  1.00  0.00     0.061 A 
ENDBRANCH  12  15
ENDBRANCH   2  11
BRANCH   9  23
HETATM   23  C   UNL     1     -13.618   0.125 -33.785  1.00  0.00     0.270 C 
HETATM   24  N   UNL     1     -14.867   0.209 -34.337  1.00  0.00    -0.365 N 
HETATM   25  H   UNL     1     -15.177   1.102 -34.702  1.00  0.00     0.159 HD
HETATM   26  H   UNL     1     -15.454  -0.609 -34.382  1.00  0.00     0.159 HD
HETATM   27  O   UNL     1     -13.187  -0.931 -33.332  1.00  0.00    -0.266 OA
ENDBRANCH   9  23
TORSDOF 3
ENDMDL
MODEL 3
REMARK VINA RESULT:      -8.5      3.791      7.941
REMARK  3 active torsions:
REMARK  status: ('A' for Active; 'I' for Inactive)
REMARK    1  A    between atoms: C_2  and  N_3 
REMARK       I    between atoms: N_3  and  C_4 
REMARK    2  A    between atoms: C_4  and  C_5 
REMARK    3  A    between atoms: C_20  and  C_21 
REMARK       I    between atoms: C_21  and  N_22 
ROOT
HETATM    1  C   UNL     1      -6.440   0.802 -33.522  1.00  0.00     0.032 A 
HETATM    2  C   UNL     1      -7.504   0.061 -34.040  1.00  0.00     0.036 A 
HETATM    3  C   UNL     1      -7.312  -1.295 -34.355  1.00  0.00     0.046 A 
HETATM    4  C   UNL     1      -6.051  -1.892 -34.150  1.00  0.00     0.030 A 
HETATM    5  C   UNL     1      -5.020  -1.116 -33.640  1.00  0.00     0.063 A 
HETATM    6  N   UNL     1      -3.942  -1.954 -33.561  1.00  0.00    -0.277 N 
HETATM    7  H   UNL     1      -3.010  -1.725 -33.234  1.00  0.00     0.189 HD
HETATM    8  N   UNL     1      -4.185  -3.212 -33.967  1.00  0.00    -0.168 NA
HETATM    9  C   UNL     1      -5.486  -3.188 -34.333  1.00  0.00     0.156 A 
HETATM   10  C   UNL     1      -5.175   0.232 -33.314  1.00  0.00     0.034 A 
ENDROOT
BRANCH   2  11
HETATM   11  N   UNL     1      -8.794   0.588 -34.277  1.00  0.00    -0.323 N 
HETATM   12  C   UNL     1      -9.905   0.479 -33.461  1.00  0.00     0.256 C 
HETATM   13  O   UNL     1      -9.964  -0.064 -32.365  1.00  0.00    -0.267 OA
HETATM   14  H   UNL     1      -8.873   1.153 -35.113  1.00  0.00     0.169 HD
BRANCH  12  15
HETATM   15  C   UNL     1     -11.145   1.126 -33.972  1.00  0.00     0.038 A 
HETATM   16  C   UNL     1     -12.394   0.512 -33.894  1.00  0.00     0.061 A 
HETATM   17  C   UNL     1     -13.476   1.212 -34.394  1.00  0.00     0.128 A 
HETATM   18 CL   UNL     1     -15.051   0.534 -34.349  1.00  0.00    -0.062 Cl
HETATM   19  N   UNL     1     -13.412   2.438 -34.940  1.00  0.00    -0.225 NA
HETATM   20  C   UNL     1     -12.193   3.006 -34.975  1.00  0.00     0.128 A 
HETATM   21 CL   UNL     1     -12.156   4.576 -35.663  1.00  0.00    -0.062 Cl
HETATM   22  C   UNL     1     -11.039   2.409 -34.511  1.00  0.00     0.061 A 
ENDBRANCH  12  15
ENDBRANCH   2  11
BRANCH   9  23
HETATM   23  C   UNL     1      -6.165  -4.387 -34.843  1.00  0.00     0.270 C 
HETATM   24  N   UNL     1      -7.457  -4.522 -34.415  1.00  0.00    -0.365 N 
HETATM   25  H   UNL     1      -7.843  -3.813 -33.803  1.00  0.00     0.159 HD
HETATM   26  H   UNL     1      -8.008  -5.311 -34.717  1.00  0.00     0.159 HD
HETATM   27  O   UNL     1      -5.647  -5.211 -35.591  1.00  0.00    -0.266 OA
ENDBRANCH   9  23
TORSDOF 3
ENDMDL
MODEL 4
REMARK VINA RESULT:      -8.5      3.790      7.823
REMARK  3 active torsions:
REMARK  status: ('A' for Active; 'I' for Inactive)
REMARK    1  A    between atoms: C_2  and  N_3 
REMARK       I    between atoms: N_3  and  C_4 
REMARK    2  A    between atoms: C_4  and  C_5 
REMARK    3  A    between atoms: C_20  and  C_21 
REMARK       I    between atoms: C_21  and  N_22 
ROOT
HETATM    1  C   UNL     1      -6.402   0.757 -33.582  1.00  0.00     0.032 A 
HETATM    2  C   UNL     1      -7.472   0.024 -34.100  1.00  0.00     0.036 A 
HETATM    3  C   UNL     1      -7.291  -1.336 -34.409  1.00  0.00     0.046 A 
HETATM    4  C   UNL     1      -6.036  -1.942 -34.199  1.00  0.00     0.030 A 
HETATM    5  C   UNL     1      -4.999  -1.175 -33.690  1.00  0.00     0.063 A 
HETATM    6  N   UNL     1      -3.928  -2.021 -33.605  1.00  0.00    -0.277 N 
HETATM    7  H   UNL     1      -2.996  -1.799 -33.277  1.00  0.00     0.189 HD
HETATM    8  N   UNL     1      -4.182  -3.279 -34.007  1.00  0.00    -0.168 NA
HETATM    9  C   UNL     1      -5.482  -3.245 -34.376  1.00  0.00     0.156 A 
HETATM   10  C   UNL     1      -5.142   0.176 -33.369  1.00  0.00     0.034 A 
ENDROOT
BRANCH   2  11
HETATM   11  N   UNL     1      -8.756   0.561 -34.342  1.00  0.00    -0.323 N 
HETATM   12  C   UNL     1      -9.778   0.731 -33.426  1.00  0.00     0.256 C 
HETATM   13  O   UNL     1      -9.743   0.478 -32.228  1.00  0.00    -0.267 OA
HETATM   14  H   UNL     1      -8.899   0.907 -35.282  1.00  0.00     0.169 HD
BRANCH  12  15
HETATM   15  C   UNL     1     -11.037   1.313 -33.966  1.00  0.00     0.038 A 
HETATM   16  C   UNL     1     -11.071   2.543 -34.621  1.00  0.00     0.061 A 
HETATM   17  C   UNL     1     -12.297   2.979 -35.088  1.00  0.00     0.128 A 
HETATM   18 CL   UNL     1     -12.437   4.484 -35.898  1.00  0.00    -0.062 Cl
HETATM   19  N   UNL     1     -13.451   2.302 -34.962  1.00  0.00    -0.225 NA
HETATM   20  C   UNL     1     -13.373   1.110 -34.346  1.00  0.00     0.128 A 
HETATM   21 CL   UNL     1     -14.863   0.271 -34.221  1.00  0.00    -0.062 Cl
HETATM   22  C   UNL     1     -12.211   0.568 -33.836  1.00  0.00     0.061 A 
ENDBRANCH  12  15
ENDBRANCH   2  11
BRANCH   9  23
HETATM   23  C   UNL     1      -6.171  -4.439 -34.883  1.00  0.00     0.270 C 
HETATM   24  N   UNL     1      -7.466  -4.561 -34.459  1.00  0.00    -0.365 N 
HETATM   25  H   UNL     1      -7.846  -3.846 -33.851  1.00  0.00     0.159 HD
HETATM   26  H   UNL     1      -8.023  -5.345 -34.760  1.00  0.00     0.159 HD
HETATM   27  O   UNL     1      -5.658  -5.271 -35.626  1.00  0.00    -0.266 OA
ENDBRANCH   9  23
TORSDOF 3
ENDMDL
MODEL 5
REMARK VINA RESULT:      -8.1      3.647      8.050
REMARK  3 active torsions:
REMARK  status: ('A' for Active; 'I' for Inactive)
REMARK    1  A    between atoms: C_2  and  N_3 
REMARK       I    between atoms: N_3  and  C_4 
REMARK    2  A    between atoms: C_4  and  C_5 
REMARK    3  A    between atoms: C_20  and  C_21 
REMARK       I    between atoms: C_21  and  N_22 
ROOT
HETATM    1  C   UNL     1      -6.445   0.967 -31.188  1.00  0.00     0.032 A 
HETATM    2  C   UNL     1      -7.044   0.273 -32.241  1.00  0.00     0.036 A 
HETATM    3  C   UNL     1      -6.340  -0.767 -32.872  1.00  0.00     0.046 A 
HETATM    4  C   UNL     1      -5.038  -1.095 -32.441  1.00  0.00     0.030 A 
HETATM    5  C   UNL     1      -4.478  -0.375 -31.395  1.00  0.00     0.063 A 
HETATM    6  N   UNL     1      -3.233  -0.909 -31.213  1.00  0.00    -0.277 N 
HETATM    7  H   UNL     1      -2.537  -0.624 -30.533  1.00  0.00     0.189 HD
HETATM    8  N   UNL     1      -2.936  -1.923 -32.044  1.00  0.00    -0.168 NA
HETATM    9  C   UNL     1      -4.044  -2.050 -32.807  1.00  0.00     0.156 A 
HETATM   10  C   UNL     1      -5.149   0.662 -30.744  1.00  0.00     0.034 A 
ENDROOT
BRANCH   2  11
HETATM   11  N   UNL     1      -8.341   0.545 -32.732  1.00  0.00    -0.323 N 
HETATM   12  C   UNL     1      -8.742   1.640 -33.475  1.00  0.00     0.256 C 
HETATM   13  O   UNL     1      -8.036   2.557 -33.876  1.00  0.00    -0.267 OA
HETATM   14  H   UNL     1      -9.021  -0.184 -32.557  1.00  0.00     0.169 HD
BRANCH  12  15
HETATM   15  C   UNL     1     -10.183   1.674 -33.846  1.00  0.00     0.038 A 
HETATM   16  C   UNL     1     -11.066   0.650 -33.508  1.00  0.00     0.061 A 
HETATM   17  C   UNL     1     -12.384   0.795 -33.899  1.00  0.00     0.128 A 
HETATM   18 CL   UNL     1     -13.541  -0.418 -33.535  1.00  0.00    -0.062 Cl
HETATM   19  N   UNL     1     -12.874   1.849 -34.573  1.00  0.00    -0.225 NA
HETATM   20  C   UNL     1     -11.996   2.827 -34.860  1.00  0.00     0.128 A 
HETATM   21 CL   UNL     1     -12.663   4.161 -35.703  1.00  0.00    -0.062 Cl
HETATM   22  C   UNL     1     -10.658   2.798 -34.525  1.00  0.00     0.061 A 
ENDBRANCH  12  15
ENDBRANCH   2  11
BRANCH   9  23
HETATM   23  C   UNL     1      -4.141  -3.068 -33.862  1.00  0.00     0.270 C 
HETATM   24  N   UNL     1      -3.621  -4.285 -33.515  1.00  0.00    -0.365 N 
HETATM   25  H   UNL     1      -3.224  -4.397 -32.590  1.00  0.00     0.159 HD
HETATM   26  H   UNL     1      -3.647  -5.050 -34.171  1.00  0.00     0.159 HD
HETATM   27  O   UNL     1      -4.640  -2.875 -34.967  1.00  0.00    -0.266 OA
ENDBRANCH   9  23
TORSDOF 3
ENDMDL
MODEL 6
REMARK VINA RESULT:      -7.9      5.580      8.089
REMARK  3 active torsions:
REMARK  status: ('A' for Active; 'I' for Inactive)
REMARK    1  A    between atoms: C_2  and  N_3 
REMARK       I    between atoms: N_3  and  C_4 
REMARK    2  A    between atoms: C_4  and  C_5 
REMARK    3  A    between atoms: C_20  and  C_21 
REMARK       I    between atoms: C_21  and  N_22 
ROOT
HETATM    1  C   UNL     1      -6.763  -0.086 -34.321  1.00  0.00     0.032 A 
HETATM    2  C   UNL     1      -5.546  -0.035 -33.638  1.00  0.00     0.036 A 
HETATM    3  C   UNL     1      -4.801  -1.214 -33.466  1.00  0.00     0.046 A 
HETATM    4  C   UNL     1      -5.289  -2.434 -33.978  1.00  0.00     0.030 A 
HETATM    5  C   UNL     1      -6.506  -2.441 -34.643  1.00  0.00     0.063 A 
HETATM    6  N   UNL     1      -6.712  -3.742 -35.009  1.00  0.00    -0.277 N 
HETATM    7  H   UNL     1      -7.507  -4.119 -35.512  1.00  0.00     0.189 HD
HETATM    8  N   UNL     1      -5.727  -4.583 -34.647  1.00  0.00    -0.168 NA
HETATM    9  C   UNL     1      -4.840  -3.787 -34.010  1.00  0.00     0.156 A 
HETATM   10  C   UNL     1      -7.272  -1.289 -34.835  1.00  0.00     0.034 A 
ENDROOT
BRANCH   2  11
HETATM   11  N   UNL     1      -4.994   1.147 -33.095  1.00  0.00    -0.323 N 
HETATM   12  C   UNL     1      -5.402   1.814 -31.954  1.00  0.00     0.256 C 
HETATM   13  O   UNL     1      -6.296   1.481 -31.186  1.00  0.00    -0.267 OA
HETATM   14  H   UNL     1      -4.174   1.491 -33.578  1.00  0.00     0.169 HD
BRANCH  12  15
HETATM   15  C   UNL     1      -4.641   3.050 -31.624  1.00  0.00     0.038 A 
HETATM   16  C   UNL     1      -3.360   3.294 -32.117  1.00  0.00     0.061 A 
HETATM   17  C   UNL     1      -2.754   4.480 -31.749  1.00  0.00     0.128 A 
HETATM   18 CL   UNL     1      -1.176   4.862 -32.301  1.00  0.00    -0.062 Cl
HETATM   19  N   UNL     1      -3.311   5.414 -30.959  1.00  0.00    -0.225 NA
HETATM   20  C   UNL     1      -4.556   5.152 -30.522  1.00  0.00     0.128 A 
HETATM   21 CL   UNL     1      -5.237   6.375 -29.532  1.00  0.00    -0.062 Cl
HETATM   22  C   UNL     1      -5.264   4.006 -30.819  1.00  0.00     0.061 A 
ENDBRANCH  12  15
ENDBRANCH   2  11
BRANCH   9  23
HETATM   23  C   UNL     1      -3.591  -4.320 -33.449  1.00  0.00     0.270 C 
HETATM   24  N   UNL     1      -2.997  -5.281 -34.220  1.00  0.00    -0.365 N 
HETATM   25  H   UNL     1      -3.439  -5.547 -35.091  1.00  0.00     0.159 HD
HETATM   26  H   UNL     1      -2.131  -5.703 -33.920  1.00  0.00     0.159 HD
HETATM   27  O   UNL     1      -3.098  -3.953 -32.387  1.00  0.00    -0.266 OA
ENDBRANCH   9  23
TORSDOF 3
ENDMDL
MODEL 7
REMARK VINA RESULT:      -7.9      3.985      8.147
REMARK  3 active torsions:
REMARK  status: ('A' for Active; 'I' for Inactive)
REMARK    1  A    between atoms: C_2  and  N_3 
REMARK       I    between atoms: N_3  and  C_4 
REMARK    2  A    between atoms: C_4  and  C_5 
REMARK    3  A    between atoms: C_20  and  C_21 
REMARK       I    between atoms: C_21  and  N_22 
ROOT
HETATM    1  C   UNL     1      -7.101  -1.391 -34.602  1.00  0.00     0.032 A 
HETATM    2  C   UNL     1      -7.458  -0.169 -34.027  1.00  0.00     0.036 A 
HETATM    3  C   UNL     1      -6.550   0.485 -33.176  1.00  0.00     0.046 A 
HETATM    4  C   UNL     1      -5.294  -0.098 -32.908  1.00  0.00     0.030 A 
HETATM    5  C   UNL     1      -4.984  -1.317 -33.495  1.00  0.00     0.063 A 
HETATM    6  N   UNL     1      -3.728  -1.624 -33.050  1.00  0.00    -0.277 N 
HETATM    7  H   UNL     1      -3.183  -2.448 -33.274  1.00  0.00     0.189 HD
HETATM    8  N   UNL     1      -3.189  -0.704 -32.231  1.00  0.00    -0.168 NA
HETATM    9  C   UNL     1      -4.146   0.245 -32.135  1.00  0.00     0.156 A 
HETATM   10  C   UNL     1      -5.859  -1.993 -34.346  1.00  0.00     0.034 A 
ENDROOT
BRANCH   2  11
HETATM   11  N   UNL     1      -8.697   0.475 -34.243  1.00  0.00    -0.323 N 
HETATM   12  C   UNL     1      -9.812   0.441 -33.427  1.00  0.00     0.256 C 
HETATM   13  O   UNL     1      -9.917  -0.126 -32.346  1.00  0.00    -0.267 OA
HETATM   14  H   UNL     1      -8.727   1.067 -35.063  1.00  0.00     0.169 HD
BRANCH  12  15
HETATM   15  C   UNL     1     -10.991   1.208 -33.915  1.00  0.00     0.038 A 
HETATM   16  C   UNL     1     -10.878   2.484 -34.464  1.00  0.00     0.061 A 
HETATM   17  C   UNL     1     -12.041   3.096 -34.891  1.00  0.00     0.128 A 
HETATM   18 CL   UNL     1     -12.001   4.669 -35.573  1.00  0.00    -0.062 Cl
HETATM   19  N   UNL     1     -13.267   2.549 -34.821  1.00  0.00    -0.225 NA
HETATM   20  C   UNL     1     -13.332   1.308 -34.306  1.00  0.00     0.128 A 
HETATM   21 CL   UNL     1     -14.909   0.640 -34.250  1.00  0.00    -0.062 Cl
HETATM   22  C   UNL     1     -12.244   0.595 -33.845  1.00  0.00     0.061 A 
ENDBRANCH  12  15
ENDBRANCH   2  11
BRANCH   9  23
HETATM   23  C   UNL     1      -3.955   1.453 -31.321  1.00  0.00     0.270 C 
HETATM   24  N   UNL     1      -4.978   1.707 -30.449  1.00  0.00    -0.365 N 
HETATM   25  H   UNL     1      -5.763   1.069 -30.423  1.00  0.00     0.159 HD
HETATM   26  H   UNL     1      -4.935   2.512 -29.843  1.00  0.00     0.159 HD
HETATM   27  O   UNL     1      -2.975   2.188 -31.393  1.00  0.00    -0.266 OA
ENDBRANCH   9  23
TORSDOF 3
ENDMDL
MODEL 8
REMARK VINA RESULT:      -7.9      2.165      3.438
REMARK  3 active torsions:
REMARK  status: ('A' for Active; 'I' for Inactive)
REMARK    1  A    between atoms: C_2  and  N_3 
REMARK       I    between atoms: N_3  and  C_4 
REMARK    2  A    between atoms: C_4  and  C_5 
REMARK    3  A    between atoms: C_20  and  C_21 
REMARK       I    between atoms: C_21  and  N_22 
ROOT
HETATM    1  C   UNL     1     -11.073   0.752 -33.572  1.00  0.00     0.032 A 
HETATM    2  C   UNL     1      -9.795   1.211 -33.901  1.00  0.00     0.036 A 
HETATM    3  C   UNL     1      -9.616   2.561 -34.251  1.00  0.00     0.046 A 
HETATM    4  C   UNL     1     -10.723   3.433 -34.273  1.00  0.00     0.030 A 
HETATM    5  C   UNL     1     -11.975   2.934 -33.946  1.00  0.00     0.063 A 
HETATM    6  N   UNL     1     -12.831   3.994 -34.062  1.00  0.00    -0.277 N 
HETATM    7  H   UNL     1     -13.831   3.995 -33.901  1.00  0.00     0.189 HD
HETATM    8  N   UNL     1     -12.241   5.146 -34.426  1.00  0.00    -0.168 NA
HETATM    9  C   UNL     1     -10.938   4.814 -34.559  1.00  0.00     0.156 A 
HETATM   10  C   UNL     1     -12.190   1.601 -33.591  1.00  0.00     0.034 A 
ENDROOT
BRANCH   2  11
HETATM   11  N   UNL     1      -8.640   0.398 -33.906  1.00  0.00    -0.323 N 
HETATM   12  C   UNL     1      -7.850   0.059 -32.822  1.00  0.00     0.256 C 
HETATM   13  O   UNL     1      -8.031   0.373 -31.652  1.00  0.00    -0.267 OA
HETATM   14  H   UNL     1      -8.419  -0.017 -34.802  1.00  0.00     0.169 HD
BRANCH  12  15
HETATM   15  C   UNL     1      -6.678  -0.807 -33.125  1.00  0.00     0.038 A 
HETATM   16  C   UNL     1      -5.446  -0.646 -32.493  1.00  0.00     0.061 A 
HETATM   17  C   UNL     1      -4.433  -1.515 -32.849  1.00  0.00     0.128 A 
HETATM   18 CL   UNL     1      -2.881  -1.388 -32.131  1.00  0.00    -0.062 Cl
HETATM   19  N   UNL     1      -4.551  -2.504 -33.752  1.00  0.00    -0.225 NA
HETATM   20  C   UNL     1      -5.761  -2.642 -34.322  1.00  0.00     0.128 A 
HETATM   21 CL   UNL     1      -5.875  -3.924 -35.454  1.00  0.00    -0.062 Cl
HETATM   22  C   UNL     1      -6.849  -1.838 -34.051  1.00  0.00     0.061 A 
ENDBRANCH  12  15
ENDBRANCH   2  11
BRANCH   9  23
HETATM   23  C   UNL     1      -9.926   5.805 -34.950  1.00  0.00     0.270 C 
HETATM   24  N   UNL     1      -9.056   6.142 -33.948  1.00  0.00    -0.365 N 
HETATM   25  H   UNL     1      -9.163   5.700 -33.044  1.00  0.00     0.159 HD
HETATM   26  H   UNL     1      -8.322   6.810 -34.122  1.00  0.00     0.159 HD
HETATM   27  O   UNL     1      -9.841   6.304 -36.068  1.00  0.00    -0.266 OA
ENDBRANCH   9  23
TORSDOF 3
ENDMDL
MODEL 9
REMARK VINA RESULT:      -7.8      3.645      8.061
REMARK  3 active torsions:
REMARK  status: ('A' for Active; 'I' for Inactive)
REMARK    1  A    between atoms: C_2  and  N_3 
REMARK       I    between atoms: N_3  and  C_4 
REMARK    2  A    between atoms: C_4  and  C_5 
REMARK    3  A    between atoms: C_20  and  C_21 
REMARK       I    between atoms: C_21  and  N_22 
ROOT
HETATM    1  C   UNL     1      -5.378   0.939 -31.606  1.00  0.00     0.032 A 
HETATM    2  C   UNL     1      -6.145   0.345 -32.610  1.00  0.00     0.036 A 
HETATM    3  C   UNL     1      -5.741  -0.890 -33.147  1.00  0.00     0.046 A 
HETATM    4  C   UNL     1      -4.568  -1.512 -32.673  1.00  0.00     0.030 A 
HETATM    5  C   UNL     1      -3.832  -0.882 -31.680  1.00  0.00     0.063 A 
HETATM    6  N   UNL     1      -2.768  -1.707 -31.438  1.00  0.00    -0.277 N 
HETATM    7  H   UNL     1      -2.018  -1.561 -30.773  1.00  0.00     0.189 HD
HETATM    8  N   UNL     1      -2.754  -2.826 -32.183  1.00  0.00    -0.168 NA
HETATM    9  C   UNL     1      -3.861  -2.719 -32.950  1.00  0.00     0.156 A 
HETATM   10  C   UNL     1      -4.204   0.342 -31.121  1.00  0.00     0.034 A 
ENDROOT
BRANCH   2  11
HETATM   11  N   UNL     1      -7.329   0.907 -33.139  1.00  0.00    -0.323 N 
HETATM   12  C   UNL     1      -8.595   0.864 -32.585  1.00  0.00     0.256 C 
HETATM   13  O   UNL     1      -8.915   0.361 -31.516  1.00  0.00    -0.267 OA
HETATM   14  H   UNL     1      -7.199   1.445 -33.986  1.00  0.00     0.169 HD
BRANCH  12  15
HETATM   15  C   UNL     1      -9.666   1.534 -33.373  1.00  0.00     0.038 A 
HETATM   16  C   UNL     1      -9.487   2.784 -33.965  1.00  0.00     0.061 A 
HETATM   17  C   UNL     1     -10.549   3.304 -34.680  1.00  0.00     0.128 A 
HETATM   18 CL   UNL     1     -10.425   4.839 -35.435  1.00  0.00    -0.062 Cl
HETATM   19  N   UNL     1     -11.733   2.692 -34.851  1.00  0.00    -0.225 NA
HETATM   20  C   UNL     1     -11.858   1.478 -34.285  1.00  0.00     0.128 A 
HETATM   21 CL   UNL     1     -13.375   0.723 -34.541  1.00  0.00    -0.062 Cl
HETATM   22  C   UNL     1     -10.873   0.855 -33.548  1.00  0.00     0.061 A 
ENDBRANCH  12  15
ENDBRANCH   2  11
BRANCH   9  23
HETATM   23  C   UNL     1      -4.228  -3.757 -33.924  1.00  0.00     0.270 C 
HETATM   24  N   UNL     1      -3.694  -4.987 -33.657  1.00  0.00    -0.365 N 
HETATM   25  H   UNL     1      -3.108  -5.096 -32.838  1.00  0.00     0.159 HD
HETATM   26  H   UNL     1      -3.894  -5.766 -34.266  1.00  0.00     0.159 HD
HETATM   27  O   UNL     1      -4.950  -3.567 -34.898  1.00  0.00    -0.266 OA
ENDBRANCH   9  23
TORSDOF 3
ENDMDL
MODEL 10
REMARK VINA RESULT:      -7.7      2.014      3.751
REMARK  3 active torsions:
REMARK  status: ('A' for Active; 'I' for Inactive)
REMARK    1  A    between atoms: C_2  and  N_3 
REMARK       I    between atoms: N_3  and  C_4 
REMARK    2  A    between atoms: C_4  and  C_5 
REMARK    3  A    between atoms: C_20  and  C_21 
REMARK       I    between atoms: C_21  and  N_22 
ROOT
HETATM    1  C   UNL     1     -10.749   0.524 -33.466  1.00  0.00     0.032 A 
HETATM    2  C   UNL     1      -9.488   1.101 -33.630  1.00  0.00     0.036 A 
HETATM    3  C   UNL     1      -9.390   2.444 -34.032  1.00  0.00     0.046 A 
HETATM    4  C   UNL     1     -10.561   3.192 -34.271  1.00  0.00     0.030 A 
HETATM    5  C   UNL     1     -11.793   2.578 -34.104  1.00  0.00     0.063 A 
HETATM    6  N   UNL     1     -12.721   3.535 -34.409  1.00  0.00    -0.277 N 
HETATM    7  H   UNL     1     -13.729   3.436 -34.399  1.00  0.00     0.189 HD
HETATM    8  N   UNL     1     -12.198   4.725 -34.752  1.00  0.00    -0.168 NA
HETATM    9  C   UNL     1     -10.863   4.528 -34.670  1.00  0.00     0.156 A 
HETATM   10  C   UNL     1     -11.929   1.248 -33.702  1.00  0.00     0.034 A 
ENDROOT
BRANCH   2  11
HETATM   11  N   UNL     1      -8.271   0.416 -33.413  1.00  0.00    -0.323 N 
HETATM   12  C   UNL     1      -7.334   0.053 -34.364  1.00  0.00     0.256 C 
HETATM   13  O   UNL     1      -7.372   0.292 -35.564  1.00  0.00    -0.267 OA
HETATM   14  H   UNL     1      -8.056   0.234 -32.441  1.00  0.00     0.169 HD
BRANCH  12  15
HETATM   15  C   UNL     1      -6.144  -0.678 -33.849  1.00  0.00     0.038 A 
HETATM   16  C   UNL     1      -5.770  -1.931 -34.330  1.00  0.00     0.061 A 
HETATM   17  C   UNL     1      -4.641  -2.509 -33.782  1.00  0.00     0.128 A 
HETATM   18 CL   UNL     1      -4.109  -4.053 -34.306  1.00  0.00    -0.062 Cl
HETATM   19  N   UNL     1      -3.877  -1.950 -32.828  1.00  0.00    -0.225 NA
HETATM   20  C   UNL     1      -4.258  -0.731 -32.407  1.00  0.00     0.128 A 
HETATM   21 CL   UNL     1      -3.249  -0.045 -31.203  1.00  0.00    -0.062 Cl
HETATM   22  C   UNL     1      -5.364  -0.052 -32.875  1.00  0.00     0.061 A 
ENDBRANCH  12  15
ENDBRANCH   2  11
BRANCH   9  23
HETATM   23  C   UNL     1      -9.906   5.602 -34.967  1.00  0.00     0.270 C 
HETATM   24  N   UNL     1      -9.107   5.947 -33.911  1.00  0.00    -0.365 N 
HETATM   25  H   UNL     1      -9.224   5.456 -33.033  1.00  0.00     0.159 HD
HETATM   26  H   UNL     1      -8.414   6.671 -34.019  1.00  0.00     0.159 HD
HETATM   27  O   UNL     1      -9.805   6.158 -36.056  1.00  0.00    -0.266 OA
ENDBRANCH   9  23
TORSDOF 3
ENDMDL
