MODEL 1
REMARK VINA RESULT:      -9.6      0.000      0.000
REMARK  6 active torsions:
REMARK  status: ('A' for Active; 'I' for Inactive)
REMARK    1  A    between atoms: C_2  and  O_3 
REMARK    2  A    between atoms: O_3  and  C_4 
REMARK    3  A    between atoms: C_5  and  O_6 
REMARK    4  A    between atoms: O_6  and  C_7 
REMARK    5  A    between atoms: C_7  and  C_8 
REMARK    6  A    between atoms: C_18  and  C_19 
ROOT
HETATM    1  C   UNL     1      -4.258   3.059 -32.013  1.00  0.00     0.103 A 
HETATM    2  C   UNL     1      -5.504   3.634 -32.264  1.00  0.00     0.112 A 
HETATM    3  C   UNL     1      -5.616   4.935 -32.746  1.00  0.00     0.041 A 
HETATM    4  C   UNL     1      -4.460   5.632 -33.098  1.00  0.00     0.014 A 
HETATM    5  C   UNL     1      -3.188   5.035 -32.976  1.00  0.00    -0.013 A 
HETATM    6  C   UNL     1      -3.106   3.757 -32.384  1.00  0.00     0.050 A 
ENDROOT
BRANCH   5   7
HETATM    7  C   UNL     1      -1.971   5.758 -33.554  1.00  0.00     0.219 C 
HETATM    8  N   UNL     1      -2.029   7.198 -33.460  1.00  0.00    -0.332 N 
HETATM    9  C   UNL     1      -1.731   7.879 -32.304  1.00  0.00     0.256 C 
HETATM   10  H   UNL     1      -2.597   7.700 -34.124  1.00  0.00     0.165 HD
HETATM   11  O   UNL     1      -2.083   9.039 -32.127  1.00  0.00    -0.267 OA
HETATM   12  C   UNL     1      -0.999   7.114 -31.309  1.00  0.00     0.073 A 
HETATM   13  C   UNL     1      -0.525   5.871 -31.657  1.00  0.00     0.088 A 
HETATM   14  C   UNL     1      -0.695   7.433 -29.949  1.00  0.00    -0.023 A 
HETATM   15  S   UNL     1       0.329   5.113 -30.401  1.00  0.00    -0.074 SA
HETATM   16  N   UNL     1      -0.757   5.320 -32.873  1.00  0.00    -0.358 N 
HETATM   17  C   UNL     1       0.018   6.412 -29.345  1.00  0.00     0.018 A 
HETATM   18  C   UNL     1       0.443   6.390 -27.919  1.00  0.00     0.281 C 
HETATM   19  N   UNL     1       0.341   7.774 -27.286  1.00  0.00    -0.070 N 
HETATM   20  C   UNL     1      -0.955   8.479 -27.681  1.00  0.00     0.239 C 
HETATM   21  H   UNL     1       0.289   7.615 -26.272  1.00  0.00     0.279 HD
HETATM   22  C   UNL     1       1.568   8.607 -27.521  1.00  0.00     0.270 C 
HETATM   23  C   UNL     1      -1.071   8.678 -29.203  1.00  0.00     0.068 C 
HETATM   24  H   UNL     1      -0.559   4.329 -32.977  1.00  0.00     0.162 HD
ENDBRANCH   5   7
BRANCH   1  25
HETATM   25  O   UNL     1      -4.242   1.795 -31.486  1.00  0.00    -0.349 OA
BRANCH  25  26
HETATM   26  C   UNL     1      -3.455   0.852 -32.219  1.00  0.00     0.171 C 
HETATM   27  C   UNL     1      -3.326  -0.406 -31.379  1.00  0.00     0.034 C 
ENDBRANCH  25  26
ENDBRANCH   1  25
BRANCH   2  28
HETATM   28  O   UNL     1      -6.652   2.885 -32.000  1.00  0.00    -0.272 OA
BRANCH  28  29
HETATM   29  C   UNL     1      -7.360   2.639 -33.160  1.00  0.00     0.298 C 
HETATM   30  O   UNL     1      -8.052   3.414 -33.805  1.00  0.00    -0.259 OA
BRANCH  29  31
HETATM   31  C   UNL     1      -7.195   1.217 -33.536  1.00  0.00     0.040 A 
HETATM   32  C   UNL     1      -7.162   0.883 -34.896  1.00  0.00     0.019 A 
HETATM   33  C   UNL     1      -6.944  -0.441 -35.284  1.00  0.00     0.020 A 
HETATM   34  C   UNL     1      -6.745  -1.421 -34.312  1.00  0.00     0.011 A 
HETATM   35 BR   UNL     1      -6.420  -3.207 -34.838  1.00  0.00    -0.051 Br
HETATM   36  C   UNL     1      -6.769  -1.093 -32.955  1.00  0.00     0.020 A 
HETATM   37  C   UNL     1      -6.996   0.228 -32.564  1.00  0.00     0.019 A 
ENDBRANCH  29  31
ENDBRANCH  28  29
ENDBRANCH   2  28
TORSDOF 6
ENDMDL
MODEL 2
REMARK VINA RESULT:      -9.2      1.881      2.076
REMARK  6 active torsions:
REMARK  status: ('A' for Active; 'I' for Inactive)
REMARK    1  A    between atoms: C_2  and  O_3 
REMARK    2  A    between atoms: O_3  and  C_4 
REMARK    3  A    between atoms: C_5  and  O_6 
REMARK    4  A    between atoms: O_6  and  C_7 
REMARK    5  A    between atoms: C_7  and  C_8 
REMARK    6  A    between atoms: C_18  and  C_19 
ROOT
HETATM    1  C   UNL     1      -4.332   3.128 -32.212  1.00  0.00     0.103 A 
HETATM    2  C   UNL     1      -5.566   3.569 -32.691  1.00  0.00     0.112 A 
HETATM    3  C   UNL     1      -5.689   4.784 -33.360  1.00  0.00     0.041 A 
HETATM    4  C   UNL     1      -4.540   5.515 -33.660  1.00  0.00     0.014 A 
HETATM    5  C   UNL     1      -3.262   5.037 -33.300  1.00  0.00    -0.013 A 
HETATM    6  C   UNL     1      -3.184   3.858 -32.531  1.00  0.00     0.050 A 
ENDROOT
BRANCH   5   7
HETATM    7  C   UNL     1      -2.023   5.768 -33.820  1.00  0.00     0.219 C 
HETATM    8  N   UNL     1      -2.071   7.205 -33.674  1.00  0.00    -0.332 N 
HETATM    9  C   UNL     1      -1.799   7.840 -32.487  1.00  0.00     0.256 C 
HETATM   10  H   UNL     1      -2.617   7.736 -34.334  1.00  0.00     0.165 HD
HETATM   11  O   UNL     1      -2.145   8.996 -32.277  1.00  0.00    -0.267 OA
HETATM   12  C   UNL     1      -1.101   7.033 -31.501  1.00  0.00     0.073 A 
HETATM   13  C   UNL     1      -0.629   5.798 -31.882  1.00  0.00     0.088 A 
HETATM   14  C   UNL     1      -0.830   7.299 -30.123  1.00  0.00    -0.023 A 
HETATM   15  S   UNL     1       0.185   4.987 -30.632  1.00  0.00    -0.074 SA
HETATM   16  N   UNL     1      -0.832   5.294 -33.123  1.00  0.00    -0.358 N 
HETATM   17  C   UNL     1      -0.143   6.250 -29.538  1.00  0.00     0.018 A 
HETATM   18  C   UNL     1       0.243   6.171 -28.103  1.00  0.00     0.281 C 
HETATM   19  N   UNL     1       0.136   7.533 -27.422  1.00  0.00    -0.070 N 
HETATM   20  C   UNL     1      -1.142   8.264 -27.825  1.00  0.00     0.239 C 
HETATM   21  H   UNL     1       0.056   7.337 -26.416  1.00  0.00     0.279 HD
HETATM   22  C   UNL     1       1.376   8.361 -27.594  1.00  0.00     0.270 C 
HETATM   23  C   UNL     1      -1.215   8.519 -29.342  1.00  0.00     0.068 C 
HETATM   24  H   UNL     1      -0.641   4.306 -33.258  1.00  0.00     0.162 HD
ENDBRANCH   5   7
BRANCH   1  25
HETATM   25  O   UNL     1      -4.312   1.948 -31.516  1.00  0.00    -0.349 OA
BRANCH  25  26
HETATM   26  C   UNL     1      -3.669   0.865 -32.195  1.00  0.00     0.171 C 
HETATM   27  C   UNL     1      -4.576  -0.348 -32.107  1.00  0.00     0.034 C 
ENDBRANCH  25  26
ENDBRANCH   1  25
BRANCH   2  28
HETATM   28  O   UNL     1      -6.693   2.776 -32.470  1.00  0.00    -0.272 OA
BRANCH  28  29
HETATM   29  C   UNL     1      -7.011   2.042 -33.595  1.00  0.00     0.298 C 
HETATM   30  O   UNL     1      -6.280   1.718 -34.521  1.00  0.00    -0.259 OA
BRANCH  29  31
HETATM   31  C   UNL     1      -8.451   1.701 -33.561  1.00  0.00     0.040 A 
HETATM   32  C   UNL     1      -9.356   2.551 -34.208  1.00  0.00     0.019 A 
HETATM   33  C   UNL     1     -10.714   2.224 -34.248  1.00  0.00     0.020 A 
HETATM   34  C   UNL     1     -11.157   1.042 -33.655  1.00  0.00     0.011 A 
HETATM   35 BR   UNL     1     -12.989   0.584 -33.736  1.00  0.00    -0.051 Br
HETATM   36  C   UNL     1     -10.258   0.187 -33.015  1.00  0.00     0.020 A 
HETATM   37  C   UNL     1      -8.902   0.516 -32.964  1.00  0.00     0.019 A 
ENDBRANCH  29  31
ENDBRANCH  28  29
ENDBRANCH   2  28
TORSDOF 6
ENDMDL
MODEL 3
REMARK VINA RESULT:      -8.9      1.153      2.086
REMARK  6 active torsions:
REMARK  status: ('A' for Active; 'I' for Inactive)
REMARK    1  A    between atoms: C_2  and  O_3 
REMARK    2  A    between atoms: O_3  and  C_4 
REMARK    3  A    between atoms: C_5  and  O_6 
REMARK    4  A    between atoms: O_6  and  C_7 
REMARK    5  A    between atoms: C_7  and  C_8 
REMARK    6  A    between atoms: C_18  and  C_19 
ROOT
HETATM    1  C   UNL     1      -5.217   4.958 -31.904  1.00  0.00     0.103 A 
HETATM    2  C   UNL     1      -5.029   3.578 -31.823  1.00  0.00     0.112 A 
HETATM    3  C   UNL     1      -3.967   2.954 -32.472  1.00  0.00     0.041 A 
HETATM    4  C   UNL     1      -3.008   3.737 -33.114  1.00  0.00     0.014 A 
HETATM    5  C   UNL     1      -3.099   5.145 -33.109  1.00  0.00    -0.013 A 
HETATM    6  C   UNL     1      -4.244   5.737 -32.535  1.00  0.00     0.050 A 
ENDROOT
BRANCH   5   7
HETATM    7  C   UNL     1      -1.929   5.966 -33.652  1.00  0.00     0.219 C 
HETATM    8  N   UNL     1      -2.057   7.392 -33.456  1.00  0.00    -0.332 N 
HETATM    9  C   UNL     1      -1.774   8.006 -32.260  1.00  0.00     0.256 C 
HETATM   10  H   UNL     1      -2.660   7.909 -34.077  1.00  0.00     0.165 HD
HETATM   11  O   UNL     1      -2.180   9.132 -31.999  1.00  0.00    -0.267 OA
HETATM   12  C   UNL     1      -0.990   7.213 -31.330  1.00  0.00     0.073 A 
HETATM   13  C   UNL     1      -0.460   6.022 -31.770  1.00  0.00     0.088 A 
HETATM   14  C   UNL     1      -0.679   7.452 -29.956  1.00  0.00    -0.023 A 
HETATM   15  S   UNL     1       0.450   5.224 -30.581  1.00  0.00    -0.074 SA
HETATM   16  N   UNL     1      -0.684   5.545 -33.018  1.00  0.00    -0.358 N 
HETATM   17  C   UNL     1       0.093   6.430 -29.433  1.00  0.00     0.018 A 
HETATM   18  C   UNL     1       0.541   6.331 -28.017  1.00  0.00     0.281 C 
HETATM   19  N   UNL     1       0.381   7.662 -27.288  1.00  0.00    -0.070 N 
HETATM   20  C   UNL     1      -0.954   8.326 -27.617  1.00  0.00     0.239 C 
HETATM   21  H   UNL     1       0.354   7.431 -26.287  1.00  0.00     0.279 HD
HETATM   22  C   UNL     1       1.561   8.569 -27.481  1.00  0.00     0.270 C 
HETATM   23  C   UNL     1      -1.104   8.623 -29.120  1.00  0.00     0.068 C 
HETATM   24  H   UNL     1      -0.439   4.574 -33.193  1.00  0.00     0.162 HD
ENDBRANCH   5   7
BRANCH   1  25
HETATM   25  O   UNL     1      -6.320   5.481 -31.282  1.00  0.00    -0.349 OA
BRANCH  25  26
HETATM   26  C   UNL     1      -6.041   6.541 -30.363  1.00  0.00     0.171 C 
HETATM   27  C   UNL     1      -5.463   5.929 -29.100  1.00  0.00     0.034 C 
ENDBRANCH  25  26
ENDBRANCH   1  25
BRANCH   2  28
HETATM   28  O   UNL     1      -5.944   2.819 -31.091  1.00  0.00    -0.272 OA
BRANCH  28  29
HETATM   29  C   UNL     1      -7.004   2.424 -31.881  1.00  0.00     0.298 C 
HETATM   30  O   UNL     1      -8.083   2.979 -32.038  1.00  0.00    -0.259 OA
BRANCH  29  31
HETATM   31  C   UNL     1      -6.668   1.140 -32.537  1.00  0.00     0.040 A 
HETATM   32  C   UNL     1      -6.835   1.031 -33.922  1.00  0.00     0.019 A 
HETATM   33  C   UNL     1      -6.467  -0.146 -34.579  1.00  0.00     0.020 A 
HETATM   34  C   UNL     1      -5.919  -1.201 -33.850  1.00  0.00     0.011 A 
HETATM   35 BR   UNL     1      -5.393  -2.781 -34.743  1.00  0.00    -0.051 Br
HETATM   36  C   UNL     1      -5.742  -1.095 -32.469  1.00  0.00     0.020 A 
HETATM   37  C   UNL     1      -6.118   0.076 -31.808  1.00  0.00     0.019 A 
ENDBRANCH  29  31
ENDBRANCH  28  29
ENDBRANCH   2  28
TORSDOF 6
ENDMDL
MODEL 4
REMARK VINA RESULT:      -8.8      4.185      9.114
REMARK  6 active torsions:
REMARK  status: ('A' for Active; 'I' for Inactive)
REMARK    1  A    between atoms: C_2  and  O_3 
REMARK    2  A    between atoms: O_3  and  C_4 
REMARK    3  A    between atoms: C_5  and  O_6 
REMARK    4  A    between atoms: O_6  and  C_7 
REMARK    5  A    between atoms: C_7  and  C_8 
REMARK    6  A    between atoms: C_18  and  C_19 
ROOT
HETATM    1  C   UNL     1      -4.730   4.890 -31.913  1.00  0.00     0.103 A 
HETATM    2  C   UNL     1      -3.751   4.485 -32.821  1.00  0.00     0.112 A 
HETATM    3  C   UNL     1      -3.143   3.237 -32.718  1.00  0.00     0.041 A 
HETATM    4  C   UNL     1      -3.606   2.330 -31.764  1.00  0.00     0.014 A 
HETATM    5  C   UNL     1      -4.681   2.661 -30.911  1.00  0.00    -0.013 A 
HETATM    6  C   UNL     1      -5.200   3.971 -30.972  1.00  0.00     0.050 A 
ENDROOT
BRANCH   5   7
HETATM    7  C   UNL     1      -5.282   1.574 -30.020  1.00  0.00     0.219 C 
HETATM    8  N   UNL     1      -6.672   1.283 -30.287  1.00  0.00    -0.332 N 
HETATM    9  C   UNL     1      -7.077   0.484 -31.328  1.00  0.00     0.256 C 
HETATM   10  H   UNL     1      -7.372   1.914 -29.928  1.00  0.00     0.165 HD
HETATM   11  O   UNL     1      -8.229   0.497 -31.745  1.00  0.00    -0.267 OA
HETATM   12  C   UNL     1      -6.036  -0.348 -31.908  1.00  0.00     0.073 A 
HETATM   13  C   UNL     1      -4.814  -0.400 -31.280  1.00  0.00     0.088 A 
HETATM   14  C   UNL     1      -6.052  -1.142 -33.097  1.00  0.00    -0.023 A 
HETATM   15  S   UNL     1      -3.713  -1.431 -32.059  1.00  0.00    -0.074 SA
HETATM   16  N   UNL     1      -4.534   0.330 -30.173  1.00  0.00    -0.358 N 
HETATM   17  C   UNL     1      -4.837  -1.773 -33.292  1.00  0.00     0.018 A 
HETATM   18  C   UNL     1      -4.490  -2.624 -34.462  1.00  0.00     0.281 C 
HETATM   19  N   UNL     1      -5.737  -3.039 -35.238  1.00  0.00    -0.070 N 
HETATM   20  C   UNL     1      -6.706  -1.871 -35.409  1.00  0.00     0.239 C 
HETATM   21  H   UNL     1      -5.410  -3.288 -36.180  1.00  0.00     0.279 HD
HETATM   22  C   UNL     1      -6.382  -4.272 -34.674  1.00  0.00     0.270 C 
HETATM   23  C   UNL     1      -7.190  -1.311 -34.059  1.00  0.00     0.068 C 
HETATM   24  H   UNL     1      -3.559   0.398 -29.898  1.00  0.00     0.162 HD
ENDBRANCH   5   7
BRANCH   1  25
HETATM   25  O   UNL     1      -5.234   6.156 -32.054  1.00  0.00    -0.349 OA
BRANCH  25  26
HETATM   26  C   UNL     1      -6.516   6.222 -32.687  1.00  0.00     0.171 C 
HETATM   27  C   UNL     1      -7.373   7.205 -31.911  1.00  0.00     0.034 C 
ENDBRANCH  25  26
ENDBRANCH   1  25
BRANCH   2  28
HETATM   28  O   UNL     1      -3.369   5.367 -33.833  1.00  0.00    -0.272 OA
BRANCH  28  29
HETATM   29  C   UNL     1      -1.994   5.443 -33.931  1.00  0.00     0.298 C 
HETATM   30  O   UNL     1      -1.281   5.103 -34.865  1.00  0.00    -0.259 OA
BRANCH  29  31
HETATM   31  C   UNL     1      -1.447   5.990 -32.670  1.00  0.00     0.040 A 
HETATM   32  C   UNL     1      -0.482   5.246 -31.979  1.00  0.00     0.019 A 
HETATM   33  C   UNL     1       0.100   5.764 -30.820  1.00  0.00     0.020 A 
HETATM   34  C   UNL     1      -0.273   7.029 -30.366  1.00  0.00     0.011 A 
HETATM   35 BR   UNL     1       0.537   7.743 -28.814  1.00  0.00    -0.051 Br
HETATM   36  C   UNL     1      -1.228   7.779 -31.054  1.00  0.00     0.020 A 
HETATM   37  C   UNL     1      -1.820   7.260 -32.208  1.00  0.00     0.019 A 
ENDBRANCH  29  31
ENDBRANCH  28  29
ENDBRANCH   2  28
TORSDOF 6
ENDMDL
MODEL 5
REMARK VINA RESULT:      -8.8      4.035      6.249
REMARK  6 active torsions:
REMARK  status: ('A' for Active; 'I' for Inactive)
REMARK    1  A    between atoms: C_2  and  O_3 
REMARK    2  A    between atoms: O_3  and  C_4 
REMARK    3  A    between atoms: C_5  and  O_6 
REMARK    4  A    between atoms: O_6  and  C_7 
REMARK    5  A    between atoms: C_7  and  C_8 
REMARK    6  A    between atoms: C_18  and  C_19 
ROOT
HETATM    1  C   UNL     1      -7.916  -0.127 -33.002  1.00  0.00     0.103 A 
HETATM    2  C   UNL     1      -8.921   0.842 -33.010  1.00  0.00     0.112 A 
HETATM    3  C   UNL     1      -9.075   1.730 -31.949  1.00  0.00     0.041 A 
HETATM    4  C   UNL     1      -8.134   1.730 -30.918  1.00  0.00     0.014 A 
HETATM    5  C   UNL     1      -7.034   0.847 -30.942  1.00  0.00    -0.013 A 
HETATM    6  C   UNL     1      -6.969  -0.111 -31.975  1.00  0.00     0.050 A 
ENDROOT
BRANCH   5   7
HETATM    7  C   UNL     1      -5.927   1.013 -29.899  1.00  0.00     0.219 C 
HETATM    8  N   UNL     1      -4.609   0.644 -30.362  1.00  0.00    -0.332 N 
HETATM    9  C   UNL     1      -3.836   1.473 -31.138  1.00  0.00     0.256 C 
HETATM   10  H   UNL     1      -4.372  -0.335 -30.404  1.00  0.00     0.165 HD
HETATM   11  O   UNL     1      -2.885   1.052 -31.785  1.00  0.00    -0.267 OA
HETATM   12  C   UNL     1      -4.247   2.866 -31.153  1.00  0.00     0.073 A 
HETATM   13  C   UNL     1      -5.235   3.266 -30.283  1.00  0.00     0.088 A 
HETATM   14  C   UNL     1      -3.801   3.945 -31.977  1.00  0.00    -0.023 A 
HETATM   15  S   UNL     1      -5.587   4.922 -30.399  1.00  0.00    -0.074 SA
HETATM   16  N   UNL     1      -5.865   2.401 -29.452  1.00  0.00    -0.358 N 
HETATM   17  C   UNL     1      -4.468   5.118 -31.667  1.00  0.00     0.018 A 
HETATM   18  C   UNL     1      -4.292   6.416 -32.373  1.00  0.00     0.281 C 
HETATM   19  N   UNL     1      -3.028   6.420 -33.227  1.00  0.00    -0.070 N 
HETATM   20  C   UNL     1      -2.865   5.110 -33.996  1.00  0.00     0.239 C 
HETATM   21  H   UNL     1      -3.167   7.156 -33.930  1.00  0.00     0.279 HD
HETATM   22  C   UNL     1      -1.806   6.808 -32.446  1.00  0.00     0.270 C 
HETATM   23  C   UNL     1      -2.765   3.892 -33.059  1.00  0.00     0.068 C 
HETATM   24  H   UNL     1      -6.714   2.728 -29.001  1.00  0.00     0.162 HD
ENDBRANCH   5   7
BRANCH   1  25
HETATM   25  O   UNL     1      -7.873  -0.997 -34.060  1.00  0.00    -0.349 OA
BRANCH  25  26
HETATM   26  C   UNL     1      -6.683  -0.916 -34.851  1.00  0.00     0.171 C 
HETATM   27  C   UNL     1      -6.008  -2.275 -34.822  1.00  0.00     0.034 C 
ENDBRANCH  25  26
ENDBRANCH   1  25
BRANCH   2  28
HETATM   28  O   UNL     1      -9.793   0.894 -34.098  1.00  0.00    -0.272 OA
BRANCH  28  29
HETATM   29  C   UNL     1     -10.338   2.155 -34.235  1.00  0.00     0.298 C 
HETATM   30  O   UNL     1      -9.809   3.167 -34.674  1.00  0.00    -0.259 OA
BRANCH  29  31
HETATM   31  C   UNL     1     -11.725   2.143 -33.718  1.00  0.00     0.040 A 
HETATM   32  C   UNL     1     -12.204   3.280 -33.058  1.00  0.00     0.019 A 
HETATM   33  C   UNL     1     -13.529   3.324 -32.615  1.00  0.00     0.020 A 
HETATM   34  C   UNL     1     -14.371   2.237 -32.849  1.00  0.00     0.011 A 
HETATM   35 BR   UNL     1     -16.171   2.308 -32.277  1.00  0.00    -0.051 Br
HETATM   36  C   UNL     1     -13.901   1.103 -33.514  1.00  0.00     0.020 A 
HETATM   37  C   UNL     1     -12.575   1.052 -33.950  1.00  0.00     0.019 A 
ENDBRANCH  29  31
ENDBRANCH  28  29
ENDBRANCH   2  28
TORSDOF 6
ENDMDL
MODEL 6
REMARK VINA RESULT:      -8.7      1.815      2.885
REMARK  6 active torsions:
REMARK  status: ('A' for Active; 'I' for Inactive)
REMARK    1  A    between atoms: C_2  and  O_3 
REMARK    2  A    between atoms: O_3  and  C_4 
REMARK    3  A    between atoms: C_5  and  O_6 
REMARK    4  A    between atoms: O_6  and  C_7 
REMARK    5  A    between atoms: C_7  and  C_8 
REMARK    6  A    between atoms: C_18  and  C_19 
ROOT
HETATM    1  C   UNL     1      -5.355   4.640 -32.147  1.00  0.00     0.103 A 
HETATM    2  C   UNL     1      -4.990   3.402 -31.618  1.00  0.00     0.112 A 
HETATM    3  C   UNL     1      -3.745   2.840 -31.888  1.00  0.00     0.041 A 
HETATM    4  C   UNL     1      -2.803   3.583 -32.600  1.00  0.00     0.014 A 
HETATM    5  C   UNL     1      -3.095   4.891 -33.043  1.00  0.00    -0.013 A 
HETATM    6  C   UNL     1      -4.401   5.385 -32.845  1.00  0.00     0.050 A 
ENDROOT
BRANCH   5   7
HETATM    7  C   UNL     1      -1.973   5.739 -33.643  1.00  0.00     0.219 C 
HETATM    8  N   UNL     1      -2.151   7.164 -33.488  1.00  0.00    -0.332 N 
HETATM    9  C   UNL     1      -1.861   7.825 -32.319  1.00  0.00     0.256 C 
HETATM   10  H   UNL     1      -2.791   7.638 -34.106  1.00  0.00     0.165 HD
HETATM   11  O   UNL     1      -2.303   8.943 -32.081  1.00  0.00    -0.267 OA
HETATM   12  C   UNL     1      -1.020   7.093 -31.388  1.00  0.00     0.073 A 
HETATM   13  C   UNL     1      -0.457   5.910 -31.806  1.00  0.00     0.088 A 
HETATM   14  C   UNL     1      -0.682   7.387 -30.031  1.00  0.00    -0.023 A 
HETATM   15  S   UNL     1       0.516   5.185 -30.620  1.00  0.00    -0.074 SA
HETATM   16  N   UNL     1      -0.696   5.385 -33.032  1.00  0.00    -0.358 N 
HETATM   17  C   UNL     1       0.143   6.412 -29.499  1.00  0.00     0.018 A 
HETATM   18  C   UNL     1       0.634   6.375 -28.095  1.00  0.00     0.281 C 
HETATM   19  N   UNL     1       0.441   7.721 -27.402  1.00  0.00    -0.070 N 
HETATM   20  C   UNL     1      -0.927   8.322 -27.713  1.00  0.00     0.239 C 
HETATM   21  H   UNL     1       0.451   7.521 -26.394  1.00  0.00     0.279 HD
HETATM   22  C   UNL     1       1.580   8.667 -27.656  1.00  0.00     0.270 C 
HETATM   23  C   UNL     1      -1.130   8.566 -29.220  1.00  0.00     0.068 C 
HETATM   24  H   UNL     1      -0.418   4.420 -33.185  1.00  0.00     0.162 HD
ENDBRANCH   5   7
BRANCH   1  25
HETATM   25  O   UNL     1      -6.620   5.091 -31.877  1.00  0.00    -0.349 OA
BRANCH  25  26
HETATM   26  C   UNL     1      -7.163   5.974 -32.863  1.00  0.00     0.171 C 
HETATM   27  C   UNL     1      -8.152   5.188 -33.704  1.00  0.00     0.034 C 
ENDBRANCH  25  26
ENDBRANCH   1  25
BRANCH   2  28
HETATM   28  O   UNL     1      -5.909   2.715 -30.823  1.00  0.00    -0.272 OA
BRANCH  28  29
HETATM   29  C   UNL     1      -6.249   1.505 -31.393  1.00  0.00     0.298 C 
HETATM   30  O   UNL     1      -5.644   0.443 -31.337  1.00  0.00    -0.259 OA
BRANCH  29  31
HETATM   31  C   UNL     1      -7.504   1.666 -32.161  1.00  0.00     0.040 A 
HETATM   32  C   UNL     1      -7.509   1.317 -33.517  1.00  0.00     0.019 A 
HETATM   33  C   UNL     1      -8.694   1.398 -34.254  1.00  0.00     0.020 A 
HETATM   34  C   UNL     1      -9.869   1.811 -33.627  1.00  0.00     0.011 A 
HETATM   35 BR   UNL     1     -11.478   1.891 -34.616  1.00  0.00    -0.051 Br
HETATM   36  C   UNL     1      -9.872   2.153 -32.274  1.00  0.00     0.020 A 
HETATM   37  C   UNL     1      -8.688   2.083 -31.537  1.00  0.00     0.019 A 
ENDBRANCH  29  31
ENDBRANCH  28  29
ENDBRANCH   2  28
TORSDOF 6
ENDMDL
MODEL 7
REMARK VINA RESULT:      -8.7      2.490      3.314
REMARK  6 active torsions:
REMARK  status: ('A' for Active; 'I' for Inactive)
REMARK    1  A    between atoms: C_2  and  O_3 
REMARK    2  A    between atoms: O_3  and  C_4 
REMARK    3  A    between atoms: C_5  and  O_6 
REMARK    4  A    between atoms: O_6  and  C_7 
REMARK    5  A    between atoms: C_7  and  C_8 
REMARK    6  A    between atoms: C_18  and  C_19 
ROOT
HETATM    1  C   UNL     1      -3.857   3.855 -32.050  1.00  0.00     0.103 A 
HETATM    2  C   UNL     1      -4.669   2.802 -31.626  1.00  0.00     0.112 A 
HETATM    3  C   UNL     1      -5.544   2.952 -30.554  1.00  0.00     0.041 A 
HETATM    4  C   UNL     1      -5.698   4.210 -29.970  1.00  0.00     0.014 A 
HETATM    5  C   UNL     1      -4.983   5.326 -30.456  1.00  0.00    -0.013 A 
HETATM    6  C   UNL     1      -4.028   5.115 -31.472  1.00  0.00     0.050 A 
ENDROOT
BRANCH   5   7
HETATM    7  C   UNL     1      -5.327   6.717 -29.920  1.00  0.00     0.219 C 
HETATM    8  N   UNL     1      -5.407   6.800 -28.480  1.00  0.00    -0.332 N 
HETATM    9  C   UNL     1      -4.295   6.898 -27.679  1.00  0.00     0.256 C 
HETATM   10  H   UNL     1      -6.240   6.459 -28.025  1.00  0.00     0.165 HD
HETATM   11  O   UNL     1      -4.337   6.648 -26.481  1.00  0.00    -0.267 OA
HETATM   12  C   UNL     1      -3.075   7.292 -28.363  1.00  0.00     0.073 A 
HETATM   13  C   UNL     1      -3.161   7.691 -29.676  1.00  0.00     0.088 A 
HETATM   14  C   UNL     1      -1.726   7.310 -27.892  1.00  0.00    -0.023 A 
HETATM   15  S   UNL     1      -1.661   8.144 -30.328  1.00  0.00    -0.074 SA
HETATM   16  N   UNL     1      -4.329   7.684 -30.363  1.00  0.00    -0.358 N 
HETATM   17  C   UNL     1      -0.859   7.747 -28.879  1.00  0.00     0.018 A 
HETATM   18  C   UNL     1       0.621   7.828 -28.747  1.00  0.00     0.281 C 
HETATM   19  N   UNL     1       1.055   7.739 -27.287  1.00  0.00    -0.070 N 
HETATM   20  C   UNL     1       0.284   6.655 -26.536  1.00  0.00     0.239 C 
HETATM   21  H   UNL     1       2.038   7.439 -27.305  1.00  0.00     0.279 HD
HETATM   22  C   UNL     1       1.034   9.072 -26.598  1.00  0.00     0.270 C 
HETATM   23  C   UNL     1      -1.234   6.915 -26.532  1.00  0.00     0.068 C 
HETATM   24  H   UNL     1      -4.273   7.789 -31.372  1.00  0.00     0.162 HD
ENDBRANCH   5   7
BRANCH   1  25
HETATM   25  O   UNL     1      -2.984   3.603 -33.076  1.00  0.00    -0.349 OA
BRANCH  25  26
HETATM   26  C   UNL     1      -1.994   4.615 -33.280  1.00  0.00     0.171 C 
HETATM   27  C   UNL     1      -2.031   5.020 -34.742  1.00  0.00     0.034 C 
ENDBRANCH  25  26
ENDBRANCH   1  25
BRANCH   2  28
HETATM   28  O   UNL     1      -4.576   1.576 -32.286  1.00  0.00    -0.272 OA
BRANCH  28  29
HETATM   29  C   UNL     1      -5.574   1.446 -33.232  1.00  0.00     0.298 C 
HETATM   30  O   UNL     1      -6.298   2.316 -33.696  1.00  0.00    -0.259 OA
BRANCH  29  31
HETATM   31  C   UNL     1      -5.693   0.022 -33.618  1.00  0.00     0.040 A 
HETATM   32  C   UNL     1      -6.886  -0.415 -34.206  1.00  0.00     0.019 A 
HETATM   33  C   UNL     1      -7.007  -1.737 -34.639  1.00  0.00     0.020 A 
HETATM   34  C   UNL     1      -5.929  -2.611 -34.497  1.00  0.00     0.011 A 
HETATM   35 BR   UNL     1      -6.082  -4.392 -35.111  1.00  0.00    -0.051 Br
HETATM   36  C   UNL     1      -4.734  -2.179 -33.920  1.00  0.00     0.020 A 
HETATM   37  C   UNL     1      -4.614  -0.861 -33.476  1.00  0.00     0.019 A 
ENDBRANCH  29  31
ENDBRANCH  28  29
ENDBRANCH   2  28
TORSDOF 6
ENDMDL
MODEL 8
REMARK VINA RESULT:      -8.6      1.708      2.943
REMARK  6 active torsions:
REMARK  status: ('A' for Active; 'I' for Inactive)
REMARK    1  A    between atoms: C_2  and  O_3 
REMARK    2  A    between atoms: O_3  and  C_4 
REMARK    3  A    between atoms: C_5  and  O_6 
REMARK    4  A    between atoms: O_6  and  C_7 
REMARK    5  A    between atoms: C_7  and  C_8 
REMARK    6  A    between atoms: C_18  and  C_19 
ROOT
HETATM    1  C   UNL     1      -5.263   3.133 -31.056  1.00  0.00     0.103 A 
HETATM    2  C   UNL     1      -4.395   2.117 -31.457  1.00  0.00     0.112 A 
HETATM    3  C   UNL     1      -3.364   2.363 -32.359  1.00  0.00     0.041 A 
HETATM    4  C   UNL     1      -3.121   3.672 -32.775  1.00  0.00     0.014 A 
HETATM    5  C   UNL     1      -3.901   4.743 -32.291  1.00  0.00    -0.013 A 
HETATM    6  C   UNL     1      -5.004   4.444 -31.463  1.00  0.00     0.050 A 
ENDROOT
BRANCH   5   7
HETATM    7  C   UNL     1      -3.478   6.176 -32.617  1.00  0.00     0.219 C 
HETATM    8  N   UNL     1      -4.058   7.182 -31.757  1.00  0.00    -0.332 N 
HETATM    9  C   UNL     1      -3.573   7.453 -30.500  1.00  0.00     0.256 C 
HETATM   10  H   UNL     1      -5.011   7.464 -31.924  1.00  0.00     0.165 HD
HETATM   11  O   UNL     1      -4.239   8.055 -29.666  1.00  0.00    -0.267 OA
HETATM   12  C   UNL     1      -2.236   6.953 -30.233  1.00  0.00     0.073 A 
HETATM   13  C   UNL     1      -1.516   6.419 -31.277  1.00  0.00     0.088 A 
HETATM   14  C   UNL     1      -1.509   6.888 -29.004  1.00  0.00    -0.023 A 
HETATM   15  S   UNL     1       0.033   5.903 -30.816  1.00  0.00    -0.074 SA
HETATM   16  N   UNL     1      -2.027   6.302 -32.526  1.00  0.00    -0.358 N 
HETATM   17  C   UNL     1      -0.260   6.323 -29.192  1.00  0.00     0.018 A 
HETATM   18  C   UNL     1       0.729   6.049 -28.114  1.00  0.00     0.281 C 
HETATM   19  N   UNL     1       0.378   6.800 -26.833  1.00  0.00    -0.070 N 
HETATM   20  C   UNL     1      -1.117   6.725 -26.529  1.00  0.00     0.239 C 
HETATM   21  H   UNL     1       0.856   6.298 -26.074  1.00  0.00     0.279 HD
HETATM   22  C   UNL     1       0.919   8.200 -26.819  1.00  0.00     0.270 C 
HETATM   23  C   UNL     1      -1.973   7.340 -27.652  1.00  0.00     0.068 C 
HETATM   24  H   UNL     1      -1.520   5.714 -33.181  1.00  0.00     0.162 HD
ENDBRANCH   5   7
BRANCH   1  25
HETATM   25  O   UNL     1      -6.285   2.790 -30.209  1.00  0.00    -0.349 OA
BRANCH  25  26
HETATM   26  C   UNL     1      -7.597   2.982 -30.748  1.00  0.00     0.171 C 
HETATM   27  C   UNL     1      -8.046   1.670 -31.366  1.00  0.00     0.034 C 
ENDBRANCH  25  26
ENDBRANCH   1  25
BRANCH   2  28
HETATM   28  O   UNL     1      -4.591   0.830 -30.953  1.00  0.00    -0.272 OA
BRANCH  28  29
HETATM   29  C   UNL     1      -3.607  -0.030 -31.397  1.00  0.00     0.298 C 
HETATM   30  O   UNL     1      -2.422  -0.048 -31.096  1.00  0.00    -0.259 OA
BRANCH  29  31
HETATM   31  C   UNL     1      -4.194  -0.974 -32.376  1.00  0.00     0.040 A 
HETATM   32  C   UNL     1      -3.547  -2.194 -32.600  1.00  0.00     0.019 A 
HETATM   33  C   UNL     1      -4.108  -3.133 -33.469  1.00  0.00     0.020 A 
HETATM   34  C   UNL     1      -5.322  -2.852 -34.097  1.00  0.00     0.011 A 
HETATM   35 BR   UNL     1      -6.097  -4.133 -35.250  1.00  0.00    -0.051 Br
HETATM   36  C   UNL     1      -5.976  -1.640 -33.871  1.00  0.00     0.020 A 
HETATM   37  C   UNL     1      -5.412  -0.695 -33.010  1.00  0.00     0.019 A 
ENDBRANCH  29  31
ENDBRANCH  28  29
ENDBRANCH   2  28
TORSDOF 6
ENDMDL
MODEL 9
REMARK VINA RESULT:      -8.6      4.666      8.997
REMARK  6 active torsions:
REMARK  status: ('A' for Active; 'I' for Inactive)
REMARK    1  A    between atoms: C_2  and  O_3 
REMARK    2  A    between atoms: O_3  and  C_4 
REMARK    3  A    between atoms: C_5  and  O_6 
REMARK    4  A    between atoms: O_6  and  C_7 
REMARK    5  A    between atoms: C_7  and  C_8 
REMARK    6  A    between atoms: C_18  and  C_19 
ROOT
HETATM    1  C   UNL     1      -3.703   2.608 -31.276  1.00  0.00     0.103 A 
HETATM    2  C   UNL     1      -3.410   3.715 -32.073  1.00  0.00     0.112 A 
HETATM    3  C   UNL     1      -4.348   4.722 -32.285  1.00  0.00     0.041 A 
HETATM    4  C   UNL     1      -5.558   4.681 -31.592  1.00  0.00     0.014 A 
HETATM    5  C   UNL     1      -5.837   3.640 -30.680  1.00  0.00    -0.013 A 
HETATM    6  C   UNL     1      -4.909   2.583 -30.573  1.00  0.00     0.050 A 
ENDROOT
BRANCH   5   7
HETATM    7  C   UNL     1      -7.083   3.740 -29.800  1.00  0.00     0.219 C 
HETATM    8  N   UNL     1      -7.903   4.902 -30.053  1.00  0.00    -0.332 N 
HETATM    9  C   UNL     1      -8.787   4.972 -31.102  1.00  0.00     0.256 C 
HETATM   10  H   UNL     1      -7.609   5.788 -29.674  1.00  0.00     0.165 HD
HETATM   11  O   UNL     1      -9.232   6.041 -31.503  1.00  0.00    -0.267 OA
HETATM   12  C   UNL     1      -9.127   3.696 -31.710  1.00  0.00     0.073 A 
HETATM   13  C   UNL     1      -8.691   2.544 -31.098  1.00  0.00     0.088 A 
HETATM   14  C   UNL     1      -9.849   3.416 -32.911  1.00  0.00    -0.023 A 
HETATM   15  S   UNL     1      -9.187   1.138 -31.908  1.00  0.00    -0.074 SA
HETATM   16  N   UNL     1      -7.921   2.560 -29.983  1.00  0.00    -0.358 N 
HETATM   17  C   UNL     1      -9.938   2.053 -33.132  1.00  0.00     0.018 A 
HETATM   18  C   UNL     1     -10.568   1.416 -34.321  1.00  0.00     0.281 C 
HETATM   19  N   UNL     1     -11.439   2.407 -35.087  1.00  0.00    -0.070 N 
HETATM   20  C   UNL     1     -10.756   3.766 -35.226  1.00  0.00     0.239 C 
HETATM   21  H   UNL     1     -11.528   2.026 -36.037  1.00  0.00     0.279 HD
HETATM   22  C   UNL     1     -12.833   2.495 -34.536  1.00  0.00     0.270 C 
HETATM   23  C   UNL     1     -10.449   4.408 -33.861  1.00  0.00     0.068 C 
HETATM   24  H   UNL     1      -7.471   1.688 -29.719  1.00  0.00     0.162 HD
ENDBRANCH   5   7
BRANCH   1  25
HETATM   25  O   UNL     1      -2.742   1.638 -31.168  1.00  0.00    -0.349 OA
BRANCH  25  26
HETATM   26  C   UNL     1      -3.238   0.297 -31.224  1.00  0.00     0.171 C 
HETATM   27  C   UNL     1      -3.241  -0.142 -32.678  1.00  0.00     0.034 C 
ENDBRANCH  25  26
ENDBRANCH   1  25
BRANCH   2  28
HETATM   28  O   UNL     1      -2.155   3.790 -32.681  1.00  0.00    -0.272 OA
BRANCH  28  29
HETATM   29  C   UNL     1      -1.847   5.092 -33.022  1.00  0.00     0.298 C 
HETATM   30  O   UNL     1      -1.996   5.649 -34.101  1.00  0.00    -0.259 OA
BRANCH  29  31
HETATM   31  C   UNL     1      -1.241   5.769 -31.853  1.00  0.00     0.040 A 
HETATM   32  C   UNL     1      -0.124   5.184 -31.246  1.00  0.00     0.019 A 
HETATM   33  C   UNL     1       0.510   5.830 -30.181  1.00  0.00     0.020 A 
HETATM   34  C   UNL     1       0.032   7.065 -29.741  1.00  0.00     0.011 A 
HETATM   35 BR   UNL     1       0.908   7.953 -28.321  1.00  0.00    -0.051 Br
HETATM   36  C   UNL     1      -1.076   7.657 -30.348  1.00  0.00     0.020 A 
HETATM   37  C   UNL     1      -1.718   7.009 -31.406  1.00  0.00     0.019 A 
ENDBRANCH  29  31
ENDBRANCH  28  29
ENDBRANCH   2  28
TORSDOF 6
ENDMDL
MODEL 10
REMARK VINA RESULT:      -8.1      4.099      6.570
REMARK  6 active torsions:
REMARK  status: ('A' for Active; 'I' for Inactive)
REMARK    1  A    between atoms: C_2  and  O_3 
REMARK    2  A    between atoms: O_3  and  C_4 
REMARK    3  A    between atoms: C_5  and  O_6 
REMARK    4  A    between atoms: O_6  and  C_7 
REMARK    5  A    between atoms: C_7  and  C_8 
REMARK    6  A    between atoms: C_18  and  C_19 
ROOT
HETATM    1  C   UNL     1      -3.552   4.059 -31.708  1.00  0.00     0.103 A 
HETATM    2  C   UNL     1      -3.247   4.966 -32.724  1.00  0.00     0.112 A 
HETATM    3  C   UNL     1      -4.107   6.015 -33.038  1.00  0.00     0.041 A 
HETATM    4  C   UNL     1      -5.233   6.234 -32.244  1.00  0.00     0.014 A 
HETATM    5  C   UNL     1      -5.505   5.411 -31.131  1.00  0.00    -0.013 A 
HETATM    6  C   UNL     1      -4.673   4.294 -30.908  1.00  0.00     0.050 A 
ENDROOT
BRANCH   5   7
HETATM    7  C   UNL     1      -6.634   5.804 -30.177  1.00  0.00     0.219 C 
HETATM    8  N   UNL     1      -6.457   5.345 -28.819  1.00  0.00    -0.332 N 
HETATM    9  C   UNL     1      -5.639   5.986 -27.920  1.00  0.00     0.256 C 
HETATM   10  H   UNL     1      -6.662   4.381 -28.607  1.00  0.00     0.165 HD
HETATM   11  O   UNL     1      -5.242   5.436 -26.900  1.00  0.00    -0.267 OA
HETATM   12  C   UNL     1      -5.264   7.342 -28.284  1.00  0.00     0.073 A 
HETATM   13  C   UNL     1      -5.876   7.920 -29.372  1.00  0.00     0.088 A 
HETATM   14  C   UNL     1      -4.298   8.215 -27.696  1.00  0.00    -0.023 A 
HETATM   15  S   UNL     1      -5.354   9.510 -29.656  1.00  0.00    -0.074 SA
HETATM   16  N   UNL     1      -6.775   7.255 -30.138  1.00  0.00    -0.358 N 
HETATM   17  C   UNL     1      -4.248   9.426 -28.364  1.00  0.00     0.018 A 
HETATM   18  C   UNL     1      -3.310  10.539 -28.054  1.00  0.00     0.281 C 
HETATM   19  N   UNL     1      -2.666  10.359 -26.682  1.00  0.00    -0.070 N 
HETATM   20  C   UNL     1      -2.231   8.913 -26.452  1.00  0.00     0.239 C 
HETATM   21  H   UNL     1      -1.808  10.923 -26.700  1.00  0.00     0.279 HD
HETATM   22  C   UNL     1      -3.512  10.911 -25.572  1.00  0.00     0.270 C 
HETATM   23  C   UNL     1      -3.414   7.929 -26.519  1.00  0.00     0.068 C 
HETATM   24  H   UNL     1      -7.018   7.672 -31.032  1.00  0.00     0.162 HD
ENDBRANCH   5   7
BRANCH   1  25
HETATM   25  O   UNL     1      -2.678   3.024 -31.505  1.00  0.00    -0.349 OA
BRANCH  25  26
HETATM   26  C   UNL     1      -3.295   1.781 -31.157  1.00  0.00     0.171 C 
HETATM   27  C   UNL     1      -3.567   1.017 -32.440  1.00  0.00     0.034 C 
ENDBRANCH  25  26
ENDBRANCH   1  25
BRANCH   2  28
HETATM   28  O   UNL     1      -2.064   4.792 -33.444  1.00  0.00    -0.272 OA
BRANCH  28  29
HETATM   29  C   UNL     1      -1.296   5.938 -33.419  1.00  0.00     0.298 C 
HETATM   30  O   UNL     1      -0.968   6.654 -34.355  1.00  0.00    -0.259 OA
BRANCH  29  31
HETATM   31  C   UNL     1      -0.856   6.196 -32.029  1.00  0.00     0.040 A 
HETATM   32  C   UNL     1       0.037   5.299 -31.431  1.00  0.00     0.019 A 
HETATM   33  C   UNL     1       0.520   5.548 -30.144  1.00  0.00     0.020 A 
HETATM   34  C   UNL     1       0.120   6.701 -29.468  1.00  0.00     0.011 A 
HETATM   35 BR   UNL     1       0.797   7.054 -27.739  1.00  0.00    -0.051 Br
HETATM   36  C   UNL     1      -0.764   7.603 -30.062  1.00  0.00     0.020 A 
HETATM   37  C   UNL     1      -1.256   7.352 -31.344  1.00  0.00     0.019 A 
ENDBRANCH  29  31
ENDBRANCH  28  29
ENDBRANCH   2  28
TORSDOF 6
ENDMDL
