MODEL 1
REMARK VINA RESULT:      -9.7      0.000      0.000
REMARK  4 active torsions:
REMARK  status: ('A' for Active; 'I' for Inactive)
REMARK    1  A    between atoms: C_7  and  C_8 
REMARK    2  A    between atoms: C_8  and  N_9 
REMARK    3  A    between atoms: N_15  and  C_17 
REMARK    4  A    between atoms: C_21  and  C_22 
ROOT
HETATM    1  N   UNL     1      -4.327   4.018 -32.041  1.00  0.00    -0.067 N 
HETATM    2  H   UNL     1      -4.522   4.978 -31.720  1.00  0.00     0.280 HD
HETATM    3  C   UNL     1      -5.318   3.750 -33.138  1.00  0.00     0.236 C 
HETATM    4  C   UNL     1      -5.308   2.274 -33.544  1.00  0.00     0.039 C 
HETATM    5  C   UNL     1      -5.520   1.289 -32.361  1.00  0.00    -0.013 C 
HETATM    6  C   UNL     1      -6.970   1.328 -31.803  1.00  0.00     0.245 C 
HETATM    7  N   UNL     1      -7.964   0.782 -32.800  1.00  0.00    -0.065 N 
HETATM    8  H   UNL     1      -7.936   1.316 -33.679  1.00  0.00     0.280 HD
HETATM    9  C   UNL     1      -7.674  -0.668 -33.167  1.00  0.00     0.244 C 
HETATM   10  C   UNL     1      -6.263  -0.768 -33.762  1.00  0.00     0.045 C 
HETATM   11  C   UNL     1      -5.211  -0.170 -32.808  1.00  0.00     0.022 C 
HETATM   12  C   UNL     1      -4.503   1.665 -31.243  1.00  0.00     0.039 C 
HETATM   13  C   UNL     1      -4.507   3.138 -30.842  1.00  0.00     0.236 C 
ENDROOT
BRANCH   7  14
HETATM   14  C   UNL     1      -9.372   0.906 -32.288  1.00  0.00     0.188 A 
HETATM   15  C   UNL     1     -10.374   1.543 -33.211  1.00  0.00     0.035 A 
HETATM   16  C   UNL     1     -10.415   0.062 -32.963  1.00  0.00     0.035 A 
ENDBRANCH   7  14
BRANCH  10  17
HETATM   17  C   UNL     1      -5.940  -2.201 -34.134  1.00  0.00    -0.052 A 
HETATM   18  C   UNL     1      -4.637  -2.690 -33.948  1.00  0.00     0.007 A 
HETATM   19  C   UNL     1      -4.309  -3.999 -34.306  1.00  0.00     0.001 A 
HETATM   20  C   UNL     1      -5.276  -4.837 -34.854  1.00  0.00     0.000 A 
HETATM   21  C   UNL     1      -6.573  -4.370 -35.039  1.00  0.00     0.001 A 
HETATM   22  C   UNL     1      -6.906  -3.062 -34.682  1.00  0.00     0.007 A 
ENDBRANCH  10  17
BRANCH   1  23
HETATM   23  C   UNL     1      -2.875   4.139 -32.504  1.00  0.00     0.277 C 
BRANCH  23  24
HETATM   24  C   UNL     1      -2.444   5.556 -32.599  1.00  0.00     0.011 A 
HETATM   25  C   UNL     1      -1.716   6.172 -33.655  1.00  0.00     0.060 A 
HETATM   26  C   UNL     1      -1.150   5.557 -34.885  1.00  0.00     0.073 C 
HETATM   27  N   UNL     1      -1.589   7.484 -33.457  1.00  0.00    -0.178 NA
HETATM   28  N   UNL     1      -2.111   7.704 -32.244  1.00  0.00    -0.284 N 
HETATM   29  C   UNL     1      -2.091   9.032 -31.675  1.00  0.00     0.179 C 
HETATM   30  C   UNL     1      -2.667   6.581 -31.696  1.00  0.00     0.122 A 
ENDBRANCH  23  24
ENDBRANCH   1  23
TORSDOF 4
ENDMDL
MODEL 2
REMARK VINA RESULT:      -9.3      1.198      1.922
REMARK  4 active torsions:
REMARK  status: ('A' for Active; 'I' for Inactive)
REMARK    1  A    between atoms: C_7  and  C_8 
REMARK    2  A    between atoms: C_8  and  N_9 
REMARK    3  A    between atoms: N_15  and  C_17 
REMARK    4  A    between atoms: C_21  and  C_22 
ROOT
HETATM    1  N   UNL     1      -4.731   4.628 -32.506  1.00  0.00    -0.067 N 
HETATM    2  H   UNL     1      -4.997   5.589 -32.244  1.00  0.00     0.280 HD
HETATM    3  C   UNL     1      -5.722   4.207 -33.555  1.00  0.00     0.236 C 
HETATM    4  C   UNL     1      -5.600   2.713 -33.862  1.00  0.00     0.039 C 
HETATM    5  C   UNL     1      -5.704   1.796 -32.611  1.00  0.00    -0.013 C 
HETATM    6  C   UNL     1      -7.139   1.758 -32.017  1.00  0.00     0.245 C 
HETATM    7  N   UNL     1      -8.108   1.067 -32.948  1.00  0.00    -0.065 N 
HETATM    8  H   UNL     1      -8.143   1.541 -33.860  1.00  0.00     0.280 HD
HETATM    9  C   UNL     1      -7.709  -0.377 -33.226  1.00  0.00     0.244 C 
HETATM   10  C   UNL     1      -6.308  -0.404 -33.853  1.00  0.00     0.045 C 
HETATM   11  C   UNL     1      -5.288   0.340 -32.970  1.00  0.00     0.022 C 
HETATM   12  C   UNL     1      -4.696   2.328 -31.550  1.00  0.00     0.039 C 
HETATM   13  C   UNL     1      -4.811   3.820 -31.247  1.00  0.00     0.236 C 
ENDROOT
BRANCH   7  14
HETATM   14  C   UNL     1      -9.510   1.113 -32.405  1.00  0.00     0.188 A 
HETATM   15  C   UNL     1     -10.579   1.611 -33.337  1.00  0.00     0.035 A 
HETATM   16  C   UNL     1     -10.497   0.150 -32.999  1.00  0.00     0.035 A 
ENDBRANCH   7  14
BRANCH  10  17
HETATM   17  C   UNL     1      -5.878  -1.828 -34.138  1.00  0.00    -0.052 A 
HETATM   18  C   UNL     1      -6.808  -2.743 -34.658  1.00  0.00     0.007 A 
HETATM   19  C   UNL     1      -6.442  -4.068 -34.906  1.00  0.00     0.001 A 
HETATM   20  C   UNL     1      -5.146  -4.497 -34.637  1.00  0.00     0.000 A 
HETATM   21  C   UNL     1      -4.211  -3.601 -34.126  1.00  0.00     0.001 A 
HETATM   22  C   UNL     1      -4.572  -2.276 -33.878  1.00  0.00     0.007 A 
ENDBRANCH  10  17
BRANCH   1  23
HETATM   23  C   UNL     1      -3.304   4.832 -33.017  1.00  0.00     0.277 C 
BRANCH  23  24
HETATM   24  C   UNL     1      -2.419   5.389 -31.964  1.00  0.00     0.011 A 
HETATM   25  C   UNL     1      -2.504   6.669 -31.348  1.00  0.00     0.060 A 
HETATM   26  C   UNL     1      -3.443   7.786 -31.635  1.00  0.00     0.073 C 
HETATM   27  N   UNL     1      -1.607   6.798 -30.370  1.00  0.00    -0.178 NA
HETATM   28  N   UNL     1      -0.871   5.682 -30.425  1.00  0.00    -0.284 N 
HETATM   29  C   UNL     1       0.249   5.506 -29.529  1.00  0.00     0.179 C 
HETATM   30  C   UNL     1      -1.336   4.786 -31.348  1.00  0.00     0.122 A 
ENDBRANCH  23  24
ENDBRANCH   1  23
TORSDOF 4
ENDMDL
MODEL 3
REMARK VINA RESULT:      -8.6      3.155      7.275
REMARK  4 active torsions:
REMARK  status: ('A' for Active; 'I' for Inactive)
REMARK    1  A    between atoms: C_7  and  C_8 
REMARK    2  A    between atoms: C_8  and  N_9 
REMARK    3  A    between atoms: N_15  and  C_17 
REMARK    4  A    between atoms: C_21  and  C_22 
ROOT
HETATM    1  N   UNL     1     -10.314   2.784 -32.970  1.00  0.00    -0.067 N 
HETATM    2  H   UNL     1     -10.595   3.723 -32.654  1.00  0.00     0.280 HD
HETATM    3  C   UNL     1      -9.427   2.241 -31.885  1.00  0.00     0.236 C 
HETATM    4  C   UNL     1      -8.737   0.948 -32.330  1.00  0.00     0.039 C 
HETATM    5  C   UNL     1      -7.954   1.074 -33.667  1.00  0.00    -0.013 C 
HETATM    6  C   UNL     1      -6.673   1.941 -33.529  1.00  0.00     0.245 C 
HETATM    7  N   UNL     1      -5.636   1.268 -32.663  1.00  0.00    -0.065 N 
HETATM    8  H   UNL     1      -6.007   1.081 -31.722  1.00  0.00     0.280 HD
HETATM    9  C   UNL     1      -5.196  -0.076 -33.229  1.00  0.00     0.244 C 
HETATM   10  C   UNL     1      -6.418  -0.997 -33.353  1.00  0.00     0.045 C 
HETATM   11  C   UNL     1      -7.534  -0.334 -34.183  1.00  0.00     0.022 C 
HETATM   12  C   UNL     1      -8.916   1.696 -34.722  1.00  0.00     0.039 C 
HETATM   13  C   UNL     1      -9.610   2.981 -34.278  1.00  0.00     0.236 C 
ENDROOT
BRANCH   7  14
HETATM   14  C   UNL     1      -4.436   2.154 -32.463  1.00  0.00     0.188 A 
HETATM   15  C   UNL     1      -4.290   2.799 -31.113  1.00  0.00     0.035 A 
HETATM   16  C   UNL     1      -3.387   1.666 -31.506  1.00  0.00     0.035 A 
ENDBRANCH   7  14
BRANCH  10  17
HETATM   17  C   UNL     1      -6.015  -2.344 -33.920  1.00  0.00    -0.052 A 
HETATM   18  C   UNL     1      -4.679  -2.764 -33.829  1.00  0.00     0.007 A 
HETATM   19  C   UNL     1      -4.279  -3.989 -34.366  1.00  0.00     0.001 A 
HETATM   20  C   UNL     1      -5.207  -4.810 -35.001  1.00  0.00     0.000 A 
HETATM   21  C   UNL     1      -6.536  -4.410 -35.095  1.00  0.00     0.001 A 
HETATM   22  C   UNL     1      -6.940  -3.187 -34.559  1.00  0.00     0.007 A 
ENDBRANCH  10  17
BRANCH   1  23
HETATM   23  C   UNL     1     -11.669   2.085 -33.100  1.00  0.00     0.277 C 
BRANCH  23  24
HETATM   24  C   UNL     1     -12.789   2.993 -32.749  1.00  0.00     0.011 A 
HETATM   25  C   UNL     1     -14.179   2.689 -32.737  1.00  0.00     0.060 A 
HETATM   26  C   UNL     1     -14.865   1.429 -33.125  1.00  0.00     0.073 C 
HETATM   27  N   UNL     1     -14.897   3.713 -32.274  1.00  0.00    -0.178 NA
HETATM   28  N   UNL     1     -14.015   4.707 -32.106  1.00  0.00    -0.284 N 
HETATM   29  C   UNL     1     -14.462   6.007 -31.661  1.00  0.00     0.179 C 
HETATM   30  C   UNL     1     -12.726   4.317 -32.349  1.00  0.00     0.122 A 
ENDBRANCH  23  24
ENDBRANCH   1  23
TORSDOF 4
ENDMDL
MODEL 4
REMARK VINA RESULT:      -8.5      3.024      8.483
REMARK  4 active torsions:
REMARK  status: ('A' for Active; 'I' for Inactive)
REMARK    1  A    between atoms: C_7  and  C_8 
REMARK    2  A    between atoms: C_8  and  N_9 
REMARK    3  A    between atoms: N_15  and  C_17 
REMARK    4  A    between atoms: C_21  and  C_22 
ROOT
HETATM    1  N   UNL     1      -9.038   1.457 -33.357  1.00  0.00    -0.067 N 
HETATM    2  H   UNL     1      -9.713   0.684 -33.268  1.00  0.00     0.280 HD
HETATM    3  C   UNL     1      -7.823   0.861 -34.009  1.00  0.00     0.236 C 
HETATM    4  C   UNL     1      -6.645   1.839 -33.982  1.00  0.00     0.039 C 
HETATM    5  C   UNL     1      -6.299   2.377 -32.566  1.00  0.00    -0.013 C 
HETATM    6  C   UNL     1      -5.671   1.290 -31.651  1.00  0.00     0.245 C 
HETATM    7  N   UNL     1      -4.301   0.880 -32.134  1.00  0.00    -0.065 N 
HETATM    8  H   UNL     1      -4.343   0.515 -33.095  1.00  0.00     0.280 HD
HETATM    9  C   UNL     1      -3.325   2.049 -32.158  1.00  0.00     0.244 C 
HETATM   10  C   UNL     1      -3.872   3.147 -33.081  1.00  0.00     0.045 C 
HETATM   11  C   UNL     1      -5.297   3.564 -32.667  1.00  0.00     0.022 C 
HETATM   12  C   UNL     1      -7.613   2.922 -31.932  1.00  0.00     0.039 C 
HETATM   13  C   UNL     1      -8.791   1.951 -31.964  1.00  0.00     0.236 C 
ENDROOT
BRANCH   7  14
HETATM   14  C   UNL     1      -3.740  -0.235 -31.294  1.00  0.00     0.188 A 
HETATM   15  C   UNL     1      -3.668  -1.593 -31.935  1.00  0.00     0.035 A 
HETATM   16  C   UNL     1      -2.413  -0.798 -31.717  1.00  0.00     0.035 A 
ENDBRANCH   7  14
BRANCH  10  17
HETATM   17  C   UNL     1      -2.926   4.330 -33.124  1.00  0.00    -0.052 A 
HETATM   18  C   UNL     1      -3.025   5.260 -34.171  1.00  0.00     0.007 A 
HETATM   19  C   UNL     1      -2.148   6.344 -34.245  1.00  0.00     0.001 A 
HETATM   20  C   UNL     1      -1.162   6.514 -33.278  1.00  0.00     0.000 A 
HETATM   21  C   UNL     1      -1.055   5.604 -32.231  1.00  0.00     0.001 A 
HETATM   22  C   UNL     1      -1.929   4.519 -32.152  1.00  0.00     0.007 A 
ENDBRANCH  10  17
BRANCH   1  23
HETATM   23  C   UNL     1      -9.815   2.444 -34.230  1.00  0.00     0.277 C 
BRANCH  23  24
HETATM   24  C   UNL     1     -11.243   2.060 -34.354  1.00  0.00     0.011 A 
HETATM   25  C   UNL     1     -12.245   2.690 -35.144  1.00  0.00     0.060 A 
HETATM   26  C   UNL     1     -12.143   3.912 -35.985  1.00  0.00     0.073 C 
HETATM   27  N   UNL     1     -13.396   2.020 -35.095  1.00  0.00    -0.178 NA
HETATM   28  N   UNL     1     -13.193   1.046 -34.200  1.00  0.00    -0.284 N 
HETATM   29  C   UNL     1     -14.267   0.145 -33.850  1.00  0.00     0.179 C 
HETATM   30  C   UNL     1     -11.903   1.006 -33.745  1.00  0.00     0.122 A 
ENDBRANCH  23  24
ENDBRANCH   1  23
TORSDOF 4
ENDMDL
MODEL 5
REMARK VINA RESULT:      -7.8      4.115      7.900
REMARK  4 active torsions:
REMARK  status: ('A' for Active; 'I' for Inactive)
REMARK    1  A    between atoms: C_7  and  C_8 
REMARK    2  A    between atoms: C_8  and  N_9 
REMARK    3  A    between atoms: N_15  and  C_17 
REMARK    4  A    between atoms: C_21  and  C_22 
ROOT
HETATM    1  N   UNL     1      -6.421   0.503 -33.768  1.00  0.00    -0.067 N 
HETATM    2  H   UNL     1      -5.412   0.661 -33.634  1.00  0.00     0.280 HD
HETATM    3  C   UNL     1      -6.985   1.829 -34.192  1.00  0.00     0.236 C 
HETATM    4  C   UNL     1      -8.516   1.806 -34.190  1.00  0.00     0.039 C 
HETATM    5  C   UNL     1      -9.143   1.348 -32.844  1.00  0.00    -0.013 C 
HETATM    6  C   UNL     1      -8.963   2.399 -31.714  1.00  0.00     0.245 C 
HETATM    7  N   UNL     1      -9.767   3.649 -31.984  1.00  0.00    -0.065 N 
HETATM    8  H   UNL     1      -9.492   4.078 -32.877  1.00  0.00     0.280 HD
HETATM    9  C   UNL     1     -11.260   3.363 -32.083  1.00  0.00     0.244 C 
HETATM   10  C   UNL     1     -11.509   2.355 -33.213  1.00  0.00     0.045 C 
HETATM   11  C   UNL     1     -10.666   1.079 -33.018  1.00  0.00     0.022 C 
HETATM   12  C   UNL     1      -8.470   0.003 -32.440  1.00  0.00     0.039 C 
HETATM   13  C   UNL     1      -6.943   0.023 -32.448  1.00  0.00     0.236 C 
ENDROOT
BRANCH   7  14
HETATM   14  C   UNL     1      -9.517   4.694 -30.931  1.00  0.00     0.188 A 
HETATM   15  C   UNL     1      -8.809   5.943 -31.375  1.00  0.00     0.035 A 
HETATM   16  C   UNL     1     -10.278   5.982 -31.063  1.00  0.00     0.035 A 
ENDBRANCH   7  14
BRANCH  10  17
HETATM   17  C   UNL     1     -12.987   2.043 -33.335  1.00  0.00    -0.052 A 
HETATM   18  C   UNL     1     -13.904   2.692 -32.494  1.00  0.00     0.007 A 
HETATM   19  C   UNL     1     -15.269   2.403 -32.571  1.00  0.00     0.001 A 
HETATM   20  C   UNL     1     -15.734   1.465 -33.486  1.00  0.00     0.000 A 
HETATM   21  C   UNL     1     -14.838   0.817 -34.331  1.00  0.00     0.001 A 
HETATM   22  C   UNL     1     -13.474   1.103 -34.258  1.00  0.00     0.007 A 
ENDBRANCH  10  17
BRANCH   1  23
HETATM   23  C   UNL     1      -6.422  -0.572 -34.857  1.00  0.00     0.277 C 
BRANCH  23  24
HETATM   24  C   UNL     1      -5.577  -1.732 -34.483  1.00  0.00     0.011 A 
HETATM   25  C   UNL     1      -4.346  -1.714 -33.768  1.00  0.00     0.060 A 
HETATM   26  C   UNL     1      -3.568  -0.548 -33.275  1.00  0.00     0.073 C 
HETATM   27  N   UNL     1      -3.910  -2.949 -33.520  1.00  0.00    -0.178 NA
HETATM   28  N   UNL     1      -4.765  -3.755 -34.162  1.00  0.00    -0.284 N 
HETATM   29  C   UNL     1      -4.560  -5.185 -34.154  1.00  0.00     0.179 C 
HETATM   30  C   UNL     1      -5.805  -3.075 -34.734  1.00  0.00     0.122 A 
ENDBRANCH  23  24
ENDBRANCH   1  23
TORSDOF 4
ENDMDL
MODEL 6
REMARK VINA RESULT:      -7.8      2.120      5.140
REMARK  4 active torsions:
REMARK  status: ('A' for Active; 'I' for Inactive)
REMARK    1  A    between atoms: C_7  and  C_8 
REMARK    2  A    between atoms: C_8  and  N_9 
REMARK    3  A    between atoms: N_15  and  C_17 
REMARK    4  A    between atoms: C_21  and  C_22 
ROOT
HETATM    1  N   UNL     1      -4.925   4.140 -32.029  1.00  0.00    -0.067 N 
HETATM    2  H   UNL     1      -3.909   4.150 -31.858  1.00  0.00     0.280 HD
HETATM    3  C   UNL     1      -5.400   2.792 -31.564  1.00  0.00     0.236 C 
HETATM    4  C   UNL     1      -6.851   2.542 -31.983  1.00  0.00     0.039 C 
HETATM    5  C   UNL     1      -7.113   2.720 -33.504  1.00  0.00    -0.013 C 
HETATM    6  C   UNL     1      -6.466   1.593 -34.357  1.00  0.00     0.245 C 
HETATM    7  N   UNL     1      -7.133   0.260 -34.115  1.00  0.00    -0.065 N 
HETATM    8  H   UNL     1      -7.076  -0.006 -33.123  1.00  0.00     0.280 HD
HETATM    9  C   UNL     1      -8.614   0.285 -34.471  1.00  0.00     0.244 C 
HETATM   10  C   UNL     1      -9.320   1.357 -33.629  1.00  0.00     0.045 C 
HETATM   11  C   UNL     1      -8.642   2.731 -33.794  1.00  0.00     0.022 C 
HETATM   12  C   UNL     1      -6.543   4.107 -33.924  1.00  0.00     0.039 C 
HETATM   13  C   UNL     1      -5.098   4.361 -33.501  1.00  0.00     0.236 C 
ENDROOT
BRANCH   7  14
HETATM   14  C   UNL     1      -6.444  -0.838 -34.876  1.00  0.00     0.188 A 
HETATM   15  C   UNL     1      -5.521  -1.728 -34.091  1.00  0.00     0.035 A 
HETATM   16  C   UNL     1      -6.853  -2.247 -34.552  1.00  0.00     0.035 A 
ENDBRANCH   7  14
BRANCH  10  17
HETATM   17  C   UNL     1     -10.797   1.411 -33.963  1.00  0.00    -0.052 A 
HETATM   18  C   UNL     1     -11.661   0.432 -33.448  1.00  0.00     0.007 A 
HETATM   19  C   UNL     1     -13.022   0.446 -33.762  1.00  0.00     0.001 A 
HETATM   20  C   UNL     1     -13.537   1.436 -34.594  1.00  0.00     0.000 A 
HETATM   21  C   UNL     1     -12.694   2.416 -35.108  1.00  0.00     0.001 A 
HETATM   22  C   UNL     1     -11.334   2.407 -34.796  1.00  0.00     0.007 A 
ENDBRANCH  10  17
BRANCH   1  23
HETATM   23  C   UNL     1      -5.394   5.316 -31.171  1.00  0.00     0.277 C 
BRANCH  23  24
HETATM   24  C   UNL     1      -4.256   5.994 -30.502  1.00  0.00     0.011 A 
HETATM   25  C   UNL     1      -4.293   6.790 -29.322  1.00  0.00     0.060 A 
HETATM   26  C   UNL     1      -5.465   7.194 -28.502  1.00  0.00     0.073 C 
HETATM   27  N   UNL     1      -3.068   7.160 -28.947  1.00  0.00    -0.178 NA
HETATM   28  N   UNL     1      -2.260   6.725 -29.922  1.00  0.00    -0.284 N 
HETATM   29  C   UNL     1      -0.844   7.006 -29.871  1.00  0.00     0.179 C 
HETATM   30  C   UNL     1      -2.921   5.991 -30.869  1.00  0.00     0.122 A 
ENDBRANCH  23  24
ENDBRANCH   1  23
TORSDOF 4
ENDMDL
MODEL 7
REMARK VINA RESULT:      -7.8      4.514      8.007
REMARK  4 active torsions:
REMARK  status: ('A' for Active; 'I' for Inactive)
REMARK    1  A    between atoms: C_7  and  C_8 
REMARK    2  A    between atoms: C_8  and  N_9 
REMARK    3  A    between atoms: N_15  and  C_17 
REMARK    4  A    between atoms: C_21  and  C_22 
ROOT
HETATM    1  N   UNL     1      -6.750  -0.296 -34.141  1.00  0.00    -0.067 N 
HETATM    2  H   UNL     1      -6.580  -1.192 -34.622  1.00  0.00     0.280 HD
HETATM    3  C   UNL     1      -7.854  -0.567 -33.159  1.00  0.00     0.236 C 
HETATM    4  C   UNL     1      -8.380   0.733 -32.545  1.00  0.00     0.039 C 
HETATM    5  C   UNL     1      -8.825   1.794 -33.590  1.00  0.00    -0.013 C 
HETATM    6  C   UNL     1     -10.126   1.389 -34.336  1.00  0.00     0.245 C 
HETATM    7  N   UNL     1     -11.321   1.393 -33.412  1.00  0.00    -0.065 N 
HETATM    8  H   UNL     1     -11.179   0.746 -32.624  1.00  0.00     0.280 HD
HETATM    9  C   UNL     1     -11.573   2.766 -32.803  1.00  0.00     0.244 C 
HETATM   10  C   UNL     1     -10.331   3.208 -32.017  1.00  0.00     0.045 C 
HETATM   11  C   UNL     1      -9.069   3.167 -32.899  1.00  0.00     0.022 C 
HETATM   12  C   UNL     1      -7.658   1.978 -34.605  1.00  0.00     0.039 C 
HETATM   13  C   UNL     1      -7.127   0.681 -35.213  1.00  0.00     0.236 C 
ENDROOT
BRANCH   7  14
HETATM   14  C   UNL     1     -12.558   0.914 -34.121  1.00  0.00     0.188 A 
HETATM   15  C   UNL     1     -13.221  -0.316 -33.566  1.00  0.00     0.035 A 
HETATM   16  C   UNL     1     -13.855   1.032 -33.372  1.00  0.00     0.035 A 
ENDBRANCH   7  14
BRANCH  10  17
HETATM   17  C   UNL     1     -10.548   4.576 -31.401  1.00  0.00    -0.052 A 
HETATM   18  C   UNL     1      -9.606   5.084 -30.492  1.00  0.00     0.007 A 
HETATM   19  C   UNL     1      -9.796   6.331 -29.893  1.00  0.00     0.001 A 
HETATM   20  C   UNL     1     -10.927   7.086 -30.192  1.00  0.00     0.000 A 
HETATM   21  C   UNL     1     -11.867   6.598 -31.094  1.00  0.00     0.001 A 
HETATM   22  C   UNL     1     -11.681   5.352 -31.696  1.00  0.00     0.007 A 
ENDBRANCH  10  17
BRANCH   1  23
HETATM   23  C   UNL     1      -5.384  -0.021 -33.511  1.00  0.00     0.277 C 
BRANCH  23  24
HETATM   24  C   UNL     1      -4.627  -1.275 -33.272  1.00  0.00     0.011 A 
HETATM   25  C   UNL     1      -3.616  -1.506 -32.298  1.00  0.00     0.060 A 
HETATM   26  C   UNL     1      -3.019  -0.553 -31.325  1.00  0.00     0.073 C 
HETATM   27  N   UNL     1      -3.222  -2.779 -32.298  1.00  0.00    -0.178 NA
HETATM   28  N   UNL     1      -3.866  -3.342 -33.328  1.00  0.00    -0.284 N 
HETATM   29  C   UNL     1      -3.630  -4.727 -33.664  1.00  0.00     0.179 C 
HETATM   30  C   UNL     1      -4.748  -2.487 -33.931  1.00  0.00     0.122 A 
ENDBRANCH  23  24
ENDBRANCH   1  23
TORSDOF 4
ENDMDL
MODEL 8
REMARK VINA RESULT:      -7.7      4.666      8.768
REMARK  4 active torsions:
REMARK  status: ('A' for Active; 'I' for Inactive)
REMARK    1  A    between atoms: C_7  and  C_8 
REMARK    2  A    between atoms: C_8  and  N_9 
REMARK    3  A    between atoms: N_15  and  C_17 
REMARK    4  A    between atoms: C_21  and  C_22 
ROOT
HETATM    1  N   UNL     1      -8.383  -0.057 -33.678  1.00  0.00    -0.067 N 
HETATM    2  H   UNL     1      -8.546  -0.914 -34.226  1.00  0.00     0.280 HD
HETATM    3  C   UNL     1      -9.443  -0.051 -32.613  1.00  0.00     0.236 C 
HETATM    4  C   UNL     1      -9.477   1.289 -31.873  1.00  0.00     0.039 C 
HETATM    5  C   UNL     1      -9.628   2.524 -32.803  1.00  0.00    -0.013 C 
HETATM    6  C   UNL     1     -11.040   2.620 -33.445  1.00  0.00     0.245 C 
HETATM    7  N   UNL     1     -12.100   2.919 -32.412  1.00  0.00    -0.065 N 
HETATM    8  H   UNL     1     -12.120   2.194 -31.683  1.00  0.00     0.280 HD
HETATM    9  C   UNL     1     -11.852   4.242 -31.699  1.00  0.00     0.244 C 
HETATM   10  C   UNL     1     -10.482   4.197 -31.009  1.00  0.00     0.045 C 
HETATM   11  C   UNL     1      -9.366   3.837 -32.009  1.00  0.00     0.022 C 
HETATM   12  C   UNL     1      -8.539   2.419 -33.912  1.00  0.00     0.039 C 
HETATM   13  C   UNL     1      -8.500   1.080 -34.646  1.00  0.00     0.236 C 
ENDROOT
BRANCH   7  14
HETATM   14  C   UNL     1     -13.473   2.922 -33.028  1.00  0.00     0.188 A 
HETATM   15  C   UNL     1     -14.255   1.641 -32.940  1.00  0.00     0.035 A 
HETATM   16  C   UNL     1     -14.637   2.815 -32.085  1.00  0.00     0.035 A 
ENDBRANCH   7  14
BRANCH  10  17
HETATM   17  C   UNL     1     -10.201   5.502 -30.293  1.00  0.00    -0.052 A 
HETATM   18  C   UNL     1     -11.127   6.554 -30.378  1.00  0.00     0.007 A 
HETATM   19  C   UNL     1     -10.879   7.775 -29.747  1.00  0.00     0.001 A 
HETATM   20  C   UNL     1      -9.704   7.962 -29.025  1.00  0.00     0.000 A 
HETATM   21  C   UNL     1      -8.778   6.928 -28.927  1.00  0.00     0.001 A 
HETATM   22  C   UNL     1      -9.023   5.706 -29.555  1.00  0.00     0.007 A 
ENDBRANCH  10  17
BRANCH   1  23
HETATM   23  C   UNL     1      -6.960  -0.286 -33.165  1.00  0.00     0.277 C 
BRANCH  23  24
HETATM   24  C   UNL     1      -6.340  -1.483 -33.784  1.00  0.00     0.011 A 
HETATM   25  C   UNL     1      -4.956  -1.809 -33.845  1.00  0.00     0.060 A 
HETATM   26  C   UNL     1      -3.787  -1.021 -33.372  1.00  0.00     0.073 C 
HETATM   27  N   UNL     1      -4.763  -3.011 -34.386  1.00  0.00    -0.178 NA
HETATM   28  N   UNL     1      -5.977  -3.412 -34.784  1.00  0.00    -0.284 N 
HETATM   29  C   UNL     1      -6.136  -4.670 -35.475  1.00  0.00     0.179 C 
HETATM   30  C   UNL     1      -6.967  -2.541 -34.419  1.00  0.00     0.122 A 
ENDBRANCH  23  24
ENDBRANCH   1  23
TORSDOF 4
ENDMDL
MODEL 9
REMARK VINA RESULT:      -7.7      2.061      2.688
REMARK  4 active torsions:
REMARK  status: ('A' for Active; 'I' for Inactive)
REMARK    1  A    between atoms: C_7  and  C_8 
REMARK    2  A    between atoms: C_8  and  N_9 
REMARK    3  A    between atoms: N_15  and  C_17 
REMARK    4  A    between atoms: C_21  and  C_22 
ROOT
HETATM    1  N   UNL     1      -6.075   5.950 -32.026  1.00  0.00    -0.067 N 
HETATM    2  H   UNL     1      -6.518   6.854 -31.806  1.00  0.00     0.280 HD
HETATM    3  C   UNL     1      -6.795   5.431 -33.238  1.00  0.00     0.236 C 
HETATM    4  C   UNL     1      -6.407   3.979 -33.532  1.00  0.00     0.039 C 
HETATM    5  C   UNL     1      -6.593   3.015 -32.328  1.00  0.00    -0.013 C 
HETATM    6  C   UNL     1      -8.089   2.754 -31.999  1.00  0.00     0.245 C 
HETATM    7  N   UNL     1      -8.770   1.966 -33.092  1.00  0.00    -0.065 N 
HETATM    8  H   UNL     1      -8.714   2.462 -33.993  1.00  0.00     0.280 HD
HETATM    9  C   UNL     1      -8.124   0.604 -33.308  1.00  0.00     0.244 C 
HETATM   10  C   UNL     1      -6.647   0.796 -33.677  1.00  0.00     0.045 C 
HETATM   11  C   UNL     1      -5.914   1.645 -32.620  1.00  0.00     0.022 C 
HETATM   12  C   UNL     1      -5.874   3.646 -31.099  1.00  0.00     0.039 C 
HETATM   13  C   UNL     1      -6.255   5.096 -30.808  1.00  0.00     0.236 C 
ENDROOT
BRANCH   7  14
HETATM   14  C   UNL     1     -10.237   1.796 -32.807  1.00  0.00     0.188 A 
HETATM   15  C   UNL     1     -11.180   2.029 -33.954  1.00  0.00     0.035 A 
HETATM   16  C   UNL     1     -10.923   0.633 -33.465  1.00  0.00     0.035 A 
ENDBRANCH   7  14
BRANCH  10  17
HETATM   17  C   UNL     1      -5.972  -0.543 -33.894  1.00  0.00    -0.052 A 
HETATM   18  C   UNL     1      -4.845  -0.885 -33.128  1.00  0.00     0.007 A 
HETATM   19  C   UNL     1      -4.191  -2.102 -33.327  1.00  0.00     0.001 A 
HETATM   20  C   UNL     1      -4.652  -2.994 -34.291  1.00  0.00     0.000 A 
HETATM   21  C   UNL     1      -5.769  -2.672 -35.055  1.00  0.00     0.001 A 
HETATM   22  C   UNL     1      -6.427  -1.457 -34.859  1.00  0.00     0.007 A 
ENDBRANCH  10  17
BRANCH   1  23
HETATM   23  C   UNL     1      -4.625   6.371 -32.274  1.00  0.00     0.277 C 
BRANCH  23  24
HETATM   24  C   UNL     1      -4.048   7.068 -31.098  1.00  0.00     0.011 A 
HETATM   25  C   UNL     1      -4.369   8.369 -30.617  1.00  0.00     0.060 A 
HETATM   26  C   UNL     1      -5.301   9.375 -31.191  1.00  0.00     0.073 C 
HETATM   27  N   UNL     1      -3.731   8.637 -29.478  1.00  0.00    -0.178 NA
HETATM   28  N   UNL     1      -2.917   7.593 -29.281  1.00  0.00    -0.284 N 
HETATM   29  C   UNL     1      -2.020   7.574 -28.149  1.00  0.00     0.179 C 
HETATM   30  C   UNL     1      -3.090   6.605 -30.212  1.00  0.00     0.122 A 
ENDBRANCH  23  24
ENDBRANCH   1  23
TORSDOF 4
ENDMDL
MODEL 10
REMARK VINA RESULT:      -7.5     15.715     18.044
REMARK  4 active torsions:
REMARK  status: ('A' for Active; 'I' for Inactive)
REMARK    1  A    between atoms: C_7  and  C_8 
REMARK    2  A    between atoms: C_8  and  N_9 
REMARK    3  A    between atoms: N_15  and  C_17 
REMARK    4  A    between atoms: C_21  and  C_22 
ROOT
HETATM    1  N   UNL     1      -4.950 -14.990 -32.588  1.00  0.00    -0.067 N 
HETATM    2  H   UNL     1      -4.144 -15.062 -31.950  1.00  0.00     0.280 HD
HETATM    3  C   UNL     1      -4.483 -15.563 -33.896  1.00  0.00     0.236 C 
HETATM    4  C   UNL     1      -5.498 -15.298 -35.011  1.00  0.00     0.039 C 
HETATM    5  C   UNL     1      -5.885 -13.802 -35.175  1.00  0.00    -0.013 C 
HETATM    6  C   UNL     1      -4.726 -12.947 -35.759  1.00  0.00     0.245 C 
HETATM    7  N   UNL     1      -4.431 -13.316 -37.193  1.00  0.00    -0.065 N 
HETATM    8  H   UNL     1      -4.177 -14.310 -37.273  1.00  0.00     0.280 HD
HETATM    9  C   UNL     1      -5.635 -13.103 -38.103  1.00  0.00     0.244 C 
HETATM   10  C   UNL     1      -6.807 -13.956 -37.599  1.00  0.00     0.045 C 
HETATM   11  C   UNL     1      -7.116 -13.660 -36.118  1.00  0.00     0.022 C 
HETATM   12  C   UNL     1      -6.299 -13.263 -33.774  1.00  0.00     0.039 C 
HETATM   13  C   UNL     1      -5.290 -13.532 -32.660  1.00  0.00     0.236 C 
ENDROOT
BRANCH   7  14
HETATM   14  C   UNL     1      -3.251 -12.546 -37.721  1.00  0.00     0.188 A 
HETATM   15  C   UNL     1      -1.901 -13.189 -37.567  1.00  0.00     0.035 A 
HETATM   16  C   UNL     1      -2.550 -13.119 -38.919  1.00  0.00     0.035 A 
ENDBRANCH   7  14
BRANCH  10  17
HETATM   17  C   UNL     1      -8.025 -13.763 -38.480  1.00  0.00    -0.052 A 
HETATM   18  C   UNL     1      -8.320 -12.487 -38.985  1.00  0.00     0.007 A 
HETATM   19  C   UNL     1      -9.451 -12.279 -39.779  1.00  0.00     0.001 A 
HETATM   20  C   UNL     1     -10.300 -13.341 -40.077  1.00  0.00     0.000 A 
HETATM   21  C   UNL     1     -10.018 -14.612 -39.587  1.00  0.00     0.001 A 
HETATM   22  C   UNL     1      -8.889 -14.825 -38.795  1.00  0.00     0.007 A 
ENDBRANCH  10  17
BRANCH   1  23
HETATM   23  C   UNL     1      -5.997 -15.831 -31.857  1.00  0.00     0.277 C 
BRANCH  23  24
HETATM   24  C   UNL     1      -5.451 -16.425 -30.612  1.00  0.00     0.011 A 
HETATM   25  C   UNL     1      -6.131 -17.255 -29.676  1.00  0.00     0.060 A 
HETATM   26  C   UNL     1      -7.555 -17.683 -29.667  1.00  0.00     0.073 C 
HETATM   27  N   UNL     1      -5.307 -17.692 -28.725  1.00  0.00    -0.178 NA
HETATM   28  N   UNL     1      -4.146 -17.066 -28.957  1.00  0.00    -0.284 N 
HETATM   29  C   UNL     1      -3.024 -17.264 -28.069  1.00  0.00     0.179 C 
HETATM   30  C   UNL     1      -4.170 -16.314 -30.099  1.00  0.00     0.122 A 
ENDBRANCH  23  24
ENDBRANCH   1  23
TORSDOF 4
ENDMDL
