MODEL 1
REMARK VINA RESULT:      -9.4      0.000      0.000
REMARK  5 active torsions:
REMARK  status: ('A' for Active; 'I' for Inactive)
REMARK    1  A    between atoms: C_12  and  C_13 
REMARK    2  A    between atoms: C_13  and  N_14 
REMARK    3  A    between atoms: N_14  and  C_15 
REMARK    4  A    between atoms: C_16  and  O_17 
REMARK    5  A    between atoms: C_19  and  O_20 
ROOT
HETATM    1  C   UNL     1      -3.712  -4.577 -33.888  1.00  0.00     0.049 C 
HETATM    2  C   UNL     1      -4.486  -3.287 -33.942  1.00  0.00    -0.055 A 
HETATM    3  C   UNL     1      -5.656  -3.160 -34.720  1.00  0.00    -0.054 A 
HETATM    4  C   UNL     1      -6.209  -4.319 -35.505  1.00  0.00     0.049 C 
HETATM    5  C   UNL     1      -6.345  -1.936 -34.733  1.00  0.00     0.037 A 
HETATM    6  C   UNL     1      -5.860  -0.849 -34.010  1.00  0.00     0.045 A 
HETATM    7  C   UNL     1      -4.689  -0.958 -33.258  1.00  0.00    -0.008 A 
HETATM    8  C   UNL     1      -4.006  -2.175 -33.227  1.00  0.00     0.021 A 
HETATM    9  N   UNL     1      -6.548   0.371 -34.032  1.00  0.00    -0.322 N 
HETATM   10  C   UNL     1      -6.139   1.485 -33.347  1.00  0.00     0.253 A 
HETATM   11  O   UNL     1      -6.784   2.530 -33.384  1.00  0.00    -0.268 OA
HETATM   12  C   UNL     1      -4.881   1.373 -32.553  1.00  0.00     0.024 A 
HETATM   13  C   UNL     1      -4.204   0.211 -32.524  1.00  0.00     0.027 A 
HETATM   14  H   UNL     1      -7.402   0.464 -34.564  1.00  0.00     0.169 HD
ENDROOT
BRANCH  12  15
HETATM   15  C   UNL     1      -4.418   2.618 -31.859  1.00  0.00     0.136 C 
BRANCH  15  16
HETATM   16  N   UNL     1      -2.993   2.801 -32.142  1.00  0.00    -0.286 NA
HETATM   17  H   UNL     1      -2.484   2.713 -31.253  1.00  0.00     0.128 HD
BRANCH  16  18
HETATM   18  C   UNL     1      -2.611   4.034 -32.718  1.00  0.00     0.042 A 
HETATM   19  C   UNL     1      -1.703   4.825 -31.991  1.00  0.00     0.089 A 
HETATM   20  C   UNL     1      -1.313   6.093 -32.403  1.00  0.00     0.074 A 
HETATM   21  C   UNL     1      -1.858   6.597 -33.576  1.00  0.00     0.068 A 
HETATM   22  C   UNL     1      -2.778   5.855 -34.312  1.00  0.00     0.038 A 
HETATM   23  C   UNL     1      -3.166   4.582 -33.877  1.00  0.00     0.029 A 
BRANCH  19  24
HETATM   24  O   UNL     1      -1.162   4.309 -30.841  1.00  0.00    -0.359 OA
HETATM   25  H   UNL     1      -0.297   3.957 -31.141  1.00  0.00     0.218 HD
ENDBRANCH  19  24
BRANCH  21  26
HETATM   26  O   UNL     1      -1.519   7.832 -34.045  1.00  0.00    -0.361 OA
HETATM   27  H   UNL     1      -1.325   8.403 -33.283  1.00  0.00     0.217 HD
ENDBRANCH  21  26
ENDBRANCH  16  18
ENDBRANCH  15  16
ENDBRANCH  12  15
TORSDOF 5
ENDMDL
MODEL 2
REMARK VINA RESULT:      -9.1      1.535      1.995
REMARK  5 active torsions:
REMARK  status: ('A' for Active; 'I' for Inactive)
REMARK    1  A    between atoms: C_12  and  C_13 
REMARK    2  A    between atoms: C_13  and  N_14 
REMARK    3  A    between atoms: N_14  and  C_15 
REMARK    4  A    between atoms: C_16  and  O_17 
REMARK    5  A    between atoms: C_19  and  O_20 
ROOT
HETATM    1  C   UNL     1      -3.737  -4.284 -34.208  1.00  0.00     0.049 C 
HETATM    2  C   UNL     1      -4.686  -3.136 -33.990  1.00  0.00    -0.055 A 
HETATM    3  C   UNL     1      -5.991  -3.145 -34.525  1.00  0.00    -0.054 A 
HETATM    4  C   UNL     1      -6.513  -4.320 -35.307  1.00  0.00     0.049 C 
HETATM    5  C   UNL     1      -6.840  -2.050 -34.290  1.00  0.00     0.037 A 
HETATM    6  C   UNL     1      -6.386  -0.952 -33.563  1.00  0.00     0.045 A 
HETATM    7  C   UNL     1      -5.087  -0.924 -33.052  1.00  0.00    -0.008 A 
HETATM    8  C   UNL     1      -4.242  -2.014 -33.268  1.00  0.00     0.021 A 
HETATM    9  N   UNL     1      -7.234   0.139 -33.337  1.00  0.00    -0.322 N 
HETATM   10  C   UNL     1      -6.865   1.253 -32.631  1.00  0.00     0.253 A 
HETATM   11  O   UNL     1      -7.648   2.181 -32.445  1.00  0.00    -0.268 OA
HETATM   12  C   UNL     1      -5.473   1.290 -32.095  1.00  0.00     0.024 A 
HETATM   13  C   UNL     1      -4.642   0.254 -32.307  1.00  0.00     0.027 A 
HETATM   14  H   UNL     1      -8.180   0.130 -33.692  1.00  0.00     0.169 HD
ENDROOT
BRANCH  12  15
HETATM   15  C   UNL     1      -5.068   2.542 -31.378  1.00  0.00     0.136 C 
BRANCH  15  16
HETATM   16  N   UNL     1      -5.295   3.680 -32.270  1.00  0.00    -0.286 NA
HETATM   17  H   UNL     1      -5.978   3.388 -32.982  1.00  0.00     0.128 HD
BRANCH  16  18
HETATM   18  C   UNL     1      -4.168   4.185 -32.960  1.00  0.00     0.042 A 
HETATM   19  C   UNL     1      -4.401   4.788 -34.209  1.00  0.00     0.089 A 
HETATM   20  C   UNL     1      -3.374   5.246 -35.024  1.00  0.00     0.074 A 
HETATM   21  C   UNL     1      -2.068   5.086 -34.585  1.00  0.00     0.068 A 
HETATM   22  C   UNL     1      -1.795   4.471 -33.366  1.00  0.00     0.038 A 
HETATM   23  C   UNL     1      -2.842   4.008 -32.560  1.00  0.00     0.029 A 
BRANCH  19  24
HETATM   24  O   UNL     1      -5.698   4.953 -34.624  1.00  0.00    -0.359 OA
HETATM   25  H   UNL     1      -5.910   4.089 -35.036  1.00  0.00     0.218 HD
ENDBRANCH  19  24
BRANCH  21  26
HETATM   26  O   UNL     1      -1.009   5.514 -35.331  1.00  0.00    -0.361 OA
HETATM   27  H   UNL     1      -0.263   5.684 -34.731  1.00  0.00     0.217 HD
ENDBRANCH  21  26
ENDBRANCH  16  18
ENDBRANCH  15  16
ENDBRANCH  12  15
TORSDOF 5
ENDMDL
MODEL 3
REMARK VINA RESULT:      -9.1      4.037      7.251
REMARK  5 active torsions:
REMARK  status: ('A' for Active; 'I' for Inactive)
REMARK    1  A    between atoms: C_12  and  C_13 
REMARK    2  A    between atoms: C_13  and  N_14 
REMARK    3  A    between atoms: N_14  and  C_15 
REMARK    4  A    between atoms: C_16  and  O_17 
REMARK    5  A    between atoms: C_19  and  O_20 
ROOT
HETATM    1  C   UNL     1      -6.283  -4.745 -35.346  1.00  0.00     0.049 C 
HETATM    2  C   UNL     1      -6.026  -3.354 -34.830  1.00  0.00    -0.055 A 
HETATM    3  C   UNL     1      -4.824  -3.022 -34.170  1.00  0.00    -0.054 A 
HETATM    4  C   UNL     1      -3.723  -4.032 -33.984  1.00  0.00     0.049 C 
HETATM    5  C   UNL     1      -4.630  -1.709 -33.710  1.00  0.00     0.037 A 
HETATM    6  C   UNL     1      -5.629  -0.752 -33.876  1.00  0.00     0.045 A 
HETATM    7  C   UNL     1      -6.832  -1.079 -34.505  1.00  0.00    -0.008 A 
HETATM    8  C   UNL     1      -7.026  -2.378 -34.978  1.00  0.00     0.021 A 
HETATM    9  N   UNL     1      -5.434   0.555 -33.410  1.00  0.00    -0.322 N 
HETATM   10  C   UNL     1      -6.363   1.552 -33.537  1.00  0.00     0.253 A 
HETATM   11  O   UNL     1      -6.141   2.688 -33.125  1.00  0.00    -0.268 OA
HETATM   12  C   UNL     1      -7.654   1.201 -34.197  1.00  0.00     0.024 A 
HETATM   13  C   UNL     1      -7.862  -0.050 -34.646  1.00  0.00     0.027 A 
HETATM   14  H   UNL     1      -4.565   0.810 -32.961  1.00  0.00     0.169 HD
ENDROOT
BRANCH  12  15
HETATM   15  C   UNL     1      -8.682   2.289 -34.272  1.00  0.00     0.136 C 
BRANCH  15  16
HETATM   16  N   UNL     1      -9.661   2.074 -33.206  1.00  0.00    -0.286 NA
HETATM   17  H   UNL     1      -9.403   1.208 -32.714  1.00  0.00     0.128 HD
BRANCH  16  18
HETATM   18  C   UNL     1     -11.013   1.939 -33.599  1.00  0.00     0.042 A 
HETATM   19  C   UNL     1     -11.607   0.677 -33.424  1.00  0.00     0.089 A 
HETATM   20  C   UNL     1     -12.898   0.389 -33.847  1.00  0.00     0.074 A 
HETATM   21  C   UNL     1     -13.620   1.392 -34.478  1.00  0.00     0.068 A 
HETATM   22  C   UNL     1     -13.059   2.648 -34.692  1.00  0.00     0.038 A 
HETATM   23  C   UNL     1     -11.753   2.918 -34.266  1.00  0.00     0.029 A 
BRANCH  19  24
HETATM   24  O   UNL     1     -10.888  -0.302 -32.786  1.00  0.00    -0.359 OA
HETATM   25  H   UNL     1     -11.101  -1.107 -33.303  1.00  0.00     0.218 HD
ENDBRANCH  19  24
BRANCH  21  26
HETATM   26  O   UNL     1     -14.894   1.184 -34.917  1.00  0.00    -0.361 OA
HETATM   27  H   UNL     1     -14.962   1.520 -35.826  1.00  0.00     0.217 HD
ENDBRANCH  21  26
ENDBRANCH  16  18
ENDBRANCH  15  16
ENDBRANCH  12  15
TORSDOF 5
ENDMDL
MODEL 4
REMARK VINA RESULT:      -8.7      4.067      7.413
REMARK  5 active torsions:
REMARK  status: ('A' for Active; 'I' for Inactive)
REMARK    1  A    between atoms: C_12  and  C_13 
REMARK    2  A    between atoms: C_13  and  N_14 
REMARK    3  A    between atoms: N_14  and  C_15 
REMARK    4  A    between atoms: C_16  and  O_17 
REMARK    5  A    between atoms: C_19  and  O_20 
ROOT
HETATM    1  C   UNL     1     -13.269  -0.229 -33.535  1.00  0.00     0.049 C 
HETATM    2  C   UNL     1     -11.969   0.516 -33.673  1.00  0.00    -0.055 A 
HETATM    3  C   UNL     1     -11.892   1.745 -34.361  1.00  0.00    -0.054 A 
HETATM    4  C   UNL     1     -13.113   2.391 -34.958  1.00  0.00     0.049 C 
HETATM    5  C   UNL     1     -10.655   2.404 -34.459  1.00  0.00     0.037 A 
HETATM    6  C   UNL     1      -9.509   1.834 -33.909  1.00  0.00     0.045 A 
HETATM    7  C   UNL     1      -9.572   0.605 -33.248  1.00  0.00    -0.008 A 
HETATM    8  C   UNL     1     -10.800  -0.049 -33.134  1.00  0.00     0.021 A 
HETATM    9  N   UNL     1      -8.277   2.492 -34.014  1.00  0.00    -0.322 N 
HETATM   10  C   UNL     1      -7.108   2.000 -33.499  1.00  0.00     0.253 A 
HETATM   11  O   UNL     1      -6.053   2.620 -33.603  1.00  0.00    -0.268 OA
HETATM   12  C   UNL     1      -7.171   0.681 -32.804  1.00  0.00     0.024 A 
HETATM   13  C   UNL     1      -8.344   0.031 -32.698  1.00  0.00     0.027 A 
HETATM   14  H   UNL     1      -8.217   3.386 -34.481  1.00  0.00     0.169 HD
ENDROOT
BRANCH  12  15
HETATM   15  C   UNL     1      -5.871   0.131 -32.300  1.00  0.00     0.136 C 
BRANCH  15  16
HETATM   16  N   UNL     1      -5.080  -0.310 -33.450  1.00  0.00    -0.286 NA
HETATM   17  H   UNL     1      -5.426   0.190 -34.278  1.00  0.00     0.128 HD
BRANCH  16  18
HETATM   18  C   UNL     1      -5.113  -1.690 -33.756  1.00  0.00     0.042 A 
HETATM   19  C   UNL     1      -4.063  -2.481 -33.257  1.00  0.00     0.089 A 
HETATM   20  C   UNL     1      -3.931  -3.831 -33.556  1.00  0.00     0.074 A 
HETATM   21  C   UNL     1      -4.874  -4.412 -34.392  1.00  0.00     0.068 A 
HETATM   22  C   UNL     1      -5.916  -3.657 -34.926  1.00  0.00     0.038 A 
HETATM   23  C   UNL     1      -6.028  -2.296 -34.620  1.00  0.00     0.029 A 
BRANCH  19  24
HETATM   24  O   UNL     1      -3.145  -1.898 -32.421  1.00  0.00    -0.359 OA
HETATM   25  H   UNL     1      -3.034  -2.567 -31.712  1.00  0.00     0.218 HD
ENDBRANCH  19  24
BRANCH  21  26
HETATM   26  O   UNL     1      -4.812  -5.732 -34.727  1.00  0.00    -0.361 OA
HETATM   27  H   UNL     1      -5.364  -6.231 -34.102  1.00  0.00     0.217 HD
ENDBRANCH  21  26
ENDBRANCH  16  18
ENDBRANCH  15  16
ENDBRANCH  12  15
TORSDOF 5
ENDMDL
MODEL 5
REMARK VINA RESULT:      -8.4      1.802      2.658
REMARK  5 active torsions:
REMARK  status: ('A' for Active; 'I' for Inactive)
REMARK    1  A    between atoms: C_12  and  C_13 
REMARK    2  A    between atoms: C_13  and  N_14 
REMARK    3  A    between atoms: N_14  and  C_15 
REMARK    4  A    between atoms: C_16  and  O_17 
REMARK    5  A    between atoms: C_19  and  O_20 
ROOT
HETATM    1  C   UNL     1      -6.227  -3.569 -35.012  1.00  0.00     0.049 C 
HETATM    2  C   UNL     1      -5.421  -2.552 -34.248  1.00  0.00    -0.055 A 
HETATM    3  C   UNL     1      -4.249  -2.912 -33.550  1.00  0.00    -0.054 A 
HETATM    4  C   UNL     1      -3.725  -4.323 -33.566  1.00  0.00     0.049 C 
HETATM    5  C   UNL     1      -3.530  -1.925 -32.855  1.00  0.00     0.037 A 
HETATM    6  C   UNL     1      -3.987  -0.609 -32.829  1.00  0.00     0.045 A 
HETATM    7  C   UNL     1      -5.160  -0.249 -33.496  1.00  0.00    -0.008 A 
HETATM    8  C   UNL     1      -5.873  -1.221 -34.201  1.00  0.00     0.021 A 
HETATM    9  N   UNL     1      -3.271   0.370 -32.130  1.00  0.00    -0.322 N 
HETATM   10  C   UNL     1      -3.651   1.683 -32.059  1.00  0.00     0.253 A 
HETATM   11  O   UNL     1      -2.982   2.510 -31.445  1.00  0.00    -0.268 OA
HETATM   12  C   UNL     1      -4.911   2.066 -32.760  1.00  0.00     0.024 A 
HETATM   13  C   UNL     1      -5.616   1.139 -33.432  1.00  0.00     0.027 A 
HETATM   14  H   UNL     1      -2.414   0.127 -31.650  1.00  0.00     0.169 HD
ENDROOT
BRANCH  12  15
HETATM   15  C   UNL     1      -5.343   3.495 -32.621  1.00  0.00     0.136 C 
BRANCH  15  16
HETATM   16  N   UNL     1      -4.722   4.272 -33.695  1.00  0.00    -0.286 NA
HETATM   17  H   UNL     1      -4.040   3.664 -34.167  1.00  0.00     0.128 HD
BRANCH  16  18
HETATM   18  C   UNL     1      -4.035   5.448 -33.316  1.00  0.00     0.042 A 
HETATM   19  C   UNL     1      -3.046   5.923 -34.196  1.00  0.00     0.089 A 
HETATM   20  C   UNL     1      -2.242   7.016 -33.904  1.00  0.00     0.074 A 
HETATM   21  C   UNL     1      -2.420   7.653 -32.684  1.00  0.00     0.068 A 
HETATM   22  C   UNL     1      -3.372   7.199 -31.774  1.00  0.00     0.038 A 
HETATM   23  C   UNL     1      -4.169   6.090 -32.083  1.00  0.00     0.029 A 
BRANCH  19  24
HETATM   24  O   UNL     1      -2.890   5.292 -35.405  1.00  0.00    -0.359 OA
HETATM   25  H   UNL     1      -3.742   5.468 -35.858  1.00  0.00     0.218 HD
ENDBRANCH  19  24
BRANCH  21  26
HETATM   26  O   UNL     1      -1.670   8.735 -32.329  1.00  0.00    -0.361 OA
HETATM   27  H   UNL     1      -2.073   9.141 -31.544  1.00  0.00     0.217 HD
ENDBRANCH  21  26
ENDBRANCH  16  18
ENDBRANCH  15  16
ENDBRANCH  12  15
TORSDOF 5
ENDMDL
MODEL 6
REMARK VINA RESULT:      -8.4      2.908      7.986
REMARK  5 active torsions:
REMARK  status: ('A' for Active; 'I' for Inactive)
REMARK    1  A    between atoms: C_12  and  C_13 
REMARK    2  A    between atoms: C_13  and  N_14 
REMARK    3  A    between atoms: N_14  and  C_15 
REMARK    4  A    between atoms: C_16  and  O_17 
REMARK    5  A    between atoms: C_19  and  O_20 
ROOT
HETATM    1  C   UNL     1      -1.299   6.161 -34.052  1.00  0.00     0.049 C 
HETATM    2  C   UNL     1      -2.228   5.482 -33.082  1.00  0.00    -0.055 A 
HETATM    3  C   UNL     1      -2.891   6.203 -32.066  1.00  0.00    -0.054 A 
HETATM    4  C   UNL     1      -2.731   7.693 -31.927  1.00  0.00     0.049 C 
HETATM    5  C   UNL     1      -3.751   5.523 -31.187  1.00  0.00     0.037 A 
HETATM    6  C   UNL     1      -3.923   4.145 -31.298  1.00  0.00     0.045 A 
HETATM    7  C   UNL     1      -3.251   3.420 -32.284  1.00  0.00    -0.008 A 
HETATM    8  C   UNL     1      -2.406   4.090 -33.171  1.00  0.00     0.021 A 
HETATM    9  N   UNL     1      -4.777   3.471 -30.416  1.00  0.00    -0.322 N 
HETATM   10  C   UNL     1      -5.002   2.121 -30.460  1.00  0.00     0.253 A 
HETATM   11  O   UNL     1      -5.772   1.576 -29.673  1.00  0.00    -0.268 OA
HETATM   12  C   UNL     1      -4.275   1.343 -31.505  1.00  0.00     0.024 A 
HETATM   13  C   UNL     1      -3.446   1.972 -32.358  1.00  0.00     0.027 A 
HETATM   14  H   UNL     1      -5.278   3.983 -29.702  1.00  0.00     0.169 HD
ENDROOT
BRANCH  12  15
HETATM   15  C   UNL     1      -4.487  -0.140 -31.499  1.00  0.00     0.136 C 
BRANCH  15  16
HETATM   16  N   UNL     1      -3.543  -0.746 -32.440  1.00  0.00    -0.286 NA
HETATM   17  H   UNL     1      -3.414  -0.089 -33.220  1.00  0.00     0.128 HD
BRANCH  16  18
HETATM   18  C   UNL     1      -3.912  -1.989 -33.002  1.00  0.00     0.042 A 
HETATM   19  C   UNL     1      -3.298  -3.138 -32.472  1.00  0.00     0.089 A 
HETATM   20  C   UNL     1      -3.507  -4.409 -32.990  1.00  0.00     0.074 A 
HETATM   21  C   UNL     1      -4.349  -4.539 -34.086  1.00  0.00     0.068 A 
HETATM   22  C   UNL     1      -4.956  -3.423 -34.656  1.00  0.00     0.038 A 
HETATM   23  C   UNL     1      -4.728  -2.149 -34.124  1.00  0.00     0.029 A 
BRANCH  19  24
HETATM   24  O   UNL     1      -2.479  -2.997 -31.380  1.00  0.00    -0.359 OA
HETATM   25  H   UNL     1      -2.158  -3.910 -31.224  1.00  0.00     0.218 HD
ENDBRANCH  19  24
BRANCH  21  26
HETATM   26  O   UNL     1      -4.604  -5.756 -34.646  1.00  0.00    -0.361 OA
HETATM   27  H   UNL     1      -3.759  -6.220 -34.766  1.00  0.00     0.217 HD
ENDBRANCH  21  26
ENDBRANCH  16  18
ENDBRANCH  15  16
ENDBRANCH  12  15
TORSDOF 5
ENDMDL
MODEL 7
REMARK VINA RESULT:      -8.0      2.679      7.254
REMARK  5 active torsions:
REMARK  status: ('A' for Active; 'I' for Inactive)
REMARK    1  A    between atoms: C_12  and  C_13 
REMARK    2  A    between atoms: C_13  and  N_14 
REMARK    3  A    between atoms: N_14  and  C_15 
REMARK    4  A    between atoms: C_16  and  O_17 
REMARK    5  A    between atoms: C_19  and  O_20 
ROOT
HETATM    1  C   UNL     1      -1.129   5.578 -34.705  1.00  0.00     0.049 C 
HETATM    2  C   UNL     1      -1.961   5.016 -33.584  1.00  0.00    -0.055 A 
HETATM    3  C   UNL     1      -1.507   5.032 -32.248  1.00  0.00    -0.054 A 
HETATM    4  C   UNL     1      -0.185   5.647 -31.874  1.00  0.00     0.049 C 
HETATM    5  C   UNL     1      -2.323   4.499 -31.237  1.00  0.00     0.037 A 
HETATM    6  C   UNL     1      -3.555   3.930 -31.554  1.00  0.00     0.045 A 
HETATM    7  C   UNL     1      -4.000   3.887 -32.876  1.00  0.00    -0.008 A 
HETATM    8  C   UNL     1      -3.202   4.428 -33.886  1.00  0.00     0.021 A 
HETATM    9  N   UNL     1      -4.361   3.394 -30.542  1.00  0.00    -0.322 N 
HETATM   10  C   UNL     1      -5.584   2.821 -30.771  1.00  0.00     0.253 A 
HETATM   11  O   UNL     1      -6.263   2.376 -29.849  1.00  0.00    -0.268 OA
HETATM   12  C   UNL     1      -6.056   2.763 -32.185  1.00  0.00     0.024 A 
HETATM   13  C   UNL     1      -5.292   3.267 -33.170  1.00  0.00     0.027 A 
HETATM   14  H   UNL     1      -4.057   3.426 -29.579  1.00  0.00     0.169 HD
ENDROOT
BRANCH  12  15
HETATM   15  C   UNL     1      -7.368   2.078 -32.422  1.00  0.00     0.136 C 
BRANCH  15  16
HETATM   16  N   UNL     1      -7.293   0.728 -31.861  1.00  0.00    -0.286 NA
HETATM   17  H   UNL     1      -6.738   0.779 -30.997  1.00  0.00     0.128 HD
BRANCH  16  18
HETATM   18  C   UNL     1      -6.704  -0.268 -32.673  1.00  0.00     0.042 A 
HETATM   19  C   UNL     1      -5.440  -0.747 -32.283  1.00  0.00     0.089 A 
HETATM   20  C   UNL     1      -4.717  -1.661 -33.038  1.00  0.00     0.074 A 
HETATM   21  C   UNL     1      -5.267  -2.104 -34.232  1.00  0.00     0.068 A 
HETATM   22  C   UNL     1      -6.504  -1.636 -34.666  1.00  0.00     0.038 A 
HETATM   23  C   UNL     1      -7.216  -0.708 -33.896  1.00  0.00     0.029 A 
BRANCH  19  24
HETATM   24  O   UNL     1      -4.915  -0.311 -31.093  1.00  0.00    -0.359 OA
HETATM   25  H   UNL     1      -4.640  -1.143 -30.654  1.00  0.00     0.218 HD
ENDBRANCH  19  24
BRANCH  21  26
HETATM   26  O   UNL     1      -4.616  -3.004 -35.024  1.00  0.00    -0.361 OA
HETATM   27  H   UNL     1      -4.793  -2.776 -35.952  1.00  0.00     0.217 HD
ENDBRANCH  21  26
ENDBRANCH  16  18
ENDBRANCH  15  16
ENDBRANCH  12  15
TORSDOF 5
ENDMDL
MODEL 8
REMARK VINA RESULT:      -8.0      5.339      8.416
REMARK  5 active torsions:
REMARK  status: ('A' for Active; 'I' for Inactive)
REMARK    1  A    between atoms: C_12  and  C_13 
REMARK    2  A    between atoms: C_13  and  N_14 
REMARK    3  A    between atoms: N_14  and  C_15 
REMARK    4  A    between atoms: C_16  and  O_17 
REMARK    5  A    between atoms: C_19  and  O_20 
ROOT
HETATM    1  C   UNL     1      -4.640  -2.831 -34.956  1.00  0.00     0.049 C 
HETATM    2  C   UNL     1      -5.407  -1.826 -34.139  1.00  0.00    -0.055 A 
HETATM    3  C   UNL     1      -4.968  -1.426 -32.859  1.00  0.00    -0.054 A 
HETATM    4  C   UNL     1      -3.691  -1.955 -32.264  1.00  0.00     0.049 C 
HETATM    5  C   UNL     1      -5.717  -0.482 -32.138  1.00  0.00     0.037 A 
HETATM    6  C   UNL     1      -6.899   0.031 -32.668  1.00  0.00     0.045 A 
HETATM    7  C   UNL     1      -7.355  -0.379 -33.922  1.00  0.00    -0.008 A 
HETATM    8  C   UNL     1      -6.608  -1.306 -34.652  1.00  0.00     0.021 A 
HETATM    9  N   UNL     1      -7.646   0.967 -31.942  1.00  0.00    -0.322 N 
HETATM   10  C   UNL     1      -8.815   1.519 -32.393  1.00  0.00     0.253 A 
HETATM   11  O   UNL     1      -9.429   2.349 -31.727  1.00  0.00    -0.268 OA
HETATM   12  C   UNL     1      -9.309   1.073 -33.728  1.00  0.00     0.024 A 
HETATM   13  C   UNL     1      -8.609   0.170 -34.437  1.00  0.00     0.027 A 
HETATM   14  H   UNL     1      -7.326   1.281 -31.036  1.00  0.00     0.169 HD
ENDROOT
BRANCH  12  15
HETATM   15  C   UNL     1     -10.620   1.642 -34.178  1.00  0.00     0.136 C 
BRANCH  15  16
HETATM   16  N   UNL     1     -11.697   0.886 -33.536  1.00  0.00    -0.286 NA
HETATM   17  H   UNL     1     -11.996   0.151 -34.190  1.00  0.00     0.128 HD
BRANCH  16  18
HETATM   18  C   UNL     1     -12.855   1.611 -33.170  1.00  0.00     0.042 A 
HETATM   19  C   UNL     1     -14.092   0.962 -33.329  1.00  0.00     0.089 A 
HETATM   20  C   UNL     1     -15.307   1.590 -33.088  1.00  0.00     0.074 A 
HETATM   21  C   UNL     1     -15.289   2.918 -32.687  1.00  0.00     0.068 A 
HETATM   22  C   UNL     1     -14.086   3.603 -32.541  1.00  0.00     0.038 A 
HETATM   23  C   UNL     1     -12.871   2.956 -32.796  1.00  0.00     0.029 A 
BRANCH  19  24
HETATM   24  O   UNL     1     -14.094  -0.356 -33.714  1.00  0.00    -0.359 OA
HETATM   25  H   UNL     1     -13.844  -0.311 -34.661  1.00  0.00     0.218 HD
ENDBRANCH  19  24
BRANCH  21  26
HETATM   26  O   UNL     1     -16.442   3.599 -32.428  1.00  0.00    -0.361 OA
HETATM   27  H   UNL     1     -16.328   4.516 -32.728  1.00  0.00     0.217 HD
ENDBRANCH  21  26
ENDBRANCH  16  18
ENDBRANCH  15  16
ENDBRANCH  12  15
TORSDOF 5
ENDMDL
MODEL 9
REMARK VINA RESULT:      -7.9      1.862      2.236
REMARK  5 active torsions:
REMARK  status: ('A' for Active; 'I' for Inactive)
REMARK    1  A    between atoms: C_12  and  C_13 
REMARK    2  A    between atoms: C_13  and  N_14 
REMARK    3  A    between atoms: N_14  and  C_15 
REMARK    4  A    between atoms: C_16  and  O_17 
REMARK    5  A    between atoms: C_19  and  O_20 
ROOT
HETATM    1  C   UNL     1      -3.757  -2.682 -33.153  1.00  0.00     0.049 C 
HETATM    2  C   UNL     1      -4.811  -1.662 -33.490  1.00  0.00    -0.055 A 
HETATM    3  C   UNL     1      -5.835  -1.938 -34.421  1.00  0.00    -0.054 A 
HETATM    4  C   UNL     1      -5.946  -3.279 -35.094  1.00  0.00     0.049 C 
HETATM    5  C   UNL     1      -6.797  -0.953 -34.699  1.00  0.00     0.037 A 
HETATM    6  C   UNL     1      -6.723   0.296 -34.084  1.00  0.00     0.045 A 
HETATM    7  C   UNL     1      -5.698   0.586 -33.182  1.00  0.00    -0.008 A 
HETATM    8  C   UNL     1      -4.746  -0.393 -32.889  1.00  0.00     0.021 A 
HETATM    9  N   UNL     1      -7.682   1.276 -34.369  1.00  0.00    -0.322 N 
HETATM   10  C   UNL     1      -7.680   2.524 -33.806  1.00  0.00     0.253 A 
HETATM   11  O   UNL     1      -8.552   3.348 -34.075  1.00  0.00    -0.268 OA
HETATM   12  C   UNL     1      -6.579   2.840 -32.851  1.00  0.00     0.024 A 
HETATM   13  C   UNL     1      -5.646   1.913 -32.569  1.00  0.00     0.027 A 
HETATM   14  H   UNL     1      -8.435   1.079 -35.013  1.00  0.00     0.169 HD
ENDROOT
BRANCH  12  15
HETATM   15  C   UNL     1      -6.560   4.230 -32.291  1.00  0.00     0.136 C 
BRANCH  15  16
HETATM   16  N   UNL     1      -6.283   5.164 -33.384  1.00  0.00    -0.286 NA
HETATM   17  H   UNL     1      -6.693   4.772 -34.242  1.00  0.00     0.128 HD
BRANCH  16  18
HETATM   18  C   UNL     1      -4.924   5.437 -33.661  1.00  0.00     0.042 A 
HETATM   19  C   UNL     1      -4.281   6.381 -32.840  1.00  0.00     0.089 A 
HETATM   20  C   UNL     1      -2.976   6.801 -33.058  1.00  0.00     0.074 A 
HETATM   21  C   UNL     1      -2.290   6.272 -34.142  1.00  0.00     0.068 A 
HETATM   22  C   UNL     1      -2.899   5.353 -34.993  1.00  0.00     0.038 A 
HETATM   23  C   UNL     1      -4.219   4.947 -34.762  1.00  0.00     0.029 A 
BRANCH  19  24
HETATM   24  O   UNL     1      -4.967   6.885 -31.764  1.00  0.00    -0.359 OA
HETATM   25  H   UNL     1      -4.443   7.678 -31.520  1.00  0.00     0.218 HD
ENDBRANCH  19  24
BRANCH  21  26
HETATM   26  O   UNL     1      -1.004   6.635 -34.417  1.00  0.00    -0.361 OA
HETATM   27  H   UNL     1      -0.522   5.846 -34.716  1.00  0.00     0.217 HD
ENDBRANCH  21  26
ENDBRANCH  16  18
ENDBRANCH  15  16
ENDBRANCH  12  15
TORSDOF 5
ENDMDL
MODEL 10
REMARK VINA RESULT:      -7.8      4.588      6.423
REMARK  5 active torsions:
REMARK  status: ('A' for Active; 'I' for Inactive)
REMARK    1  A    between atoms: C_12  and  C_13 
REMARK    2  A    between atoms: C_13  and  N_14 
REMARK    3  A    between atoms: N_14  and  C_15 
REMARK    4  A    between atoms: C_16  and  O_17 
REMARK    5  A    between atoms: C_19  and  O_20 
ROOT
HETATM    1  C   UNL     1      -2.532  -3.406 -31.595  1.00  0.00     0.049 C 
HETATM    2  C   UNL     1      -3.618  -2.902 -32.508  1.00  0.00    -0.055 A 
HETATM    3  C   UNL     1      -3.991  -3.607 -33.672  1.00  0.00    -0.054 A 
HETATM    4  C   UNL     1      -3.348  -4.917 -34.038  1.00  0.00     0.049 C 
HETATM    5  C   UNL     1      -5.014  -3.096 -34.488  1.00  0.00     0.037 A 
HETATM    6  C   UNL     1      -5.632  -1.889 -34.169  1.00  0.00     0.045 A 
HETATM    7  C   UNL     1      -5.251  -1.172 -33.034  1.00  0.00    -0.008 A 
HETATM    8  C   UNL     1      -4.246  -1.680 -32.208  1.00  0.00     0.021 A 
HETATM    9  N   UNL     1      -6.646  -1.381 -34.991  1.00  0.00    -0.322 N 
HETATM   10  C   UNL     1      -7.303  -0.205 -34.745  1.00  0.00     0.253 A 
HETATM   11  O   UNL     1      -8.198   0.194 -35.487  1.00  0.00    -0.268 OA
HETATM   12  C   UNL     1      -6.889   0.569 -33.539  1.00  0.00     0.024 A 
HETATM   13  C   UNL     1      -5.913   0.100 -32.741  1.00  0.00     0.027 A 
HETATM   14  H   UNL     1      -6.940  -1.893 -35.812  1.00  0.00     0.169 HD
ENDROOT
BRANCH  12  15
HETATM   15  C   UNL     1      -7.578   1.882 -33.320  1.00  0.00     0.136 C 
BRANCH  15  16
HETATM   16  N   UNL     1      -8.682   1.673 -32.381  1.00  0.00    -0.286 NA
HETATM   17  H   UNL     1      -8.608   0.713 -32.020  1.00  0.00     0.128 HD
BRANCH  16  18
HETATM   18  C   UNL     1      -9.991   1.823 -32.894  1.00  0.00     0.042 A 
HETATM   19  C   UNL     1     -10.586   3.091 -32.764  1.00  0.00     0.089 A 
HETATM   20  C   UNL     1     -11.896   3.349 -33.147  1.00  0.00     0.074 A 
HETATM   21  C   UNL     1     -12.644   2.302 -33.667  1.00  0.00     0.068 A 
HETATM   22  C   UNL     1     -12.099   1.027 -33.788  1.00  0.00     0.038 A 
HETATM   23  C   UNL     1     -10.780   0.783 -33.390  1.00  0.00     0.029 A 
BRANCH  19  24
HETATM   24  O   UNL     1      -9.830   4.120 -32.262  1.00  0.00    -0.359 OA
HETATM   25  H   UNL     1      -9.115   4.214 -32.927  1.00  0.00     0.218 HD
ENDBRANCH  19  24
BRANCH  21  26
HETATM   26  O   UNL     1     -13.936   2.481 -34.067  1.00  0.00    -0.361 OA
HETATM   27  H   UNL     1     -14.519   2.082 -33.401  1.00  0.00     0.217 HD
ENDBRANCH  21  26
ENDBRANCH  16  18
ENDBRANCH  15  16
ENDBRANCH  12  15
TORSDOF 5
ENDMDL
