MODEL 1
REMARK VINA RESULT:      -8.2      0.000      0.000
REMARK  6 active torsions:
REMARK  status: ('A' for Active; 'I' for Inactive)
REMARK    1  A    between atoms: C_2  and  N_3 
REMARK       I    between atoms: N_3  and  C_4 
REMARK    2  A    between atoms: C_4  and  C_5 
REMARK    3  A    between atoms: C_6  and  N_7 
REMARK       I    between atoms: N_7  and  C_8 
REMARK    4  A    between atoms: C_8  and  C_9 
REMARK    5  A    between atoms: C_11  and  O_12 
REMARK    6  A    between atoms: O_12  and  C_13 
ROOT
HETATM    1  N   UNL     1      -5.022   0.405 -33.167  1.00  0.00    -0.322 N 
HETATM    2  C   UNL     1      -5.277   0.884 -31.893  1.00  0.00     0.256 C 
HETATM    3  O   UNL     1      -5.870   0.281 -31.006  1.00  0.00    -0.267 OA
HETATM    4  H   UNL     1      -4.671   1.061 -33.857  1.00  0.00     0.169 HD
ENDROOT
BRANCH   1   5
HETATM    5  C   UNL     1      -5.231  -0.918 -33.647  1.00  0.00     0.050 A 
HETATM    6  C   UNL     1      -6.476  -1.271 -34.211  1.00  0.00     0.058 A 
HETATM    7  C   UNL     1      -6.676  -2.539 -34.777  1.00  0.00     0.019 A 
HETATM    8  C   UNL     1      -5.655  -3.485 -34.759  1.00  0.00     0.001 A 
HETATM    9  C   UNL     1      -4.431  -3.160 -34.184  1.00  0.00     0.002 A 
HETATM   10  C   UNL     1      -4.220  -1.887 -33.638  1.00  0.00     0.030 A 
BRANCH   6  11
HETATM   11  C   UNL     1      -7.639  -0.348 -34.244  1.00  0.00     0.253 C 
HETATM   12  N   UNL     1      -8.363  -0.262 -33.069  1.00  0.00    -0.357 N 
HETATM   13  H   UNL     1      -8.218  -1.000 -32.386  1.00  0.00     0.162 HD
HETATM   14  O   UNL     1      -7.929   0.249 -35.272  1.00  0.00    -0.268 OA
BRANCH  12  15
HETATM   15  C   UNL     1      -9.636   0.433 -33.033  1.00  0.00     0.118 C 
HETATM   16  C   UNL     1      -9.550   1.755 -32.292  1.00  0.00     0.026 C 
ENDBRANCH  12  15
ENDBRANCH   6  11
ENDBRANCH   1   5
BRANCH   2  17
HETATM   17  C   UNL     1      -4.816   2.274 -31.602  1.00  0.00     0.037 A 
HETATM   18  C   UNL     1      -3.456   2.553 -31.758  1.00  0.00     0.075 A 
HETATM   19  C   UNL     1      -3.025   3.846 -31.538  1.00  0.00     0.165 A 
HETATM   20  N   UNL     1      -3.838   4.857 -31.170  1.00  0.00    -0.237 NA
HETATM   21  C   UNL     1      -5.149   4.566 -31.039  1.00  0.00     0.120 A 
HETATM   22  C   UNL     1      -5.686   3.306 -31.246  1.00  0.00     0.036 A 
BRANCH  19  23
HETATM   23  O   UNL     1      -1.679   4.089 -31.731  1.00  0.00    -0.329 OA
BRANCH  23  24
HETATM   24  C   UNL     1      -1.146   5.278 -31.113  1.00  0.00     0.130 C 
HETATM   25  C   UNL     1       0.327   5.218 -30.630  1.00  0.00     0.032 C 
HETATM   26  C   UNL     1       0.497   6.653 -31.158  1.00  0.00     0.005 C 
HETATM   27  C   UNL     1      -0.676   6.368 -32.114  1.00  0.00     0.032 C 
ENDBRANCH  23  24
ENDBRANCH  19  23
ENDBRANCH   2  17
TORSDOF 6
ENDMDL
MODEL 2
REMARK VINA RESULT:      -7.8      3.665      7.311
REMARK  6 active torsions:
REMARK  status: ('A' for Active; 'I' for Inactive)
REMARK    1  A    between atoms: C_2  and  N_3 
REMARK       I    between atoms: N_3  and  C_4 
REMARK    2  A    between atoms: C_4  and  C_5 
REMARK    3  A    between atoms: C_6  and  N_7 
REMARK       I    between atoms: N_7  and  C_8 
REMARK    4  A    between atoms: C_8  and  C_9 
REMARK    5  A    between atoms: C_11  and  O_12 
REMARK    6  A    between atoms: O_12  and  C_13 
ROOT
HETATM    1  N   UNL     1      -7.057  -1.224 -33.670  1.00  0.00    -0.322 N 
HETATM    2  C   UNL     1      -7.378  -0.115 -34.434  1.00  0.00     0.256 C 
HETATM    3  O   UNL     1      -6.963   0.123 -35.563  1.00  0.00    -0.267 OA
HETATM    4  H   UNL     1      -7.333  -1.221 -32.694  1.00  0.00     0.169 HD
ENDROOT
BRANCH   1   5
HETATM    5  C   UNL     1      -6.341  -2.380 -34.089  1.00  0.00     0.050 A 
HETATM    6  C   UNL     1      -4.956  -2.478 -33.831  1.00  0.00     0.058 A 
HETATM    7  C   UNL     1      -4.246  -3.646 -34.148  1.00  0.00     0.019 A 
HETATM    8  C   UNL     1      -4.893  -4.718 -34.756  1.00  0.00     0.001 A 
HETATM    9  C   UNL     1      -6.252  -4.625 -35.039  1.00  0.00     0.002 A 
HETATM   10  C   UNL     1      -6.969  -3.470 -34.703  1.00  0.00     0.030 A 
BRANCH   6  11
HETATM   11  C   UNL     1      -4.167  -1.377 -33.222  1.00  0.00     0.253 C 
HETATM   12  N   UNL     1      -4.007  -1.447 -31.850  1.00  0.00    -0.357 N 
HETATM   13  H   UNL     1      -4.635  -2.068 -31.347  1.00  0.00     0.162 HD
HETATM   14  O   UNL     1      -3.736  -0.465 -33.916  1.00  0.00    -0.268 OA
BRANCH  12  15
HETATM   15  C   UNL     1      -3.444  -0.332 -31.113  1.00  0.00     0.118 C 
HETATM   16  C   UNL     1      -4.492   0.700 -30.738  1.00  0.00     0.026 C 
ENDBRANCH  12  15
ENDBRANCH   6  11
ENDBRANCH   1   5
BRANCH   2  17
HETATM   17  C   UNL     1      -8.279   0.891 -33.798  1.00  0.00     0.037 A 
HETATM   18  C   UNL     1      -9.475   1.196 -34.450  1.00  0.00     0.075 A 
HETATM   19  C   UNL     1     -10.339   2.089 -33.849  1.00  0.00     0.165 A 
HETATM   20  N   UNL     1     -10.092   2.696 -32.670  1.00  0.00    -0.237 NA
HETATM   21  C   UNL     1      -8.936   2.376 -32.052  1.00  0.00     0.120 A 
HETATM   22  C   UNL     1      -8.006   1.485 -32.564  1.00  0.00     0.036 A 
BRANCH  19  23
HETATM   23  O   UNL     1     -11.524   2.342 -34.511  1.00  0.00    -0.329 OA
BRANCH  23  24
HETATM   24  C   UNL     1     -12.400   1.214 -34.715  1.00  0.00     0.130 C 
HETATM   25  C   UNL     1     -12.593   0.250 -33.516  1.00  0.00     0.032 C 
HETATM   26  C   UNL     1     -14.082   0.170 -33.897  1.00  0.00     0.005 C 
HETATM   27  C   UNL     1     -13.911   1.539 -34.579  1.00  0.00     0.032 C 
ENDBRANCH  23  24
ENDBRANCH  19  23
ENDBRANCH   2  17
TORSDOF 6
ENDMDL
MODEL 3
REMARK VINA RESULT:      -7.5      2.234      4.304
REMARK  6 active torsions:
REMARK  status: ('A' for Active; 'I' for Inactive)
REMARK    1  A    between atoms: C_2  and  N_3 
REMARK       I    between atoms: N_3  and  C_4 
REMARK    2  A    between atoms: C_4  and  C_5 
REMARK    3  A    between atoms: C_6  and  N_7 
REMARK       I    between atoms: N_7  and  C_8 
REMARK    4  A    between atoms: C_8  and  C_9 
REMARK    5  A    between atoms: C_11  and  O_12 
REMARK    6  A    between atoms: O_12  and  C_13 
ROOT
HETATM    1  N   UNL     1      -5.602   3.526 -32.512  1.00  0.00    -0.322 N 
HETATM    2  C   UNL     1      -5.293   4.450 -33.496  1.00  0.00     0.256 C 
HETATM    3  O   UNL     1      -6.097   5.000 -34.241  1.00  0.00    -0.267 OA
HETATM    4  H   UNL     1      -4.834   3.024 -32.078  1.00  0.00     0.169 HD
ENDROOT
BRANCH   1   5
HETATM    5  C   UNL     1      -6.896   3.162 -32.048  1.00  0.00     0.050 A 
HETATM    6  C   UNL     1      -7.471   1.941 -32.463  1.00  0.00     0.058 A 
HETATM    7  C   UNL     1      -8.705   1.514 -31.947  1.00  0.00     0.019 A 
HETATM    8  C   UNL     1      -9.399   2.310 -31.040  1.00  0.00     0.001 A 
HETATM    9  C   UNL     1      -8.856   3.527 -30.642  1.00  0.00     0.002 A 
HETATM   10  C   UNL     1      -7.614   3.945 -31.137  1.00  0.00     0.030 A 
BRANCH   6  11
HETATM   11  C   UNL     1      -6.830   1.041 -33.455  1.00  0.00     0.253 C 
HETATM   12  N   UNL     1      -6.520  -0.226 -32.995  1.00  0.00    -0.357 N 
HETATM   13  H   UNL     1      -6.508  -0.358 -31.988  1.00  0.00     0.162 HD
HETATM   14  O   UNL     1      -6.574   1.442 -34.583  1.00  0.00    -0.268 OA
BRANCH  12  15
HETATM   15  C   UNL     1      -5.706  -1.124 -33.793  1.00  0.00     0.118 C 
HETATM   16  C   UNL     1      -6.544  -2.108 -34.589  1.00  0.00     0.026 C 
ENDBRANCH  12  15
ENDBRANCH   6  11
ENDBRANCH   1   5
BRANCH   2  17
HETATM   17  C   UNL     1      -3.846   4.765 -33.679  1.00  0.00     0.037 A 
HETATM   18  C   UNL     1      -2.996   4.580 -32.586  1.00  0.00     0.075 A 
HETATM   19  C   UNL     1      -1.648   4.823 -32.757  1.00  0.00     0.165 A 
HETATM   20  N   UNL     1      -1.100   5.240 -33.916  1.00  0.00    -0.237 NA
HETATM   21  C   UNL     1      -1.939   5.399 -34.962  1.00  0.00     0.120 A 
HETATM   22  C   UNL     1      -3.304   5.173 -34.900  1.00  0.00     0.036 A 
BRANCH  19  23
HETATM   23  O   UNL     1      -0.837   4.600 -31.661  1.00  0.00    -0.329 OA
BRANCH  23  24
HETATM   24  C   UNL     1      -0.832   5.626 -30.647  1.00  0.00     0.130 C 
HETATM   25  C   UNL     1       0.299   5.557 -29.586  1.00  0.00     0.032 C 
HETATM   26  C   UNL     1       0.403   7.090 -29.685  1.00  0.00     0.005 C 
HETATM   27  C   UNL     1      -0.202   6.972 -31.096  1.00  0.00     0.032 C 
ENDBRANCH  23  24
ENDBRANCH  19  23
ENDBRANCH   2  17
TORSDOF 6
ENDMDL
MODEL 4
REMARK VINA RESULT:      -7.4      3.446      8.129
REMARK  6 active torsions:
REMARK  status: ('A' for Active; 'I' for Inactive)
REMARK    1  A    between atoms: C_2  and  N_3 
REMARK       I    between atoms: N_3  and  C_4 
REMARK    2  A    between atoms: C_4  and  C_5 
REMARK    3  A    between atoms: C_6  and  N_7 
REMARK       I    between atoms: N_7  and  C_8 
REMARK    4  A    between atoms: C_8  and  C_9 
REMARK    5  A    between atoms: C_11  and  O_12 
REMARK    6  A    between atoms: O_12  and  C_13 
ROOT
HETATM    1  N   UNL     1      -8.104   0.586 -34.620  1.00  0.00    -0.322 N 
HETATM    2  C   UNL     1      -9.239   0.709 -33.838  1.00  0.00     0.256 C 
HETATM    3  O   UNL     1      -9.493   0.051 -32.834  1.00  0.00    -0.267 OA
HETATM    4  H   UNL     1      -8.090   1.070 -35.512  1.00  0.00     0.169 HD
ENDROOT
BRANCH   1   5
HETATM    5  C   UNL     1      -6.940  -0.181 -34.335  1.00  0.00     0.050 A 
HETATM    6  C   UNL     1      -5.926   0.361 -33.516  1.00  0.00     0.058 A 
HETATM    7  C   UNL     1      -4.813  -0.409 -33.143  1.00  0.00     0.019 A 
HETATM    8  C   UNL     1      -4.677  -1.715 -33.605  1.00  0.00     0.001 A 
HETATM    9  C   UNL     1      -5.656  -2.254 -34.432  1.00  0.00     0.002 A 
HETATM   10  C   UNL     1      -6.779  -1.496 -34.789  1.00  0.00     0.030 A 
BRANCH   6  11
HETATM   11  C   UNL     1      -5.959   1.755 -33.005  1.00  0.00     0.253 C 
HETATM   12  N   UNL     1      -6.150   1.884 -31.642  1.00  0.00    -0.357 N 
HETATM   13  H   UNL     1      -6.505   1.070 -31.150  1.00  0.00     0.162 HD
HETATM   14  O   UNL     1      -5.858   2.702 -33.775  1.00  0.00    -0.268 OA
BRANCH  12  15
HETATM   15  C   UNL     1      -6.412   3.183 -31.051  1.00  0.00     0.118 C 
HETATM   16  C   UNL     1      -7.317   3.093 -29.836  1.00  0.00     0.026 C 
ENDBRANCH  12  15
ENDBRANCH   6  11
ENDBRANCH   1   5
BRANCH   2  17
HETATM   17  C   UNL     1     -10.252   1.707 -34.290  1.00  0.00     0.037 A 
HETATM   18  C   UNL     1     -11.590   1.308 -34.318  1.00  0.00     0.075 A 
HETATM   19  C   UNL     1     -12.542   2.237 -34.689  1.00  0.00     0.165 A 
HETATM   20  N   UNL     1     -12.256   3.508 -35.038  1.00  0.00    -0.237 NA
HETATM   21  C   UNL     1     -10.958   3.874 -34.990  1.00  0.00     0.120 A 
HETATM   22  C   UNL     1      -9.928   3.024 -34.622  1.00  0.00     0.036 A 
BRANCH  19  23
HETATM   23  O   UNL     1     -13.856   1.812 -34.676  1.00  0.00    -0.329 OA
BRANCH  23  24
HETATM   24  C   UNL     1     -14.419   1.503 -33.384  1.00  0.00     0.130 C 
HETATM   25  C   UNL     1     -14.304   2.596 -32.289  1.00  0.00     0.032 C 
HETATM   26  C   UNL     1     -15.737   2.233 -31.861  1.00  0.00     0.005 C 
HETATM   27  C   UNL     1     -15.956   1.699 -33.288  1.00  0.00     0.032 C 
ENDBRANCH  23  24
ENDBRANCH  19  23
ENDBRANCH   2  17
TORSDOF 6
ENDMDL
MODEL 5
REMARK VINA RESULT:      -7.3      4.172      7.934
REMARK  6 active torsions:
REMARK  status: ('A' for Active; 'I' for Inactive)
REMARK    1  A    between atoms: C_2  and  N_3 
REMARK       I    between atoms: N_3  and  C_4 
REMARK    2  A    between atoms: C_4  and  C_5 
REMARK    3  A    between atoms: C_6  and  N_7 
REMARK       I    between atoms: N_7  and  C_8 
REMARK    4  A    between atoms: C_8  and  C_9 
REMARK    5  A    between atoms: C_11  and  O_12 
REMARK    6  A    between atoms: O_12  and  C_13 
ROOT
HETATM    1  N   UNL     1      -9.164   1.058 -33.003  1.00  0.00    -0.322 N 
HETATM    2  C   UNL     1     -10.273   0.230 -32.975  1.00  0.00     0.256 C 
HETATM    3  O   UNL     1     -10.325  -0.880 -32.456  1.00  0.00    -0.267 OA
HETATM    4  H   UNL     1      -9.201   1.875 -33.604  1.00  0.00     0.169 HD
ENDROOT
BRANCH   1   5
HETATM    5  C   UNL     1      -7.939   0.881 -32.303  1.00  0.00     0.050 A 
HETATM    6  C   UNL     1      -6.941   0.039 -32.839  1.00  0.00     0.058 A 
HETATM    7  C   UNL     1      -5.687  -0.079 -32.217  1.00  0.00     0.019 A 
HETATM    8  C   UNL     1      -5.422   0.611 -31.038  1.00  0.00     0.001 A 
HETATM    9  C   UNL     1      -6.405   1.425 -30.485  1.00  0.00     0.002 A 
HETATM   10  C   UNL     1      -7.649   1.563 -31.115  1.00  0.00     0.030 A 
BRANCH   6  11
HETATM   11  C   UNL     1      -7.139  -0.769 -34.069  1.00  0.00     0.253 C 
HETATM   12  N   UNL     1      -6.760  -2.095 -33.978  1.00  0.00    -0.357 N 
HETATM   13  H   UNL     1      -6.154  -2.346 -33.201  1.00  0.00     0.162 HD
HETATM   14  O   UNL     1      -7.575  -0.250 -35.089  1.00  0.00    -0.268 OA
BRANCH  12  15
HETATM   15  C   UNL     1      -6.704  -2.932 -35.161  1.00  0.00     0.118 C 
HETATM   16  C   UNL     1      -6.688  -4.412 -34.821  1.00  0.00     0.026 C 
ENDBRANCH  12  15
ENDBRANCH   6  11
ENDBRANCH   1   5
BRANCH   2  17
HETATM   17  C   UNL     1     -11.493   0.729 -33.675  1.00  0.00     0.037 A 
HETATM   18  C   UNL     1     -11.375   1.893 -34.436  1.00  0.00     0.075 A 
HETATM   19  C   UNL     1     -12.484   2.339 -35.127  1.00  0.00     0.165 A 
HETATM   20  N   UNL     1     -13.683   1.722 -35.102  1.00  0.00    -0.237 NA
HETATM   21  C   UNL     1     -13.769   0.592 -34.369  1.00  0.00     0.120 A 
HETATM   22  C   UNL     1     -12.715   0.054 -33.649  1.00  0.00     0.036 A 
BRANCH  19  23
HETATM   23  O   UNL     1     -12.318   3.477 -35.892  1.00  0.00    -0.329 OA
BRANCH  23  24
HETATM   24  C   UNL     1     -12.386   4.737 -35.193  1.00  0.00     0.130 C 
HETATM   25  C   UNL     1     -11.155   5.672 -35.312  1.00  0.00     0.032 C 
HETATM   26  C   UNL     1     -12.136   6.852 -35.428  1.00  0.00     0.005 C 
HETATM   27  C   UNL     1     -13.182   5.843 -35.936  1.00  0.00     0.032 C 
ENDBRANCH  23  24
ENDBRANCH  19  23
ENDBRANCH   2  17
TORSDOF 6
ENDMDL
MODEL 6
REMARK VINA RESULT:      -7.3      3.424      5.199
REMARK  6 active torsions:
REMARK  status: ('A' for Active; 'I' for Inactive)
REMARK    1  A    between atoms: C_2  and  N_3 
REMARK       I    between atoms: N_3  and  C_4 
REMARK    2  A    between atoms: C_4  and  C_5 
REMARK    3  A    between atoms: C_6  and  N_7 
REMARK       I    between atoms: N_7  and  C_8 
REMARK    4  A    between atoms: C_8  and  C_9 
REMARK    5  A    between atoms: C_11  and  O_12 
REMARK    6  A    between atoms: O_12  and  C_13 
ROOT
HETATM    1  N   UNL     1      -7.276  -1.218 -33.639  1.00  0.00    -0.322 N 
HETATM    2  C   UNL     1      -7.695  -0.137 -34.396  1.00  0.00     0.256 C 
HETATM    3  O   UNL     1      -7.312   0.137 -35.528  1.00  0.00    -0.267 OA
HETATM    4  H   UNL     1      -7.542  -1.240 -32.660  1.00  0.00     0.169 HD
ENDROOT
BRANCH   1   5
HETATM    5  C   UNL     1      -6.470  -2.309 -34.068  1.00  0.00     0.050 A 
HETATM    6  C   UNL     1      -5.084  -2.305 -33.800  1.00  0.00     0.058 A 
HETATM    7  C   UNL     1      -4.284  -3.410 -34.128  1.00  0.00     0.019 A 
HETATM    8  C   UNL     1      -4.843  -4.519 -34.757  1.00  0.00     0.001 A 
HETATM    9  C   UNL     1      -6.202  -4.527 -35.050  1.00  0.00     0.002 A 
HETATM   10  C   UNL     1      -7.009  -3.435 -34.704  1.00  0.00     0.030 A 
BRANCH   6  11
HETATM   11  C   UNL     1      -4.386  -1.156 -33.169  1.00  0.00     0.253 C 
HETATM   12  N   UNL     1      -4.074  -1.311 -31.831  1.00  0.00    -0.357 N 
HETATM   13  H   UNL     1      -4.558  -2.052 -31.331  1.00  0.00     0.162 HD
HETATM   14  O   UNL     1      -4.154  -0.141 -33.813  1.00  0.00    -0.268 OA
BRANCH  12  15
HETATM   15  C   UNL     1      -3.587  -0.191 -31.050  1.00  0.00     0.118 C 
HETATM   16  C   UNL     1      -4.716   0.657 -30.490  1.00  0.00     0.026 C 
ENDBRANCH  12  15
ENDBRANCH   6  11
ENDBRANCH   1   5
BRANCH   2  17
HETATM   17  C   UNL     1      -8.670   0.789 -33.748  1.00  0.00     0.037 A 
HETATM   18  C   UNL     1      -8.344   1.299 -32.490  1.00  0.00     0.075 A 
HETATM   19  C   UNL     1      -9.216   2.193 -31.901  1.00  0.00     0.165 A 
HETATM   20  N   UNL     1     -10.372   2.597 -32.465  1.00  0.00    -0.237 NA
HETATM   21  C   UNL     1     -10.659   2.101 -33.686  1.00  0.00     0.120 A 
HETATM   22  C   UNL     1      -9.849   1.208 -34.368  1.00  0.00     0.036 A 
BRANCH  19  23
HETATM   23  O   UNL     1      -8.844   2.697 -30.670  1.00  0.00    -0.329 OA
BRANCH  23  24
HETATM   24  C   UNL     1      -7.538   3.304 -30.592  1.00  0.00     0.130 C 
HETATM   25  C   UNL     1      -7.308   4.586 -31.435  1.00  0.00     0.032 C 
HETATM   26  C   UNL     1      -6.518   5.156 -30.244  1.00  0.00     0.005 C 
HETATM   27  C   UNL     1      -7.317   4.198 -29.342  1.00  0.00     0.032 C 
ENDBRANCH  23  24
ENDBRANCH  19  23
ENDBRANCH   2  17
TORSDOF 6
ENDMDL
MODEL 7
REMARK VINA RESULT:      -7.3      2.279      3.615
REMARK  6 active torsions:
REMARK  status: ('A' for Active; 'I' for Inactive)
REMARK    1  A    between atoms: C_2  and  N_3 
REMARK       I    between atoms: N_3  and  C_4 
REMARK    2  A    between atoms: C_4  and  C_5 
REMARK    3  A    between atoms: C_6  and  N_7 
REMARK       I    between atoms: N_7  and  C_8 
REMARK    4  A    between atoms: C_8  and  C_9 
REMARK    5  A    between atoms: C_11  and  O_12 
REMARK    6  A    between atoms: O_12  and  C_13 
ROOT
HETATM    1  N   UNL     1      -6.245  -0.169 -34.456  1.00  0.00    -0.322 N 
HETATM    2  C   UNL     1      -6.837   0.514 -33.407  1.00  0.00     0.256 C 
HETATM    3  O   UNL     1      -7.228   0.016 -32.357  1.00  0.00    -0.267 OA
HETATM    4  H   UNL     1      -6.118   0.329 -35.331  1.00  0.00     0.169 HD
ENDROOT
BRANCH   1   5
HETATM    5  C   UNL     1      -5.813  -1.524 -34.466  1.00  0.00     0.050 A 
HETATM    6  C   UNL     1      -4.655  -1.896 -33.749  1.00  0.00     0.058 A 
HETATM    7  C   UNL     1      -4.261  -3.241 -33.666  1.00  0.00     0.019 A 
HETATM    8  C   UNL     1      -4.992  -4.228 -34.321  1.00  0.00     0.001 A 
HETATM    9  C   UNL     1      -6.121  -3.872 -35.051  1.00  0.00     0.002 A 
HETATM   10  C   UNL     1      -6.530  -2.534 -35.118  1.00  0.00     0.030 A 
BRANCH   6  11
HETATM   11  C   UNL     1      -3.786  -0.915 -33.050  1.00  0.00     0.253 C 
HETATM   12  N   UNL     1      -4.156  -0.612 -31.753  1.00  0.00    -0.357 N 
HETATM   13  H   UNL     1      -5.100  -0.864 -31.475  1.00  0.00     0.162 HD
HETATM   14  O   UNL     1      -2.838  -0.401 -33.630  1.00  0.00    -0.268 OA
BRANCH  12  15
HETATM   15  C   UNL     1      -3.522   0.480 -31.039  1.00  0.00     0.118 C 
HETATM   16  C   UNL     1      -4.513   1.557 -30.636  1.00  0.00     0.026 C 
ENDBRANCH  12  15
ENDBRANCH   6  11
ENDBRANCH   1   5
BRANCH   2  17
HETATM   17  C   UNL     1      -7.046   1.979 -33.602  1.00  0.00     0.037 A 
HETATM   18  C   UNL     1      -5.915   2.780 -33.768  1.00  0.00     0.075 A 
HETATM   19  C   UNL     1      -6.097   4.130 -33.997  1.00  0.00     0.165 A 
HETATM   20  N   UNL     1      -7.305   4.725 -34.060  1.00  0.00    -0.237 NA
HETATM   21  C   UNL     1      -8.384   3.928 -33.910  1.00  0.00     0.120 A 
HETATM   22  C   UNL     1      -8.312   2.563 -33.687  1.00  0.00     0.036 A 
BRANCH  19  23
HETATM   23  O   UNL     1      -4.955   4.883 -34.184  1.00  0.00    -0.329 OA
BRANCH  23  24
HETATM   24  C   UNL     1      -3.862   4.632 -33.277  1.00  0.00     0.130 C 
HETATM   25  C   UNL     1      -2.446   4.514 -33.899  1.00  0.00     0.032 C 
HETATM   26  C   UNL     1      -1.916   5.312 -32.694  1.00  0.00     0.005 C 
HETATM   27  C   UNL     1      -3.333   5.892 -32.541  1.00  0.00     0.032 C 
ENDBRANCH  23  24
ENDBRANCH  19  23
ENDBRANCH   2  17
TORSDOF 6
ENDMDL
MODEL 8
REMARK VINA RESULT:      -7.3      2.783      5.015
REMARK  6 active torsions:
REMARK  status: ('A' for Active; 'I' for Inactive)
REMARK    1  A    between atoms: C_2  and  N_3 
REMARK       I    between atoms: N_3  and  C_4 
REMARK    2  A    between atoms: C_4  and  C_5 
REMARK    3  A    between atoms: C_6  and  N_7 
REMARK       I    between atoms: N_7  and  C_8 
REMARK    4  A    between atoms: C_8  and  C_9 
REMARK    5  A    between atoms: C_11  and  O_12 
REMARK    6  A    between atoms: O_12  and  C_13 
ROOT
HETATM    1  N   UNL     1      -4.650   3.895 -32.669  1.00  0.00    -0.322 N 
HETATM    2  C   UNL     1      -4.575   4.744 -33.759  1.00  0.00     0.256 C 
HETATM    3  O   UNL     1      -5.457   4.918 -34.594  1.00  0.00    -0.267 OA
HETATM    4  H   UNL     1      -3.797   3.716 -32.150  1.00  0.00     0.169 HD
ENDROOT
BRANCH   1   5
HETATM    5  C   UNL     1      -5.798   3.198 -32.197  1.00  0.00     0.050 A 
HETATM    6  C   UNL     1      -5.770   1.791 -32.094  1.00  0.00     0.058 A 
HETATM    7  C   UNL     1      -6.853   1.087 -31.543  1.00  0.00     0.019 A 
HETATM    8  C   UNL     1      -7.990   1.770 -31.119  1.00  0.00     0.001 A 
HETATM    9  C   UNL     1      -8.041   3.154 -31.238  1.00  0.00     0.002 A 
HETATM   10  C   UNL     1      -6.953   3.862 -31.766  1.00  0.00     0.030 A 
BRANCH   6  11
HETATM   11  C   UNL     1      -4.622   0.969 -32.553  1.00  0.00     0.253 C 
HETATM   12  N   UNL     1      -4.953  -0.205 -33.204  1.00  0.00    -0.357 N 
HETATM   13  H   UNL     1      -5.906  -0.539 -33.091  1.00  0.00     0.162 HD
HETATM   14  O   UNL     1      -3.472   1.320 -32.318  1.00  0.00    -0.268 OA
BRANCH  12  15
HETATM   15  C   UNL     1      -3.937  -1.193 -33.512  1.00  0.00     0.118 C 
HETATM   16  C   UNL     1      -3.649  -2.111 -32.337  1.00  0.00     0.026 C 
ENDBRANCH  12  15
ENDBRANCH   6  11
ENDBRANCH   1   5
BRANCH   2  17
HETATM   17  C   UNL     1      -3.288   5.476 -33.943  1.00  0.00     0.037 A 
HETATM   18  C   UNL     1      -3.115   6.672 -33.244  1.00  0.00     0.075 A 
HETATM   19  C   UNL     1      -1.910   7.335 -33.369  1.00  0.00     0.165 A 
HETATM   20  N   UNL     1      -0.890   6.901 -34.136  1.00  0.00    -0.237 NA
HETATM   21  C   UNL     1      -1.075   5.736 -34.792  1.00  0.00     0.120 A 
HETATM   22  C   UNL     1      -2.240   4.988 -34.727  1.00  0.00     0.036 A 
BRANCH  19  23
HETATM   23  O   UNL     1      -1.767   8.499 -32.639  1.00  0.00    -0.329 OA
BRANCH  23  24
HETATM   24  C   UNL     1      -2.366   8.512 -31.326  1.00  0.00     0.130 C 
HETATM   25  C   UNL     1      -1.455   8.110 -30.136  1.00  0.00     0.032 C 
HETATM   26  C   UNL     1      -2.116   9.241 -29.327  1.00  0.00     0.005 C 
HETATM   27  C   UNL     1      -2.447   9.916 -30.670  1.00  0.00     0.032 C 
ENDBRANCH  23  24
ENDBRANCH  19  23
ENDBRANCH   2  17
TORSDOF 6
ENDMDL
MODEL 9
REMARK VINA RESULT:      -7.2      2.855      4.122
REMARK  6 active torsions:
REMARK  status: ('A' for Active; 'I' for Inactive)
REMARK    1  A    between atoms: C_2  and  N_3 
REMARK       I    between atoms: N_3  and  C_4 
REMARK    2  A    between atoms: C_4  and  C_5 
REMARK    3  A    between atoms: C_6  and  N_7 
REMARK       I    between atoms: N_7  and  C_8 
REMARK    4  A    between atoms: C_8  and  C_9 
REMARK    5  A    between atoms: C_11  and  O_12 
REMARK    6  A    between atoms: O_12  and  C_13 
ROOT
HETATM    1  N   UNL     1      -5.725   2.629 -33.513  1.00  0.00    -0.322 N 
HETATM    2  C   UNL     1      -5.579   3.953 -33.891  1.00  0.00     0.256 C 
HETATM    3  O   UNL     1      -6.479   4.695 -34.268  1.00  0.00    -0.267 OA
HETATM    4  H   UNL     1      -4.882   2.080 -33.382  1.00  0.00     0.169 HD
ENDROOT
BRANCH   1   5
HETATM    5  C   UNL     1      -6.942   1.919 -33.316  1.00  0.00     0.050 A 
HETATM    6  C   UNL     1      -7.576   1.953 -32.055  1.00  0.00     0.058 A 
HETATM    7  C   UNL     1      -8.824   1.340 -31.860  1.00  0.00     0.019 A 
HETATM    8  C   UNL     1      -9.441   0.658 -32.904  1.00  0.00     0.001 A 
HETATM    9  C   UNL     1      -8.816   0.596 -34.145  1.00  0.00     0.002 A 
HETATM   10  C   UNL     1      -7.581   1.225 -34.350  1.00  0.00     0.030 A 
BRANCH   6  11
HETATM   11  C   UNL     1      -6.982   2.620 -30.868  1.00  0.00     0.253 C 
HETATM   12  N   UNL     1      -7.708   3.679 -30.356  1.00  0.00    -0.357 N 
HETATM   13  H   UNL     1      -8.424   4.078 -30.957  1.00  0.00     0.162 HD
HETATM   14  O   UNL     1      -5.901   2.253 -30.426  1.00  0.00    -0.268 OA
BRANCH  12  15
HETATM   15  C   UNL     1      -7.139   4.543 -29.339  1.00  0.00     0.118 C 
HETATM   16  C   UNL     1      -8.073   5.678 -28.957  1.00  0.00     0.026 C 
ENDBRANCH  12  15
ENDBRANCH   6  11
ENDBRANCH   1   5
BRANCH   2  17
HETATM   17  C   UNL     1      -4.190   4.500 -33.869  1.00  0.00     0.037 A 
HETATM   18  C   UNL     1      -3.406   4.238 -32.744  1.00  0.00     0.075 A 
HETATM   19  C   UNL     1      -2.105   4.698 -32.732  1.00  0.00     0.165 A 
HETATM   20  N   UNL     1      -1.545   5.397 -33.741  1.00  0.00    -0.237 NA
HETATM   21  C   UNL     1      -2.318   5.626 -34.823  1.00  0.00     0.120 A 
HETATM   22  C   UNL     1      -3.631   5.200 -34.941  1.00  0.00     0.036 A 
BRANCH  19  23
HETATM   23  O   UNL     1      -1.352   4.394 -31.614  1.00  0.00    -0.329 OA
BRANCH  23  24
HETATM   24  C   UNL     1      -0.343   5.353 -31.238  1.00  0.00     0.130 C 
HETATM   25  C   UNL     1      -0.831   6.644 -30.529  1.00  0.00     0.032 C 
HETATM   26  C   UNL     1       0.393   6.527 -29.604  1.00  0.00     0.005 C 
HETATM   27  C   UNL     1       0.401   5.020 -29.917  1.00  0.00     0.032 C 
ENDBRANCH  23  24
ENDBRANCH  19  23
ENDBRANCH   2  17
TORSDOF 6
ENDMDL
MODEL 10
REMARK VINA RESULT:      -7.1      2.231      7.655
REMARK  6 active torsions:
REMARK  status: ('A' for Active; 'I' for Inactive)
REMARK    1  A    between atoms: C_2  and  N_3 
REMARK       I    between atoms: N_3  and  C_4 
REMARK    2  A    between atoms: C_4  and  C_5 
REMARK    3  A    between atoms: C_6  and  N_7 
REMARK       I    between atoms: N_7  and  C_8 
REMARK    4  A    between atoms: C_8  and  C_9 
REMARK    5  A    between atoms: C_11  and  O_12 
REMARK    6  A    between atoms: O_12  and  C_13 
ROOT
HETATM    1  N   UNL     1      -3.745   3.760 -32.986  1.00  0.00    -0.322 N 
HETATM    2  C   UNL     1      -3.540   2.809 -32.002  1.00  0.00     0.256 C 
HETATM    3  O   UNL     1      -2.594   2.776 -31.223  1.00  0.00    -0.267 OA
HETATM    4  H   UNL     1      -4.474   3.583 -33.670  1.00  0.00     0.169 HD
ENDROOT
BRANCH   1   5
HETATM    5  C   UNL     1      -3.018   4.968 -33.182  1.00  0.00     0.050 A 
HETATM    6  C   UNL     1      -3.310   6.098 -32.387  1.00  0.00     0.058 A 
HETATM    7  C   UNL     1      -2.546   7.270 -32.494  1.00  0.00     0.019 A 
HETATM    8  C   UNL     1      -1.505   7.347 -33.416  1.00  0.00     0.001 A 
HETATM    9  C   UNL     1      -1.222   6.250 -34.222  1.00  0.00     0.002 A 
HETATM   10  C   UNL     1      -1.968   5.070 -34.102  1.00  0.00     0.030 A 
BRANCH   6  11
HETATM   11  C   UNL     1      -4.423   6.130 -31.405  1.00  0.00     0.253 C 
HETATM   12  N   UNL     1      -4.045   6.091 -30.075  1.00  0.00    -0.357 N 
HETATM   13  H   UNL     1      -3.095   5.787 -29.878  1.00  0.00     0.162 HD
HETATM   14  O   UNL     1      -5.587   6.150 -31.785  1.00  0.00    -0.268 OA
BRANCH  12  15
HETATM   15  C   UNL     1      -5.033   5.903 -29.030  1.00  0.00     0.118 C 
HETATM   16  C   UNL     1      -5.222   7.151 -28.185  1.00  0.00     0.026 C 
ENDBRANCH  12  15
ENDBRANCH   6  11
ENDBRANCH   1   5
BRANCH   2  17
HETATM   17  C   UNL     1      -4.548   1.711 -31.920  1.00  0.00     0.037 A 
HETATM   18  C   UNL     1      -4.162   0.441 -32.351  1.00  0.00     0.075 A 
HETATM   19  C   UNL     1      -5.070  -0.593 -32.236  1.00  0.00     0.165 A 
HETATM   20  N   UNL     1      -6.315  -0.448 -31.740  1.00  0.00    -0.237 NA
HETATM   21  C   UNL     1      -6.661   0.786 -31.318  1.00  0.00     0.120 A 
HETATM   22  C   UNL     1      -5.824   1.888 -31.378  1.00  0.00     0.036 A 
BRANCH  19  23
HETATM   23  O   UNL     1      -4.640  -1.840 -32.646  1.00  0.00    -0.329 OA
BRANCH  23  24
HETATM   24  C   UNL     1      -4.867  -2.175 -34.031  1.00  0.00     0.130 C 
HETATM   25  C   UNL     1      -4.543  -3.629 -34.463  1.00  0.00     0.032 C 
HETATM   26  C   UNL     1      -5.816  -3.593 -35.326  1.00  0.00     0.005 C 
HETATM   27  C   UNL     1      -6.344  -2.499 -34.381  1.00  0.00     0.032 C 
ENDBRANCH  23  24
ENDBRANCH  19  23
ENDBRANCH   2  17
TORSDOF 6
ENDMDL
