MODEL 1
REMARK VINA RESULT:      -8.1      0.000      0.000
REMARK  3 active torsions:
REMARK  status: ('A' for Active; 'I' for Inactive)
REMARK       I    between atoms: N_2  and  C_3 
REMARK    1  A    between atoms: C_3  and  C_4 
REMARK    2  A    between atoms: C_7  and  N_8 
REMARK       I    between atoms: N_8  and  C_9 
REMARK    3  A    between atoms: C_9  and  C_10 
ROOT
HETATM    1  N   UNL     1      -4.508   1.371 -32.591  1.00  0.00    -0.321 N 
HETATM    2  C   UNL     1      -3.942   0.155 -32.254  1.00  0.00     0.280 C 
HETATM    3  O   UNL     1      -3.048  -0.012 -31.432  1.00  0.00    -0.265 OA
HETATM    4  H   UNL     1      -5.255   1.314 -33.276  1.00  0.00     0.169 HD
ENDROOT
BRANCH   1   5
HETATM    5  C   UNL     1      -4.152   2.655 -32.139  1.00  0.00     0.035 A 
HETATM    6  C   UNL     1      -4.898   3.393 -31.217  1.00  0.00     0.030 A 
HETATM    7  C   UNL     1      -4.455   4.649 -30.784  1.00  0.00     0.019 A 
HETATM    8  C   UNL     1      -3.256   5.179 -31.270  1.00  0.00     0.032 A 
HETATM    9  C   UNL     1      -2.523   4.460 -32.217  1.00  0.00     0.019 A 
HETATM   10  C   UNL     1      -2.966   3.204 -32.644  1.00  0.00     0.030 A 
BRANCH   8  11
HETATM   11  C   UNL     1      -2.737   6.496 -30.815  1.00  0.00     0.251 C 
HETATM   12  N   UNL     1      -2.144   6.518 -29.569  1.00  0.00    -0.361 N 
HETATM   13  C   UNL     1      -1.503   7.714 -29.086  1.00  0.00     0.149 C 
HETATM   14  H   UNL     1      -1.905   5.641 -29.127  1.00  0.00     0.162 HD
HETATM   15  O   UNL     1      -2.809   7.474 -31.550  1.00  0.00    -0.268 OA
ENDBRANCH   8  11
ENDBRANCH   1   5
BRANCH   2  16
HETATM   16  C   UNL     1      -4.515  -0.953 -32.997  1.00  0.00     0.144 A 
HETATM   17  O   UNL     1      -3.819  -2.132 -33.095  1.00  0.00    -0.304 OA
HETATM   18  C   UNL     1      -4.592  -2.997 -33.807  1.00  0.00     0.086 A 
HETATM   19  C   UNL     1      -5.784  -2.387 -34.181  1.00  0.00     0.001 A 
HETATM   20  C   UNL     1      -4.257  -4.311 -34.120  1.00  0.00     0.038 A 
HETATM   21  C   UNL     1      -5.722  -1.069 -33.662  1.00  0.00     0.057 A 
HETATM   22  C   UNL     1      -6.717  -3.132 -34.923  1.00  0.00     0.014 A 
HETATM   23  C   UNL     1      -6.409  -4.460 -35.251  1.00  0.00     0.001 A 
HETATM   24  C   UNL     1      -5.199  -5.037 -34.856  1.00  0.00     0.003 A 
ENDBRANCH   2  16
TORSDOF 3
ENDMDL
MODEL 2
REMARK VINA RESULT:      -8.1      1.341      1.830
REMARK  3 active torsions:
REMARK  status: ('A' for Active; 'I' for Inactive)
REMARK       I    between atoms: N_2  and  C_3 
REMARK    1  A    between atoms: C_3  and  C_4 
REMARK    2  A    between atoms: C_7  and  N_8 
REMARK       I    between atoms: N_8  and  C_9 
REMARK    3  A    between atoms: C_9  and  C_10 
ROOT
HETATM    1  N   UNL     1      -4.175   2.588 -32.919  1.00  0.00    -0.321 N 
HETATM    2  C   UNL     1      -3.849   1.391 -32.306  1.00  0.00     0.280 C 
HETATM    3  O   UNL     1      -3.075   1.261 -31.365  1.00  0.00    -0.265 OA
HETATM    4  H   UNL     1      -4.854   2.507 -33.670  1.00  0.00     0.169 HD
ENDROOT
BRANCH   1   5
HETATM    5  C   UNL     1      -3.658   3.870 -32.661  1.00  0.00     0.035 A 
HETATM    6  C   UNL     1      -2.452   4.345 -33.182  1.00  0.00     0.030 A 
HETATM    7  C   UNL     1      -2.024   5.652 -32.912  1.00  0.00     0.019 A 
HETATM    8  C   UNL     1      -2.803   6.497 -32.118  1.00  0.00     0.032 A 
HETATM    9  C   UNL     1      -3.994   6.017 -31.566  1.00  0.00     0.019 A 
HETATM   10  C   UNL     1      -4.420   4.713 -31.842  1.00  0.00     0.030 A 
BRANCH   8  11
HETATM   11  C   UNL     1      -2.398   7.899 -31.830  1.00  0.00     0.251 C 
HETATM   12  N   UNL     1      -2.799   8.410 -30.612  1.00  0.00    -0.361 N 
HETATM   13  C   UNL     1      -2.358   9.713 -30.185  1.00  0.00     0.149 C 
HETATM   14  H   UNL     1      -3.149   7.774 -29.908  1.00  0.00     0.162 HD
HETATM   15  O   UNL     1      -1.710   8.519 -32.632  1.00  0.00    -0.268 OA
ENDBRANCH   8  11
ENDBRANCH   1   5
BRANCH   2  16
HETATM   16  C   UNL     1      -4.523   0.254 -32.907  1.00  0.00     0.144 A 
HETATM   17  O   UNL     1      -3.787  -0.838 -33.294  1.00  0.00    -0.304 OA
HETATM   18  C   UNL     1      -4.664  -1.757 -33.787  1.00  0.00     0.086 A 
HETATM   19  C   UNL     1      -5.963  -1.267 -33.732  1.00  0.00     0.001 A 
HETATM   20  C   UNL     1      -4.324  -3.016 -34.276  1.00  0.00     0.038 A 
HETATM   21  C   UNL     1      -5.862   0.031 -33.170  1.00  0.00     0.057 A 
HETATM   22  C   UNL     1      -7.010  -2.083 -34.195  1.00  0.00     0.014 A 
HETATM   23  C   UNL     1      -6.700  -3.358 -34.690  1.00  0.00     0.001 A 
HETATM   24  C   UNL     1      -5.380  -3.814 -34.729  1.00  0.00     0.003 A 
ENDBRANCH   2  16
TORSDOF 3
ENDMDL
MODEL 3
REMARK VINA RESULT:      -7.9      2.187      9.125
REMARK  3 active torsions:
REMARK  status: ('A' for Active; 'I' for Inactive)
REMARK       I    between atoms: N_2  and  C_3 
REMARK    1  A    between atoms: C_3  and  C_4 
REMARK    2  A    between atoms: C_7  and  N_8 
REMARK       I    between atoms: N_8  and  C_9 
REMARK    3  A    between atoms: C_9  and  C_10 
ROOT
HETATM    1  N   UNL     1      -3.243   2.914 -31.765  1.00  0.00    -0.321 N 
HETATM    2  C   UNL     1      -2.525   3.907 -32.408  1.00  0.00     0.280 C 
HETATM    3  O   UNL     1      -2.364   3.999 -33.620  1.00  0.00    -0.265 OA
HETATM    4  H   UNL     1      -3.288   3.013 -30.756  1.00  0.00     0.169 HD
ENDROOT
BRANCH   1   5
HETATM    5  C   UNL     1      -3.868   1.786 -32.327  1.00  0.00     0.035 A 
HETATM    6  C   UNL     1      -3.266   0.529 -32.427  1.00  0.00     0.030 A 
HETATM    7  C   UNL     1      -3.970  -0.558 -32.962  1.00  0.00     0.019 A 
HETATM    8  C   UNL     1      -5.287  -0.396 -33.400  1.00  0.00     0.032 A 
HETATM    9  C   UNL     1      -5.883   0.866 -33.333  1.00  0.00     0.019 A 
HETATM   10  C   UNL     1      -5.178   1.948 -32.794  1.00  0.00     0.030 A 
BRANCH   8  11
HETATM   11  C   UNL     1      -6.078  -1.530 -33.948  1.00  0.00     0.251 C 
HETATM   12  N   UNL     1      -5.353  -2.558 -34.517  1.00  0.00    -0.361 N 
HETATM   13  C   UNL     1      -6.014  -3.755 -34.968  1.00  0.00     0.149 C 
HETATM   14  H   UNL     1      -4.357  -2.598 -34.355  1.00  0.00     0.162 HD
HETATM   15  O   UNL     1      -7.299  -1.538 -33.842  1.00  0.00    -0.268 OA
ENDBRANCH   8  11
ENDBRANCH   1   5
BRANCH   2  16
HETATM   16  C   UNL     1      -1.943   4.864 -31.484  1.00  0.00     0.144 A 
HETATM   17  O   UNL     1      -0.848   4.503 -30.740  1.00  0.00    -0.304 OA
HETATM   18  C   UNL     1      -0.495   5.587 -29.995  1.00  0.00     0.086 A 
HETATM   19  C   UNL     1      -1.358   6.648 -30.242  1.00  0.00     0.001 A 
HETATM   20  C   UNL     1       0.578   5.644 -29.110  1.00  0.00     0.038 A 
HETATM   21  C   UNL     1      -2.291   6.171 -31.197  1.00  0.00     0.057 A 
HETATM   22  C   UNL     1      -1.146   7.861 -29.564  1.00  0.00     0.014 A 
HETATM   23  C   UNL     1      -0.070   7.950 -28.668  1.00  0.00     0.001 A 
HETATM   24  C   UNL     1       0.775   6.860 -28.446  1.00  0.00     0.003 A 
ENDBRANCH   2  16
TORSDOF 3
ENDMDL
MODEL 4
REMARK VINA RESULT:      -7.7      5.829      8.077
REMARK  3 active torsions:
REMARK  status: ('A' for Active; 'I' for Inactive)
REMARK       I    between atoms: N_2  and  C_3 
REMARK    1  A    between atoms: C_3  and  C_4 
REMARK    2  A    between atoms: C_7  and  N_8 
REMARK       I    between atoms: N_8  and  C_9 
REMARK    3  A    between atoms: C_9  and  C_10 
ROOT
HETATM    1  N   UNL     1      -0.558   6.760 -29.608  1.00  0.00    -0.321 N 
HETATM    2  C   UNL     1      -0.333   5.560 -30.258  1.00  0.00     0.280 C 
HETATM    3  O   UNL     1       0.474   4.703 -29.914  1.00  0.00    -0.265 OA
HETATM    4  H   UNL     1      -1.283   7.336 -30.025  1.00  0.00     0.169 HD
ENDROOT
BRANCH   1   5
HETATM    5  C   UNL     1       0.111   7.286 -28.488  1.00  0.00     0.035 A 
HETATM    6  C   UNL     1       1.104   8.266 -28.561  1.00  0.00     0.030 A 
HETATM    7  C   UNL     1       1.696   8.770 -27.396  1.00  0.00     0.019 A 
HETATM    8  C   UNL     1       1.296   8.297 -26.143  1.00  0.00     0.032 A 
HETATM    9  C   UNL     1       0.328   7.293 -26.065  1.00  0.00     0.019 A 
HETATM   10  C   UNL     1      -0.264   6.796 -27.231  1.00  0.00     0.030 A 
BRANCH   8  11
HETATM   11  C   UNL     1       1.879   8.825 -24.880  1.00  0.00     0.251 C 
HETATM   12  N   UNL     1       2.963   8.134 -24.376  1.00  0.00    -0.361 N 
HETATM   13  C   UNL     1       3.674   8.631 -23.227  1.00  0.00     0.149 C 
HETATM   14  H   UNL     1       3.428   7.459 -24.967  1.00  0.00     0.162 HD
HETATM   15  O   UNL     1       1.426   9.843 -24.371  1.00  0.00    -0.268 OA
ENDBRANCH   8  11
ENDBRANCH   1   5
BRANCH   2  16
HETATM   16  C   UNL     1      -1.161   5.400 -31.440  1.00  0.00     0.144 A 
HETATM   17  O   UNL     1      -2.521   5.280 -31.300  1.00  0.00    -0.304 OA
HETATM   18  C   UNL     1      -3.046   5.180 -32.552  1.00  0.00     0.086 A 
HETATM   19  C   UNL     1      -2.036   5.225 -33.506  1.00  0.00     0.001 A 
HETATM   20  C   UNL     1      -4.399   5.056 -32.853  1.00  0.00     0.038 A 
HETATM   21  C   UNL     1      -0.826   5.360 -32.781  1.00  0.00     0.057 A 
HETATM   22  C   UNL     1      -2.390   5.141 -34.865  1.00  0.00     0.014 A 
HETATM   23  C   UNL     1      -3.747   5.019 -35.200  1.00  0.00     0.001 A 
HETATM   24  C   UNL     1      -4.732   4.976 -34.210  1.00  0.00     0.003 A 
ENDBRANCH   2  16
TORSDOF 3
ENDMDL
MODEL 5
REMARK VINA RESULT:      -7.6      5.430      6.925
REMARK  3 active torsions:
REMARK  status: ('A' for Active; 'I' for Inactive)
REMARK       I    between atoms: N_2  and  C_3 
REMARK    1  A    between atoms: C_3  and  C_4 
REMARK    2  A    between atoms: C_7  and  N_8 
REMARK       I    between atoms: N_8  and  C_9 
REMARK    3  A    between atoms: C_9  and  C_10 
ROOT
HETATM    1  N   UNL     1      -8.613   0.087 -33.484  1.00  0.00    -0.321 N 
HETATM    2  C   UNL     1      -7.631   0.052 -34.459  1.00  0.00     0.280 C 
HETATM    3  O   UNL     1      -7.511   0.855 -35.378  1.00  0.00    -0.265 OA
HETATM    4  H   UNL     1      -8.541  -0.648 -32.787  1.00  0.00     0.169 HD
ENDROOT
BRANCH   1   5
HETATM    5  C   UNL     1      -9.699   0.973 -33.370  1.00  0.00     0.035 A 
HETATM    6  C   UNL     1     -11.003   0.665 -33.766  1.00  0.00     0.030 A 
HETATM    7  C   UNL     1     -12.041   1.588 -33.581  1.00  0.00     0.019 A 
HETATM    8  C   UNL     1     -11.782   2.830 -32.995  1.00  0.00     0.032 A 
HETATM    9  C   UNL     1     -10.474   3.157 -32.628  1.00  0.00     0.019 A 
HETATM   10  C   UNL     1      -9.441   2.231 -32.810  1.00  0.00     0.030 A 
BRANCH   8  11
HETATM   11  C   UNL     1     -12.860   3.827 -32.756  1.00  0.00     0.251 C 
HETATM   12  N   UNL     1     -14.072   3.320 -32.332  1.00  0.00    -0.361 N 
HETATM   13  C   UNL     1     -15.143   4.208 -31.958  1.00  0.00     0.149 C 
HETATM   14  H   UNL     1     -14.115   2.363 -32.010  1.00  0.00     0.162 HD
HETATM   15  O   UNL     1     -12.635   5.023 -32.894  1.00  0.00    -0.268 OA
ENDBRANCH   8  11
ENDBRANCH   1   5
BRANCH   2  16
HETATM   16  C   UNL     1      -6.725  -1.071 -34.299  1.00  0.00     0.144 A 
HETATM   17  O   UNL     1      -7.095  -2.308 -34.765  1.00  0.00    -0.304 OA
HETATM   18  C   UNL     1      -6.058  -3.155 -34.518  1.00  0.00     0.086 A 
HETATM   19  C   UNL     1      -5.019  -2.480 -33.888  1.00  0.00     0.001 A 
HETATM   20  C   UNL     1      -6.023  -4.507 -34.849  1.00  0.00     0.038 A 
HETATM   21  C   UNL     1      -5.460  -1.141 -33.745  1.00  0.00     0.057 A 
HETATM   22  C   UNL     1      -3.854  -3.195 -33.558  1.00  0.00     0.014 A 
HETATM   23  C   UNL     1      -3.788  -4.559 -33.882  1.00  0.00     0.001 A 
HETATM   24  C   UNL     1      -4.855  -5.201 -34.515  1.00  0.00     0.003 A 
ENDBRANCH   2  16
TORSDOF 3
ENDMDL
MODEL 6
REMARK VINA RESULT:      -7.6      1.709      2.064
REMARK  3 active torsions:
REMARK  status: ('A' for Active; 'I' for Inactive)
REMARK       I    between atoms: N_2  and  C_3 
REMARK    1  A    between atoms: C_3  and  C_4 
REMARK    2  A    between atoms: C_7  and  N_8 
REMARK       I    between atoms: N_8  and  C_9 
REMARK    3  A    between atoms: C_9  and  C_10 
ROOT
HETATM    1  N   UNL     1      -4.774   1.417 -32.760  1.00  0.00    -0.321 N 
HETATM    2  C   UNL     1      -5.829   1.078 -33.589  1.00  0.00     0.280 C 
HETATM    3  O   UNL     1      -6.678   1.853 -34.014  1.00  0.00    -0.265 OA
HETATM    4  H   UNL     1      -4.155   0.647 -32.528  1.00  0.00     0.169 HD
ENDROOT
BRANCH   1   5
HETATM    5  C   UNL     1      -4.488   2.665 -32.178  1.00  0.00     0.035 A 
HETATM    6  C   UNL     1      -3.520   3.548 -32.662  1.00  0.00     0.030 A 
HETATM    7  C   UNL     1      -3.321   4.794 -32.052  1.00  0.00     0.019 A 
HETATM    8  C   UNL     1      -4.095   5.168 -30.949  1.00  0.00     0.032 A 
HETATM    9  C   UNL     1      -5.041   4.275 -30.439  1.00  0.00     0.019 A 
HETATM   10  C   UNL     1      -5.239   3.034 -31.055  1.00  0.00     0.030 A 
BRANCH   8  11
HETATM   11  C   UNL     1      -3.935   6.491 -30.289  1.00  0.00     0.251 C 
HETATM   12  N   UNL     1      -5.023   7.338 -30.353  1.00  0.00    -0.361 N 
HETATM   13  C   UNL     1      -5.015   8.592 -29.645  1.00  0.00     0.149 C 
HETATM   14  H   UNL     1      -5.915   6.963 -30.644  1.00  0.00     0.162 HD
HETATM   15  O   UNL     1      -2.898   6.762 -29.694  1.00  0.00    -0.268 OA
ENDBRANCH   8  11
ENDBRANCH   1   5
BRANCH   2  16
HETATM   16  C   UNL     1      -5.849  -0.336 -33.916  1.00  0.00     0.144 A 
HETATM   17  O   UNL     1      -4.723  -1.093 -33.709  1.00  0.00    -0.304 OA
HETATM   18  C   UNL     1      -5.029  -2.372 -34.064  1.00  0.00     0.086 A 
HETATM   19  C   UNL     1      -6.343  -2.451 -34.509  1.00  0.00     0.001 A 
HETATM   20  C   UNL     1      -4.163  -3.459 -33.993  1.00  0.00     0.038 A 
HETATM   21  C   UNL     1      -6.862  -1.135 -34.416  1.00  0.00     0.057 A 
HETATM   22  C   UNL     1      -6.843  -3.701 -34.915  1.00  0.00     0.014 A 
HETATM   23  C   UNL     1      -5.994  -4.816 -34.851  1.00  0.00     0.001 A 
HETATM   24  C   UNL     1      -4.678  -4.695 -34.398  1.00  0.00     0.003 A 
ENDBRANCH   2  16
TORSDOF 3
ENDMDL
MODEL 7
REMARK VINA RESULT:      -7.5      3.472      4.040
REMARK  3 active torsions:
REMARK  status: ('A' for Active; 'I' for Inactive)
REMARK       I    between atoms: N_2  and  C_3 
REMARK    1  A    between atoms: C_3  and  C_4 
REMARK    2  A    between atoms: C_7  and  N_8 
REMARK       I    between atoms: N_8  and  C_9 
REMARK    3  A    between atoms: C_9  and  C_10 
ROOT
HETATM    1  N   UNL     1      -6.877   1.715 -31.708  1.00  0.00    -0.321 N 
HETATM    2  C   UNL     1      -6.824   1.596 -33.086  1.00  0.00     0.280 C 
HETATM    3  O   UNL     1      -6.988   2.510 -33.886  1.00  0.00    -0.265 OA
HETATM    4  H   UNL     1      -6.692   0.854 -31.203  1.00  0.00     0.169 HD
ENDROOT
BRANCH   1   5
HETATM    5  C   UNL     1      -7.191   2.852 -30.941  1.00  0.00     0.035 A 
HETATM    6  C   UNL     1      -8.468   3.413 -30.865  1.00  0.00     0.030 A 
HETATM    7  C   UNL     1      -8.711   4.523 -30.045  1.00  0.00     0.019 A 
HETATM    8  C   UNL     1      -7.675   5.080 -29.290  1.00  0.00     0.032 A 
HETATM    9  C   UNL     1      -6.388   4.544 -29.388  1.00  0.00     0.019 A 
HETATM   10  C   UNL     1      -6.151   3.433 -30.205  1.00  0.00     0.030 A 
BRANCH   8  11
HETATM   11  C   UNL     1      -7.897   6.241 -28.386  1.00  0.00     0.251 C 
HETATM   12  N   UNL     1      -9.175   6.762 -28.370  1.00  0.00    -0.361 N 
HETATM   13  C   UNL     1      -9.525   7.807 -27.443  1.00  0.00     0.149 C 
HETATM   14  H   UNL     1      -9.924   6.229 -28.788  1.00  0.00     0.162 HD
HETATM   15  O   UNL     1      -6.986   6.654 -27.678  1.00  0.00    -0.268 OA
ENDBRANCH   8  11
ENDBRANCH   1   5
BRANCH   2  16
HETATM   16  C   UNL     1      -6.558   0.237 -33.519  1.00  0.00     0.144 A 
HETATM   17  O   UNL     1      -5.286  -0.269 -33.412  1.00  0.00    -0.304 OA
HETATM   18  C   UNL     1      -5.329  -1.557 -33.852  1.00  0.00     0.086 A 
HETATM   19  C   UNL     1      -6.617  -1.890 -34.253  1.00  0.00     0.001 A 
HETATM   20  C   UNL     1      -4.246  -2.432 -33.895  1.00  0.00     0.038 A 
HETATM   21  C   UNL     1      -7.400  -0.728 -34.042  1.00  0.00     0.057 A 
HETATM   22  C   UNL     1      -6.856  -3.189 -34.736  1.00  0.00     0.014 A 
HETATM   23  C   UNL     1      -5.786  -4.095 -34.788  1.00  0.00     0.001 A 
HETATM   24  C   UNL     1      -4.505  -3.720 -34.375  1.00  0.00     0.003 A 
ENDBRANCH   2  16
TORSDOF 3
ENDMDL
MODEL 8
REMARK VINA RESULT:      -7.4      2.220      9.549
REMARK  3 active torsions:
REMARK  status: ('A' for Active; 'I' for Inactive)
REMARK       I    between atoms: N_2  and  C_3 
REMARK    1  A    between atoms: C_3  and  C_4 
REMARK    2  A    between atoms: C_7  and  N_8 
REMARK       I    between atoms: N_8  and  C_9 
REMARK    3  A    between atoms: C_9  and  C_10 
ROOT
HETATM    1  N   UNL     1      -2.916   4.084 -31.081  1.00  0.00    -0.321 N 
HETATM    2  C   UNL     1      -1.888   4.801 -31.668  1.00  0.00     0.280 C 
HETATM    3  O   UNL     1      -1.478   4.651 -32.813  1.00  0.00    -0.265 OA
HETATM    4  H   UNL     1      -3.135   4.363 -30.130  1.00  0.00     0.169 HD
ENDROOT
BRANCH   1   5
HETATM    5  C   UNL     1      -3.650   3.012 -31.619  1.00  0.00     0.035 A 
HETATM    6  C   UNL     1      -3.331   1.668 -31.416  1.00  0.00     0.030 A 
HETATM    7  C   UNL     1      -4.137   0.654 -31.951  1.00  0.00     0.019 A 
HETATM    8  C   UNL     1      -5.274   0.979 -32.695  1.00  0.00     0.032 A 
HETATM    9  C   UNL     1      -5.580   2.322 -32.931  1.00  0.00     0.019 A 
HETATM   10  C   UNL     1      -4.775   3.331 -32.390  1.00  0.00     0.030 A 
BRANCH   8  11
HETATM   11  C   UNL     1      -6.171  -0.066 -33.258  1.00  0.00     0.251 C 
HETATM   12  N   UNL     1      -5.581  -0.979 -34.108  1.00  0.00    -0.361 N 
HETATM   13  C   UNL     1      -6.333  -2.100 -34.611  1.00  0.00     0.149 C 
HETATM   14  H   UNL     1      -4.572  -1.030 -34.145  1.00  0.00     0.162 HD
HETATM   15  O   UNL     1      -7.350  -0.109 -32.927  1.00  0.00    -0.268 OA
ENDBRANCH   8  11
ENDBRANCH   1   5
BRANCH   2  16
HETATM   16  C   UNL     1      -1.304   5.779 -30.767  1.00  0.00     0.144 A 
HETATM   17  O   UNL     1      -2.102   6.750 -30.217  1.00  0.00    -0.304 OA
HETATM   18  C   UNL     1      -1.313   7.499 -29.397  1.00  0.00     0.086 A 
HETATM   19  C   UNL     1      -0.007   7.027 -29.416  1.00  0.00     0.001 A 
HETATM   20  C   UNL     1      -1.741   8.583 -28.635  1.00  0.00     0.038 A 
HETATM   21  C   UNL     1      -0.008   5.924 -30.306  1.00  0.00     0.057 A 
HETATM   22  C   UNL     1       0.955   7.675 -28.621  1.00  0.00     0.014 A 
HETATM   23  C   UNL     1       0.554   8.769 -27.839  1.00  0.00     0.001 A 
HETATM   24  C   UNL     1      -0.770   9.214 -27.848  1.00  0.00     0.003 A 
ENDBRANCH   2  16
TORSDOF 3
ENDMDL
MODEL 9
REMARK VINA RESULT:      -7.3      2.913      3.541
REMARK  3 active torsions:
REMARK  status: ('A' for Active; 'I' for Inactive)
REMARK       I    between atoms: N_2  and  C_3 
REMARK    1  A    between atoms: C_3  and  C_4 
REMARK    2  A    between atoms: C_7  and  N_8 
REMARK       I    between atoms: N_8  and  C_9 
REMARK    3  A    between atoms: C_9  and  C_10 
ROOT
HETATM    1  N   UNL     1      -6.007   1.036 -31.724  1.00  0.00    -0.321 N 
HETATM    2  C   UNL     1      -5.998   0.839 -33.094  1.00  0.00     0.280 C 
HETATM    3  O   UNL     1      -6.204   1.703 -33.939  1.00  0.00    -0.265 OA
HETATM    4  H   UNL     1      -5.791   0.208 -31.178  1.00  0.00     0.169 HD
ENDROOT
BRANCH   1   5
HETATM    5  C   UNL     1      -6.314   2.210 -31.013  1.00  0.00     0.035 A 
HETATM    6  C   UNL     1      -5.357   3.127 -30.571  1.00  0.00     0.030 A 
HETATM    7  C   UNL     1      -5.745   4.297 -29.905  1.00  0.00     0.019 A 
HETATM    8  C   UNL     1      -7.098   4.561 -29.676  1.00  0.00     0.032 A 
HETATM    9  C   UNL     1      -8.057   3.631 -30.086  1.00  0.00     0.019 A 
HETATM   10  C   UNL     1      -7.666   2.467 -30.756  1.00  0.00     0.030 A 
BRANCH   8  11
HETATM   11  C   UNL     1      -7.553   5.803 -28.997  1.00  0.00     0.251 C 
HETATM   12  N   UNL     1      -6.559   6.642 -28.535  1.00  0.00    -0.361 N 
HETATM   13  C   UNL     1      -6.890   7.925 -27.971  1.00  0.00     0.149 C 
HETATM   14  H   UNL     1      -5.610   6.493 -28.849  1.00  0.00     0.162 HD
HETATM   15  O   UNL     1      -8.749   6.056 -28.911  1.00  0.00    -0.268 OA
ENDBRANCH   8  11
ENDBRANCH   1   5
BRANCH   2  16
HETATM   16  C   UNL     1      -5.724  -0.539 -33.458  1.00  0.00     0.144 A 
HETATM   17  O   UNL     1      -6.730  -1.310 -33.986  1.00  0.00    -0.304 OA
HETATM   18  C   UNL     1      -6.195  -2.531 -34.265  1.00  0.00     0.086 A 
HETATM   19  C   UNL     1      -4.851  -2.563 -33.914  1.00  0.00     0.001 A 
HETATM   20  C   UNL     1      -6.881  -3.604 -34.827  1.00  0.00     0.038 A 
HETATM   21  C   UNL     1      -4.558  -1.279 -33.390  1.00  0.00     0.057 A 
HETATM   22  C   UNL     1      -4.125  -3.747 -34.135  1.00  0.00     0.014 A 
HETATM   23  C   UNL     1      -4.788  -4.845 -34.704  1.00  0.00     0.001 A 
HETATM   24  C   UNL     1      -6.142  -4.773 -35.042  1.00  0.00     0.003 A 
ENDBRANCH   2  16
TORSDOF 3
ENDMDL
MODEL 10
REMARK VINA RESULT:      -7.2      5.980      7.161
REMARK  3 active torsions:
REMARK  status: ('A' for Active; 'I' for Inactive)
REMARK       I    between atoms: N_2  and  C_3 
REMARK    1  A    between atoms: C_3  and  C_4 
REMARK    2  A    between atoms: C_7  and  N_8 
REMARK       I    between atoms: N_8  and  C_9 
REMARK    3  A    between atoms: C_9  and  C_10 
ROOT
HETATM    1  N   UNL     1      -9.000   1.207 -34.109  1.00  0.00    -0.321 N 
HETATM    2  C   UNL     1      -8.144   0.916 -33.061  1.00  0.00     0.280 C 
HETATM    3  O   UNL     1      -8.103   1.509 -31.989  1.00  0.00    -0.265 OA
HETATM    4  H   UNL     1      -8.908   0.592 -34.912  1.00  0.00     0.169 HD
ENDROOT
BRANCH   1   5
HETATM    5  C   UNL     1      -9.933   2.255 -34.209  1.00  0.00     0.035 A 
HETATM    6  C   UNL     1      -9.583   3.598 -34.367  1.00  0.00     0.030 A 
HETATM    7  C   UNL     1     -10.572   4.582 -34.502  1.00  0.00     0.019 A 
HETATM    8  C   UNL     1     -11.924   4.227 -34.482  1.00  0.00     0.032 A 
HETATM    9  C   UNL     1     -12.280   2.890 -34.290  1.00  0.00     0.019 A 
HETATM   10  C   UNL     1     -11.289   1.910 -34.161  1.00  0.00     0.030 A 
BRANCH   8  11
HETATM   11  C   UNL     1     -13.004   5.236 -34.649  1.00  0.00     0.251 C 
HETATM   12  N   UNL     1     -13.069   5.858 -35.880  1.00  0.00    -0.361 N 
HETATM   13  C   UNL     1     -14.149   6.761 -36.185  1.00  0.00     0.149 C 
HETATM   14  H   UNL     1     -12.544   5.469 -36.650  1.00  0.00     0.162 HD
HETATM   15  O   UNL     1     -13.799   5.444 -33.740  1.00  0.00    -0.268 OA
ENDBRANCH   8  11
ENDBRANCH   1   5
BRANCH   2  16
HETATM   16  C   UNL     1      -7.254  -0.192 -33.358  1.00  0.00     0.144 A 
HETATM   17  O   UNL     1      -7.755  -1.315 -33.967  1.00  0.00    -0.304 OA
HETATM   18  C   UNL     1      -6.711  -2.168 -34.156  1.00  0.00     0.086 A 
HETATM   19  C   UNL     1      -5.535  -1.612 -33.667  1.00  0.00     0.001 A 
HETATM   20  C   UNL     1      -6.790  -3.422 -34.757  1.00  0.00     0.038 A 
HETATM   21  C   UNL     1      -5.895  -0.342 -33.149  1.00  0.00     0.057 A 
HETATM   22  C   UNL     1      -4.343  -2.349 -33.780  1.00  0.00     0.014 A 
HETATM   23  C   UNL     1      -4.390  -3.614 -34.384  1.00  0.00     0.001 A 
HETATM   24  C   UNL     1      -5.593  -4.139 -34.863  1.00  0.00     0.003 A 
ENDBRANCH   2  16
TORSDOF 3
ENDMDL
