MODEL 1
REMARK VINA RESULT:     -10.4      0.000      0.000
REMARK  9 active torsions:
REMARK  status: ('A' for Active; 'I' for Inactive)
REMARK    1  A    between atoms: C_4  and  C_5 
REMARK    2  A    between atoms: C_5  and  N_6 
REMARK    3  A    between atoms: C_10  and  C_11 
REMARK    4  A    between atoms: C_11  and  N_12 
REMARK       I    between atoms: N_12  and  C_13 
REMARK    5  A    between atoms: C_13  and  C_14 
REMARK    6  A    between atoms: C_14  and  C_15 
REMARK    7  A    between atoms: C_15  and  C_16 
REMARK       I    between atoms: C_16  and  N_17 
REMARK    8  A    between atoms: N_17  and  C_18 
REMARK    9  A    between atoms: C_24  and  N_25 
ROOT
HETATM    1  C   UNL     1      -2.682   5.848 -34.536  1.00  0.00     0.112 C 
ENDROOT
BRANCH   1   2
HETATM    2  C   UNL     1      -2.901   4.466 -33.931  1.00  0.00     0.112 C 
BRANCH   2   3
HETATM    3  C   UNL     1      -4.330   4.211 -33.514  1.00  0.00     0.218 C 
HETATM    4  N   UNL     1      -4.485   3.597 -32.288  1.00  0.00    -0.361 N 
HETATM    5  H   UNL     1      -3.660   3.501 -31.706  1.00  0.00     0.162 HD
HETATM    6  O   UNL     1      -5.286   4.552 -34.207  1.00  0.00    -0.274 OA
BRANCH   4   7
HETATM    7  C   UNL     1      -5.773   3.556 -31.622  1.00  0.00     0.127 C 
BRANCH   7   8
HETATM    8  C   UNL     1      -6.102   2.205 -30.954  1.00  0.00     0.006 C 
HETATM    9  C   UNL     1      -5.002   1.143 -31.085  1.00  0.00     0.034 C 
HETATM   10  C   UNL     1      -4.818   0.651 -32.516  1.00  0.00     0.235 C 
HETATM   11  N   UNL     1      -6.132   0.086 -33.015  1.00  0.00    -0.067 N 
HETATM   12  H   UNL     1      -6.366  -0.707 -32.406  1.00  0.00     0.280 HD
HETATM   13  C   UNL     1      -7.257   1.085 -32.947  1.00  0.00     0.235 C 
HETATM   14  C   UNL     1      -7.407   1.617 -31.523  1.00  0.00     0.034 C 
BRANCH  11  15
HETATM   15  C   UNL     1      -6.012  -0.495 -34.415  1.00  0.00     0.273 C 
BRANCH  15  16
HETATM   16  C   UNL     1      -5.876  -1.992 -34.437  1.00  0.00    -0.032 A 
HETATM   17  C   UNL     1      -4.660  -2.607 -34.094  1.00  0.00     0.015 A 
HETATM   18  C   UNL     1      -4.517  -4.000 -34.162  1.00  0.00    -0.061 A 
HETATM   19  C   UNL     1      -3.229  -4.663 -33.769  1.00  0.00     0.048 C 
HETATM   20  C   UNL     1      -5.611  -4.780 -34.548  1.00  0.00     0.007 A 
HETATM   21  C   UNL     1      -6.825  -4.182 -34.880  1.00  0.00     0.001 A 
HETATM   22  C   UNL     1      -6.957  -2.795 -34.828  1.00  0.00     0.009 A 
ENDBRANCH  15  16
ENDBRANCH  11  15
ENDBRANCH   7   8
ENDBRANCH   4   7
ENDBRANCH   2   3
ENDBRANCH   1   2
BRANCH   1  23
HETATM   23  C   UNL     1      -1.951   6.753 -33.556  1.00  0.00     0.222 C 
HETATM   24  N   UNL     1      -1.855   6.205 -32.285  1.00  0.00    -0.327 N 
HETATM   25  H   UNL     1      -2.350   5.335 -32.126  1.00  0.00     0.169 HD
HETATM   26  O   UNL     1      -1.526   7.854 -33.891  1.00  0.00    -0.273 OA
BRANCH  24  27
HETATM   27  C   UNL     1      -1.226   6.789 -31.162  1.00  0.00     0.035 A 
HETATM   28  C   UNL     1      -1.862   7.680 -30.287  1.00  0.00     0.043 A 
HETATM   29  C   UNL     1      -1.207   8.222 -29.155  1.00  0.00    -0.001 A 
HETATM   30  C   UNL     1       0.129   7.837 -28.920  1.00  0.00     0.044 A 
HETATM   31  C   UNL     1      -1.809   9.117 -28.239  1.00  0.00    -0.046 A 
HETATM   32  N   UNL     1       0.770   8.308 -27.841  1.00  0.00    -0.346 N 
HETATM   33  C   UNL     1       0.780   6.963 -29.802  1.00  0.00     0.033 A 
HETATM   34  H   UNL     1       1.708   7.989 -27.625  1.00  0.00     0.167 HD
HETATM   35  C   UNL     1       0.244   9.151 -26.945  1.00  0.00     0.083 A 
HETATM   36  C   UNL     1      -1.072   9.570 -27.136  1.00  0.00     0.050 A 
HETATM   37  C   UNL     1       0.108   6.452 -30.919  1.00  0.00     0.032 A 
HETATM   38  C   UNL     1      -3.233   9.587 -28.405  1.00  0.00     0.049 C 
BRANCH  35  39
HETATM   39  N   UNL     1       1.059   9.475 -25.873  1.00  0.00    -0.269 NA
HETATM   40  C   UNL     1       2.173   8.545 -25.580  1.00  0.00     0.097 C 
HETATM   41  C   UNL     1       3.160   9.213 -24.625  1.00  0.00     0.015 C 
HETATM   42  C   UNL     1       2.465   9.687 -23.351  1.00  0.00     0.002 C 
HETATM   43  C   UNL     1       1.265  10.569 -23.685  1.00  0.00     0.015 C 
HETATM   44  C   UNL     1       0.314   9.872 -24.659  1.00  0.00     0.097 C 
ENDBRANCH  35  39
ENDBRANCH  24  27
ENDBRANCH   1  23
TORSDOF 9
ENDMDL
MODEL 2
REMARK VINA RESULT:     -10.4      2.591     10.985
REMARK  9 active torsions:
REMARK  status: ('A' for Active; 'I' for Inactive)
REMARK    1  A    between atoms: C_4  and  C_5 
REMARK    2  A    between atoms: C_5  and  N_6 
REMARK    3  A    between atoms: C_10  and  C_11 
REMARK    4  A    between atoms: C_11  and  N_12 
REMARK       I    between atoms: N_12  and  C_13 
REMARK    5  A    between atoms: C_13  and  C_14 
REMARK    6  A    between atoms: C_14  and  C_15 
REMARK    7  A    between atoms: C_15  and  C_16 
REMARK       I    between atoms: C_16  and  N_17 
REMARK    8  A    between atoms: N_17  and  C_18 
REMARK    9  A    between atoms: C_24  and  N_25 
ROOT
HETATM    1  C   UNL     1      -6.839   5.855 -28.308  1.00  0.00     0.112 C 
ENDROOT
BRANCH   1   2
HETATM    2  C   UNL     1      -6.000   7.126 -28.383  1.00  0.00     0.112 C 
BRANCH   2   3
HETATM    3  C   UNL     1      -4.853   7.149 -27.401  1.00  0.00     0.218 C 
HETATM    4  N   UNL     1      -3.628   6.783 -27.919  1.00  0.00    -0.361 N 
HETATM    5  H   UNL     1      -3.558   6.676 -28.925  1.00  0.00     0.162 HD
HETATM    6  O   UNL     1      -4.999   7.494 -26.231  1.00  0.00    -0.274 OA
BRANCH   4   7
HETATM    7  C   UNL     1      -2.397   7.037 -27.194  1.00  0.00     0.127 C 
BRANCH   7   8
HETATM    8  C   UNL     1      -1.452   8.047 -27.879  1.00  0.00     0.006 C 
HETATM    9  C   UNL     1      -1.819   8.383 -29.331  1.00  0.00     0.034 C 
HETATM   10  C   UNL     1      -1.624   7.207 -30.280  1.00  0.00     0.235 C 
HETATM   11  N   UNL     1      -0.179   6.755 -30.213  1.00  0.00    -0.067 N 
HETATM   12  H   UNL     1       0.395   7.548 -30.523  1.00  0.00     0.280 HD
HETATM   13  C   UNL     1       0.247   6.376 -28.819  1.00  0.00     0.235 C 
HETATM   14  C   UNL     1       0.001   7.537 -27.857  1.00  0.00     0.034 C 
BRANCH  11  15
HETATM   15  C   UNL     1       0.116   5.629 -31.191  1.00  0.00     0.273 C 
BRANCH  15  16
HETATM   16  C   UNL     1      -0.997   5.374 -32.170  1.00  0.00    -0.032 A 
HETATM   17  C   UNL     1      -1.960   4.383 -31.918  1.00  0.00     0.015 A 
HETATM   18  C   UNL     1      -2.969   4.110 -32.853  1.00  0.00    -0.061 A 
HETATM   19  C   UNL     1      -4.017   3.071 -32.576  1.00  0.00     0.048 C 
HETATM   20  C   UNL     1      -3.026   4.859 -34.033  1.00  0.00     0.007 A 
HETATM   21  C   UNL     1      -2.082   5.852 -34.287  1.00  0.00     0.001 A 
HETATM   22  C   UNL     1      -1.071   6.107 -33.363  1.00  0.00     0.009 A 
ENDBRANCH  15  16
ENDBRANCH  11  15
ENDBRANCH   7   8
ENDBRANCH   4   7
ENDBRANCH   2   3
ENDBRANCH   1   2
BRANCH   1  23
HETATM   23  C   UNL     1      -6.295   4.798 -29.257  1.00  0.00     0.222 C 
HETATM   24  N   UNL     1      -7.105   3.675 -29.333  1.00  0.00    -0.327 N 
HETATM   25  H   UNL     1      -7.893   3.638 -28.697  1.00  0.00     0.169 HD
HETATM   26  O   UNL     1      -5.236   4.954 -29.856  1.00  0.00    -0.273 OA
BRANCH  24  27
HETATM   27  C   UNL     1      -6.883   2.529 -30.131  1.00  0.00     0.035 A 
HETATM   28  C   UNL     1      -7.496   2.313 -31.373  1.00  0.00     0.043 A 
HETATM   29  C   UNL     1      -7.227   1.164 -32.157  1.00  0.00    -0.001 A 
HETATM   30  C   UNL     1      -6.309   0.222 -31.650  1.00  0.00     0.044 A 
HETATM   31  C   UNL     1      -7.813   0.907 -33.419  1.00  0.00    -0.046 A 
HETATM   32  N   UNL     1      -6.009  -0.863 -32.379  1.00  0.00    -0.346 N 
HETATM   33  C   UNL     1      -5.709   0.419 -30.399  1.00  0.00     0.033 A 
HETATM   34  H   UNL     1      -5.303  -1.515 -32.057  1.00  0.00     0.167 HD
HETATM   35  C   UNL     1      -6.532  -1.149 -33.577  1.00  0.00     0.083 A 
HETATM   36  C   UNL     1      -7.452  -0.253 -34.119  1.00  0.00     0.050 A 
HETATM   37  C   UNL     1      -6.002   1.560 -29.643  1.00  0.00     0.032 A 
HETATM   38  C   UNL     1      -8.806   1.855 -34.044  1.00  0.00     0.049 C 
BRANCH  35  39
HETATM   39  N   UNL     1      -6.048  -2.294 -34.187  1.00  0.00    -0.269 NA
HETATM   40  C   UNL     1      -7.011  -3.401 -34.380  1.00  0.00     0.097 C 
HETATM   41  C   UNL     1      -6.430  -4.421 -35.359  1.00  0.00     0.015 C 
HETATM   42  C   UNL     1      -5.069  -4.927 -34.889  1.00  0.00     0.002 C 
HETATM   43  C   UNL     1      -4.124  -3.761 -34.609  1.00  0.00     0.015 C 
HETATM   44  C   UNL     1      -4.752  -2.755 -33.643  1.00  0.00     0.097 C 
ENDBRANCH  35  39
ENDBRANCH  24  27
ENDBRANCH   1  23
TORSDOF 9
ENDMDL
MODEL 3
REMARK VINA RESULT:     -10.2      2.071     10.831
REMARK  9 active torsions:
REMARK  status: ('A' for Active; 'I' for Inactive)
REMARK    1  A    between atoms: C_4  and  C_5 
REMARK    2  A    between atoms: C_5  and  N_6 
REMARK    3  A    between atoms: C_10  and  C_11 
REMARK    4  A    between atoms: C_11  and  N_12 
REMARK       I    between atoms: N_12  and  C_13 
REMARK    5  A    between atoms: C_13  and  C_14 
REMARK    6  A    between atoms: C_14  and  C_15 
REMARK    7  A    between atoms: C_15  and  C_16 
REMARK       I    between atoms: C_16  and  N_17 
REMARK    8  A    between atoms: N_17  and  C_18 
REMARK    9  A    between atoms: C_24  and  N_25 
ROOT
HETATM    1  C   UNL     1      -4.425   7.069 -30.274  1.00  0.00     0.112 C 
ENDROOT
BRANCH   1   2
HETATM    2  C   UNL     1      -4.121   8.282 -31.146  1.00  0.00     0.112 C 
BRANCH   2   3
HETATM    3  C   UNL     1      -3.088   9.208 -30.550  1.00  0.00     0.218 C 
HETATM    4  N   UNL     1      -2.913   9.095 -29.187  1.00  0.00    -0.361 N 
HETATM    5  H   UNL     1      -3.366   8.317 -28.720  1.00  0.00     0.162 HD
HETATM    6  O   UNL     1      -2.433   9.988 -31.238  1.00  0.00    -0.274 OA
BRANCH   4   7
HETATM    7  C   UNL     1      -1.769   9.689 -28.521  1.00  0.00     0.127 C 
BRANCH   7   8
HETATM    8  C   UNL     1      -1.115   8.789 -27.452  1.00  0.00     0.006 C 
HETATM    9  C   UNL     1       0.398   8.591 -27.622  1.00  0.00     0.034 C 
HETATM   10  C   UNL     1       0.755   7.774 -28.858  1.00  0.00     0.235 C 
HETATM   11  N   UNL     1       0.073   6.424 -28.771  1.00  0.00    -0.067 N 
HETATM   12  H   UNL     1       0.440   5.959 -27.932  1.00  0.00     0.280 HD
HETATM   13  C   UNL     1      -1.423   6.537 -28.634  1.00  0.00     0.235 C 
HETATM   14  C   UNL     1      -1.780   7.400 -27.426  1.00  0.00     0.034 C 
BRANCH  11  15
HETATM   15  C   UNL     1       0.440   5.519 -29.936  1.00  0.00     0.273 C 
BRANCH  15  16
HETATM   16  C   UNL     1      -0.276   5.859 -31.213  1.00  0.00    -0.032 A 
HETATM   17  C   UNL     1      -1.027   4.887 -31.895  1.00  0.00     0.015 A 
HETATM   18  C   UNL     1      -1.654   5.190 -33.112  1.00  0.00    -0.061 A 
HETATM   19  C   UNL     1      -2.481   4.163 -33.830  1.00  0.00     0.048 C 
HETATM   20  C   UNL     1      -1.550   6.485 -33.629  1.00  0.00     0.007 A 
HETATM   21  C   UNL     1      -0.817   7.460 -32.955  1.00  0.00     0.001 A 
HETATM   22  C   UNL     1      -0.180   7.149 -31.755  1.00  0.00     0.009 A 
ENDBRANCH  15  16
ENDBRANCH  11  15
ENDBRANCH   7   8
ENDBRANCH   4   7
ENDBRANCH   2   3
ENDBRANCH   1   2
BRANCH   1  23
HETATM   23  C   UNL     1      -4.703   5.846 -31.134  1.00  0.00     0.222 C 
HETATM   24  N   UNL     1      -4.457   4.653 -30.471  1.00  0.00    -0.327 N 
HETATM   25  H   UNL     1      -4.040   4.722 -29.549  1.00  0.00     0.169 HD
HETATM   26  O   UNL     1      -5.083   5.950 -32.296  1.00  0.00    -0.273 OA
BRANCH  24  27
HETATM   27  C   UNL     1      -4.631   3.349 -30.989  1.00  0.00     0.035 A 
HETATM   28  C   UNL     1      -5.855   2.851 -31.455  1.00  0.00     0.043 A 
HETATM   29  C   UNL     1      -5.982   1.548 -31.993  1.00  0.00    -0.001 A 
HETATM   30  C   UNL     1      -4.825   0.744 -32.053  1.00  0.00     0.044 A 
HETATM   31  C   UNL     1      -7.194   1.004 -32.484  1.00  0.00    -0.046 A 
HETATM   32  N   UNL     1      -4.905  -0.485 -32.584  1.00  0.00    -0.346 N 
HETATM   33  C   UNL     1      -3.602   1.226 -31.570  1.00  0.00     0.033 A 
HETATM   34  H   UNL     1      -4.069  -1.048 -32.693  1.00  0.00     0.167 HD
HETATM   35  C   UNL     1      -6.023  -1.041 -33.064  1.00  0.00     0.083 A 
HETATM   36  C   UNL     1      -7.197  -0.291 -33.020  1.00  0.00     0.050 A 
HETATM   37  C   UNL     1      -3.510   2.516 -31.034  1.00  0.00     0.032 A 
HETATM   38  C   UNL     1      -8.484   1.786 -32.462  1.00  0.00     0.049 C 
BRANCH  35  39
HETATM   39  N   UNL     1      -5.877  -2.303 -33.618  1.00  0.00    -0.269 NA
HETATM   40  C   UNL     1      -4.529  -2.659 -34.113  1.00  0.00     0.097 C 
HETATM   41  C   UNL     1      -4.454  -4.166 -34.356  1.00  0.00     0.015 C 
HETATM   42  C   UNL     1      -5.551  -4.628 -35.311  1.00  0.00     0.002 C 
HETATM   43  C   UNL     1      -6.923  -4.168 -34.824  1.00  0.00     0.015 C 
HETATM   44  C   UNL     1      -6.948  -2.660 -34.573  1.00  0.00     0.097 C 
ENDBRANCH  35  39
ENDBRANCH  24  27
ENDBRANCH   1  23
TORSDOF 9
ENDMDL
MODEL 4
REMARK VINA RESULT:     -10.0      1.464      1.882
REMARK  9 active torsions:
REMARK  status: ('A' for Active; 'I' for Inactive)
REMARK    1  A    between atoms: C_4  and  C_5 
REMARK    2  A    between atoms: C_5  and  N_6 
REMARK    3  A    between atoms: C_10  and  C_11 
REMARK    4  A    between atoms: C_11  and  N_12 
REMARK       I    between atoms: N_12  and  C_13 
REMARK    5  A    between atoms: C_13  and  C_14 
REMARK    6  A    between atoms: C_14  and  C_15 
REMARK    7  A    between atoms: C_15  and  C_16 
REMARK       I    between atoms: C_16  and  N_17 
REMARK    8  A    between atoms: N_17  and  C_18 
REMARK    9  A    between atoms: C_24  and  N_25 
ROOT
HETATM    1  C   UNL     1      -2.005   4.620 -33.677  1.00  0.00     0.112 C 
ENDROOT
BRANCH   1   2
HETATM    2  C   UNL     1      -2.897   5.753 -34.170  1.00  0.00     0.112 C 
BRANCH   2   3
HETATM    3  C   UNL     1      -4.158   5.923 -33.356  1.00  0.00     0.218 C 
HETATM    4  N   UNL     1      -5.175   5.041 -33.656  1.00  0.00    -0.361 N 
HETATM    5  H   UNL     1      -4.957   4.268 -34.276  1.00  0.00     0.162 HD
HETATM    6  O   UNL     1      -4.259   6.771 -32.473  1.00  0.00    -0.274 OA
BRANCH   4   7
HETATM    7  C   UNL     1      -6.318   4.880 -32.777  1.00  0.00     0.127 C 
BRANCH   7   8
HETATM    8  C   UNL     1      -6.073   3.939 -31.579  1.00  0.00     0.006 C 
HETATM    9  C   UNL     1      -5.059   2.817 -31.844  1.00  0.00     0.034 C 
HETATM   10  C   UNL     1      -5.565   1.785 -32.845  1.00  0.00     0.235 C 
HETATM   11  N   UNL     1      -6.858   1.189 -32.328  1.00  0.00    -0.067 N 
HETATM   12  H   UNL     1      -6.638   0.727 -31.438  1.00  0.00     0.280 HD
HETATM   13  C   UNL     1      -7.916   2.230 -32.074  1.00  0.00     0.235 C 
HETATM   14  C   UNL     1      -7.391   3.294 -31.112  1.00  0.00     0.034 C 
BRANCH  11  15
HETATM   15  C   UNL     1      -7.389   0.093 -33.239  1.00  0.00     0.273 C 
BRANCH  15  16
HETATM   16  C   UNL     1      -6.379  -0.978 -33.545  1.00  0.00    -0.032 A 
HETATM   17  C   UNL     1      -5.302  -1.217 -32.676  1.00  0.00     0.015 A 
HETATM   18  C   UNL     1      -4.332  -2.181 -32.985  1.00  0.00    -0.061 A 
HETATM   19  C   UNL     1      -3.194  -2.459 -32.046  1.00  0.00     0.048 C 
HETATM   20  C   UNL     1      -4.463  -2.928 -34.160  1.00  0.00     0.007 A 
HETATM   21  C   UNL     1      -5.534  -2.707 -35.023  1.00  0.00     0.001 A 
HETATM   22  C   UNL     1      -6.486  -1.735 -34.721  1.00  0.00     0.009 A 
ENDBRANCH  15  16
ENDBRANCH  11  15
ENDBRANCH   7   8
ENDBRANCH   4   7
ENDBRANCH   2   3
ENDBRANCH   1   2
BRANCH   1  23
HETATM   23  C   UNL     1      -1.644   4.819 -32.213  1.00  0.00     0.222 C 
HETATM   24  N   UNL     1      -1.024   6.036 -31.971  1.00  0.00    -0.327 N 
HETATM   25  H   UNL     1      -0.797   6.600 -32.783  1.00  0.00     0.169 HD
HETATM   26  O   UNL     1      -1.875   3.958 -31.371  1.00  0.00    -0.273 OA
BRANCH  24  27
HETATM   27  C   UNL     1      -0.580   6.522 -30.720  1.00  0.00     0.035 A 
HETATM   28  C   UNL     1      -1.036   7.713 -30.140  1.00  0.00     0.043 A 
HETATM   29  C   UNL     1      -0.588   8.153 -28.871  1.00  0.00    -0.001 A 
HETATM   30  C   UNL     1       0.346   7.349 -28.187  1.00  0.00     0.044 A 
HETATM   31  C   UNL     1      -1.026   9.343 -28.241  1.00  0.00    -0.046 A 
HETATM   32  N   UNL     1       0.769   7.721 -26.970  1.00  0.00    -0.346 N 
HETATM   33  C   UNL     1       0.824   6.167 -28.769  1.00  0.00     0.033 A 
HETATM   34  H   UNL     1       1.391   7.120 -26.441  1.00  0.00     0.167 HD
HETATM   35  C   UNL     1       0.383   8.831 -26.332  1.00  0.00     0.083 A 
HETATM   36  C   UNL     1      -0.533   9.666 -26.969  1.00  0.00     0.050 A 
HETATM   37  C   UNL     1       0.370   5.764 -30.030  1.00  0.00     0.032 A 
HETATM   38  C   UNL     1      -2.023  10.268 -28.892  1.00  0.00     0.049 C 
BRANCH  35  39
HETATM   39  N   UNL     1       0.900   9.004 -25.058  1.00  0.00    -0.269 NA
HETATM   40  C   UNL     1       0.382  10.151 -24.280  1.00  0.00     0.097 C 
HETATM   41  C   UNL     1       0.775   9.994 -22.812  1.00  0.00     0.015 C 
HETATM   42  C   UNL     1       2.285   9.838 -22.656  1.00  0.00     0.002 C 
HETATM   43  C   UNL     1       2.807   8.707 -23.539  1.00  0.00     0.015 C 
HETATM   44  C   UNL     1       2.374   8.892 -24.995  1.00  0.00     0.097 C 
ENDBRANCH  35  39
ENDBRANCH  24  27
ENDBRANCH   1  23
TORSDOF 9
ENDMDL
MODEL 5
REMARK VINA RESULT:      -9.9      1.403      1.923
REMARK  9 active torsions:
REMARK  status: ('A' for Active; 'I' for Inactive)
REMARK    1  A    between atoms: C_4  and  C_5 
REMARK    2  A    between atoms: C_5  and  N_6 
REMARK    3  A    between atoms: C_10  and  C_11 
REMARK    4  A    between atoms: C_11  and  N_12 
REMARK       I    between atoms: N_12  and  C_13 
REMARK    5  A    between atoms: C_13  and  C_14 
REMARK    6  A    between atoms: C_14  and  C_15 
REMARK    7  A    between atoms: C_15  and  C_16 
REMARK       I    between atoms: C_16  and  N_17 
REMARK    8  A    between atoms: N_17  and  C_18 
REMARK    9  A    between atoms: C_24  and  N_25 
ROOT
HETATM    1  C   UNL     1      -3.543   6.632 -31.797  1.00  0.00     0.112 C 
ENDROOT
BRANCH   1   2
HETATM    2  C   UNL     1      -3.736   5.320 -31.044  1.00  0.00     0.112 C 
BRANCH   2   3
HETATM    3  C   UNL     1      -4.792   4.428 -31.651  1.00  0.00     0.218 C 
HETATM    4  N   UNL     1      -5.659   3.846 -30.750  1.00  0.00    -0.361 N 
HETATM    5  H   UNL     1      -5.623   4.169 -29.789  1.00  0.00     0.162 HD
HETATM    6  O   UNL     1      -4.886   4.254 -32.864  1.00  0.00    -0.274 OA
BRANCH   4   7
HETATM    7  C   UNL     1      -6.891   3.215 -31.188  1.00  0.00     0.127 C 
BRANCH   7   8
HETATM    8  C   UNL     1      -7.091   1.777 -30.663  1.00  0.00     0.006 C 
HETATM    9  C   UNL     1      -5.811   0.932 -30.612  1.00  0.00     0.034 C 
HETATM   10  C   UNL     1      -5.265   0.596 -31.995  1.00  0.00     0.235 C 
HETATM   11  N   UNL     1      -6.330  -0.142 -32.779  1.00  0.00    -0.067 N 
HETATM   12  H   UNL     1      -6.529  -1.010 -32.267  1.00  0.00     0.280 HD
HETATM   13  C   UNL     1      -7.610   0.642 -32.900  1.00  0.00     0.235 C 
HETATM   14  C   UNL     1      -8.129   1.024 -31.516  1.00  0.00     0.034 C 
BRANCH  11  15
HETATM   15  C   UNL     1      -5.835  -0.579 -34.149  1.00  0.00     0.273 C 
BRANCH  15  16
HETATM   16  C   UNL     1      -5.759  -2.072 -34.315  1.00  0.00    -0.032 A 
HETATM   17  C   UNL     1      -4.574  -2.767 -34.020  1.00  0.00     0.015 A 
HETATM   18  C   UNL     1      -4.486  -4.151 -34.222  1.00  0.00    -0.061 A 
HETATM   19  C   UNL     1      -3.231  -4.902 -33.883  1.00  0.00     0.048 C 
HETATM   20  C   UNL     1      -5.606  -4.844 -34.694  1.00  0.00     0.007 A 
HETATM   21  C   UNL     1      -6.789  -4.166 -34.978  1.00  0.00     0.001 A 
HETATM   22  C   UNL     1      -6.866  -2.787 -34.793  1.00  0.00     0.009 A 
ENDBRANCH  15  16
ENDBRANCH  11  15
ENDBRANCH   7   8
ENDBRANCH   4   7
ENDBRANCH   2   3
ENDBRANCH   1   2
BRANCH   1  23
HETATM   23  C   UNL     1      -2.587   7.546 -31.046  1.00  0.00     0.222 C 
HETATM   24  N   UNL     1      -2.074   6.963 -29.898  1.00  0.00    -0.327 N 
HETATM   25  H   UNL     1      -2.452   6.059 -29.638  1.00  0.00     0.169 HD
HETATM   26  O   UNL     1      -2.343   8.682 -31.438  1.00  0.00    -0.273 OA
BRANCH  24  27
HETATM   27  C   UNL     1      -1.156   7.546 -28.994  1.00  0.00     0.035 A 
HETATM   28  C   UNL     1      -1.529   8.176 -27.800  1.00  0.00     0.043 A 
HETATM   29  C   UNL     1      -0.577   8.724 -26.906  1.00  0.00    -0.001 A 
HETATM   30  C   UNL     1       0.786   8.619 -27.252  1.00  0.00     0.044 A 
HETATM   31  C   UNL     1      -0.906   9.361 -25.686  1.00  0.00    -0.046 A 
HETATM   32  N   UNL     1       1.715   9.101 -26.414  1.00  0.00    -0.346 N 
HETATM   33  C   UNL     1       1.167   8.010 -28.455  1.00  0.00     0.033 A 
HETATM   34  H   UNL     1       2.700   8.975 -26.619  1.00  0.00     0.167 HD
HETATM   35  C   UNL     1       1.457   9.707 -25.249  1.00  0.00     0.083 A 
HETATM   36  C   UNL     1       0.124   9.844 -24.866  1.00  0.00     0.050 A 
HETATM   37  C   UNL     1       0.201   7.487 -29.322  1.00  0.00     0.032 A 
HETATM   38  C   UNL     1      -2.335   9.521 -25.230  1.00  0.00     0.049 C 
BRANCH  35  39
HETATM   39  N   UNL     1       2.565  10.085 -24.509  1.00  0.00    -0.269 NA
HETATM   40  C   UNL     1       3.592   9.046 -24.273  1.00  0.00     0.097 C 
HETATM   41  C   UNL     1       4.876   9.701 -23.765  1.00  0.00     0.015 C 
HETATM   42  C   UNL     1       4.615  10.537 -22.516  1.00  0.00     0.002 C 
HETATM   43  C   UNL     1       3.489  11.538 -22.758  1.00  0.00     0.015 C 
HETATM   44  C   UNL     1       2.231  10.844 -23.285  1.00  0.00     0.097 C 
ENDBRANCH  35  39
ENDBRANCH  24  27
ENDBRANCH   1  23
TORSDOF 9
ENDMDL
MODEL 6
REMARK VINA RESULT:      -9.9      1.485      2.400
REMARK  9 active torsions:
REMARK  status: ('A' for Active; 'I' for Inactive)
REMARK    1  A    between atoms: C_4  and  C_5 
REMARK    2  A    between atoms: C_5  and  N_6 
REMARK    3  A    between atoms: C_10  and  C_11 
REMARK    4  A    between atoms: C_11  and  N_12 
REMARK       I    between atoms: N_12  and  C_13 
REMARK    5  A    between atoms: C_13  and  C_14 
REMARK    6  A    between atoms: C_14  and  C_15 
REMARK    7  A    between atoms: C_15  and  C_16 
REMARK       I    between atoms: C_16  and  N_17 
REMARK    8  A    between atoms: N_17  and  C_18 
REMARK    9  A    between atoms: C_24  and  N_25 
ROOT
HETATM    1  C   UNL     1      -1.546   6.062 -34.503  1.00  0.00     0.112 C 
ENDROOT
BRANCH   1   2
HETATM    2  C   UNL     1      -2.232   4.769 -34.077  1.00  0.00     0.112 C 
BRANCH   2   3
HETATM    3  C   UNL     1      -3.738   4.823 -34.189  1.00  0.00     0.218 C 
HETATM    4  N   UNL     1      -4.425   4.136 -33.210  1.00  0.00    -0.361 N 
HETATM    5  H   UNL     1      -3.891   3.782 -32.423  1.00  0.00     0.162 HD
HETATM    6  O   UNL     1      -4.307   5.456 -35.075  1.00  0.00    -0.274 OA
BRANCH   4   7
HETATM    7  C   UNL     1      -5.848   4.335 -33.006  1.00  0.00     0.127 C 
BRANCH   7   8
HETATM    8  C   UNL     1      -6.268   4.460 -31.526  1.00  0.00     0.006 C 
HETATM    9  C   UNL     1      -5.243   3.915 -30.522  1.00  0.00     0.034 C 
HETATM   10  C   UNL     1      -5.094   2.400 -30.590  1.00  0.00     0.235 C 
HETATM   11  N   UNL     1      -6.445   1.760 -30.336  1.00  0.00    -0.067 N 
HETATM   12  H   UNL     1      -6.731   2.037 -29.389  1.00  0.00     0.280 HD
HETATM   13  C   UNL     1      -7.499   2.225 -31.306  1.00  0.00     0.235 C 
HETATM   14  C   UNL     1      -7.610   3.748 -31.277  1.00  0.00     0.034 C 
BRANCH  11  15
HETATM   15  C   UNL     1      -6.365   0.242 -30.313  1.00  0.00     0.273 C 
BRANCH  15  16
HETATM   16  C   UNL     1      -5.653  -0.343 -31.501  1.00  0.00    -0.032 A 
HETATM   17  C   UNL     1      -6.370  -0.740 -32.643  1.00  0.00     0.015 A 
HETATM   18  C   UNL     1      -5.714  -1.331 -33.731  1.00  0.00    -0.061 A 
HETATM   19  C   UNL     1      -6.471  -1.731 -34.964  1.00  0.00     0.048 C 
HETATM   20  C   UNL     1      -4.326  -1.495 -33.683  1.00  0.00     0.007 A 
HETATM   21  C   UNL     1      -3.604  -1.095 -32.561  1.00  0.00     0.001 A 
HETATM   22  C   UNL     1      -4.263  -0.524 -31.473  1.00  0.00     0.009 A 
ENDBRANCH  15  16
ENDBRANCH  11  15
ENDBRANCH   7   8
ENDBRANCH   4   7
ENDBRANCH   2   3
ENDBRANCH   1   2
BRANCH   1  23
HETATM   23  C   UNL     1      -1.361   6.988 -33.310  1.00  0.00     0.222 C 
HETATM   24  N   UNL     1      -1.064   6.307 -32.140  1.00  0.00    -0.327 N 
HETATM   25  H   UNL     1      -1.098   5.295 -32.181  1.00  0.00     0.169 HD
HETATM   26  O   UNL     1      -1.492   8.203 -33.414  1.00  0.00    -0.273 OA
BRANCH  24  27
HETATM   27  C   UNL     1      -0.824   6.880 -30.869  1.00  0.00     0.035 A 
HETATM   28  C   UNL     1      -1.797   7.560 -30.124  1.00  0.00     0.043 A 
HETATM   29  C   UNL     1      -1.525   8.096 -28.842  1.00  0.00    -0.001 A 
HETATM   30  C   UNL     1      -0.227   7.926 -28.318  1.00  0.00     0.044 A 
HETATM   31  C   UNL     1      -2.476   8.782 -28.048  1.00  0.00    -0.046 A 
HETATM   32  N   UNL     1       0.056   8.395 -27.094  1.00  0.00    -0.346 N 
HETATM   33  C   UNL     1       0.757   7.266 -29.066  1.00  0.00     0.033 A 
HETATM   34  H   UNL     1       0.965   8.223 -26.680  1.00  0.00     0.167 HD
HETATM   35  C   UNL     1      -0.807   9.045 -26.305  1.00  0.00     0.083 A 
HETATM   36  C   UNL     1      -2.102   9.248 -26.780  1.00  0.00     0.050 A 
HETATM   37  C   UNL     1       0.461   6.756 -30.336  1.00  0.00     0.032 A 
HETATM   38  C   UNL     1      -3.889   9.014 -28.521  1.00  0.00     0.049 C 
BRANCH  35  39
HETATM   39  N   UNL     1      -0.329   9.401 -25.055  1.00  0.00    -0.269 NA
HETATM   40  C   UNL     1      -1.279  10.084 -24.149  1.00  0.00     0.097 C 
HETATM   41  C   UNL     1      -0.721  10.085 -22.727  1.00  0.00     0.015 C 
HETATM   42  C   UNL     1       0.667  10.718 -22.677  1.00  0.00     0.002 C 
HETATM   43  C   UNL     1       1.601  10.055 -23.686  1.00  0.00     0.015 C 
HETATM   44  C   UNL     1       0.996  10.057 -25.090  1.00  0.00     0.097 C 
ENDBRANCH  35  39
ENDBRANCH  24  27
ENDBRANCH   1  23
TORSDOF 9
ENDMDL
MODEL 7
REMARK VINA RESULT:      -9.8      4.461      7.565
REMARK  9 active torsions:
REMARK  status: ('A' for Active; 'I' for Inactive)
REMARK    1  A    between atoms: C_4  and  C_5 
REMARK    2  A    between atoms: C_5  and  N_6 
REMARK    3  A    between atoms: C_10  and  C_11 
REMARK    4  A    between atoms: C_11  and  N_12 
REMARK       I    between atoms: N_12  and  C_13 
REMARK    5  A    between atoms: C_13  and  C_14 
REMARK    6  A    between atoms: C_14  and  C_15 
REMARK    7  A    between atoms: C_15  and  C_16 
REMARK       I    between atoms: C_16  and  N_17 
REMARK    8  A    between atoms: N_17  and  C_18 
REMARK    9  A    between atoms: C_24  and  N_25 
ROOT
HETATM    1  C   UNL     1     -11.957   3.677 -30.126  1.00  0.00     0.112 C 
ENDROOT
BRANCH   1   2
HETATM    2  C   UNL     1     -13.124   4.583 -30.504  1.00  0.00     0.112 C 
BRANCH   2   3
HETATM    3  C   UNL     1     -13.911   4.085 -31.693  1.00  0.00     0.218 C 
HETATM    4  N   UNL     1     -13.451   2.912 -32.254  1.00  0.00    -0.361 N 
HETATM    5  H   UNL     1     -12.732   2.403 -31.752  1.00  0.00     0.162 HD
HETATM    6  O   UNL     1     -14.906   4.672 -32.112  1.00  0.00    -0.274 OA
BRANCH   4   7
HETATM    7  C   UNL     1     -14.259   2.159 -33.196  1.00  0.00     0.127 C 
BRANCH   7   8
HETATM    8  C   UNL     1     -13.479   1.615 -34.411  1.00  0.00     0.006 C 
HETATM    9  C   UNL     1     -13.049   0.146 -34.289  1.00  0.00     0.034 C 
HETATM   10  C   UNL     1     -11.987  -0.075 -33.219  1.00  0.00     0.235 C 
HETATM   11  N   UNL     1     -10.779   0.783 -33.539  1.00  0.00    -0.067 N 
HETATM   12  H   UNL     1     -10.423   0.468 -34.449  1.00  0.00     0.280 HD
HETATM   13  C   UNL     1     -11.119   2.247 -33.643  1.00  0.00     0.235 C 
HETATM   14  C   UNL     1     -12.221   2.462 -34.677  1.00  0.00     0.034 C 
BRANCH  11  15
HETATM   15  C   UNL     1      -9.642   0.562 -32.554  1.00  0.00     0.273 C 
BRANCH  15  16
HETATM   16  C   UNL     1      -8.345   0.174 -33.208  1.00  0.00    -0.032 A 
HETATM   17  C   UNL     1      -7.202  -0.091 -32.435  1.00  0.00     0.015 A 
HETATM   18  C   UNL     1      -5.981  -0.405 -33.046  1.00  0.00    -0.061 A 
HETATM   19  C   UNL     1      -4.764  -0.716 -32.223  1.00  0.00     0.048 C 
HETATM   20  C   UNL     1      -5.915  -0.482 -34.440  1.00  0.00     0.007 A 
HETATM   21  C   UNL     1      -7.045  -0.232 -35.217  1.00  0.00     0.001 A 
HETATM   22  C   UNL     1      -8.254   0.097 -34.606  1.00  0.00     0.009 A 
ENDBRANCH  15  16
ENDBRANCH  11  15
ENDBRANCH   7   8
ENDBRANCH   4   7
ENDBRANCH   2   3
ENDBRANCH   1   2
BRANCH   1  23
HETATM   23  C   UNL     1     -10.631   4.348 -30.447  1.00  0.00     0.222 C 
HETATM   24  N   UNL     1      -9.539   3.532 -30.198  1.00  0.00    -0.327 N 
HETATM   25  H   UNL     1      -9.729   2.641 -29.752  1.00  0.00     0.169 HD
HETATM   26  O   UNL     1     -10.578   5.502 -30.861  1.00  0.00    -0.273 OA
BRANCH  24  27
HETATM   27  C   UNL     1      -8.178   3.857 -30.404  1.00  0.00     0.035 A 
HETATM   28  C   UNL     1      -7.500   3.645 -31.612  1.00  0.00     0.043 A 
HETATM   29  C   UNL     1      -6.143   4.009 -31.789  1.00  0.00    -0.001 A 
HETATM   30  C   UNL     1      -5.474   4.605 -30.700  1.00  0.00     0.044 A 
HETATM   31  C   UNL     1      -5.419   3.824 -32.991  1.00  0.00    -0.046 A 
HETATM   32  N   UNL     1      -4.198   4.990 -30.842  1.00  0.00    -0.346 N 
HETATM   33  C   UNL     1      -6.139   4.801 -29.481  1.00  0.00     0.033 A 
HETATM   34  H   UNL     1      -3.725   5.477 -30.089  1.00  0.00     0.167 HD
HETATM   35  C   UNL     1      -3.473   4.840 -31.957  1.00  0.00     0.083 A 
HETATM   36  C   UNL     1      -4.085   4.248 -33.060  1.00  0.00     0.050 A 
HETATM   37  C   UNL     1      -7.478   4.420 -29.334  1.00  0.00     0.032 A 
HETATM   38  C   UNL     1      -6.048   3.196 -34.210  1.00  0.00     0.049 C 
BRANCH  35  39
HETATM   39  N   UNL     1      -2.187   5.354 -31.911  1.00  0.00    -0.269 NA
HETATM   40  C   UNL     1      -1.304   4.840 -30.840  1.00  0.00     0.097 C 
HETATM   41  C   UNL     1       0.143   5.227 -31.140  1.00  0.00     0.015 C 
HETATM   42  C   UNL     1       0.288   6.735 -31.321  1.00  0.00     0.002 C 
HETATM   43  C   UNL     1      -0.698   7.253 -32.365  1.00  0.00     0.015 C 
HETATM   44  C   UNL     1      -2.130   6.826 -32.039  1.00  0.00     0.097 C 
ENDBRANCH  35  39
ENDBRANCH  24  27
ENDBRANCH   1  23
TORSDOF 9
ENDMDL
MODEL 8
REMARK VINA RESULT:      -9.8      3.910     10.135
REMARK  9 active torsions:
REMARK  status: ('A' for Active; 'I' for Inactive)
REMARK    1  A    between atoms: C_4  and  C_5 
REMARK    2  A    between atoms: C_5  and  N_6 
REMARK    3  A    between atoms: C_10  and  C_11 
REMARK    4  A    between atoms: C_11  and  N_12 
REMARK       I    between atoms: N_12  and  C_13 
REMARK    5  A    between atoms: C_13  and  C_14 
REMARK    6  A    between atoms: C_14  and  C_15 
REMARK    7  A    between atoms: C_15  and  C_16 
REMARK       I    between atoms: C_16  and  N_17 
REMARK    8  A    between atoms: N_17  and  C_18 
REMARK    9  A    between atoms: C_24  and  N_25 
ROOT
HETATM    1  C   UNL     1      -3.252   7.502 -26.198  1.00  0.00     0.112 C 
ENDROOT
BRANCH   1   2
HETATM    2  C   UNL     1      -2.290   6.338 -25.986  1.00  0.00     0.112 C 
BRANCH   2   3
HETATM    3  C   UNL     1      -0.924   6.571 -26.585  1.00  0.00     0.218 C 
HETATM    4  N   UNL     1      -0.708   5.970 -27.808  1.00  0.00    -0.361 N 
HETATM    5  H   UNL     1      -1.507   5.555 -28.273  1.00  0.00     0.162 HD
HETATM    6  O   UNL     1      -0.076   7.268 -26.033  1.00  0.00    -0.274 OA
BRANCH   4   7
HETATM    7  C   UNL     1       0.423   6.337 -28.639  1.00  0.00     0.127 C 
BRANCH   7   8
HETATM    8  C   UNL     1       0.069   7.254 -29.829  1.00  0.00     0.006 C 
HETATM    9  C   UNL     1      -1.430   7.541 -29.990  1.00  0.00     0.034 C 
HETATM   10  C   UNL     1      -2.229   6.310 -30.403  1.00  0.00     0.235 C 
HETATM   11  N   UNL     1      -1.671   5.776 -31.707  1.00  0.00    -0.067 N 
HETATM   12  H   UNL     1      -1.791   6.516 -32.408  1.00  0.00     0.280 HD
HETATM   13  C   UNL     1      -0.206   5.440 -31.617  1.00  0.00     0.235 C 
HETATM   14  C   UNL     1       0.588   6.658 -31.151  1.00  0.00     0.034 C 
BRANCH  11  15
HETATM   15  C   UNL     1      -2.465   4.587 -32.227  1.00  0.00     0.273 C 
BRANCH  15  16
HETATM   16  C   UNL     1      -3.853   4.943 -32.682  1.00  0.00    -0.032 A 
HETATM   17  C   UNL     1      -4.538   6.030 -32.115  1.00  0.00     0.015 A 
HETATM   18  C   UNL     1      -5.851   6.332 -32.503  1.00  0.00    -0.061 A 
HETATM   19  C   UNL     1      -6.576   7.510 -31.920  1.00  0.00     0.048 C 
HETATM   20  C   UNL     1      -6.466   5.554 -33.489  1.00  0.00     0.007 A 
HETATM   21  C   UNL     1      -5.793   4.480 -34.066  1.00  0.00     0.001 A 
HETATM   22  C   UNL     1      -4.494   4.173 -33.664  1.00  0.00     0.009 A 
ENDBRANCH  15  16
ENDBRANCH  11  15
ENDBRANCH   7   8
ENDBRANCH   4   7
ENDBRANCH   2   3
ENDBRANCH   1   2
BRANCH   1  23
HETATM   23  C   UNL     1      -4.195   7.215 -27.357  1.00  0.00     0.222 C 
HETATM   24  N   UNL     1      -4.736   5.939 -27.308  1.00  0.00    -0.327 N 
HETATM   25  H   UNL     1      -4.382   5.322 -26.585  1.00  0.00     0.169 HD
HETATM   26  O   UNL     1      -4.408   8.046 -28.233  1.00  0.00    -0.273 OA
BRANCH  24  27
HETATM   27  C   UNL     1      -5.650   5.376 -28.227  1.00  0.00     0.035 A 
HETATM   28  C   UNL     1      -5.359   4.274 -29.043  1.00  0.00     0.043 A 
HETATM   29  C   UNL     1      -6.312   3.721 -29.932  1.00  0.00    -0.001 A 
HETATM   30  C   UNL     1      -7.590   4.315 -29.979  1.00  0.00     0.044 A 
HETATM   31  C   UNL     1      -6.067   2.605 -30.767  1.00  0.00    -0.046 A 
HETATM   32  N   UNL     1      -8.526   3.798 -30.788  1.00  0.00    -0.346 N 
HETATM   33  C   UNL     1      -7.883   5.430 -29.183  1.00  0.00     0.033 A 
HETATM   34  H   UNL     1      -9.468   4.174 -30.784  1.00  0.00     0.167 HD
HETATM   35  C   UNL     1      -8.346   2.744 -31.593  1.00  0.00     0.083 A 
HETATM   36  C   UNL     1      -7.096   2.126 -31.590  1.00  0.00     0.050 A 
HETATM   37  C   UNL     1      -6.916   5.961 -28.322  1.00  0.00     0.032 A 
HETATM   38  C   UNL     1      -4.733   1.903 -30.787  1.00  0.00     0.049 C 
BRANCH  35  39
HETATM   39  N   UNL     1      -9.459   2.337 -32.310  1.00  0.00    -0.269 NA
HETATM   40  C   UNL     1      -9.470   0.934 -32.779  1.00  0.00     0.097 C 
HETATM   41  C   UNL     1     -10.881   0.554 -33.227  1.00  0.00     0.015 C 
HETATM   42  C   UNL     1     -11.400   1.515 -34.293  1.00  0.00     0.002 C 
HETATM   43  C   UNL     1     -11.292   2.961 -33.819  1.00  0.00     0.015 C 
HETATM   44  C   UNL     1      -9.871   3.292 -33.360  1.00  0.00     0.097 C 
ENDBRANCH  35  39
ENDBRANCH  24  27
ENDBRANCH   1  23
TORSDOF 9
ENDMDL
MODEL 9
REMARK VINA RESULT:      -9.8      2.246     11.219
REMARK  9 active torsions:
REMARK  status: ('A' for Active; 'I' for Inactive)
REMARK    1  A    between atoms: C_4  and  C_5 
REMARK    2  A    between atoms: C_5  and  N_6 
REMARK    3  A    between atoms: C_10  and  C_11 
REMARK    4  A    between atoms: C_11  and  N_12 
REMARK       I    between atoms: N_12  and  C_13 
REMARK    5  A    between atoms: C_13  and  C_14 
REMARK    6  A    between atoms: C_14  and  C_15 
REMARK    7  A    between atoms: C_15  and  C_16 
REMARK       I    between atoms: C_16  and  N_17 
REMARK    8  A    between atoms: N_17  and  C_18 
REMARK    9  A    between atoms: C_24  and  N_25 
ROOT
HETATM    1  C   UNL     1      -5.442   7.326 -32.152  1.00  0.00     0.112 C 
ENDROOT
BRANCH   1   2
HETATM    2  C   UNL     1      -4.163   7.803 -31.471  1.00  0.00     0.112 C 
BRANCH   2   3
HETATM    3  C   UNL     1      -3.863   7.079 -30.180  1.00  0.00     0.218 C 
HETATM    4  N   UNL     1      -4.261   7.734 -29.033  1.00  0.00    -0.361 N 
HETATM    5  H   UNL     1      -4.843   8.557 -29.141  1.00  0.00     0.162 HD
HETATM    6  O   UNL     1      -3.326   5.974 -30.158  1.00  0.00    -0.274 OA
BRANCH   4   7
HETATM    7  C   UNL     1      -4.315   7.050 -27.754  1.00  0.00     0.127 C 
BRANCH   7   8
HETATM    8  C   UNL     1      -3.671   7.827 -26.588  1.00  0.00     0.006 C 
HETATM    9  C   UNL     1      -3.040   9.169 -26.985  1.00  0.00     0.034 C 
HETATM   10  C   UNL     1      -1.804   9.007 -27.862  1.00  0.00     0.235 C 
HETATM   11  N   UNL     1      -0.783   8.164 -27.124  1.00  0.00    -0.067 N 
HETATM   12  H   UNL     1      -0.535   8.678 -26.270  1.00  0.00     0.280 HD
HETATM   13  C   UNL     1      -1.322   6.815 -26.728  1.00  0.00     0.235 C 
HETATM   14  C   UNL     1      -2.591   6.976 -25.894  1.00  0.00     0.034 C 
BRANCH  11  15
HETATM   15  C   UNL     1       0.513   8.018 -27.905  1.00  0.00     0.273 C 
BRANCH  15  16
HETATM   16  C   UNL     1       0.426   7.036 -29.041  1.00  0.00    -0.032 A 
HETATM   17  C   UNL     1      -0.044   7.439 -30.302  1.00  0.00     0.015 A 
HETATM   18  C   UNL     1      -0.173   6.513 -31.347  1.00  0.00    -0.061 A 
HETATM   19  C   UNL     1      -0.647   6.944 -32.705  1.00  0.00     0.048 C 
HETATM   20  C   UNL     1       0.200   5.183 -31.130  1.00  0.00     0.007 A 
HETATM   21  C   UNL     1       0.677   4.776 -29.886  1.00  0.00     0.001 A 
HETATM   22  C   UNL     1       0.787   5.695 -28.845  1.00  0.00     0.009 A 
ENDBRANCH  15  16
ENDBRANCH  11  15
ENDBRANCH   7   8
ENDBRANCH   4   7
ENDBRANCH   2   3
ENDBRANCH   1   2
BRANCH   1  23
HETATM   23  C   UNL     1      -5.212   5.996 -32.853  1.00  0.00     0.222 C 
HETATM   24  N   UNL     1      -5.775   4.925 -32.176  1.00  0.00    -0.327 N 
HETATM   25  H   UNL     1      -6.181   5.123 -31.268  1.00  0.00     0.169 HD
HETATM   26  O   UNL     1      -4.571   5.922 -33.896  1.00  0.00    -0.273 OA
BRANCH  24  27
HETATM   27  C   UNL     1      -5.748   3.569 -32.573  1.00  0.00     0.035 A 
HETATM   28  C   UNL     1      -4.873   2.616 -32.035  1.00  0.00     0.043 A 
HETATM   29  C   UNL     1      -4.895   1.259 -32.439  1.00  0.00    -0.001 A 
HETATM   30  C   UNL     1      -5.838   0.878 -33.416  1.00  0.00     0.044 A 
HETATM   31  C   UNL     1      -4.038   0.259 -31.918  1.00  0.00    -0.046 A 
HETATM   32  N   UNL     1      -5.906  -0.405 -33.800  1.00  0.00    -0.346 N 
HETATM   33  C   UNL     1      -6.702   1.829 -33.975  1.00  0.00     0.033 A 
HETATM   34  H   UNL     1      -6.622  -0.705 -34.452  1.00  0.00     0.167 HD
HETATM   35  C   UNL     1      -5.123  -1.386 -33.335  1.00  0.00     0.083 A 
HETATM   36  C   UNL     1      -4.168  -1.060 -32.374  1.00  0.00     0.050 A 
HETATM   37  C   UNL     1      -6.649   3.165 -33.562  1.00  0.00     0.032 A 
HETATM   38  C   UNL     1      -2.998   0.569 -30.871  1.00  0.00     0.049 C 
BRANCH  35  39
HETATM   39  N   UNL     1      -5.392  -2.653 -33.826  1.00  0.00    -0.269 NA
HETATM   40  C   UNL     1      -4.227  -3.467 -34.239  1.00  0.00     0.097 C 
HETATM   41  C   UNL     1      -4.655  -4.924 -34.412  1.00  0.00     0.015 C 
HETATM   42  C   UNL     1      -5.813  -5.047 -35.398  1.00  0.00     0.002 C 
HETATM   43  C   UNL     1      -6.965  -4.129 -34.999  1.00  0.00     0.015 C 
HETATM   44  C   UNL     1      -6.490  -2.687 -34.816  1.00  0.00     0.097 C 
ENDBRANCH  35  39
ENDBRANCH  24  27
ENDBRANCH   1  23
TORSDOF 9
ENDMDL
MODEL 10
REMARK VINA RESULT:      -9.8      1.682      2.489
REMARK  9 active torsions:
REMARK  status: ('A' for Active; 'I' for Inactive)
REMARK    1  A    between atoms: C_4  and  C_5 
REMARK    2  A    between atoms: C_5  and  N_6 
REMARK    3  A    between atoms: C_10  and  C_11 
REMARK    4  A    between atoms: C_11  and  N_12 
REMARK       I    between atoms: N_12  and  C_13 
REMARK    5  A    between atoms: C_13  and  C_14 
REMARK    6  A    between atoms: C_14  and  C_15 
REMARK    7  A    between atoms: C_15  and  C_16 
REMARK       I    between atoms: C_16  and  N_17 
REMARK    8  A    between atoms: N_17  and  C_18 
REMARK    9  A    between atoms: C_24  and  N_25 
ROOT
HETATM    1  C   UNL     1      -4.798   5.725 -33.524  1.00  0.00     0.112 C 
ENDROOT
BRANCH   1   2
HETATM    2  C   UNL     1      -5.282   4.282 -33.613  1.00  0.00     0.112 C 
BRANCH   2   3
HETATM    3  C   UNL     1      -6.787   4.154 -33.630  1.00  0.00     0.218 C 
HETATM    4  N   UNL     1      -7.303   3.172 -32.809  1.00  0.00    -0.361 N 
HETATM    5  H   UNL     1      -6.667   2.723 -32.160  1.00  0.00     0.162 HD
HETATM    6  O   UNL     1      -7.500   4.890 -34.307  1.00  0.00    -0.274 OA
BRANCH   4   7
HETATM    7  C   UNL     1      -8.718   3.122 -32.490  1.00  0.00     0.127 C 
BRANCH   7   8
HETATM    8  C   UNL     1      -9.365   1.734 -32.683  1.00  0.00     0.006 C 
HETATM    9  C   UNL     1      -8.755   0.619 -31.823  1.00  0.00     0.034 C 
HETATM   10  C   UNL     1      -7.331   0.265 -32.233  1.00  0.00     0.235 C 
HETATM   11  N   UNL     1      -7.327  -0.156 -33.689  1.00  0.00    -0.067 N 
HETATM   12  H   UNL     1      -7.924  -0.989 -33.759  1.00  0.00     0.280 HD
HETATM   13  C   UNL     1      -7.885   0.904 -34.601  1.00  0.00     0.235 C 
HETATM   14  C   UNL     1      -9.292   1.298 -34.158  1.00  0.00     0.034 C 
BRANCH  11  15
HETATM   15  C   UNL     1      -5.949  -0.598 -34.155  1.00  0.00     0.273 C 
BRANCH  15  16
HETATM   16  C   UNL     1      -5.818  -2.087 -34.324  1.00  0.00    -0.032 A 
HETATM   17  C   UNL     1      -4.627  -2.746 -33.977  1.00  0.00     0.015 A 
HETATM   18  C   UNL     1      -4.487  -4.125 -34.180  1.00  0.00    -0.061 A 
HETATM   19  C   UNL     1      -3.226  -4.839 -33.785  1.00  0.00     0.048 C 
HETATM   20  C   UNL     1      -5.560  -4.850 -34.708  1.00  0.00     0.007 A 
HETATM   21  C   UNL     1      -6.749  -4.208 -35.046  1.00  0.00     0.001 A 
HETATM   22  C   UNL     1      -6.879  -2.833 -34.858  1.00  0.00     0.009 A 
ENDBRANCH  15  16
ENDBRANCH  11  15
ENDBRANCH   7   8
ENDBRANCH   4   7
ENDBRANCH   2   3
ENDBRANCH   1   2
BRANCH   1  23
HETATM   23  C   UNL     1      -4.316   6.044 -32.116  1.00  0.00     0.222 C 
HETATM   24  N   UNL     1      -3.160   6.808 -32.102  1.00  0.00    -0.327 N 
HETATM   25  H   UNL     1      -2.720   6.985 -32.998  1.00  0.00     0.169 HD
HETATM   26  O   UNL     1      -4.908   5.628 -31.125  1.00  0.00    -0.273 OA
BRANCH  24  27
HETATM   27  C   UNL     1      -2.474   7.278 -30.958  1.00  0.00     0.035 A 
HETATM   28  C   UNL     1      -1.406   6.599 -30.356  1.00  0.00     0.043 A 
HETATM   29  C   UNL     1      -0.725   7.115 -29.227  1.00  0.00    -0.001 A 
HETATM   30  C   UNL     1      -1.153   8.355 -28.711  1.00  0.00     0.044 A 
HETATM   31  C   UNL     1       0.363   6.472 -28.590  1.00  0.00    -0.046 A 
HETATM   32  N   UNL     1      -0.512   8.888 -27.660  1.00  0.00    -0.346 N 
HETATM   33  C   UNL     1      -2.234   9.031 -29.293  1.00  0.00     0.033 A 
HETATM   34  H   UNL     1      -0.767   9.808 -27.320  1.00  0.00     0.167 HD
HETATM   35  C   UNL     1       0.523   8.322 -27.027  1.00  0.00     0.083 A 
HETATM   36  C   UNL     1       0.979   7.090 -27.494  1.00  0.00     0.050 A 
HETATM   37  C   UNL     1      -2.894   8.489 -30.403  1.00  0.00     0.032 A 
HETATM   38  C   UNL     1       0.893   5.143 -29.069  1.00  0.00     0.049 C 
BRANCH  35  39
HETATM   39  N   UNL     1       1.076   9.064 -25.996  1.00  0.00    -0.269 NA
HETATM   40  C   UNL     1       1.061  10.535 -26.155  1.00  0.00     0.097 C 
HETATM   41  C   UNL     1       1.371  11.198 -24.813  1.00  0.00     0.015 C 
HETATM   42  C   UNL     1       2.697  10.700 -24.243  1.00  0.00     0.002 C 
HETATM   43  C   UNL     1       2.721   9.176 -24.177  1.00  0.00     0.015 C 
HETATM   44  C   UNL     1       2.384   8.554 -25.533  1.00  0.00     0.097 C 
ENDBRANCH  35  39
ENDBRANCH  24  27
ENDBRANCH   1  23
TORSDOF 9
ENDMDL
