MODEL 1
REMARK VINA RESULT:      -8.7      0.000      0.000
REMARK  6 active torsions:
REMARK  status: ('A' for Active; 'I' for Inactive)
REMARK    1  A    between atoms: C_2  and  N_3 
REMARK    2  A    between atoms: C_2  and  C_15 
REMARK    3  A    between atoms: C_5  and  C_6 
REMARK       I    between atoms: C_15  and  N_16 
REMARK    4  A    between atoms: N_16  and  C_17 
REMARK    5  A    between atoms: C_20  and  O_21 
REMARK    6  A    between atoms: O_21  and  C_22 
ROOT
HETATM    1  C   UNL     1      -5.802   1.488 -31.361  1.00  0.00     0.253 C 
HETATM    2  N   UNL     1      -5.691   2.719 -31.975  1.00  0.00    -0.325 N 
HETATM    3  O   UNL     1      -4.931   0.916 -30.707  1.00  0.00    -0.271 OA
HETATM    4  H   UNL     1      -6.496   3.103 -32.456  1.00  0.00     0.169 HD
ENDROOT
BRANCH   1   5
HETATM    5  C   UNL     1      -7.193   0.811 -31.463  1.00  0.00     0.276 C 
HETATM    6  C   UNL     1      -8.347   1.801 -31.557  1.00  0.00     0.050 C 
BRANCH   5   7
HETATM    7  N   UNL     1      -7.215  -0.195 -32.632  1.00  0.00    -0.049 N 
HETATM    8  H   UNL     1      -7.057  -1.106 -32.168  1.00  0.00     0.281 HD
HETATM    9  C   UNL     1      -6.087  -0.121 -33.643  1.00  0.00     0.238 C 
HETATM   10  C   UNL     1      -6.716   0.640 -34.810  1.00  0.00     0.041 C 
HETATM   11  C   UNL     1      -8.210   0.350 -34.759  1.00  0.00     0.030 C 
HETATM   12  C   UNL     1      -8.500  -0.264 -33.401  1.00  0.00     0.237 C 
BRANCH   9  13
HETATM   13  C   UNL     1      -5.627  -1.501 -34.026  1.00  0.00     0.042 A 
HETATM   14  N   UNL     1      -4.504  -2.126 -33.506  1.00  0.00    -0.363 N 
HETATM   15  C   UNL     1      -3.545  -1.626 -32.542  1.00  0.00     0.155 C 
HETATM   16  C   UNL     1      -4.384  -3.383 -34.050  1.00  0.00     0.090 A 
HETATM   17  C   UNL     1      -5.405  -3.573 -34.944  1.00  0.00     0.019 A 
HETATM   18  C   UNL     1      -6.184  -2.398 -34.934  1.00  0.00     0.028 A 
ENDBRANCH   9  13
ENDBRANCH   5   7
ENDBRANCH   1   5
BRANCH   2  19
HETATM   19  C   UNL     1      -4.556   3.566 -31.987  1.00  0.00     0.035 A 
HETATM   20  C   UNL     1      -3.399   3.318 -32.728  1.00  0.00     0.032 A 
HETATM   21  C   UNL     1      -2.313   4.197 -32.658  1.00  0.00     0.039 A 
HETATM   22  C   UNL     1      -2.372   5.339 -31.859  1.00  0.00     0.076 A 
HETATM   23  C   UNL     1      -3.520   5.591 -31.110  1.00  0.00     0.039 A 
HETATM   24  C   UNL     1      -4.608   4.712 -31.181  1.00  0.00     0.032 A 
BRANCH  22  25
HETATM   25  O   UNL     1      -1.227   6.101 -31.818  1.00  0.00    -0.311 OA
BRANCH  25  26
HETATM   26  C   UNL     1      -0.633   6.316 -30.599  1.00  0.00     0.076 A 
HETATM   27  C   UNL     1       0.056   5.251 -30.018  1.00  0.00     0.037 A 
HETATM   28  C   UNL     1       0.721   5.435 -28.806  1.00  0.00     0.003 A 
HETATM   29  C   UNL     1       0.708   6.687 -28.188  1.00  0.00     0.000 A 
HETATM   30  C   UNL     1       0.038   7.757 -28.784  1.00  0.00     0.003 A 
HETATM   31  C   UNL     1      -0.628   7.576 -29.997  1.00  0.00     0.037 A 
ENDBRANCH  25  26
ENDBRANCH  22  25
ENDBRANCH   2  19
TORSDOF 6
ENDMDL
MODEL 2
REMARK VINA RESULT:      -8.5      2.252      9.196
REMARK  6 active torsions:
REMARK  status: ('A' for Active; 'I' for Inactive)
REMARK    1  A    between atoms: C_2  and  N_3 
REMARK    2  A    between atoms: C_2  and  C_15 
REMARK    3  A    between atoms: C_5  and  C_6 
REMARK       I    between atoms: C_15  and  N_16 
REMARK    4  A    between atoms: N_16  and  C_17 
REMARK    5  A    between atoms: C_20  and  O_21 
REMARK    6  A    between atoms: O_21  and  C_22 
ROOT
HETATM    1  C   UNL     1      -4.234   3.796 -32.680  1.00  0.00     0.253 C 
HETATM    2  N   UNL     1      -5.548   3.461 -32.935  1.00  0.00    -0.325 N 
HETATM    3  O   UNL     1      -3.281   3.019 -32.618  1.00  0.00    -0.271 OA
HETATM    4  H   UNL     1      -6.240   4.199 -32.998  1.00  0.00     0.169 HD
ENDROOT
BRANCH   1   5
HETATM    5  C   UNL     1      -3.945   5.311 -32.527  1.00  0.00     0.276 C 
HETATM    6  C   UNL     1      -4.830   5.998 -31.494  1.00  0.00     0.050 C 
BRANCH   5   7
HETATM    7  N   UNL     1      -2.449   5.544 -32.233  1.00  0.00    -0.049 N 
HETATM    8  H   UNL     1      -2.146   4.650 -31.808  1.00  0.00     0.281 HD
HETATM    9  C   UNL     1      -2.093   6.569 -31.175  1.00  0.00     0.238 C 
HETATM   10  C   UNL     1      -1.713   7.801 -31.997  1.00  0.00     0.041 C 
HETATM   11  C   UNL     1      -1.194   7.284 -33.333  1.00  0.00     0.030 C 
HETATM   12  C   UNL     1      -1.591   5.821 -33.431  1.00  0.00     0.237 C 
BRANCH   9  13
HETATM   13  C   UNL     1      -0.964   6.072 -30.313  1.00  0.00     0.042 A 
HETATM   14  N   UNL     1      -0.710   6.511 -29.023  1.00  0.00    -0.363 N 
HETATM   15  C   UNL     1      -1.413   7.510 -28.244  1.00  0.00     0.155 C 
HETATM   16  C   UNL     1       0.376   5.839 -28.514  1.00  0.00     0.090 A 
HETATM   17  C   UNL     1       0.852   4.984 -29.474  1.00  0.00     0.019 A 
HETATM   18  C   UNL     1       0.018   5.128 -30.601  1.00  0.00     0.028 A 
ENDBRANCH   9  13
ENDBRANCH   5   7
ENDBRANCH   1   5
BRANCH   2  19
HETATM   19  C   UNL     1      -6.068   2.165 -33.166  1.00  0.00     0.035 A 
HETATM   20  C   UNL     1      -6.246   1.201 -32.173  1.00  0.00     0.032 A 
HETATM   21  C   UNL     1      -6.741  -0.067 -32.497  1.00  0.00     0.039 A 
HETATM   22  C   UNL     1      -7.078  -0.384 -33.813  1.00  0.00     0.076 A 
HETATM   23  C   UNL     1      -6.898   0.570 -34.813  1.00  0.00     0.039 A 
HETATM   24  C   UNL     1      -6.403   1.839 -34.489  1.00  0.00     0.032 A 
BRANCH  22  25
HETATM   25  O   UNL     1      -7.499  -1.676 -34.028  1.00  0.00    -0.311 OA
BRANCH  25  26
HETATM   26  C   UNL     1      -6.545  -2.646 -34.220  1.00  0.00     0.076 A 
HETATM   27  C   UNL     1      -6.960  -3.866 -34.754  1.00  0.00     0.037 A 
HETATM   28  C   UNL     1      -6.021  -4.862 -35.018  1.00  0.00     0.003 A 
HETATM   29  C   UNL     1      -4.668  -4.629 -34.763  1.00  0.00     0.000 A 
HETATM   30  C   UNL     1      -4.253  -3.397 -34.253  1.00  0.00     0.003 A 
HETATM   31  C   UNL     1      -5.191  -2.399 -33.988  1.00  0.00     0.037 A 
ENDBRANCH  25  26
ENDBRANCH  22  25
ENDBRANCH   2  19
TORSDOF 6
ENDMDL
MODEL 3
REMARK VINA RESULT:      -8.4      2.415      9.600
REMARK  6 active torsions:
REMARK  status: ('A' for Active; 'I' for Inactive)
REMARK    1  A    between atoms: C_2  and  N_3 
REMARK    2  A    between atoms: C_2  and  C_15 
REMARK    3  A    between atoms: C_5  and  C_6 
REMARK       I    between atoms: C_15  and  N_16 
REMARK    4  A    between atoms: N_16  and  C_17 
REMARK    5  A    between atoms: C_20  and  O_21 
REMARK    6  A    between atoms: O_21  and  C_22 
ROOT
HETATM    1  C   UNL     1      -3.748   5.090 -31.330  1.00  0.00     0.253 C 
HETATM    2  N   UNL     1      -3.603   4.122 -32.304  1.00  0.00    -0.325 N 
HETATM    3  O   UNL     1      -4.564   5.083 -30.409  1.00  0.00    -0.271 OA
HETATM    4  H   UNL     1      -2.866   4.223 -32.992  1.00  0.00     0.169 HD
ENDROOT
BRANCH   1   5
HETATM    5  C   UNL     1      -2.729   6.256 -31.387  1.00  0.00     0.276 C 
HETATM    6  C   UNL     1      -3.363   7.629 -31.203  1.00  0.00     0.050 C 
BRANCH   5   7
HETATM    7  N   UNL     1      -1.588   6.021 -30.376  1.00  0.00    -0.049 N 
HETATM    8  H   UNL     1      -2.089   5.773 -29.505  1.00  0.00     0.281 HD
HETATM    9  C   UNL     1      -0.754   7.219 -29.968  1.00  0.00     0.238 C 
HETATM   10  C   UNL     1       0.508   7.070 -30.818  1.00  0.00     0.041 C 
HETATM   11  C   UNL     1       0.672   5.580 -31.089  1.00  0.00     0.030 C 
HETATM   12  C   UNL     1      -0.641   4.911 -30.718  1.00  0.00     0.237 C 
BRANCH   9  13
HETATM   13  C   UNL     1      -0.469   7.188 -28.490  1.00  0.00     0.042 A 
HETATM   14  N   UNL     1      -1.428   7.348 -27.503  1.00  0.00    -0.363 N 
HETATM   15  C   UNL     1      -2.850   7.592 -27.643  1.00  0.00     0.155 C 
HETATM   16  C   UNL     1      -0.838   7.243 -26.267  1.00  0.00     0.090 A 
HETATM   17  C   UNL     1       0.507   7.044 -26.438  1.00  0.00     0.019 A 
HETATM   18  C   UNL     1       0.743   7.010 -27.828  1.00  0.00     0.028 A 
ENDBRANCH   9  13
ENDBRANCH   5   7
ENDBRANCH   1   5
BRANCH   2  19
HETATM   19  C   UNL     1      -4.363   2.936 -32.446  1.00  0.00     0.035 A 
HETATM   20  C   UNL     1      -5.482   2.815 -33.271  1.00  0.00     0.032 A 
HETATM   21  C   UNL     1      -6.191   1.609 -33.329  1.00  0.00     0.039 A 
HETATM   22  C   UNL     1      -5.785   0.508 -32.576  1.00  0.00     0.076 A 
HETATM   23  C   UNL     1      -4.673   0.622 -31.743  1.00  0.00     0.039 A 
HETATM   24  C   UNL     1      -3.963   1.828 -31.685  1.00  0.00     0.032 A 
BRANCH  22  25
HETATM   25  O   UNL     1      -6.588  -0.605 -32.663  1.00  0.00    -0.311 OA
BRANCH  25  26
HETATM   26  C   UNL     1      -6.221  -1.604 -33.531  1.00  0.00     0.076 A 
HETATM   27  C   UNL     1      -4.858  -1.836 -33.712  1.00  0.00     0.037 A 
HETATM   28  C   UNL     1      -4.436  -2.874 -34.542  1.00  0.00     0.003 A 
HETATM   29  C   UNL     1      -5.378  -3.687 -35.174  1.00  0.00     0.000 A 
HETATM   30  C   UNL     1      -6.743  -3.468 -34.971  1.00  0.00     0.003 A 
HETATM   31  C   UNL     1      -7.167  -2.431 -34.141  1.00  0.00     0.037 A 
ENDBRANCH  25  26
ENDBRANCH  22  25
ENDBRANCH   2  19
TORSDOF 6
ENDMDL
MODEL 4
REMARK VINA RESULT:      -8.2      2.695      9.620
REMARK  6 active torsions:
REMARK  status: ('A' for Active; 'I' for Inactive)
REMARK    1  A    between atoms: C_2  and  N_3 
REMARK    2  A    between atoms: C_2  and  C_15 
REMARK    3  A    between atoms: C_5  and  C_6 
REMARK       I    between atoms: C_15  and  N_16 
REMARK    4  A    between atoms: N_16  and  C_17 
REMARK    5  A    between atoms: C_20  and  O_21 
REMARK    6  A    between atoms: O_21  and  C_22 
ROOT
HETATM    1  C   UNL     1      -2.311   4.967 -31.220  1.00  0.00     0.253 C 
HETATM    2  N   UNL     1      -3.670   4.887 -30.993  1.00  0.00    -0.325 N 
HETATM    3  O   UNL     1      -1.594   4.080 -31.682  1.00  0.00    -0.271 OA
HETATM    4  H   UNL     1      -4.159   5.702 -30.641  1.00  0.00     0.169 HD
ENDROOT
BRANCH   1   5
HETATM    5  C   UNL     1      -1.661   6.341 -30.918  1.00  0.00     0.276 C 
HETATM    6  C   UNL     1      -2.455   7.523 -31.458  1.00  0.00     0.050 C 
BRANCH   5   7
HETATM    7  N   UNL     1      -1.391   6.485 -29.406  1.00  0.00    -0.049 N 
HETATM    8  H   UNL     1      -2.148   5.927 -28.974  1.00  0.00     0.281 HD
HETATM    9  C   UNL     1      -1.575   7.857 -28.788  1.00  0.00     0.238 C 
HETATM   10  C   UNL     1      -0.145   8.387 -28.687  1.00  0.00     0.041 C 
HETATM   11  C   UNL     1       0.759   7.168 -28.557  1.00  0.00     0.030 C 
HETATM   12  C   UNL     1      -0.073   5.954 -28.931  1.00  0.00     0.237 C 
BRANCH   9  13
HETATM   13  C   UNL     1      -2.253   7.749 -27.449  1.00  0.00     0.042 A 
HETATM   14  N   UNL     1      -3.609   7.523 -27.272  1.00  0.00    -0.363 N 
HETATM   15  C   UNL     1      -4.647   7.367 -28.273  1.00  0.00     0.155 C 
HETATM   16  C   UNL     1      -3.894   7.457 -25.930  1.00  0.00     0.090 A 
HETATM   17  C   UNL     1      -2.737   7.667 -25.225  1.00  0.00     0.019 A 
HETATM   18  C   UNL     1      -1.709   7.852 -26.172  1.00  0.00     0.028 A 
ENDBRANCH   9  13
ENDBRANCH   5   7
ENDBRANCH   1   5
BRANCH   2  19
HETATM   19  C   UNL     1      -4.511   3.773 -31.235  1.00  0.00     0.035 A 
HETATM   20  C   UNL     1      -5.021   2.943 -30.235  1.00  0.00     0.032 A 
HETATM   21  C   UNL     1      -5.823   1.845 -30.568  1.00  0.00     0.039 A 
HETATM   22  C   UNL     1      -6.136   1.571 -31.899  1.00  0.00     0.076 A 
HETATM   23  C   UNL     1      -5.625   2.390 -32.905  1.00  0.00     0.039 A 
HETATM   24  C   UNL     1      -4.823   3.489 -32.572  1.00  0.00     0.032 A 
BRANCH  22  25
HETATM   25  O   UNL     1      -6.881   0.435 -32.116  1.00  0.00    -0.311 OA
BRANCH  25  26
HETATM   26  C   UNL     1      -6.330  -0.567 -32.877  1.00  0.00     0.076 A 
HETATM   27  C   UNL     1      -7.078  -1.053 -33.949  1.00  0.00     0.037 A 
HETATM   28  C   UNL     1      -6.539  -2.032 -34.783  1.00  0.00     0.003 A 
HETATM   29  C   UNL     1      -5.248  -2.510 -34.552  1.00  0.00     0.000 A 
HETATM   30  C   UNL     1      -4.492  -2.003 -33.493  1.00  0.00     0.003 A 
HETATM   31  C   UNL     1      -5.029  -1.023 -32.658  1.00  0.00     0.037 A 
ENDBRANCH  25  26
ENDBRANCH  22  25
ENDBRANCH   2  19
TORSDOF 6
ENDMDL
MODEL 5
REMARK VINA RESULT:      -8.2      5.400      8.313
REMARK  6 active torsions:
REMARK  status: ('A' for Active; 'I' for Inactive)
REMARK    1  A    between atoms: C_2  and  N_3 
REMARK    2  A    between atoms: C_2  and  C_15 
REMARK    3  A    between atoms: C_5  and  C_6 
REMARK       I    between atoms: C_15  and  N_16 
REMARK    4  A    between atoms: N_16  and  C_17 
REMARK    5  A    between atoms: C_20  and  O_21 
REMARK    6  A    between atoms: O_21  and  C_22 
ROOT
HETATM    1  C   UNL     1      -9.112   3.177 -31.522  1.00  0.00     0.253 C 
HETATM    2  N   UNL     1      -8.526   1.986 -31.145  1.00  0.00    -0.325 N 
HETATM    3  O   UNL     1      -8.872   3.818 -32.544  1.00  0.00    -0.271 OA
HETATM    4  H   UNL     1      -8.837   1.533 -30.292  1.00  0.00     0.169 HD
ENDROOT
BRANCH   1   5
HETATM    5  C   UNL     1     -10.226   3.704 -30.582  1.00  0.00     0.276 C 
HETATM    6  C   UNL     1     -10.076   5.178 -30.225  1.00  0.00     0.050 C 
BRANCH   5   7
HETATM    7  N   UNL     1     -11.617   3.406 -31.179  1.00  0.00    -0.049 N 
HETATM    8  H   UNL     1     -11.763   2.406 -30.958  1.00  0.00     0.281 HD
HETATM    9  C   UNL     1     -11.757   3.453 -32.687  1.00  0.00     0.238 C 
HETATM   10  C   UNL     1     -12.386   4.824 -32.936  1.00  0.00     0.041 C 
HETATM   11  C   UNL     1     -13.186   5.165 -31.685  1.00  0.00     0.030 C 
HETATM   12  C   UNL     1     -12.751   4.196 -30.599  1.00  0.00     0.237 C 
BRANCH   9  13
HETATM   13  C   UNL     1     -12.618   2.319 -33.175  1.00  0.00     0.042 A 
HETATM   14  N   UNL     1     -12.147   1.053 -33.486  1.00  0.00    -0.363 N 
HETATM   15  C   UNL     1     -10.789   0.549 -33.442  1.00  0.00     0.155 C 
HETATM   16  C   UNL     1     -13.195   0.255 -33.876  1.00  0.00     0.090 A 
HETATM   17  C   UNL     1     -14.346   0.998 -33.850  1.00  0.00     0.019 A 
HETATM   18  C   UNL     1     -13.990   2.290 -33.414  1.00  0.00     0.028 A 
ENDBRANCH   9  13
ENDBRANCH   5   7
ENDBRANCH   1   5
BRANCH   2  19
HETATM   19  C   UNL     1      -7.529   1.267 -31.847  1.00  0.00     0.035 A 
HETATM   20  C   UNL     1      -7.118   1.561 -33.148  1.00  0.00     0.032 A 
HETATM   21  C   UNL     1      -6.143   0.778 -33.776  1.00  0.00     0.039 A 
HETATM   22  C   UNL     1      -5.557  -0.298 -33.109  1.00  0.00     0.076 A 
HETATM   23  C   UNL     1      -5.966  -0.604 -31.812  1.00  0.00     0.039 A 
HETATM   24  C   UNL     1      -6.941   0.180 -31.183  1.00  0.00     0.032 A 
BRANCH  22  25
HETATM   25  O   UNL     1      -4.654  -1.035 -33.841  1.00  0.00    -0.311 OA
BRANCH  25  26
HETATM   26  C   UNL     1      -4.937  -2.358 -34.078  1.00  0.00     0.076 A 
HETATM   27  C   UNL     1      -6.124  -2.657 -34.746  1.00  0.00     0.037 A 
HETATM   28  C   UNL     1      -6.429  -3.981 -35.058  1.00  0.00     0.003 A 
HETATM   29  C   UNL     1      -5.539  -5.000 -34.715  1.00  0.00     0.000 A 
HETATM   30  C   UNL     1      -4.340  -4.695 -34.069  1.00  0.00     0.003 A 
HETATM   31  C   UNL     1      -4.032  -3.371 -33.756  1.00  0.00     0.037 A 
ENDBRANCH  25  26
ENDBRANCH  22  25
ENDBRANCH   2  19
TORSDOF 6
ENDMDL
MODEL 6
REMARK VINA RESULT:      -8.0      2.627      8.550
REMARK  6 active torsions:
REMARK  status: ('A' for Active; 'I' for Inactive)
REMARK    1  A    between atoms: C_2  and  N_3 
REMARK    2  A    between atoms: C_2  and  C_15 
REMARK    3  A    between atoms: C_5  and  C_6 
REMARK       I    between atoms: C_15  and  N_16 
REMARK    4  A    between atoms: N_16  and  C_17 
REMARK    5  A    between atoms: C_20  and  O_21 
REMARK    6  A    between atoms: O_21  and  C_22 
ROOT
HETATM    1  C   UNL     1      -5.934   3.646 -30.967  1.00  0.00     0.253 C 
HETATM    2  N   UNL     1      -6.740   3.386 -32.057  1.00  0.00    -0.325 N 
HETATM    3  O   UNL     1      -5.137   2.867 -30.446  1.00  0.00    -0.271 OA
HETATM    4  H   UNL     1      -7.332   4.126 -32.418  1.00  0.00     0.169 HD
ENDROOT
BRANCH   1   5
HETATM    5  C   UNL     1      -6.010   5.089 -30.405  1.00  0.00     0.276 C 
HETATM    6  C   UNL     1      -5.665   5.184 -28.924  1.00  0.00     0.050 C 
BRANCH   5   7
HETATM    7  N   UNL     1      -5.138   6.040 -31.250  1.00  0.00    -0.049 N 
HETATM    8  H   UNL     1      -5.188   5.630 -32.199  1.00  0.00     0.281 HD
HETATM    9  C   UNL     1      -3.650   6.069 -30.963  1.00  0.00     0.238 C 
HETATM   10  C   UNL     1      -3.485   7.324 -30.107  1.00  0.00     0.041 C 
HETATM   11  C   UNL     1      -4.607   8.272 -30.510  1.00  0.00     0.030 C 
HETATM   12  C   UNL     1      -5.609   7.461 -31.314  1.00  0.00     0.237 C 
BRANCH   9  13
HETATM   13  C   UNL     1      -2.864   6.129 -32.245  1.00  0.00     0.042 A 
HETATM   14  N   UNL     1      -2.533   5.026 -33.015  1.00  0.00    -0.363 N 
HETATM   15  C   UNL     1      -2.825   3.626 -32.778  1.00  0.00     0.155 C 
HETATM   16  C   UNL     1      -1.835   5.432 -34.126  1.00  0.00     0.090 A 
HETATM   17  C   UNL     1      -1.682   6.794 -34.074  1.00  0.00     0.019 A 
HETATM   18  C   UNL     1      -2.322   7.233 -32.898  1.00  0.00     0.028 A 
ENDBRANCH   9  13
ENDBRANCH   5   7
ENDBRANCH   1   5
BRANCH   2  19
HETATM   19  C   UNL     1      -6.823   2.176 -32.787  1.00  0.00     0.035 A 
HETATM   20  C   UNL     1      -6.580   2.068 -34.157  1.00  0.00     0.032 A 
HETATM   21  C   UNL     1      -6.712   0.834 -34.804  1.00  0.00     0.039 A 
HETATM   22  C   UNL     1      -7.074  -0.308 -34.090  1.00  0.00     0.076 A 
HETATM   23  C   UNL     1      -7.325  -0.208 -32.723  1.00  0.00     0.039 A 
HETATM   24  C   UNL     1      -7.192   1.026 -32.075  1.00  0.00     0.032 A 
BRANCH  22  25
HETATM   25  O   UNL     1      -7.232  -1.454 -34.835  1.00  0.00    -0.311 OA
BRANCH  25  26
HETATM   26  C   UNL     1      -6.357  -2.491 -34.624  1.00  0.00     0.076 A 
HETATM   27  C   UNL     1      -6.789  -3.778 -34.944  1.00  0.00     0.037 A 
HETATM   28  C   UNL     1      -5.918  -4.857 -34.799  1.00  0.00     0.003 A 
HETATM   29  C   UNL     1      -4.614  -4.644 -34.350  1.00  0.00     0.000 A 
HETATM   30  C   UNL     1      -4.176  -3.351 -34.055  1.00  0.00     0.003 A 
HETATM   31  C   UNL     1      -5.045  -2.270 -34.200  1.00  0.00     0.037 A 
ENDBRANCH  25  26
ENDBRANCH  22  25
ENDBRANCH   2  19
TORSDOF 6
ENDMDL
MODEL 7
REMARK VINA RESULT:      -8.0      3.664      5.997
REMARK  6 active torsions:
REMARK  status: ('A' for Active; 'I' for Inactive)
REMARK    1  A    between atoms: C_2  and  N_3 
REMARK    2  A    between atoms: C_2  and  C_15 
REMARK    3  A    between atoms: C_5  and  C_6 
REMARK       I    between atoms: C_15  and  N_16 
REMARK    4  A    between atoms: N_16  and  C_17 
REMARK    5  A    between atoms: C_20  and  O_21 
REMARK    6  A    between atoms: O_21  and  C_22 
ROOT
HETATM    1  C   UNL     1      -8.380   1.978 -33.300  1.00  0.00     0.253 C 
HETATM    2  N   UNL     1      -7.497   1.624 -32.300  1.00  0.00    -0.325 N 
HETATM    3  O   UNL     1      -8.162   2.760 -34.224  1.00  0.00    -0.271 OA
HETATM    4  H   UNL     1      -7.783   0.937 -31.611  1.00  0.00     0.169 HD
ENDROOT
BRANCH   1   5
HETATM    5  C   UNL     1      -9.750   1.253 -33.272  1.00  0.00     0.276 C 
HETATM    6  C   UNL     1      -9.713  -0.093 -32.560  1.00  0.00     0.050 C 
BRANCH   5   7
HETATM    7  N   UNL     1     -10.833   2.176 -32.678  1.00  0.00    -0.049 N 
HETATM    8  H   UNL     1     -11.403   1.535 -32.100  1.00  0.00     0.281 HD
HETATM    9  C   UNL     1     -11.846   2.776 -33.633  1.00  0.00     0.238 C 
HETATM   10  C   UNL     1     -11.322   4.196 -33.850  1.00  0.00     0.041 C 
HETATM   11  C   UNL     1     -10.554   4.569 -32.588  1.00  0.00     0.030 C 
HETATM   12  C   UNL     1     -10.328   3.287 -31.807  1.00  0.00     0.237 C 
BRANCH   9  13
HETATM   13  C   UNL     1     -13.224   2.749 -33.030  1.00  0.00     0.042 A 
HETATM   14  N   UNL     1     -14.064   1.647 -33.043  1.00  0.00    -0.363 N 
HETATM   15  C   UNL     1     -13.844   0.337 -33.624  1.00  0.00     0.155 C 
HETATM   16  C   UNL     1     -15.234   1.952 -32.390  1.00  0.00     0.090 A 
HETATM   17  C   UNL     1     -15.177   3.257 -31.974  1.00  0.00     0.019 A 
HETATM   18  C   UNL     1     -13.922   3.760 -32.374  1.00  0.00     0.028 A 
ENDBRANCH   9  13
ENDBRANCH   5   7
ENDBRANCH   1   5
BRANCH   2  19
HETATM   19  C   UNL     1      -6.173   2.094 -32.127  1.00  0.00     0.035 A 
HETATM   20  C   UNL     1      -5.032   1.372 -32.481  1.00  0.00     0.032 A 
HETATM   21  C   UNL     1      -3.758   1.904 -32.248  1.00  0.00     0.039 A 
HETATM   22  C   UNL     1      -3.608   3.165 -31.672  1.00  0.00     0.076 A 
HETATM   23  C   UNL     1      -4.742   3.890 -31.308  1.00  0.00     0.039 A 
HETATM   24  C   UNL     1      -6.016   3.359 -31.542  1.00  0.00     0.032 A 
BRANCH  22  25
HETATM   25  O   UNL     1      -2.313   3.564 -31.434  1.00  0.00    -0.311 OA
BRANCH  25  26
HETATM   26  C   UNL     1      -1.855   4.694 -32.066  1.00  0.00     0.076 A 
HETATM   27  C   UNL     1      -1.865   4.706 -33.460  1.00  0.00     0.037 A 
HETATM   28  C   UNL     1      -1.461   5.851 -34.146  1.00  0.00     0.003 A 
HETATM   29  C   UNL     1      -1.065   6.985 -33.436  1.00  0.00     0.000 A 
HETATM   30  C   UNL     1      -1.081   6.979 -32.039  1.00  0.00     0.003 A 
HETATM   31  C   UNL     1      -1.485   5.835 -31.350  1.00  0.00     0.037 A 
ENDBRANCH  25  26
ENDBRANCH  22  25
ENDBRANCH   2  19
TORSDOF 6
ENDMDL
MODEL 8
REMARK VINA RESULT:      -7.7      1.504      2.731
REMARK  6 active torsions:
REMARK  status: ('A' for Active; 'I' for Inactive)
REMARK    1  A    between atoms: C_2  and  N_3 
REMARK    2  A    between atoms: C_2  and  C_15 
REMARK    3  A    between atoms: C_5  and  C_6 
REMARK       I    between atoms: C_15  and  N_16 
REMARK    4  A    between atoms: N_16  and  C_17 
REMARK    5  A    between atoms: C_20  and  O_21 
REMARK    6  A    between atoms: O_21  and  C_22 
ROOT
HETATM    1  C   UNL     1      -4.882   3.935 -31.467  1.00  0.00     0.253 C 
HETATM    2  N   UNL     1      -3.864   4.475 -32.228  1.00  0.00    -0.325 N 
HETATM    3  O   UNL     1      -4.992   3.998 -30.243  1.00  0.00    -0.271 OA
HETATM    4  H   UNL     1      -3.905   4.387 -33.237  1.00  0.00     0.169 HD
ENDROOT
BRANCH   1   5
HETATM    5  C   UNL     1      -6.020   3.246 -32.262  1.00  0.00     0.276 C 
HETATM    6  C   UNL     1      -5.973   3.525 -33.759  1.00  0.00     0.050 C 
BRANCH   5   7
HETATM    7  N   UNL     1      -6.038   1.732 -31.970  1.00  0.00    -0.049 N 
HETATM    8  H   UNL     1      -5.084   1.546 -31.614  1.00  0.00     0.281 HD
HETATM    9  C   UNL     1      -6.156   0.790 -33.152  1.00  0.00     0.238 C 
HETATM   10  C   UNL     1      -7.635   0.403 -33.142  1.00  0.00     0.041 C 
HETATM   11  C   UNL     1      -8.099   0.513 -31.695  1.00  0.00     0.030 C 
HETATM   12  C   UNL     1      -7.030   1.284 -30.940  1.00  0.00     0.237 C 
BRANCH   9  13
HETATM   13  C   UNL     1      -5.242  -0.393 -32.981  1.00  0.00     0.042 A 
HETATM   14  N   UNL     1      -5.243  -1.510 -33.802  1.00  0.00    -0.363 N 
HETATM   15  C   UNL     1      -6.088  -1.804 -34.942  1.00  0.00     0.155 C 
HETATM   16  C   UNL     1      -4.273  -2.389 -33.384  1.00  0.00     0.090 A 
HETATM   17  C   UNL     1      -3.656  -1.867 -32.277  1.00  0.00     0.019 A 
HETATM   18  C   UNL     1      -4.260  -0.619 -32.021  1.00  0.00     0.028 A 
ENDBRANCH   9  13
ENDBRANCH   5   7
ENDBRANCH   1   5
BRANCH   2  19
HETATM   19  C   UNL     1      -2.741   5.197 -31.759  1.00  0.00     0.035 A 
HETATM   20  C   UNL     1      -1.457   4.662 -31.641  1.00  0.00     0.032 A 
HETATM   21  C   UNL     1      -0.409   5.443 -31.140  1.00  0.00     0.039 A 
HETATM   22  C   UNL     1      -0.625   6.768 -30.764  1.00  0.00     0.076 A 
HETATM   23  C   UNL     1      -1.906   7.309 -30.871  1.00  0.00     0.039 A 
HETATM   24  C   UNL     1      -2.955   6.528 -31.373  1.00  0.00     0.032 A 
BRANCH  22  25
HETATM   25  O   UNL     1       0.460   7.424 -30.230  1.00  0.00    -0.311 OA
BRANCH  25  26
HETATM   26  C   UNL     1       0.624   7.403 -28.866  1.00  0.00     0.076 A 
HETATM   27  C   UNL     1       1.372   8.429 -28.288  1.00  0.00     0.037 A 
HETATM   28  C   UNL     1       1.521   8.481 -26.903  1.00  0.00     0.003 A 
HETATM   29  C   UNL     1       0.910   7.517 -26.100  1.00  0.00     0.000 A 
HETATM   30  C   UNL     1       0.141   6.506 -26.680  1.00  0.00     0.003 A 
HETATM   31  C   UNL     1      -0.011   6.452 -28.065  1.00  0.00     0.037 A 
ENDBRANCH  25  26
ENDBRANCH  22  25
ENDBRANCH   2  19
TORSDOF 6
ENDMDL
MODEL 9
REMARK VINA RESULT:      -7.7      5.534      8.319
REMARK  6 active torsions:
REMARK  status: ('A' for Active; 'I' for Inactive)
REMARK    1  A    between atoms: C_2  and  N_3 
REMARK    2  A    between atoms: C_2  and  C_15 
REMARK    3  A    between atoms: C_5  and  C_6 
REMARK       I    between atoms: C_15  and  N_16 
REMARK    4  A    between atoms: N_16  and  C_17 
REMARK    5  A    between atoms: C_20  and  O_21 
REMARK    6  A    between atoms: O_21  and  C_22 
ROOT
HETATM    1  C   UNL     1      -9.580   2.751 -31.729  1.00  0.00     0.253 C 
HETATM    2  N   UNL     1      -9.266   2.452 -33.040  1.00  0.00    -0.325 N 
HETATM    3  O   UNL     1      -9.181   2.157 -30.728  1.00  0.00    -0.271 OA
HETATM    4  H   UNL     1      -9.630   3.041 -33.780  1.00  0.00     0.169 HD
ENDROOT
BRANCH   1   5
HETATM    5  C   UNL     1     -10.471   4.003 -31.522  1.00  0.00     0.276 C 
HETATM    6  C   UNL     1     -10.160   5.138 -32.490  1.00  0.00     0.050 C 
BRANCH   5   7
HETATM    7  N   UNL     1     -11.962   3.614 -31.570  1.00  0.00    -0.049 N 
HETATM    8  H   UNL     1     -11.939   2.579 -31.573  1.00  0.00     0.281 HD
HETATM    9  C   UNL     1     -12.736   3.948 -32.830  1.00  0.00     0.238 C 
HETATM   10  C   UNL     1     -13.492   5.220 -32.446  1.00  0.00     0.041 C 
HETATM   11  C   UNL     1     -13.701   5.159 -30.938  1.00  0.00     0.030 C 
HETATM   12  C   UNL     1     -12.786   4.071 -30.404  1.00  0.00     0.237 C 
BRANCH   9  13
HETATM   13  C   UNL     1     -13.652   2.815 -33.206  1.00  0.00     0.042 A 
HETATM   14  N   UNL     1     -13.420   1.931 -34.248  1.00  0.00    -0.363 N 
HETATM   15  C   UNL     1     -12.316   1.897 -35.187  1.00  0.00     0.155 C 
HETATM   16  C   UNL     1     -14.436   1.008 -34.304  1.00  0.00     0.090 A 
HETATM   17  C   UNL     1     -15.348   1.300 -33.323  1.00  0.00     0.019 A 
HETATM   18  C   UNL     1     -14.862   2.431 -32.635  1.00  0.00     0.028 A 
ENDBRANCH   9  13
ENDBRANCH   5   7
ENDBRANCH   1   5
BRANCH   2  19
HETATM   19  C   UNL     1      -8.434   1.402 -33.498  1.00  0.00     0.035 A 
HETATM   20  C   UNL     1      -8.789   0.052 -33.477  1.00  0.00     0.032 A 
HETATM   21  C   UNL     1      -7.890  -0.923 -33.925  1.00  0.00     0.039 A 
HETATM   22  C   UNL     1      -6.634  -0.562 -34.412  1.00  0.00     0.076 A 
HETATM   23  C   UNL     1      -6.268   0.783 -34.430  1.00  0.00     0.039 A 
HETATM   24  C   UNL     1      -7.167   1.759 -33.982  1.00  0.00     0.032 A 
BRANCH  22  25
HETATM   25  O   UNL     1      -5.810  -1.604 -34.770  1.00  0.00    -0.311 OA
BRANCH  25  26
HETATM   26  C   UNL     1      -4.932  -2.089 -33.832  1.00  0.00     0.076 A 
HETATM   27  C   UNL     1      -4.466  -3.393 -33.994  1.00  0.00     0.037 A 
HETATM   28  C   UNL     1      -3.531  -3.912 -33.098  1.00  0.00     0.003 A 
HETATM   29  C   UNL     1      -3.054  -3.119 -32.053  1.00  0.00     0.000 A 
HETATM   30  C   UNL     1      -3.503  -1.805 -31.908  1.00  0.00     0.003 A 
HETATM   31  C   UNL     1      -4.438  -1.283 -32.803  1.00  0.00     0.037 A 
ENDBRANCH  25  26
ENDBRANCH  22  25
ENDBRANCH   2  19
TORSDOF 6
ENDMDL
MODEL 10
REMARK VINA RESULT:      -7.5      1.904      3.777
REMARK  6 active torsions:
REMARK  status: ('A' for Active; 'I' for Inactive)
REMARK    1  A    between atoms: C_2  and  N_3 
REMARK    2  A    between atoms: C_2  and  C_15 
REMARK    3  A    between atoms: C_5  and  C_6 
REMARK       I    between atoms: C_15  and  N_16 
REMARK    4  A    between atoms: N_16  and  C_17 
REMARK    5  A    between atoms: C_20  and  O_21 
REMARK    6  A    between atoms: O_21  and  C_22 
ROOT
HETATM    1  C   UNL     1      -4.255   1.973 -31.948  1.00  0.00     0.253 C 
HETATM    2  N   UNL     1      -3.898   3.134 -32.604  1.00  0.00    -0.325 N 
HETATM    3  O   UNL     1      -4.098   1.732 -30.752  1.00  0.00    -0.271 OA
HETATM    4  H   UNL     1      -4.115   3.228 -33.590  1.00  0.00     0.169 HD
ENDROOT
BRANCH   1   5
HETATM    5  C   UNL     1      -4.984   0.912 -32.811  1.00  0.00     0.276 C 
HETATM    6  C   UNL     1      -5.008  -0.475 -32.180  1.00  0.00     0.050 C 
BRANCH   5   7
HETATM    7  N   UNL     1      -6.404   1.394 -33.168  1.00  0.00    -0.049 N 
HETATM    8  H   UNL     1      -6.413   2.376 -32.839  1.00  0.00     0.281 HD
HETATM    9  C   UNL     1      -7.566   0.768 -32.423  1.00  0.00     0.238 C 
HETATM   10  C   UNL     1      -8.100  -0.264 -33.415  1.00  0.00     0.041 C 
HETATM   11  C   UNL     1      -7.760   0.258 -34.805  1.00  0.00     0.030 C 
HETATM   12  C   UNL     1      -6.746   1.374 -34.627  1.00  0.00     0.237 C 
BRANCH   9  13
HETATM   13  C   UNL     1      -8.588   1.812 -32.060  1.00  0.00     0.042 A 
HETATM   14  N   UNL     1      -8.446   2.722 -31.024  1.00  0.00    -0.363 N 
HETATM   15  C   UNL     1      -7.356   2.868 -30.080  1.00  0.00     0.155 C 
HETATM   16  C   UNL     1      -9.546   3.545 -30.981  1.00  0.00     0.090 A 
HETATM   17  C   UNL     1     -10.420   3.161 -31.964  1.00  0.00     0.019 A 
HETATM   18  C   UNL     1      -9.826   2.076 -32.640  1.00  0.00     0.028 A 
ENDBRANCH   9  13
ENDBRANCH   5   7
ENDBRANCH   1   5
BRANCH   2  19
HETATM   19  C   UNL     1      -3.274   4.273 -32.041  1.00  0.00     0.035 A 
HETATM   20  C   UNL     1      -1.894   4.485 -32.024  1.00  0.00     0.032 A 
HETATM   21  C   UNL     1      -1.362   5.629 -31.420  1.00  0.00     0.039 A 
HETATM   22  C   UNL     1      -2.198   6.582 -30.839  1.00  0.00     0.076 A 
HETATM   23  C   UNL     1      -3.577   6.376 -30.844  1.00  0.00     0.039 A 
HETATM   24  C   UNL     1      -4.110   5.231 -31.450  1.00  0.00     0.032 A 
BRANCH  22  25
HETATM   25  O   UNL     1      -1.566   7.637 -30.222  1.00  0.00    -0.311 OA
BRANCH  25  26
HETATM   26  C   UNL     1      -0.925   7.402 -29.030  1.00  0.00     0.076 A 
HETATM   27  C   UNL     1       0.444   7.661 -28.969  1.00  0.00     0.037 A 
HETATM   28  C   UNL     1       1.128   7.490 -27.766  1.00  0.00     0.003 A 
HETATM   29  C   UNL     1       0.439   7.077 -26.625  1.00  0.00     0.000 A 
HETATM   30  C   UNL     1      -0.937   6.843 -26.683  1.00  0.00     0.003 A 
HETATM   31  C   UNL     1      -1.624   7.013 -27.885  1.00  0.00     0.037 A 
ENDBRANCH  25  26
ENDBRANCH  22  25
ENDBRANCH   2  19
TORSDOF 6
ENDMDL
