MODEL 1
REMARK VINA RESULT:      -8.3      0.000      0.000
REMARK  7 active torsions:
REMARK  status: ('A' for Active; 'I' for Inactive)
REMARK    1  A    between atoms: N_3  and  N_4 
REMARK       I    between atoms: N_4  and  C_5 
REMARK    2  A    between atoms: C_5  and  C_6 
REMARK    3  A    between atoms: C_9  and  O_10 
REMARK    4  A    between atoms: O_10  and  C_11 
REMARK    5  A    between atoms: C_11  and  C_12 
REMARK       I    between atoms: C_12  and  N_13 
REMARK    6  A    between atoms: N_13  and  C_14 
REMARK    7  A    between atoms: C_16  and  O_17 
ROOT
HETATM    1  C   UNL     1      -4.496   3.660 -32.368  1.00  0.00     0.033 A 
HETATM    2  C   UNL     1      -5.093   2.561 -31.738  1.00  0.00     0.020 A 
HETATM    3  C   UNL     1      -6.254   2.000 -32.280  1.00  0.00     0.038 A 
HETATM    4  C   UNL     1      -6.833   2.535 -33.434  1.00  0.00     0.069 A 
HETATM    5  C   UNL     1      -6.220   3.614 -34.073  1.00  0.00     0.038 A 
HETATM    6  C   UNL     1      -5.052   4.171 -33.545  1.00  0.00     0.020 A 
ENDROOT
BRANCH   4   7
HETATM    7  O   UNL     1      -7.968   1.904 -33.867  1.00  0.00    -0.342 OA
BRANCH   7   8
HETATM    8  C   UNL     1      -7.772   0.925 -34.885  1.00  0.00     0.278 C 
BRANCH   8   9
HETATM    9  C   UNL     1      -7.433  -0.444 -34.290  1.00  0.00     0.246 C 
HETATM   10  N   UNL     1      -6.393  -1.073 -34.951  1.00  0.00    -0.325 N 
HETATM   11  H   UNL     1      -5.943  -0.517 -35.672  1.00  0.00     0.169 HD
HETATM   12  O   UNL     1      -8.100  -0.902 -33.366  1.00  0.00    -0.271 OA
BRANCH  10  13
HETATM   13  C   UNL     1      -5.885  -2.371 -34.734  1.00  0.00     0.037 A 
HETATM   14  C   UNL     1      -4.706  -2.640 -34.031  1.00  0.00     0.066 A 
HETATM   15  C   UNL     1      -4.272  -3.957 -33.845  1.00  0.00     0.070 A 
HETATM   16  C   UNL     1      -5.028  -5.009 -34.363  1.00  0.00     0.037 A 
HETATM   17  C   UNL     1      -6.202  -4.755 -35.067  1.00  0.00     0.005 A 
HETATM   18  C   UNL     1      -6.628  -3.439 -35.253  1.00  0.00     0.029 A 
BRANCH  15  19
HETATM   19  O   UNL     1      -3.140  -4.344 -33.178  1.00  0.00    -0.356 OA
HETATM   20  C   UNL     1      -2.965  -3.834 -31.860  1.00  0.00     0.210 C 
ENDBRANCH  15  19
ENDBRANCH  10  13
ENDBRANCH   8   9
ENDBRANCH   7   8
ENDBRANCH   4   7
BRANCH   1  21
HETATM   21  C   UNL     1      -3.263   4.293 -31.833  1.00  0.00     0.270 C 
HETATM   22  N   UNL     1      -3.206   5.659 -31.974  1.00  0.00    -0.259 N 
HETATM   23  H   UNL     1      -3.850   6.183 -32.547  1.00  0.00     0.191 HD
HETATM   24  O   UNL     1      -2.386   3.586 -31.353  1.00  0.00    -0.266 OA
BRANCH  22  25
HETATM   25  N   UNL     1      -2.080   6.316 -31.639  1.00  0.00    -0.263 N 
HETATM   26  C   UNL     1      -0.980   6.373 -32.449  1.00  0.00     0.030 A 
HETATM   27  C   UNL     1      -0.974   5.896 -33.854  1.00  0.00     0.070 C 
HETATM   28  C   UNL     1       0.028   6.954 -31.700  1.00  0.00     0.028 A 
HETATM   29  C   UNL     1      -0.490   7.212 -30.405  1.00  0.00     0.028 A 
HETATM   30  C   UNL     1      -1.806   6.783 -30.382  1.00  0.00     0.030 A 
HETATM   31  C   UNL     1      -2.801   6.830 -29.283  1.00  0.00     0.070 C 
ENDBRANCH  22  25
ENDBRANCH   1  21
TORSDOF 7
ENDMDL
MODEL 2
REMARK VINA RESULT:      -8.3      1.724      2.522
REMARK  7 active torsions:
REMARK  status: ('A' for Active; 'I' for Inactive)
REMARK    1  A    between atoms: N_3  and  N_4 
REMARK       I    between atoms: N_4  and  C_5 
REMARK    2  A    between atoms: C_5  and  C_6 
REMARK    3  A    between atoms: C_9  and  O_10 
REMARK    4  A    between atoms: O_10  and  C_11 
REMARK    5  A    between atoms: C_11  and  C_12 
REMARK       I    between atoms: C_12  and  N_13 
REMARK    6  A    between atoms: N_13  and  C_14 
REMARK    7  A    between atoms: C_16  and  O_17 
ROOT
HETATM    1  C   UNL     1      -2.984   5.146 -31.933  1.00  0.00     0.033 A 
HETATM    2  C   UNL     1      -4.145   5.695 -32.490  1.00  0.00     0.020 A 
HETATM    3  C   UNL     1      -5.139   4.849 -32.991  1.00  0.00     0.038 A 
HETATM    4  C   UNL     1      -4.977   3.461 -32.956  1.00  0.00     0.069 A 
HETATM    5  C   UNL     1      -3.829   2.917 -32.377  1.00  0.00     0.038 A 
HETATM    6  C   UNL     1      -2.838   3.757 -31.862  1.00  0.00     0.020 A 
ENDROOT
BRANCH   4   7
HETATM    7  O   UNL     1      -6.015   2.737 -33.479  1.00  0.00    -0.342 OA
BRANCH   7   8
HETATM    8  C   UNL     1      -6.880   2.129 -32.521  1.00  0.00     0.278 C 
BRANCH   8   9
HETATM    9  C   UNL     1      -6.696   0.610 -32.485  1.00  0.00     0.246 C 
HETATM   10  N   UNL     1      -6.163   0.105 -33.658  1.00  0.00    -0.325 N 
HETATM   11  H   UNL     1      -5.887   0.806 -34.340  1.00  0.00     0.169 HD
HETATM   12  O   UNL     1      -7.068  -0.038 -31.510  1.00  0.00    -0.271 OA
BRANCH  10  13
HETATM   13  C   UNL     1      -5.951  -1.244 -34.006  1.00  0.00     0.037 A 
HETATM   14  C   UNL     1      -4.709  -1.885 -33.925  1.00  0.00     0.066 A 
HETATM   15  C   UNL     1      -4.578  -3.233 -34.275  1.00  0.00     0.070 A 
HETATM   16  C   UNL     1      -5.700  -3.943 -34.703  1.00  0.00     0.037 A 
HETATM   17  C   UNL     1      -6.941  -3.317 -34.790  1.00  0.00     0.005 A 
HETATM   18  C   UNL     1      -7.065  -1.971 -34.444  1.00  0.00     0.029 A 
BRANCH  15  19
HETATM   19  O   UNL     1      -3.421  -3.965 -34.238  1.00  0.00    -0.356 OA
HETATM   20  C   UNL     1      -3.298  -4.917 -33.187  1.00  0.00     0.210 C 
ENDBRANCH  15  19
ENDBRANCH  10  13
ENDBRANCH   8   9
ENDBRANCH   7   8
ENDBRANCH   4   7
BRANCH   1  21
HETATM   21  C   UNL     1      -1.898   6.001 -31.388  1.00  0.00     0.270 C 
HETATM   22  N   UNL     1      -1.777   5.981 -30.019  1.00  0.00    -0.259 N 
HETATM   23  H   UNL     1      -2.467   5.570 -29.409  1.00  0.00     0.191 HD
HETATM   24  O   UNL     1      -1.227   6.679 -32.155  1.00  0.00    -0.266 OA
BRANCH  22  25
HETATM   25  N   UNL     1      -0.910   6.815 -29.415  1.00  0.00    -0.263 N 
HETATM   26  C   UNL     1       0.300   6.408 -28.927  1.00  0.00     0.030 A 
HETATM   27  C   UNL     1       0.875   5.064 -29.184  1.00  0.00     0.070 C 
HETATM   28  C   UNL     1       0.814   7.477 -28.214  1.00  0.00     0.028 A 
HETATM   29  C   UNL     1      -0.139   8.525 -28.260  1.00  0.00     0.028 A 
HETATM   30  C   UNL     1      -1.222   8.081 -28.998  1.00  0.00     0.030 A 
HETATM   31  C   UNL     1      -2.480   8.782 -29.357  1.00  0.00     0.070 C 
ENDBRANCH  22  25
ENDBRANCH   1  21
TORSDOF 7
ENDMDL
MODEL 3
REMARK VINA RESULT:      -8.2      3.520      9.674
REMARK  7 active torsions:
REMARK  status: ('A' for Active; 'I' for Inactive)
REMARK    1  A    between atoms: N_3  and  N_4 
REMARK       I    between atoms: N_4  and  C_5 
REMARK    2  A    between atoms: C_5  and  C_6 
REMARK    3  A    between atoms: C_9  and  O_10 
REMARK    4  A    between atoms: O_10  and  C_11 
REMARK    5  A    between atoms: C_11  and  C_12 
REMARK       I    between atoms: C_12  and  N_13 
REMARK    6  A    between atoms: N_13  and  C_14 
REMARK    7  A    between atoms: C_16  and  O_17 
ROOT
HETATM    1  C   UNL     1      -5.028   3.976 -33.639  1.00  0.00     0.033 A 
HETATM    2  C   UNL     1      -4.042   3.637 -32.705  1.00  0.00     0.020 A 
HETATM    3  C   UNL     1      -2.753   4.164 -32.837  1.00  0.00     0.038 A 
HETATM    4  C   UNL     1      -2.436   5.013 -33.902  1.00  0.00     0.069 A 
HETATM    5  C   UNL     1      -3.429   5.369 -34.816  1.00  0.00     0.038 A 
HETATM    6  C   UNL     1      -4.723   4.856 -34.682  1.00  0.00     0.020 A 
ENDROOT
BRANCH   4   7
HETATM    7  O   UNL     1      -1.143   5.461 -33.928  1.00  0.00    -0.342 OA
BRANCH   7   8
HETATM    8  C   UNL     1      -0.990   6.877 -34.011  1.00  0.00     0.278 C 
BRANCH   8   9
HETATM    9  C   UNL     1      -1.134   7.538 -32.639  1.00  0.00     0.246 C 
HETATM   10  N   UNL     1      -0.537   6.809 -31.626  1.00  0.00    -0.325 N 
HETATM   11  H   UNL     1      -0.015   5.994 -31.935  1.00  0.00     0.169 HD
HETATM   12  O   UNL     1      -1.785   8.572 -32.513  1.00  0.00    -0.271 OA
BRANCH  10  13
HETATM   13  C   UNL     1      -0.557   7.069 -30.241  1.00  0.00     0.037 A 
HETATM   14  C   UNL     1      -1.703   6.966 -29.444  1.00  0.00     0.066 A 
HETATM   15  C   UNL     1      -1.642   7.227 -28.071  1.00  0.00     0.070 A 
HETATM   16  C   UNL     1      -0.425   7.588 -27.494  1.00  0.00     0.037 A 
HETATM   17  C   UNL     1       0.723   7.697 -28.275  1.00  0.00     0.005 A 
HETATM   18  C   UNL     1       0.655   7.440 -29.645  1.00  0.00     0.029 A 
BRANCH  15  19
HETATM   19  O   UNL     1      -2.691   7.159 -27.193  1.00  0.00    -0.356 OA
HETATM   20  C   UNL     1      -2.365   7.036 -25.812  1.00  0.00     0.210 C 
ENDBRANCH  15  19
ENDBRANCH  10  13
ENDBRANCH   8   9
ENDBRANCH   7   8
ENDBRANCH   4   7
BRANCH   1  21
HETATM   21  C   UNL     1      -6.412   3.443 -33.543  1.00  0.00     0.270 C 
HETATM   22  N   UNL     1      -6.508   2.169 -33.037  1.00  0.00    -0.259 N 
HETATM   23  H   UNL     1      -5.711   1.566 -32.905  1.00  0.00     0.191 HD
HETATM   24  O   UNL     1      -7.346   4.126 -33.943  1.00  0.00    -0.266 OA
BRANCH  22  25
HETATM   25  N   UNL     1      -7.701   1.545 -33.027  1.00  0.00    -0.263 N 
HETATM   26  C   UNL     1      -8.547   1.571 -31.953  1.00  0.00     0.030 A 
HETATM   27  C   UNL     1      -8.342   2.445 -30.771  1.00  0.00     0.070 C 
HETATM   28  C   UNL     1      -9.562   0.673 -32.233  1.00  0.00     0.028 A 
HETATM   29  C   UNL     1      -9.280   0.081 -33.490  1.00  0.00     0.028 A 
HETATM   30  C   UNL     1      -8.097   0.625 -33.959  1.00  0.00     0.030 A 
HETATM   31  C   UNL     1      -7.366   0.363 -35.223  1.00  0.00     0.070 C 
ENDBRANCH  22  25
ENDBRANCH   1  21
TORSDOF 7
ENDMDL
MODEL 4
REMARK VINA RESULT:      -8.0      2.567     10.463
REMARK  7 active torsions:
REMARK  status: ('A' for Active; 'I' for Inactive)
REMARK    1  A    between atoms: N_3  and  N_4 
REMARK       I    between atoms: N_4  and  C_5 
REMARK    2  A    between atoms: C_5  and  C_6 
REMARK    3  A    between atoms: C_9  and  O_10 
REMARK    4  A    between atoms: O_10  and  C_11 
REMARK    5  A    between atoms: C_11  and  C_12 
REMARK       I    between atoms: C_12  and  N_13 
REMARK    6  A    between atoms: N_13  and  C_14 
REMARK    7  A    between atoms: C_16  and  O_17 
ROOT
HETATM    1  C   UNL     1      -4.647   1.020 -32.245  1.00  0.00     0.033 A 
HETATM    2  C   UNL     1      -3.521   1.209 -31.434  1.00  0.00     0.020 A 
HETATM    3  C   UNL     1      -3.012   2.498 -31.247  1.00  0.00     0.038 A 
HETATM    4  C   UNL     1      -3.606   3.597 -31.874  1.00  0.00     0.069 A 
HETATM    5  C   UNL     1      -4.743   3.407 -32.661  1.00  0.00     0.038 A 
HETATM    6  C   UNL     1      -5.265   2.123 -32.842  1.00  0.00     0.020 A 
ENDROOT
BRANCH   4   7
HETATM    7  O   UNL     1      -3.017   4.806 -31.619  1.00  0.00    -0.342 OA
BRANCH   7   8
HETATM    8  C   UNL     1      -1.629   4.889 -31.940  1.00  0.00     0.278 C 
BRANCH   8   9
HETATM    9  C   UNL     1      -0.972   6.103 -31.279  1.00  0.00     0.246 C 
HETATM   10  N   UNL     1      -1.051   6.071 -29.899  1.00  0.00    -0.325 N 
HETATM   11  H   UNL     1      -1.448   5.220 -29.511  1.00  0.00     0.169 HD
HETATM   12  O   UNL     1      -0.504   7.007 -31.967  1.00  0.00    -0.271 OA
BRANCH  10  13
HETATM   13  C   UNL     1      -0.641   7.060 -28.982  1.00  0.00     0.037 A 
HETATM   14  C   UNL     1      -1.519   7.767 -28.152  1.00  0.00     0.066 A 
HETATM   15  C   UNL     1      -1.036   8.726 -27.256  1.00  0.00     0.070 A 
HETATM   16  C   UNL     1       0.336   8.975 -27.190  1.00  0.00     0.037 A 
HETATM   17  C   UNL     1       1.220   8.281 -28.012  1.00  0.00     0.005 A 
HETATM   18  C   UNL     1       0.731   7.328 -28.907  1.00  0.00     0.029 A 
BRANCH  15  19
HETATM   19  O   UNL     1      -1.792   9.478 -26.397  1.00  0.00    -0.356 OA
HETATM   20  C   UNL     1      -1.936   8.985 -25.069  1.00  0.00     0.210 C 
ENDBRANCH  15  19
ENDBRANCH  10  13
ENDBRANCH   8   9
ENDBRANCH   7   8
ENDBRANCH   4   7
BRANCH   1  21
HETATM   21  C   UNL     1      -5.226  -0.328 -32.477  1.00  0.00     0.270 C 
HETATM   22  N   UNL     1      -4.852  -0.924 -33.657  1.00  0.00    -0.259 N 
HETATM   23  H   UNL     1      -4.373  -0.433 -34.396  1.00  0.00     0.191 HD
HETATM   24  O   UNL     1      -6.004  -0.795 -31.655  1.00  0.00    -0.266 OA
BRANCH  22  25
HETATM   25  N   UNL     1      -5.418  -2.089 -34.024  1.00  0.00    -0.263 N 
HETATM   26  C   UNL     1      -4.779  -3.293 -33.922  1.00  0.00     0.030 A 
HETATM   27  C   UNL     1      -3.486  -3.476 -33.219  1.00  0.00     0.070 C 
HETATM   28  C   UNL     1      -5.582  -4.218 -34.567  1.00  0.00     0.028 A 
HETATM   29  C   UNL     1      -6.705  -3.526 -35.088  1.00  0.00     0.028 A 
HETATM   30  C   UNL     1      -6.570  -2.189 -34.756  1.00  0.00     0.030 A 
HETATM   31  C   UNL     1      -7.466  -1.043 -35.047  1.00  0.00     0.070 C 
ENDBRANCH  22  25
ENDBRANCH   1  21
TORSDOF 7
ENDMDL
MODEL 5
REMARK VINA RESULT:      -8.0      1.672      2.718
REMARK  7 active torsions:
REMARK  status: ('A' for Active; 'I' for Inactive)
REMARK    1  A    between atoms: N_3  and  N_4 
REMARK       I    between atoms: N_4  and  C_5 
REMARK    2  A    between atoms: C_5  and  C_6 
REMARK    3  A    between atoms: C_9  and  O_10 
REMARK    4  A    between atoms: O_10  and  C_11 
REMARK    5  A    between atoms: C_11  and  C_12 
REMARK       I    between atoms: C_12  and  N_13 
REMARK    6  A    between atoms: N_13  and  C_14 
REMARK    7  A    between atoms: C_16  and  O_17 
ROOT
HETATM    1  C   UNL     1      -3.082   5.319 -32.122  1.00  0.00     0.033 A 
HETATM    2  C   UNL     1      -3.823   5.885 -33.166  1.00  0.00     0.020 A 
HETATM    3  C   UNL     1      -4.839   5.143 -33.777  1.00  0.00     0.038 A 
HETATM    4  C   UNL     1      -5.110   3.834 -33.366  1.00  0.00     0.069 A 
HETATM    5  C   UNL     1      -4.386   3.282 -32.307  1.00  0.00     0.038 A 
HETATM    6  C   UNL     1      -3.379   4.024 -31.684  1.00  0.00     0.020 A 
ENDROOT
BRANCH   4   7
HETATM    7  O   UNL     1      -6.123   3.207 -34.040  1.00  0.00    -0.342 OA
BRANCH   7   8
HETATM    8  C   UNL     1      -7.194   2.731 -33.228  1.00  0.00     0.278 C 
BRANCH   8   9
HETATM    9  C   UNL     1      -7.231   1.202 -33.187  1.00  0.00     0.246 C 
HETATM   10  N   UNL     1      -6.161   0.622 -33.845  1.00  0.00    -0.325 N 
HETATM   11  H   UNL     1      -5.461   1.275 -34.184  1.00  0.00     0.169 HD
HETATM   12  O   UNL     1      -8.177   0.616 -32.666  1.00  0.00    -0.271 OA
BRANCH  10  13
HETATM   13  C   UNL     1      -5.927  -0.748 -34.085  1.00  0.00     0.037 A 
HETATM   14  C   UNL     1      -4.770  -1.424 -33.684  1.00  0.00     0.066 A 
HETATM   15  C   UNL     1      -4.615  -2.789 -33.945  1.00  0.00     0.070 A 
HETATM   16  C   UNL     1      -5.629  -3.481 -34.609  1.00  0.00     0.037 A 
HETATM   17  C   UNL     1      -6.785  -2.820 -35.015  1.00  0.00     0.005 A 
HETATM   18  C   UNL     1      -6.932  -1.456 -34.756  1.00  0.00     0.029 A 
BRANCH  15  19
HETATM   19  O   UNL     1      -3.533  -3.556 -33.604  1.00  0.00    -0.356 OA
HETATM   20  C   UNL     1      -3.705  -4.969 -33.655  1.00  0.00     0.210 C 
ENDBRANCH  15  19
ENDBRANCH  10  13
ENDBRANCH   8   9
ENDBRANCH   7   8
ENDBRANCH   4   7
BRANCH   1  21
HETATM   21  C   UNL     1      -1.993   6.065 -31.441  1.00  0.00     0.270 C 
HETATM   22  N   UNL     1      -1.953   5.914 -30.076  1.00  0.00    -0.259 N 
HETATM   23  H   UNL     1      -2.695   5.485 -29.546  1.00  0.00     0.191 HD
HETATM   24  O   UNL     1      -1.249   6.776 -32.105  1.00  0.00    -0.266 OA
BRANCH  22  25
HETATM   25  N   UNL     1      -1.087   6.646 -29.350  1.00  0.00    -0.263 N 
HETATM   26  C   UNL     1      -1.360   7.914 -28.919  1.00  0.00     0.030 A 
HETATM   27  C   UNL     1      -2.699   8.544 -29.026  1.00  0.00     0.070 C 
HETATM   28  C   UNL     1      -0.182   8.409 -28.387  1.00  0.00     0.028 A 
HETATM   29  C   UNL     1       0.815   7.412 -28.544  1.00  0.00     0.028 A 
HETATM   30  C   UNL     1       0.231   6.325 -29.171  1.00  0.00     0.030 A 
HETATM   31  C   UNL     1       0.824   5.021 -29.559  1.00  0.00     0.070 C 
ENDBRANCH  22  25
ENDBRANCH   1  21
TORSDOF 7
ENDMDL
MODEL 6
REMARK VINA RESULT:      -7.8      3.312      9.689
REMARK  7 active torsions:
REMARK  status: ('A' for Active; 'I' for Inactive)
REMARK    1  A    between atoms: N_3  and  N_4 
REMARK       I    between atoms: N_4  and  C_5 
REMARK    2  A    between atoms: C_5  and  C_6 
REMARK    3  A    between atoms: C_9  and  O_10 
REMARK    4  A    between atoms: O_10  and  C_11 
REMARK    5  A    between atoms: C_11  and  C_12 
REMARK       I    between atoms: C_12  and  N_13 
REMARK    6  A    between atoms: N_13  and  C_14 
REMARK    7  A    between atoms: C_16  and  O_17 
ROOT
HETATM    1  C   UNL     1      -4.917   3.520 -33.222  1.00  0.00     0.033 A 
HETATM    2  C   UNL     1      -4.914   4.579 -34.138  1.00  0.00     0.020 A 
HETATM    3  C   UNL     1      -3.751   5.335 -34.318  1.00  0.00     0.038 A 
HETATM    4  C   UNL     1      -2.597   5.054 -33.581  1.00  0.00     0.069 A 
HETATM    5  C   UNL     1      -2.597   3.982 -32.687  1.00  0.00     0.038 A 
HETATM    6  C   UNL     1      -3.751   3.214 -32.512  1.00  0.00     0.020 A 
ENDROOT
BRANCH   4   7
HETATM    7  O   UNL     1      -1.525   5.865 -33.840  1.00  0.00    -0.342 OA
BRANCH   7   8
HETATM    8  C   UNL     1      -1.800   7.264 -33.828  1.00  0.00     0.278 C 
BRANCH   8   9
HETATM    9  C   UNL     1      -1.610   7.860 -32.431  1.00  0.00     0.246 C 
HETATM   10  N   UNL     1      -1.018   6.977 -31.546  1.00  0.00    -0.325 N 
HETATM   11  H   UNL     1      -0.712   6.100 -31.957  1.00  0.00     0.169 HD
HETATM   12  O   UNL     1      -2.027   8.987 -32.175  1.00  0.00    -0.271 OA
BRANCH  10  13
HETATM   13  C   UNL     1      -0.781   7.156 -30.168  1.00  0.00     0.037 A 
HETATM   14  C   UNL     1      -1.773   7.056 -29.187  1.00  0.00     0.066 A 
HETATM   15  C   UNL     1      -1.460   7.232 -27.835  1.00  0.00     0.070 A 
HETATM   16  C   UNL     1      -0.143   7.507 -27.466  1.00  0.00     0.037 A 
HETATM   17  C   UNL     1       0.854   7.612 -28.433  1.00  0.00     0.005 A 
HETATM   18  C   UNL     1       0.535   7.439 -29.780  1.00  0.00     0.029 A 
BRANCH  15  19
HETATM   19  O   UNL     1      -2.340   7.159 -26.789  1.00  0.00    -0.356 OA
HETATM   20  C   UNL     1      -2.155   8.089 -25.727  1.00  0.00     0.210 C 
ENDBRANCH  15  19
ENDBRANCH  10  13
ENDBRANCH   8   9
ENDBRANCH   7   8
ENDBRANCH   4   7
BRANCH   1  21
HETATM   21  C   UNL     1      -6.125   2.687 -32.994  1.00  0.00     0.270 C 
HETATM   22  N   UNL     1      -7.138   2.875 -33.903  1.00  0.00    -0.259 N 
HETATM   23  H   UNL     1      -7.152   3.634 -34.567  1.00  0.00     0.191 HD
HETATM   24  O   UNL     1      -6.164   1.941 -32.024  1.00  0.00    -0.266 OA
BRANCH  22  25
HETATM   25  N   UNL     1      -8.324   2.265 -33.715  1.00  0.00    -0.263 N 
HETATM   26  C   UNL     1      -8.671   1.100 -34.341  1.00  0.00     0.030 A 
HETATM   27  C   UNL     1      -7.718   0.281 -35.131  1.00  0.00     0.070 C 
HETATM   28  C   UNL     1     -10.009   0.889 -34.061  1.00  0.00     0.028 A 
HETATM   29  C   UNL     1     -10.463   1.979 -33.276  1.00  0.00     0.028 A 
HETATM   30  C   UNL     1      -9.397   2.841 -33.091  1.00  0.00     0.030 A 
HETATM   31  C   UNL     1      -9.327   4.121 -32.343  1.00  0.00     0.070 C 
ENDBRANCH  22  25
ENDBRANCH   1  21
TORSDOF 7
ENDMDL
MODEL 7
REMARK VINA RESULT:      -7.8      2.987      5.551
REMARK  7 active torsions:
REMARK  status: ('A' for Active; 'I' for Inactive)
REMARK    1  A    between atoms: N_3  and  N_4 
REMARK       I    between atoms: N_4  and  C_5 
REMARK    2  A    between atoms: C_5  and  C_6 
REMARK    3  A    between atoms: C_9  and  O_10 
REMARK    4  A    between atoms: O_10  and  C_11 
REMARK    5  A    between atoms: C_11  and  C_12 
REMARK       I    between atoms: C_12  and  N_13 
REMARK    6  A    between atoms: N_13  and  C_14 
REMARK    7  A    between atoms: C_16  and  O_17 
ROOT
HETATM    1  C   UNL     1      -4.093   2.720 -31.851  1.00  0.00     0.033 A 
HETATM    2  C   UNL     1      -3.836   1.515 -32.515  1.00  0.00     0.020 A 
HETATM    3  C   UNL     1      -4.807   0.509 -32.526  1.00  0.00     0.038 A 
HETATM    4  C   UNL     1      -6.026   0.690 -31.866  1.00  0.00     0.069 A 
HETATM    5  C   UNL     1      -6.289   1.902 -31.227  1.00  0.00     0.038 A 
HETATM    6  C   UNL     1      -5.328   2.916 -31.224  1.00  0.00     0.020 A 
ENDROOT
BRANCH   4   7
HETATM    7  O   UNL     1      -6.895  -0.366 -31.943  1.00  0.00    -0.342 OA
BRANCH   7   8
HETATM    8  C   UNL     1      -7.321  -0.712 -33.260  1.00  0.00     0.278 C 
BRANCH   8   9
HETATM    9  C   UNL     1      -8.303   0.320 -33.820  1.00  0.00     0.246 C 
HETATM   10  N   UNL     1      -9.436   0.462 -33.038  1.00  0.00    -0.325 N 
HETATM   11  H   UNL     1      -9.424  -0.060 -32.167  1.00  0.00     0.169 HD
HETATM   12  O   UNL     1      -8.077   0.875 -34.892  1.00  0.00    -0.271 OA
BRANCH  10  13
HETATM   13  C   UNL     1     -10.579   1.245 -33.299  1.00  0.00     0.037 A 
HETATM   14  C   UNL     1     -11.676   0.800 -34.045  1.00  0.00     0.066 A 
HETATM   15  C   UNL     1     -12.782   1.630 -34.252  1.00  0.00     0.070 A 
HETATM   16  C   UNL     1     -12.790   2.913 -33.703  1.00  0.00     0.037 A 
HETATM   17  C   UNL     1     -11.704   3.369 -32.960  1.00  0.00     0.005 A 
HETATM   18  C   UNL     1     -10.601   2.538 -32.761  1.00  0.00     0.029 A 
BRANCH  15  19
HETATM   19  O   UNL     1     -13.909   1.308 -34.960  1.00  0.00    -0.356 OA
HETATM   20  C   UNL     1     -14.999   0.766 -34.222  1.00  0.00     0.210 C 
ENDBRANCH  15  19
ENDBRANCH  10  13
ENDBRANCH   8   9
ENDBRANCH   7   8
ENDBRANCH   4   7
BRANCH   1  21
HETATM   21  C   UNL     1      -3.095   3.819 -31.810  1.00  0.00     0.270 C 
HETATM   22  N   UNL     1      -3.474   4.971 -32.456  1.00  0.00    -0.259 N 
HETATM   23  H   UNL     1      -4.278   5.026 -33.062  1.00  0.00     0.191 HD
HETATM   24  O   UNL     1      -2.017   3.630 -31.260  1.00  0.00    -0.266 OA
BRANCH  22  25
HETATM   25  N   UNL     1      -2.595   5.982 -32.587  1.00  0.00    -0.263 N 
HETATM   26  C   UNL     1      -1.701   6.063 -33.618  1.00  0.00     0.030 A 
HETATM   27  C   UNL     1      -1.733   5.169 -34.801  1.00  0.00     0.070 C 
HETATM   28  C   UNL     1      -0.848   7.110 -33.315  1.00  0.00     0.028 A 
HETATM   29  C   UNL     1      -1.236   7.632 -32.054  1.00  0.00     0.028 A 
HETATM   30  C   UNL     1      -2.318   6.895 -31.606  1.00  0.00     0.030 A 
HETATM   31  C   UNL     1      -3.108   7.031 -30.357  1.00  0.00     0.070 C 
ENDBRANCH  22  25
ENDBRANCH   1  21
TORSDOF 7
ENDMDL
MODEL 8
REMARK VINA RESULT:      -7.8      2.352      9.809
REMARK  7 active torsions:
REMARK  status: ('A' for Active; 'I' for Inactive)
REMARK    1  A    between atoms: N_3  and  N_4 
REMARK       I    between atoms: N_4  and  C_5 
REMARK    2  A    between atoms: C_5  and  C_6 
REMARK    3  A    between atoms: C_9  and  O_10 
REMARK    4  A    between atoms: O_10  and  C_11 
REMARK    5  A    between atoms: C_11  and  C_12 
REMARK       I    between atoms: C_12  and  N_13 
REMARK    6  A    between atoms: N_13  and  C_14 
REMARK    7  A    between atoms: C_16  and  O_17 
ROOT
HETATM    1  C   UNL     1      -4.802   0.783 -32.686  1.00  0.00     0.033 A 
HETATM    2  C   UNL     1      -5.827   1.654 -33.074  1.00  0.00     0.020 A 
HETATM    3  C   UNL     1      -5.593   3.033 -33.094  1.00  0.00     0.038 A 
HETATM    4  C   UNL     1      -4.350   3.550 -32.716  1.00  0.00     0.069 A 
HETATM    5  C   UNL     1      -3.323   2.676 -32.354  1.00  0.00     0.038 A 
HETATM    6  C   UNL     1      -3.547   1.297 -32.345  1.00  0.00     0.020 A 
ENDROOT
BRANCH   4   7
HETATM    7  O   UNL     1      -4.242   4.913 -32.772  1.00  0.00    -0.342 OA
BRANCH   7   8
HETATM    8  C   UNL     1      -4.978   5.626 -31.780  1.00  0.00     0.278 C 
BRANCH   8   9
HETATM    9  C   UNL     1      -4.084   6.041 -30.609  1.00  0.00     0.246 C 
HETATM   10  N   UNL     1      -2.820   6.434 -31.011  1.00  0.00    -0.325 N 
HETATM   11  H   UNL     1      -2.685   6.479 -32.017  1.00  0.00     0.169 HD
HETATM   12  O   UNL     1      -4.490   5.944 -29.453  1.00  0.00    -0.271 OA
BRANCH  10  13
HETATM   13  C   UNL     1      -1.721   6.785 -30.201  1.00  0.00     0.037 A 
HETATM   14  C   UNL     1      -1.657   7.956 -29.438  1.00  0.00     0.066 A 
HETATM   15  C   UNL     1      -0.536   8.230 -28.646  1.00  0.00     0.070 A 
HETATM   16  C   UNL     1       0.523   7.323 -28.618  1.00  0.00     0.037 A 
HETATM   17  C   UNL     1       0.473   6.155 -29.375  1.00  0.00     0.005 A 
HETATM   18  C   UNL     1      -0.645   5.888 -30.166  1.00  0.00     0.029 A 
BRANCH  15  19
HETATM   19  O   UNL     1      -0.359   9.337 -27.860  1.00  0.00    -0.356 OA
HETATM   20  C   UNL     1       0.851   9.406 -27.112  1.00  0.00     0.210 C 
ENDBRANCH  15  19
ENDBRANCH  10  13
ENDBRANCH   8   9
ENDBRANCH   7   8
ENDBRANCH   4   7
BRANCH   1  21
HETATM   21  C   UNL     1      -5.000  -0.689 -32.647  1.00  0.00     0.270 C 
HETATM   22  N   UNL     1      -4.066  -1.418 -33.344  1.00  0.00    -0.259 N 
HETATM   23  H   UNL     1      -3.403  -1.002 -33.979  1.00  0.00     0.191 HD
HETATM   24  O   UNL     1      -5.968  -1.147 -32.054  1.00  0.00    -0.266 OA
BRANCH  22  25
HETATM   25  N   UNL     1      -4.224  -2.748 -33.478  1.00  0.00    -0.263 N 
HETATM   26  C   UNL     1      -3.490  -3.661 -32.775  1.00  0.00     0.030 A 
HETATM   27  C   UNL     1      -2.590  -3.297 -31.652  1.00  0.00     0.070 C 
HETATM   28  C   UNL     1      -3.787  -4.901 -33.314  1.00  0.00     0.028 A 
HETATM   29  C   UNL     1      -4.695  -4.700 -34.384  1.00  0.00     0.028 A 
HETATM   30  C   UNL     1      -4.937  -3.341 -34.484  1.00  0.00     0.030 A 
HETATM   31  C   UNL     1      -5.814  -2.599 -35.424  1.00  0.00     0.070 C 
ENDBRANCH  22  25
ENDBRANCH   1  21
TORSDOF 7
ENDMDL
MODEL 9
REMARK VINA RESULT:      -7.7      3.093      5.902
REMARK  7 active torsions:
REMARK  status: ('A' for Active; 'I' for Inactive)
REMARK    1  A    between atoms: N_3  and  N_4 
REMARK       I    between atoms: N_4  and  C_5 
REMARK    2  A    between atoms: C_5  and  C_6 
REMARK    3  A    between atoms: C_9  and  O_10 
REMARK    4  A    between atoms: O_10  and  C_11 
REMARK    5  A    between atoms: C_11  and  C_12 
REMARK       I    between atoms: C_12  and  N_13 
REMARK    6  A    between atoms: N_13  and  C_14 
REMARK    7  A    between atoms: C_16  and  O_17 
ROOT
HETATM    1  C   UNL     1      -4.137   2.610 -32.158  1.00  0.00     0.033 A 
HETATM    2  C   UNL     1      -5.519   2.827 -32.201  1.00  0.00     0.020 A 
HETATM    3  C   UNL     1      -6.386   1.742 -32.369  1.00  0.00     0.038 A 
HETATM    4  C   UNL     1      -5.884   0.445 -32.511  1.00  0.00     0.069 A 
HETATM    5  C   UNL     1      -4.506   0.230 -32.442  1.00  0.00     0.038 A 
HETATM    6  C   UNL     1      -3.636   1.308 -32.261  1.00  0.00     0.020 A 
ENDROOT
BRANCH   4   7
HETATM    7  O   UNL     1      -6.828  -0.533 -32.674  1.00  0.00    -0.342 OA
BRANCH   7   8
HETATM    8  C   UNL     1      -7.612  -0.432 -33.862  1.00  0.00     0.278 C 
BRANCH   8   9
HETATM    9  C   UNL     1      -9.018   0.094 -33.561  1.00  0.00     0.246 C 
HETATM   10  N   UNL     1      -9.492   0.949 -34.541  1.00  0.00    -0.325 N 
HETATM   11  H   UNL     1      -8.892   1.041 -35.356  1.00  0.00     0.169 HD
HETATM   12  O   UNL     1      -9.580  -0.200 -32.509  1.00  0.00    -0.271 OA
BRANCH  10  13
HETATM   13  C   UNL     1     -10.695   1.683 -34.545  1.00  0.00     0.037 A 
HETATM   14  C   UNL     1     -11.961   1.106 -34.690  1.00  0.00     0.066 A 
HETATM   15  C   UNL     1     -13.113   1.899 -34.670  1.00  0.00     0.070 A 
HETATM   16  C   UNL     1     -12.993   3.279 -34.499  1.00  0.00     0.037 A 
HETATM   17  C   UNL     1     -11.739   3.867 -34.356  1.00  0.00     0.005 A 
HETATM   18  C   UNL     1     -10.593   3.071 -34.381  1.00  0.00     0.029 A 
BRANCH  15  19
HETATM   19  O   UNL     1     -14.400   1.452 -34.802  1.00  0.00    -0.356 OA
HETATM   20  C   UNL     1     -15.130   1.232 -33.599  1.00  0.00     0.210 C 
ENDBRANCH  15  19
ENDBRANCH  10  13
ENDBRANCH   8   9
ENDBRANCH   7   8
ENDBRANCH   4   7
BRANCH   1  21
HETATM   21  C   UNL     1      -3.175   3.728 -31.982  1.00  0.00     0.270 C 
HETATM   22  N   UNL     1      -3.528   4.900 -32.605  1.00  0.00    -0.259 N 
HETATM   23  H   UNL     1      -4.278   4.965 -33.276  1.00  0.00     0.191 HD
HETATM   24  O   UNL     1      -2.143   3.536 -31.350  1.00  0.00    -0.266 OA
BRANCH  22  25
HETATM   25  N   UNL     1      -2.667   5.935 -32.616  1.00  0.00    -0.263 N 
HETATM   26  C   UNL     1      -2.729   6.965 -31.718  1.00  0.00     0.030 A 
HETATM   27  C   UNL     1      -3.610   6.958 -30.524  1.00  0.00     0.070 C 
HETATM   28  C   UNL     1      -1.827   7.919 -32.156  1.00  0.00     0.028 A 
HETATM   29  C   UNL     1      -1.249   7.446 -33.361  1.00  0.00     0.028 A 
HETATM   30  C   UNL     1      -1.807   6.212 -33.643  1.00  0.00     0.030 A 
HETATM   31  C   UNL     1      -1.547   5.287 -34.774  1.00  0.00     0.070 C 
ENDBRANCH  22  25
ENDBRANCH   1  21
TORSDOF 7
ENDMDL
MODEL 10
REMARK VINA RESULT:      -7.6      4.557      7.603
REMARK  7 active torsions:
REMARK  status: ('A' for Active; 'I' for Inactive)
REMARK    1  A    between atoms: N_3  and  N_4 
REMARK       I    between atoms: N_4  and  C_5 
REMARK    2  A    between atoms: C_5  and  C_6 
REMARK    3  A    between atoms: C_9  and  O_10 
REMARK    4  A    between atoms: O_10  and  C_11 
REMARK    5  A    between atoms: C_11  and  C_12 
REMARK       I    between atoms: C_12  and  N_13 
REMARK    6  A    between atoms: N_13  and  C_14 
REMARK    7  A    between atoms: C_16  and  O_17 
ROOT
HETATM    1  C   UNL     1       0.269   7.854 -27.913  1.00  0.00     0.033 A 
HETATM    2  C   UNL     1       0.846   6.584 -27.799  1.00  0.00     0.020 A 
HETATM    3  C   UNL     1       0.573   5.610 -28.765  1.00  0.00     0.038 A 
HETATM    4  C   UNL     1      -0.282   5.888 -29.835  1.00  0.00     0.069 A 
HETATM    5  C   UNL     1      -0.835   7.164 -29.959  1.00  0.00     0.038 A 
HETATM    6  C   UNL     1      -0.556   8.145 -29.004  1.00  0.00     0.020 A 
ENDROOT
BRANCH   4   7
HETATM    7  O   UNL     1      -0.476   4.856 -30.713  1.00  0.00    -0.342 OA
BRANCH   7   8
HETATM    8  C   UNL     1      -1.119   5.208 -31.936  1.00  0.00     0.278 C 
BRANCH   8   9
HETATM    9  C   UNL     1      -2.255   4.238 -32.272  1.00  0.00     0.246 C 
HETATM   10  N   UNL     1      -2.692   3.522 -31.171  1.00  0.00    -0.325 N 
HETATM   11  H   UNL     1      -2.271   3.794 -30.288  1.00  0.00     0.169 HD
HETATM   12  O   UNL     1      -2.641   4.110 -33.431  1.00  0.00    -0.271 OA
BRANCH  10  13
HETATM   13  C   UNL     1      -3.647   2.486 -31.133  1.00  0.00     0.037 A 
HETATM   14  C   UNL     1      -3.395   1.177 -31.559  1.00  0.00     0.066 A 
HETATM   15  C   UNL     1      -4.390   0.197 -31.477  1.00  0.00     0.070 A 
HETATM   16  C   UNL     1      -5.643   0.531 -30.961  1.00  0.00     0.037 A 
HETATM   17  C   UNL     1      -5.907   1.830 -30.536  1.00  0.00     0.005 A 
HETATM   18  C   UNL     1      -4.912   2.805 -30.624  1.00  0.00     0.029 A 
BRANCH  15  19
HETATM   19  O   UNL     1      -4.264  -1.112 -31.861  1.00  0.00    -0.356 OA
HETATM   20  C   UNL     1      -4.162  -1.364 -33.259  1.00  0.00     0.210 C 
ENDBRANCH  15  19
ENDBRANCH  10  13
ENDBRANCH   8   9
ENDBRANCH   7   8
ENDBRANCH   4   7
BRANCH   1  21
HETATM   21  C   UNL     1       0.526   8.923 -26.914  1.00  0.00     0.270 C 
HETATM   22  N   UNL     1       0.632   8.488 -25.615  1.00  0.00    -0.259 N 
HETATM   23  H   UNL     1       0.382   7.556 -25.322  1.00  0.00     0.191 HD
HETATM   24  O   UNL     1       0.586  10.088 -27.285  1.00  0.00    -0.266 OA
BRANCH  22  25
HETATM   25  N   UNL     1       0.737   9.386 -24.618  1.00  0.00    -0.263 N 
HETATM   26  C   UNL     1       1.928   9.710 -24.029  1.00  0.00     0.030 A 
HETATM   27  C   UNL     1       3.245   9.267 -24.548  1.00  0.00     0.070 C 
HETATM   28  C   UNL     1       1.621  10.501 -22.935  1.00  0.00     0.028 A 
HETATM   29  C   UNL     1       0.209  10.613 -22.866  1.00  0.00     0.028 A 
HETATM   30  C   UNL     1      -0.325   9.888 -23.917  1.00  0.00     0.030 A 
HETATM   31  C   UNL     1      -1.743   9.685 -24.308  1.00  0.00     0.070 C 
ENDBRANCH  22  25
ENDBRANCH   1  21
TORSDOF 7
ENDMDL
