MODEL 1
REMARK VINA RESULT:      -8.2      0.000      0.000
REMARK  4 active torsions:
REMARK  status: ('A' for Active; 'I' for Inactive)
REMARK    1  A    between atoms: C_4  and  O_5 
REMARK    2  A    between atoms: O_5  and  C_6 
REMARK    3  A    between atoms: C_7  and  N_8 
REMARK       I    between atoms: N_8  and  C_9 
REMARK    4  A    between atoms: C_9  and  C_10 
ROOT
HETATM    1  C   UNL     1      -5.950  -0.321 -33.593  1.00  0.00     0.102 A 
HETATM    2  C   UNL     1      -6.769  -0.117 -32.462  1.00  0.00     0.069 A 
HETATM    3  C   UNL     1      -8.125   0.169 -32.645  1.00  0.00     0.032 A 
HETATM    4  C   UNL     1      -8.652   0.304 -33.931  1.00  0.00     0.002 A 
HETATM    5  C   UNL     1      -7.830   0.153 -35.044  1.00  0.00     0.003 A 
HETATM    6  C   UNL     1      -6.479  -0.157 -34.879  1.00  0.00     0.039 A 
ENDROOT
BRANCH   2   7
HETATM    7  N   UNL     1      -6.174  -0.266 -31.192  1.00  0.00    -0.320 N 
HETATM    8  C   UNL     1      -5.575   0.618 -30.342  1.00  0.00     0.257 C 
HETATM    9  O   UNL     1      -5.393   0.306 -29.164  1.00  0.00    -0.267 OA
HETATM   10  H   UNL     1      -6.202  -1.209 -30.815  1.00  0.00     0.169 HD
BRANCH   8  11
HETATM   11  C   UNL     1      -5.049   1.919 -30.844  1.00  0.00     0.048 A 
HETATM   12  C   UNL     1      -5.865   2.983 -30.941  1.00  0.00     0.108 A 
HETATM   13  N   UNL     1      -5.401   4.174 -31.450  1.00  0.00    -0.333 N 
HETATM   14  C   UNL     1      -4.124   4.363 -31.920  1.00  0.00     0.245 A 
HETATM   15  H   UNL     1      -6.014   4.980 -31.504  1.00  0.00     0.168 HD
HETATM   16  O   UNL     1      -3.727   5.435 -32.359  1.00  0.00    -0.268 OA
HETATM   17  C   UNL     1      -3.236   3.171 -31.873  1.00  0.00     0.075 A 
HETATM   18  C   UNL     1      -3.697   2.018 -31.363  1.00  0.00     0.024 A 
ENDBRANCH   8  11
ENDBRANCH   2   7
BRANCH   1  19
HETATM   19  O   UNL     1      -4.621  -0.605 -33.324  1.00  0.00    -0.309 OA
BRANCH  19  20
HETATM   20  C   UNL     1      -4.210  -1.912 -33.294  1.00  0.00     0.076 A 
HETATM   21  C   UNL     1      -3.462  -2.331 -32.194  1.00  0.00     0.037 A 
HETATM   22  C   UNL     1      -3.068  -3.665 -32.092  1.00  0.00     0.003 A 
HETATM   23  C   UNL     1      -3.437  -4.577 -33.083  1.00  0.00     0.000 A 
HETATM   24  C   UNL     1      -4.209  -4.158 -34.170  1.00  0.00     0.003 A 
HETATM   25  C   UNL     1      -4.607  -2.826 -34.271  1.00  0.00     0.037 A 
ENDBRANCH  19  20
ENDBRANCH   1  19
TORSDOF 4
ENDMDL
MODEL 2
REMARK VINA RESULT:      -8.2      1.314      1.834
REMARK  4 active torsions:
REMARK  status: ('A' for Active; 'I' for Inactive)
REMARK    1  A    between atoms: C_4  and  O_5 
REMARK    2  A    between atoms: O_5  and  C_6 
REMARK    3  A    between atoms: C_7  and  N_8 
REMARK       I    between atoms: N_8  and  C_9 
REMARK    4  A    between atoms: C_9  and  C_10 
ROOT
HETATM    1  C   UNL     1      -6.946  -0.354 -33.628  1.00  0.00     0.102 A 
HETATM    2  C   UNL     1      -6.736  -0.104 -32.256  1.00  0.00     0.069 A 
HETATM    3  C   UNL     1      -7.796   0.373 -31.480  1.00  0.00     0.032 A 
HETATM    4  C   UNL     1      -9.033   0.650 -32.066  1.00  0.00     0.002 A 
HETATM    5  C   UNL     1      -9.221   0.451 -33.431  1.00  0.00     0.003 A 
HETATM    6  C   UNL     1      -8.179  -0.048 -34.215  1.00  0.00     0.039 A 
ENDROOT
BRANCH   2   7
HETATM    7  N   UNL     1      -5.463  -0.404 -31.727  1.00  0.00    -0.320 N 
HETATM    8  C   UNL     1      -4.490   0.371 -31.164  1.00  0.00     0.257 C 
HETATM    9  O   UNL     1      -3.589  -0.158 -30.511  1.00  0.00    -0.267 OA
HETATM   10  H   UNL     1      -5.213  -1.388 -31.747  1.00  0.00     0.169 HD
BRANCH   8  11
HETATM   11  C   UNL     1      -4.450   1.840 -31.410  1.00  0.00     0.048 A 
HETATM   12  C   UNL     1      -3.721   2.334 -32.426  1.00  0.00     0.108 A 
HETATM   13  N   UNL     1      -3.637   3.692 -32.630  1.00  0.00    -0.333 N 
HETATM   14  C   UNL     1      -4.239   4.628 -31.823  1.00  0.00     0.245 A 
HETATM   15  H   UNL     1      -3.102   4.059 -33.409  1.00  0.00     0.168 HD
HETATM   16  O   UNL     1      -4.163   5.833 -32.030  1.00  0.00    -0.268 OA
HETATM   17  C   UNL     1      -4.995   4.089 -30.663  1.00  0.00     0.075 A 
HETATM   18  C   UNL     1      -5.078   2.761 -30.481  1.00  0.00     0.024 A 
ENDBRANCH   8  11
ENDBRANCH   2   7
BRANCH   1  19
HETATM   19  O   UNL     1      -5.845  -0.830 -34.323  1.00  0.00    -0.309 OA
BRANCH  19  20
HETATM   20  C   UNL     1      -5.672  -2.183 -34.453  1.00  0.00     0.076 A 
HETATM   21  C   UNL     1      -4.412  -2.706 -34.160  1.00  0.00     0.037 A 
HETATM   22  C   UNL     1      -4.202  -4.083 -34.224  1.00  0.00     0.003 A 
HETATM   23  C   UNL     1      -5.256  -4.932 -34.564  1.00  0.00     0.000 A 
HETATM   24  C   UNL     1      -6.522  -4.407 -34.832  1.00  0.00     0.003 A 
HETATM   25  C   UNL     1      -6.736  -3.031 -34.764  1.00  0.00     0.037 A 
ENDBRANCH  19  20
ENDBRANCH   1  19
TORSDOF 4
ENDMDL
MODEL 3
REMARK VINA RESULT:      -7.8      2.063      4.643
REMARK  4 active torsions:
REMARK  status: ('A' for Active; 'I' for Inactive)
REMARK    1  A    between atoms: C_4  and  O_5 
REMARK    2  A    between atoms: O_5  and  C_6 
REMARK    3  A    between atoms: C_7  and  N_8 
REMARK       I    between atoms: N_8  and  C_9 
REMARK    4  A    between atoms: C_9  and  C_10 
ROOT
HETATM    1  C   UNL     1      -6.614  -0.266 -32.555  1.00  0.00     0.102 A 
HETATM    2  C   UNL     1      -5.347   0.135 -32.082  1.00  0.00     0.069 A 
HETATM    3  C   UNL     1      -4.198  -0.355 -32.709  1.00  0.00     0.032 A 
HETATM    4  C   UNL     1      -4.301  -1.273 -33.757  1.00  0.00     0.002 A 
HETATM    5  C   UNL     1      -5.552  -1.706 -34.187  1.00  0.00     0.003 A 
HETATM    6  C   UNL     1      -6.709  -1.207 -33.587  1.00  0.00     0.039 A 
ENDROOT
BRANCH   2   7
HETATM    7  N   UNL     1      -5.312   1.063 -31.020  1.00  0.00    -0.320 N 
HETATM    8  C   UNL     1      -5.312   2.427 -30.984  1.00  0.00     0.257 C 
HETATM    9  O   UNL     1      -5.573   3.012 -29.932  1.00  0.00    -0.267 OA
HETATM   10  H   UNL     1      -5.300   0.650 -30.092  1.00  0.00     0.169 HD
BRANCH   8  11
HETATM   11  C   UNL     1      -4.905   3.219 -32.179  1.00  0.00     0.048 A 
HETATM   12  C   UNL     1      -3.628   3.612 -32.325  1.00  0.00     0.108 A 
HETATM   13  N   UNL     1      -3.253   4.386 -33.399  1.00  0.00    -0.333 N 
HETATM   14  C   UNL     1      -4.124   4.838 -34.361  1.00  0.00     0.245 A 
HETATM   15  H   UNL     1      -2.285   4.664 -33.516  1.00  0.00     0.168 HD
HETATM   16  O   UNL     1      -3.768   5.516 -35.317  1.00  0.00    -0.268 OA
HETATM   17  C   UNL     1      -5.549   4.458 -34.171  1.00  0.00     0.075 A 
HETATM   18  C   UNL     1      -5.900   3.693 -33.124  1.00  0.00     0.024 A 
ENDBRANCH   8  11
ENDBRANCH   2   7
BRANCH   1  19
HETATM   19  O   UNL     1      -7.699   0.270 -31.882  1.00  0.00    -0.309 OA
BRANCH  19  20
HETATM   20  C   UNL     1      -8.793   0.682 -32.598  1.00  0.00     0.076 A 
HETATM   21  C   UNL     1      -8.644   1.797 -33.423  1.00  0.00     0.037 A 
HETATM   22  C   UNL     1      -9.712   2.221 -34.213  1.00  0.00     0.003 A 
HETATM   23  C   UNL     1     -10.918   1.518 -34.186  1.00  0.00     0.000 A 
HETATM   24  C   UNL     1     -11.054   0.387 -33.378  1.00  0.00     0.003 A 
HETATM   25  C   UNL     1      -9.986  -0.041 -32.591  1.00  0.00     0.037 A 
ENDBRANCH  19  20
ENDBRANCH   1  19
TORSDOF 4
ENDMDL
MODEL 4
REMARK VINA RESULT:      -7.8      2.712      4.726
REMARK  4 active torsions:
REMARK  status: ('A' for Active; 'I' for Inactive)
REMARK    1  A    between atoms: C_4  and  O_5 
REMARK    2  A    between atoms: O_5  and  C_6 
REMARK    3  A    between atoms: C_7  and  N_8 
REMARK       I    between atoms: N_8  and  C_9 
REMARK    4  A    between atoms: C_9  and  C_10 
ROOT
HETATM    1  C   UNL     1      -5.623   0.785 -32.171  1.00  0.00     0.102 A 
HETATM    2  C   UNL     1      -5.932   2.130 -31.879  1.00  0.00     0.069 A 
HETATM    3  C   UNL     1      -6.152   2.507 -30.551  1.00  0.00     0.032 A 
HETATM    4  C   UNL     1      -6.121   1.552 -29.531  1.00  0.00     0.002 A 
HETATM    5  C   UNL     1      -5.867   0.217 -29.830  1.00  0.00     0.003 A 
HETATM    6  C   UNL     1      -5.620  -0.170 -31.148  1.00  0.00     0.039 A 
ENDROOT
BRANCH   2   7
HETATM    7  N   UNL     1      -5.950   3.043 -32.954  1.00  0.00    -0.320 N 
HETATM    8  C   UNL     1      -6.965   3.649 -33.636  1.00  0.00     0.257 C 
HETATM    9  O   UNL     1      -6.727   4.629 -34.343  1.00  0.00    -0.267 OA
HETATM   10  H   UNL     1      -5.034   3.325 -33.290  1.00  0.00     0.169 HD
BRANCH   8  11
HETATM   11  C   UNL     1      -8.343   3.082 -33.611  1.00  0.00     0.048 A 
HETATM   12  C   UNL     1      -9.296   3.655 -32.856  1.00  0.00     0.108 A 
HETATM   13  N   UNL     1     -10.557   3.109 -32.788  1.00  0.00    -0.333 N 
HETATM   14  C   UNL     1     -10.928   1.954 -33.432  1.00  0.00     0.245 A 
HETATM   15  H   UNL     1     -11.278   3.556 -32.233  1.00  0.00     0.168 HD
HETATM   16  O   UNL     1     -12.060   1.490 -33.369  1.00  0.00    -0.268 OA
HETATM   17  C   UNL     1      -9.861   1.282 -34.219  1.00  0.00     0.075 A 
HETATM   18  C   UNL     1      -8.638   1.831 -34.286  1.00  0.00     0.024 A 
ENDBRANCH   8  11
ENDBRANCH   2   7
BRANCH   1  19
HETATM   19  O   UNL     1      -5.414   0.498 -33.510  1.00  0.00    -0.309 OA
BRANCH  19  20
HETATM   20  C   UNL     1      -5.533  -0.797 -33.943  1.00  0.00     0.076 A 
HETATM   21  C   UNL     1      -4.383  -1.586 -33.950  1.00  0.00     0.037 A 
HETATM   22  C   UNL     1      -4.466  -2.925 -34.329  1.00  0.00     0.003 A 
HETATM   23  C   UNL     1      -5.699  -3.473 -34.683  1.00  0.00     0.000 A 
HETATM   24  C   UNL     1      -6.853  -2.686 -34.649  1.00  0.00     0.003 A 
HETATM   25  C   UNL     1      -6.774  -1.348 -34.266  1.00  0.00     0.037 A 
ENDBRANCH  19  20
ENDBRANCH   1  19
TORSDOF 4
ENDMDL
MODEL 5
REMARK VINA RESULT:      -7.8      2.551      5.329
REMARK  4 active torsions:
REMARK  status: ('A' for Active; 'I' for Inactive)
REMARK    1  A    between atoms: C_4  and  O_5 
REMARK    2  A    between atoms: O_5  and  C_6 
REMARK    3  A    between atoms: C_7  and  N_8 
REMARK       I    between atoms: N_8  and  C_9 
REMARK    4  A    between atoms: C_9  and  C_10 
ROOT
HETATM    1  C   UNL     1      -8.231   0.954 -33.836  1.00  0.00     0.102 A 
HETATM    2  C   UNL     1      -7.544   0.581 -32.662  1.00  0.00     0.069 A 
HETATM    3  C   UNL     1      -6.620  -0.467 -32.717  1.00  0.00     0.032 A 
HETATM    4  C   UNL     1      -6.420  -1.172 -33.907  1.00  0.00     0.002 A 
HETATM    5  C   UNL     1      -7.139  -0.834 -35.050  1.00  0.00     0.003 A 
HETATM    6  C   UNL     1      -8.046   0.226 -35.017  1.00  0.00     0.039 A 
ENDROOT
BRANCH   2   7
HETATM    7  N   UNL     1      -7.793   1.332 -31.495  1.00  0.00    -0.320 N 
HETATM    8  C   UNL     1      -7.199   2.442 -30.966  1.00  0.00     0.257 C 
HETATM    9  O   UNL     1      -7.779   3.086 -30.090  1.00  0.00    -0.267 OA
HETATM   10  H   UNL     1      -8.574   1.005 -30.934  1.00  0.00     0.169 HD
BRANCH   8  11
HETATM   11  C   UNL     1      -5.817   2.829 -31.365  1.00  0.00     0.048 A 
HETATM   12  C   UNL     1      -4.765   2.431 -30.629  1.00  0.00     0.108 A 
HETATM   13  N   UNL     1      -3.490   2.825 -30.962  1.00  0.00    -0.333 N 
HETATM   14  C   UNL     1      -3.194   3.658 -32.014  1.00  0.00     0.245 A 
HETATM   15  H   UNL     1      -2.698   2.506 -30.415  1.00  0.00     0.168 HD
HETATM   16  O   UNL     1      -2.049   3.987 -32.301  1.00  0.00    -0.268 OA
HETATM   17  C   UNL     1      -4.359   4.151 -32.794  1.00  0.00     0.075 A 
HETATM   18  C   UNL     1      -5.598   3.750 -32.466  1.00  0.00     0.024 A 
ENDBRANCH   8  11
ENDBRANCH   2   7
BRANCH   1  19
HETATM   19  O   UNL     1      -9.124   2.005 -33.696  1.00  0.00    -0.309 OA
BRANCH  19  20
HETATM   20  C   UNL     1     -10.432   1.824 -34.064  1.00  0.00     0.076 A 
HETATM   21  C   UNL     1     -11.138   0.787 -33.456  1.00  0.00     0.037 A 
HETATM   22  C   UNL     1     -12.487   0.599 -33.756  1.00  0.00     0.003 A 
HETATM   23  C   UNL     1     -13.126   1.459 -34.651  1.00  0.00     0.000 A 
HETATM   24  C   UNL     1     -12.422   2.512 -35.238  1.00  0.00     0.003 A 
HETATM   25  C   UNL     1     -11.074   2.705 -34.935  1.00  0.00     0.037 A 
ENDBRANCH  19  20
ENDBRANCH   1  19
TORSDOF 4
ENDMDL
MODEL 6
REMARK VINA RESULT:      -7.8      2.126      3.575
REMARK  4 active torsions:
REMARK  status: ('A' for Active; 'I' for Inactive)
REMARK    1  A    between atoms: C_4  and  O_5 
REMARK    2  A    between atoms: O_5  and  C_6 
REMARK    3  A    between atoms: C_7  and  N_8 
REMARK       I    between atoms: N_8  and  C_9 
REMARK    4  A    between atoms: C_9  and  C_10 
ROOT
HETATM    1  C   UNL     1      -5.769   0.854 -32.268  1.00  0.00     0.102 A 
HETATM    2  C   UNL     1      -6.064   2.217 -32.053  1.00  0.00     0.069 A 
HETATM    3  C   UNL     1      -6.246   2.677 -30.745  1.00  0.00     0.032 A 
HETATM    4  C   UNL     1      -6.192   1.788 -29.669  1.00  0.00     0.002 A 
HETATM    5  C   UNL     1      -5.953   0.434 -29.891  1.00  0.00     0.003 A 
HETATM    6  C   UNL     1      -5.744  -0.036 -31.188  1.00  0.00     0.039 A 
ENDROOT
BRANCH   2   7
HETATM    7  N   UNL     1      -6.105   3.061 -33.182  1.00  0.00    -0.320 N 
HETATM    8  C   UNL     1      -5.227   3.979 -33.683  1.00  0.00     0.257 C 
HETATM    9  O   UNL     1      -5.355   4.378 -34.841  1.00  0.00    -0.267 OA
HETATM   10  H   UNL     1      -6.939   2.969 -33.754  1.00  0.00     0.169 HD
BRANCH   8  11
HETATM   11  C   UNL     1      -4.173   4.576 -32.815  1.00  0.00     0.048 A 
HETATM   12  C   UNL     1      -4.404   5.735 -32.174  1.00  0.00     0.108 A 
HETATM   13  N   UNL     1      -3.419   6.319 -31.411  1.00  0.00    -0.333 N 
HETATM   14  C   UNL     1      -2.151   5.808 -31.272  1.00  0.00     0.245 A 
HETATM   15  H   UNL     1      -3.603   7.183 -30.914  1.00  0.00     0.168 HD
HETATM   16  O   UNL     1      -1.292   6.337 -30.577  1.00  0.00    -0.268 OA
HETATM   17  C   UNL     1      -1.872   4.559 -32.029  1.00  0.00     0.075 A 
HETATM   18  C   UNL     1      -2.845   3.993 -32.761  1.00  0.00     0.024 A 
ENDBRANCH   8  11
ENDBRANCH   2   7
BRANCH   1  19
HETATM   19  O   UNL     1      -5.597   0.483 -33.592  1.00  0.00    -0.309 OA
BRANCH  19  20
HETATM   20  C   UNL     1      -5.591  -0.848 -33.918  1.00  0.00     0.076 A 
HETATM   21  C   UNL     1      -6.800  -1.425 -34.308  1.00  0.00     0.037 A 
HETATM   22  C   UNL     1      -6.833  -2.762 -34.702  1.00  0.00     0.003 A 
HETATM   23  C   UNL     1      -5.656  -3.511 -34.719  1.00  0.00     0.000 A 
HETATM   24  C   UNL     1      -4.443  -2.923 -34.353  1.00  0.00     0.003 A 
HETATM   25  C   UNL     1      -4.407  -1.584 -33.963  1.00  0.00     0.037 A 
ENDBRANCH  19  20
ENDBRANCH   1  19
TORSDOF 4
ENDMDL
MODEL 7
REMARK VINA RESULT:      -7.7      2.991      7.124
REMARK  4 active torsions:
REMARK  status: ('A' for Active; 'I' for Inactive)
REMARK    1  A    between atoms: C_4  and  O_5 
REMARK    2  A    between atoms: O_5  and  C_6 
REMARK    3  A    between atoms: C_7  and  N_8 
REMARK       I    between atoms: N_8  and  C_9 
REMARK    4  A    between atoms: C_9  and  C_10 
ROOT
HETATM    1  C   UNL     1      -2.327   4.619 -32.681  1.00  0.00     0.102 A 
HETATM    2  C   UNL     1      -3.731   4.549 -32.805  1.00  0.00     0.069 A 
HETATM    3  C   UNL     1      -4.322   4.823 -34.042  1.00  0.00     0.032 A 
HETATM    4  C   UNL     1      -3.537   5.214 -35.129  1.00  0.00     0.002 A 
HETATM    5  C   UNL     1      -2.157   5.333 -34.989  1.00  0.00     0.003 A 
HETATM    6  C   UNL     1      -1.550   5.039 -33.767  1.00  0.00     0.039 A 
ENDROOT
BRANCH   2   7
HETATM    7  N   UNL     1      -4.465   4.149 -31.669  1.00  0.00    -0.320 N 
HETATM    8  C   UNL     1      -4.724   2.926 -31.119  1.00  0.00     0.257 C 
HETATM    9  O   UNL     1      -5.144   2.852 -29.963  1.00  0.00    -0.267 OA
HETATM   10  H   UNL     1      -4.876   4.909 -31.135  1.00  0.00     0.169 HD
BRANCH   8  11
HETATM   11  C   UNL     1      -4.598   1.684 -31.933  1.00  0.00     0.048 A 
HETATM   12  C   UNL     1      -5.644   1.238 -32.649  1.00  0.00     0.108 A 
HETATM   13  N   UNL     1      -5.553   0.066 -33.364  1.00  0.00    -0.333 N 
HETATM   14  C   UNL     1      -4.439  -0.740 -33.378  1.00  0.00     0.245 A 
HETATM   15  H   UNL     1      -6.338  -0.257 -33.918  1.00  0.00     0.168 HD
HETATM   16  O   UNL     1      -4.373  -1.774 -34.030  1.00  0.00    -0.268 OA
HETATM   17  C   UNL     1      -3.302  -0.283 -32.537  1.00  0.00     0.075 A 
HETATM   18  C   UNL     1      -3.399   0.869 -31.854  1.00  0.00     0.024 A 
ENDBRANCH   8  11
ENDBRANCH   2   7
BRANCH   1  19
HETATM   19  O   UNL     1      -1.823   4.327 -31.424  1.00  0.00    -0.309 OA
BRANCH  19  20
HETATM   20  C   UNL     1      -1.200   5.316 -30.708  1.00  0.00     0.076 A 
HETATM   21  C   UNL     1       0.047   5.028 -30.155  1.00  0.00     0.037 A 
HETATM   22  C   UNL     1       0.744   6.019 -29.466  1.00  0.00     0.003 A 
HETATM   23  C   UNL     1       0.198   7.298 -29.345  1.00  0.00     0.000 A 
HETATM   24  C   UNL     1      -1.040   7.590 -29.923  1.00  0.00     0.003 A 
HETATM   25  C   UNL     1      -1.737   6.601 -30.617  1.00  0.00     0.037 A 
ENDBRANCH  19  20
ENDBRANCH   1  19
TORSDOF 4
ENDMDL
MODEL 8
REMARK VINA RESULT:      -7.6      2.208      4.821
REMARK  4 active torsions:
REMARK  status: ('A' for Active; 'I' for Inactive)
REMARK    1  A    between atoms: C_4  and  O_5 
REMARK    2  A    between atoms: O_5  and  C_6 
REMARK    3  A    between atoms: C_7  and  N_8 
REMARK       I    between atoms: N_8  and  C_9 
REMARK    4  A    between atoms: C_9  and  C_10 
ROOT
HETATM    1  C   UNL     1      -5.204   1.027 -32.677  1.00  0.00     0.102 A 
HETATM    2  C   UNL     1      -4.351   1.376 -31.609  1.00  0.00     0.069 A 
HETATM    3  C   UNL     1      -3.266   0.549 -31.304  1.00  0.00     0.032 A 
HETATM    4  C   UNL     1      -3.060  -0.637 -32.013  1.00  0.00     0.002 A 
HETATM    5  C   UNL     1      -3.935  -1.004 -33.032  1.00  0.00     0.003 A 
HETATM    6  C   UNL     1      -5.008  -0.176 -33.364  1.00  0.00     0.039 A 
ENDROOT
BRANCH   2   7
HETATM    7  N   UNL     1      -4.615   2.586 -30.933  1.00  0.00    -0.320 N 
HETATM    8  C   UNL     1      -4.463   3.895 -31.288  1.00  0.00     0.257 C 
HETATM    9  O   UNL     1      -5.035   4.774 -30.642  1.00  0.00    -0.267 OA
HETATM   10  H   UNL     1      -5.010   2.479 -30.003  1.00  0.00     0.169 HD
BRANCH   8  11
HETATM   11  C   UNL     1      -3.535   4.282 -32.387  1.00  0.00     0.048 A 
HETATM   12  C   UNL     1      -2.220   4.420 -32.144  1.00  0.00     0.108 A 
HETATM   13  N   UNL     1      -1.363   4.826 -33.141  1.00  0.00    -0.333 N 
HETATM   14  C   UNL     1      -1.766   5.148 -34.415  1.00  0.00     0.245 A 
HETATM   15  H   UNL     1      -0.369   4.910 -32.958  1.00  0.00     0.168 HD
HETATM   16  O   UNL     1      -0.985   5.496 -35.292  1.00  0.00    -0.268 OA
HETATM   17  C   UNL     1      -3.227   5.058 -34.672  1.00  0.00     0.075 A 
HETATM   18  C   UNL     1      -4.051   4.650 -33.694  1.00  0.00     0.024 A 
ENDBRANCH   8  11
ENDBRANCH   2   7
BRANCH   1  19
HETATM   19  O   UNL     1      -6.250   1.904 -32.915  1.00  0.00    -0.309 OA
BRANCH  19  20
HETATM   20  C   UNL     1      -7.533   1.421 -32.945  1.00  0.00     0.076 A 
HETATM   21  C   UNL     1      -8.231   1.513 -34.149  1.00  0.00     0.037 A 
HETATM   22  C   UNL     1      -9.519   0.985 -34.244  1.00  0.00     0.003 A 
HETATM   23  C   UNL     1     -10.095   0.354 -33.140  1.00  0.00     0.000 A 
HETATM   24  C   UNL     1      -9.381   0.241 -31.944  1.00  0.00     0.003 A 
HETATM   25  C   UNL     1      -8.092   0.764 -31.849  1.00  0.00     0.037 A 
ENDBRANCH  19  20
ENDBRANCH   1  19
TORSDOF 4
ENDMDL
MODEL 9
REMARK VINA RESULT:      -7.5      2.310      3.570
REMARK  4 active torsions:
REMARK  status: ('A' for Active; 'I' for Inactive)
REMARK    1  A    between atoms: C_4  and  O_5 
REMARK    2  A    between atoms: O_5  and  C_6 
REMARK    3  A    between atoms: C_7  and  N_8 
REMARK       I    between atoms: N_8  and  C_9 
REMARK    4  A    between atoms: C_9  and  C_10 
ROOT
HETATM    1  C   UNL     1      -5.354  -0.365 -32.801  1.00  0.00     0.102 A 
HETATM    2  C   UNL     1      -6.514   0.132 -32.171  1.00  0.00     0.069 A 
HETATM    3  C   UNL     1      -6.429   0.607 -30.860  1.00  0.00     0.032 A 
HETATM    4  C   UNL     1      -5.221   0.541 -30.161  1.00  0.00     0.002 A 
HETATM    5  C   UNL     1      -4.090   0.001 -30.768  1.00  0.00     0.003 A 
HETATM    6  C   UNL     1      -4.154  -0.454 -32.086  1.00  0.00     0.039 A 
ENDROOT
BRANCH   2   7
HETATM    7  N   UNL     1      -7.702   0.170 -32.932  1.00  0.00    -0.320 N 
HETATM    8  C   UNL     1      -8.293   1.151 -33.675  1.00  0.00     0.257 C 
HETATM    9  O   UNL     1      -9.174   0.859 -34.484  1.00  0.00    -0.267 OA
HETATM   10  H   UNL     1      -8.224  -0.701 -32.954  1.00  0.00     0.169 HD
BRANCH   8  11
HETATM   11  C   UNL     1      -7.953   2.585 -33.449  1.00  0.00     0.048 A 
HETATM   12  C   UNL     1      -6.891   3.132 -34.066  1.00  0.00     0.108 A 
HETATM   13  N   UNL     1      -6.540   4.440 -33.826  1.00  0.00    -0.333 N 
HETATM   14  C   UNL     1      -7.197   5.260 -32.940  1.00  0.00     0.245 A 
HETATM   15  H   UNL     1      -5.750   4.854 -34.308  1.00  0.00     0.168 HD
HETATM   16  O   UNL     1      -6.876   6.427 -32.749  1.00  0.00    -0.268 OA
HETATM   17  C   UNL     1      -8.333   4.641 -32.208  1.00  0.00     0.075 A 
HETATM   18  C   UNL     1      -8.673   3.367 -32.461  1.00  0.00     0.024 A 
ENDBRANCH   8  11
ENDBRANCH   2   7
BRANCH   1  19
HETATM   19  O   UNL     1      -5.525  -0.811 -34.102  1.00  0.00    -0.309 OA
BRANCH  19  20
HETATM   20  C   UNL     1      -5.547  -2.159 -34.349  1.00  0.00     0.076 A 
HETATM   21  C   UNL     1      -4.366  -2.873 -34.151  1.00  0.00     0.037 A 
HETATM   22  C   UNL     1      -4.354  -4.255 -34.336  1.00  0.00     0.003 A 
HETATM   23  C   UNL     1      -5.527  -4.918 -34.702  1.00  0.00     0.000 A 
HETATM   24  C   UNL     1      -6.714  -4.202 -34.874  1.00  0.00     0.003 A 
HETATM   25  C   UNL     1      -6.729  -2.820 -34.685  1.00  0.00     0.037 A 
ENDBRANCH  19  20
ENDBRANCH   1  19
TORSDOF 4
ENDMDL
MODEL 10
REMARK VINA RESULT:      -7.5     14.783     17.137
REMARK  4 active torsions:
REMARK  status: ('A' for Active; 'I' for Inactive)
REMARK    1  A    between atoms: C_4  and  O_5 
REMARK    2  A    between atoms: O_5  and  C_6 
REMARK    3  A    between atoms: C_7  and  N_8 
REMARK       I    between atoms: N_8  and  C_9 
REMARK    4  A    between atoms: C_9  and  C_10 
ROOT
HETATM    1  C   UNL     1      -5.615 -13.793 -38.931  1.00  0.00     0.102 A 
HETATM    2  C   UNL     1      -4.458 -13.166 -39.439  1.00  0.00     0.069 A 
HETATM    3  C   UNL     1      -3.526 -12.629 -38.548  1.00  0.00     0.032 A 
HETATM    4  C   UNL     1      -3.763 -12.663 -37.171  1.00  0.00     0.002 A 
HETATM    5  C   UNL     1      -4.931 -13.237 -36.676  1.00  0.00     0.003 A 
HETATM    6  C   UNL     1      -5.860 -13.800 -37.553  1.00  0.00     0.039 A 
ENDROOT
BRANCH   2   7
HETATM    7  N   UNL     1      -4.280 -13.165 -40.839  1.00  0.00    -0.320 N 
HETATM    8  C   UNL     1      -3.508 -13.920 -41.673  1.00  0.00     0.257 C 
HETATM    9  O   UNL     1      -3.741 -13.928 -42.882  1.00  0.00    -0.267 OA
HETATM   10  H   UNL     1      -4.841 -12.483 -41.340  1.00  0.00     0.169 HD
BRANCH   8  11
HETATM   11  C   UNL     1      -2.324 -14.660 -41.152  1.00  0.00     0.048 A 
HETATM   12  C   UNL     1      -2.425 -15.965 -40.846  1.00  0.00     0.108 A 
HETATM   13  N   UNL     1      -1.351 -16.644 -40.317  1.00  0.00    -0.333 N 
HETATM   14  C   UNL     1      -0.140 -16.061 -40.031  1.00  0.00     0.245 A 
HETATM   15  H   UNL     1      -1.426 -17.633 -40.106  1.00  0.00     0.168 HD
HETATM   16  O   UNL     1       0.808 -16.687 -39.572  1.00  0.00    -0.268 OA
HETATM   17  C   UNL     1      -0.043 -14.605 -40.309  1.00  0.00     0.075 A 
HETATM   18  C   UNL     1      -1.094 -13.956 -40.836  1.00  0.00     0.024 A 
ENDBRANCH   8  11
ENDBRANCH   2   7
BRANCH   1  19
HETATM   19  O   UNL     1      -6.484 -14.305 -39.882  1.00  0.00    -0.309 OA
BRANCH  19  20
HETATM   20  C   UNL     1      -7.769 -13.831 -39.937  1.00  0.00     0.076 A 
HETATM   21  C   UNL     1      -8.797 -14.707 -39.589  1.00  0.00     0.037 A 
HETATM   22  C   UNL     1     -10.116 -14.255 -39.575  1.00  0.00     0.003 A 
HETATM   23  C   UNL     1     -10.399 -12.926 -39.894  1.00  0.00     0.000 A 
HETATM   24  C   UNL     1      -9.363 -12.045 -40.217  1.00  0.00     0.003 A 
HETATM   25  C   UNL     1      -8.043 -12.494 -40.226  1.00  0.00     0.037 A 
ENDBRANCH  19  20
ENDBRANCH   1  19
TORSDOF 4
ENDMDL
