MODEL 1
REMARK VINA RESULT:      -8.5      0.000      0.000
REMARK  7 active torsions:
REMARK  status: ('A' for Active; 'I' for Inactive)
REMARK    1  A    between atoms: O_2  and  C_3 
REMARK    2  A    between atoms: C_6  and  C_7 
REMARK    3  A    between atoms: C_7  and  C_8 
REMARK    4  A    between atoms: C_8  and  C_9 
REMARK    5  A    between atoms: C_9  and  O_10 
REMARK    6  A    between atoms: N_13  and  C_14 
REMARK    7  A    between atoms: C_14  and  N_15 
ROOT
HETATM    1  C   UNL     1      -8.688   1.990 -31.830  1.00  0.00     0.175 C 
HETATM    2  C   UNL     1      -9.698   1.988 -33.032  1.00  0.00     0.265 C 
HETATM    3  O   UNL     1      -9.702   1.333 -34.065  1.00  0.00    -0.269 OA
HETATM    4  N   UNL     1     -10.698   2.928 -32.749  1.00  0.00    -0.289 N 
HETATM    5  C   UNL     1     -10.247   3.804 -31.751  1.00  0.00     0.049 A 
HETATM    6  C   UNL     1      -9.034   3.336 -31.222  1.00  0.00     0.014 A 
HETATM    7  C   UNL     1     -10.816   4.991 -31.322  1.00  0.00     0.032 A 
HETATM    8  C   UNL     1     -10.142   5.718 -30.335  1.00  0.00     0.021 A 
HETATM    9  C   UNL     1      -8.930   5.250 -29.802  1.00  0.00     0.011 A 
HETATM   10 BR   UNL     1      -8.051   6.261 -28.468  1.00  0.00    -0.051 Br
HETATM   11  C   UNL     1      -8.367   4.049 -30.236  1.00  0.00     0.032 A 
ENDROOT
BRANCH   1  12
HETATM   12  C   UNL     1      -7.240   1.830 -32.295  1.00  0.00     0.137 C 
BRANCH  12  13
HETATM   13  C   UNL     1      -6.588   0.572 -31.733  1.00  0.00     0.163 C 
HETATM   14  O   UNL     1      -6.380   0.412 -30.533  1.00  0.00    -0.292 OA
BRANCH  13  15
HETATM   15  C   UNL     1      -6.202  -0.526 -32.672  1.00  0.00     0.010 A 
HETATM   16  C   UNL     1      -4.903  -1.041 -32.748  1.00  0.00     0.018 A 
HETATM   17  C   UNL     1      -4.602  -2.073 -33.650  1.00  0.00     0.037 A 
HETATM   18  C   UNL     1      -5.593  -2.594 -34.482  1.00  0.00     0.068 A 
HETATM   19  C   UNL     1      -6.886  -2.077 -34.410  1.00  0.00     0.037 A 
HETATM   20  C   UNL     1      -7.191  -1.052 -33.512  1.00  0.00     0.018 A 
BRANCH  18  21
HETATM   21  O   UNL     1      -5.433  -3.594 -35.400  1.00  0.00    -0.356 OA
HETATM   22  C   UNL     1      -6.445  -4.591 -35.462  1.00  0.00     0.210 C 
ENDBRANCH  18  21
ENDBRANCH  13  15
ENDBRANCH  12  13
ENDBRANCH   1  12
BRANCH   1  23
HETATM   23  O   UNL     1      -8.997   1.024 -30.831  1.00  0.00    -0.375 OA
HETATM   24  H   UNL     1      -8.486   0.212 -30.976  1.00  0.00     0.211 HD
ENDBRANCH   1  23
BRANCH   4  25
HETATM   25  C   UNL     1     -11.748   3.237 -33.678  1.00  0.00     0.367 C 
BRANCH  25  26
HETATM   26  N   UNL     1     -13.012   2.510 -33.330  1.00  0.00    -0.055 N 
HETATM   27  H   UNL     1     -12.683   1.750 -32.700  1.00  0.00     0.281 HD
HETATM   28  C   UNL     1     -13.990   3.314 -32.517  1.00  0.00     0.237 C 
HETATM   29  C   UNL     1     -15.094   2.391 -32.018  1.00  0.00     0.028 C 
HETATM   30  C   UNL     1     -15.778   1.655 -33.166  1.00  0.00     0.003 C 
HETATM   31  C   UNL     1     -14.765   0.927 -34.042  1.00  0.00     0.028 C 
HETATM   32  C   UNL     1     -13.653   1.852 -34.516  1.00  0.00     0.237 C 
ENDBRANCH  25  26
ENDBRANCH   4  25
TORSDOF 7
ENDMDL
MODEL 2
REMARK VINA RESULT:      -8.4      3.300      4.802
REMARK  7 active torsions:
REMARK  status: ('A' for Active; 'I' for Inactive)
REMARK    1  A    between atoms: O_2  and  C_3 
REMARK    2  A    between atoms: C_6  and  C_7 
REMARK    3  A    between atoms: C_7  and  C_8 
REMARK    4  A    between atoms: C_8  and  C_9 
REMARK    5  A    between atoms: C_9  and  O_10 
REMARK    6  A    between atoms: N_13  and  C_14 
REMARK    7  A    between atoms: C_14  and  N_15 
ROOT
HETATM    1  C   UNL     1      -3.808   1.518 -31.913  1.00  0.00     0.175 C 
HETATM    2  C   UNL     1      -5.294   1.215 -31.510  1.00  0.00     0.265 C 
HETATM    3  O   UNL     1      -5.877   0.149 -31.364  1.00  0.00    -0.269 OA
HETATM    4  N   UNL     1      -5.943   2.443 -31.320  1.00  0.00    -0.289 N 
HETATM    5  C   UNL     1      -5.205   3.462 -31.938  1.00  0.00     0.049 A 
HETATM    6  C   UNL     1      -3.966   2.957 -32.366  1.00  0.00     0.014 A 
HETATM    7  C   UNL     1      -5.575   4.774 -32.176  1.00  0.00     0.032 A 
HETATM    8  C   UNL     1      -4.670   5.593 -32.862  1.00  0.00     0.021 A 
HETATM    9  C   UNL     1      -3.430   5.091 -33.288  1.00  0.00     0.011 A 
HETATM   10 BR   UNL     1      -2.235   6.230 -34.209  1.00  0.00    -0.051 Br
HETATM   11  C   UNL     1      -3.062   3.768 -33.037  1.00  0.00     0.032 A 
ENDROOT
BRANCH   1  12
HETATM   12  C   UNL     1      -3.290   0.547 -32.975  1.00  0.00     0.137 C 
BRANCH  12  13
HETATM   13  C   UNL     1      -2.973  -0.827 -32.396  1.00  0.00     0.163 C 
HETATM   14  O   UNL     1      -2.229  -0.984 -31.431  1.00  0.00    -0.292 OA
BRANCH  13  15
HETATM   15  C   UNL     1      -3.604  -2.036 -33.009  1.00  0.00     0.010 A 
HETATM   16  C   UNL     1      -3.210  -3.342 -32.696  1.00  0.00     0.018 A 
HETATM   17  C   UNL     1      -3.842  -4.437 -33.305  1.00  0.00     0.037 A 
HETATM   18  C   UNL     1      -4.868  -4.236 -34.230  1.00  0.00     0.068 A 
HETATM   19  C   UNL     1      -5.255  -2.934 -34.546  1.00  0.00     0.037 A 
HETATM   20  C   UNL     1      -4.632  -1.841 -33.941  1.00  0.00     0.018 A 
BRANCH  18  21
HETATM   21  O   UNL     1      -5.560  -5.210 -34.892  1.00  0.00    -0.356 OA
HETATM   22  C   UNL     1      -6.661  -4.798 -35.692  1.00  0.00     0.210 C 
ENDBRANCH  18  21
ENDBRANCH  13  15
ENDBRANCH  12  13
ENDBRANCH   1  12
BRANCH   1  23
HETATM   23  O   UNL     1      -2.919   1.558 -30.802  1.00  0.00    -0.375 OA
HETATM   24  H   UNL     1      -2.475   0.701 -30.693  1.00  0.00     0.211 HD
ENDBRANCH   1  23
BRANCH   4  25
HETATM   25  C   UNL     1      -7.343   2.535 -31.015  1.00  0.00     0.367 C 
BRANCH  25  26
HETATM   26  N   UNL     1      -8.177   1.939 -32.109  1.00  0.00    -0.055 N 
HETATM   27  H   UNL     1      -7.479   1.429 -32.689  1.00  0.00     0.281 HD
HETATM   28  C   UNL     1      -9.157   0.894 -31.646  1.00  0.00     0.237 C 
HETATM   29  C   UNL     1      -9.745   0.194 -32.864  1.00  0.00     0.028 C 
HETATM   30  C   UNL     1     -10.384   1.185 -33.832  1.00  0.00     0.003 C 
HETATM   31  C   UNL     1      -9.412   2.296 -34.214  1.00  0.00     0.028 C 
HETATM   32  C   UNL     1      -8.812   2.973 -32.990  1.00  0.00     0.237 C 
ENDBRANCH  25  26
ENDBRANCH   4  25
TORSDOF 7
ENDMDL
MODEL 3
REMARK VINA RESULT:      -8.4      4.297      8.386
REMARK  7 active torsions:
REMARK  status: ('A' for Active; 'I' for Inactive)
REMARK    1  A    between atoms: O_2  and  C_3 
REMARK    2  A    between atoms: C_6  and  C_7 
REMARK    3  A    between atoms: C_7  and  C_8 
REMARK    4  A    between atoms: C_8  and  C_9 
REMARK    5  A    between atoms: C_9  and  O_10 
REMARK    6  A    between atoms: N_13  and  C_14 
REMARK    7  A    between atoms: C_14  and  N_15 
ROOT
HETATM    1  C   UNL     1      -6.794   2.327 -32.668  1.00  0.00     0.175 C 
HETATM    2  C   UNL     1      -5.751   3.417 -32.235  1.00  0.00     0.265 C 
HETATM    3  O   UNL     1      -5.856   4.634 -32.164  1.00  0.00    -0.269 OA
HETATM    4  N   UNL     1      -4.559   2.758 -31.905  1.00  0.00    -0.289 N 
HETATM    5  C   UNL     1      -4.570   1.469 -32.457  1.00  0.00     0.049 A 
HETATM    6  C   UNL     1      -5.842   1.187 -32.979  1.00  0.00     0.014 A 
HETATM    7  C   UNL     1      -3.528   0.563 -32.557  1.00  0.00     0.032 A 
HETATM    8  C   UNL     1      -3.781  -0.654 -33.200  1.00  0.00     0.021 A 
HETATM    9  C   UNL     1      -5.054  -0.938 -33.721  1.00  0.00     0.011 A 
HETATM   10 BR   UNL     1      -5.357  -2.595 -34.580  1.00  0.00    -0.051 Br
HETATM   11  C   UNL     1      -6.102  -0.022 -33.609  1.00  0.00     0.032 A 
ENDROOT
BRANCH   1  12
HETATM   12  C   UNL     1      -7.665   2.795 -33.834  1.00  0.00     0.137 C 
BRANCH  12  13
HETATM   13  C   UNL     1      -8.969   3.430 -33.365  1.00  0.00     0.163 C 
HETATM   14  O   UNL     1      -9.002   4.366 -32.570  1.00  0.00    -0.292 OA
BRANCH  13  15
HETATM   15  C   UNL     1     -10.264   2.912 -33.905  1.00  0.00     0.010 A 
HETATM   16  C   UNL     1     -10.972   3.552 -34.928  1.00  0.00     0.018 A 
HETATM   17  C   UNL     1     -12.183   3.016 -35.393  1.00  0.00     0.037 A 
HETATM   18  C   UNL     1     -12.694   1.841 -34.839  1.00  0.00     0.068 A 
HETATM   19  C   UNL     1     -11.990   1.208 -33.816  1.00  0.00     0.037 A 
HETATM   20  C   UNL     1     -10.783   1.734 -33.352  1.00  0.00     0.018 A 
BRANCH  18  21
HETATM   21  O   UNL     1     -13.856   1.219 -35.198  1.00  0.00    -0.356 OA
HETATM   22  C   UNL     1     -14.617   0.612 -34.162  1.00  0.00     0.210 C 
ENDBRANCH  18  21
ENDBRANCH  13  15
ENDBRANCH  12  13
ENDBRANCH   1  12
BRANCH   1  23
HETATM   23  O   UNL     1      -7.610   1.868 -31.595  1.00  0.00    -0.375 OA
HETATM   24  H   UNL     1      -7.504   2.441 -30.819  1.00  0.00     0.211 HD
ENDBRANCH   1  23
BRANCH   4  25
HETATM   25  C   UNL     1      -3.365   3.465 -31.537  1.00  0.00     0.367 C 
BRANCH  25  26
HETATM   26  N   UNL     1      -3.084   4.588 -32.489  1.00  0.00    -0.055 N 
HETATM   27  H   UNL     1      -4.025   4.819 -32.869  1.00  0.00     0.281 HD
HETATM   28  C   UNL     1      -2.592   5.851 -31.835  1.00  0.00     0.237 C 
HETATM   29  C   UNL     1      -2.595   6.975 -32.863  1.00  0.00     0.028 C 
HETATM   30  C   UNL     1      -1.772   6.615 -34.096  1.00  0.00     0.003 C 
HETATM   31  C   UNL     1      -2.214   5.282 -34.691  1.00  0.00     0.028 C 
HETATM   32  C   UNL     1      -2.230   4.172 -33.650  1.00  0.00     0.237 C 
ENDBRANCH  25  26
ENDBRANCH   4  25
TORSDOF 7
ENDMDL
MODEL 4
REMARK VINA RESULT:      -8.3      4.210      7.213
REMARK  7 active torsions:
REMARK  status: ('A' for Active; 'I' for Inactive)
REMARK    1  A    between atoms: O_2  and  C_3 
REMARK    2  A    between atoms: C_6  and  C_7 
REMARK    3  A    between atoms: C_7  and  C_8 
REMARK    4  A    between atoms: C_8  and  C_9 
REMARK    5  A    between atoms: C_9  and  O_10 
REMARK    6  A    between atoms: N_13  and  C_14 
REMARK    7  A    between atoms: C_14  and  N_15 
ROOT
HETATM    1  C   UNL     1      -7.483   3.715 -32.819  1.00  0.00     0.175 C 
HETATM    2  C   UNL     1      -6.720   2.450 -32.290  1.00  0.00     0.265 C 
HETATM    3  O   UNL     1      -5.540   2.295 -32.005  1.00  0.00    -0.269 OA
HETATM    4  N   UNL     1      -7.651   1.409 -32.172  1.00  0.00    -0.289 N 
HETATM    5  C   UNL     1      -8.789   1.712 -32.933  1.00  0.00     0.049 A 
HETATM    6  C   UNL     1      -8.712   3.036 -33.394  1.00  0.00     0.014 A 
HETATM    7  C   UNL     1      -9.850   0.888 -33.268  1.00  0.00     0.032 A 
HETATM    8  C   UNL     1     -10.853   1.417 -34.087  1.00  0.00     0.021 A 
HETATM    9  C   UNL     1     -10.779   2.741 -34.547  1.00  0.00     0.011 A 
HETATM   10 BR   UNL     1     -12.156   3.419 -35.651  1.00  0.00    -0.051 Br
HETATM   11  C   UNL     1      -9.710   3.568 -34.199  1.00  0.00     0.032 A 
ENDROOT
BRANCH   1  12
HETATM   12  C   UNL     1      -6.646   4.516 -33.817  1.00  0.00     0.137 C 
BRANCH  12  13
HETATM   13  C   UNL     1      -5.829   5.610 -33.140  1.00  0.00     0.163 C 
HETATM   14  O   UNL     1      -6.312   6.693 -32.815  1.00  0.00    -0.292 OA
BRANCH  13  15
HETATM   15  C   UNL     1      -4.387   5.357 -32.836  1.00  0.00     0.010 A 
HETATM   16  C   UNL     1      -3.502   4.792 -33.760  1.00  0.00     0.018 A 
HETATM   17  C   UNL     1      -2.158   4.580 -33.415  1.00  0.00     0.037 A 
HETATM   18  C   UNL     1      -1.692   4.928 -32.147  1.00  0.00     0.068 A 
HETATM   19  C   UNL     1      -2.576   5.485 -31.225  1.00  0.00     0.037 A 
HETATM   20  C   UNL     1      -3.913   5.702 -31.564  1.00  0.00     0.018 A 
BRANCH  18  21
HETATM   21  O   UNL     1      -0.415   4.773 -31.687  1.00  0.00    -0.356 OA
HETATM   22  C   UNL     1      -0.149   5.183 -30.351  1.00  0.00     0.210 C 
ENDBRANCH  18  21
ENDBRANCH  13  15
ENDBRANCH  12  13
ENDBRANCH   1  12
BRANCH   1  23
HETATM   23  O   UNL     1      -7.960   4.563 -31.780  1.00  0.00    -0.375 OA
HETATM   24  H   UNL     1      -8.670   4.124 -31.284  1.00  0.00     0.211 HD
ENDBRANCH   1  23
BRANCH   4  25
HETATM   25  C   UNL     1      -7.274   0.079 -31.783  1.00  0.00     0.367 C 
BRANCH  25  26
HETATM   26  N   UNL     1      -6.355  -0.541 -32.791  1.00  0.00    -0.055 N 
HETATM   27  H   UNL     1      -6.081   0.264 -33.391  1.00  0.00     0.281 HD
HETATM   28  C   UNL     1      -5.068  -1.073 -32.217  1.00  0.00     0.237 C 
HETATM   29  C   UNL     1      -4.128  -1.432 -33.360  1.00  0.00     0.028 C 
HETATM   30  C   UNL     1      -4.769  -2.420 -34.330  1.00  0.00     0.003 C 
HETATM   31  C   UNL     1      -6.120  -1.915 -34.826  1.00  0.00     0.028 C 
HETATM   32  C   UNL     1      -7.044  -1.537 -33.677  1.00  0.00     0.237 C 
ENDBRANCH  25  26
ENDBRANCH   4  25
TORSDOF 7
ENDMDL
MODEL 5
REMARK VINA RESULT:      -8.2      3.555      6.353
REMARK  7 active torsions:
REMARK  status: ('A' for Active; 'I' for Inactive)
REMARK    1  A    between atoms: O_2  and  C_3 
REMARK    2  A    between atoms: C_6  and  C_7 
REMARK    3  A    between atoms: C_7  and  C_8 
REMARK    4  A    between atoms: C_8  and  C_9 
REMARK    5  A    between atoms: C_9  and  O_10 
REMARK    6  A    between atoms: N_13  and  C_14 
REMARK    7  A    between atoms: C_14  and  N_15 
ROOT
HETATM    1  C   UNL     1      -7.086   2.326 -32.547  1.00  0.00     0.175 C 
HETATM    2  C   UNL     1      -5.667   2.909 -32.219  1.00  0.00     0.265 C 
HETATM    3  O   UNL     1      -4.576   2.358 -32.157  1.00  0.00    -0.269 OA
HETATM    4  N   UNL     1      -5.815   4.282 -31.977  1.00  0.00    -0.289 N 
HETATM    5  C   UNL     1      -7.162   4.565 -31.703  1.00  0.00     0.049 A 
HETATM    6  C   UNL     1      -7.946   3.429 -31.958  1.00  0.00     0.014 A 
HETATM    7  C   UNL     1      -7.716   5.734 -31.211  1.00  0.00     0.032 A 
HETATM    8  C   UNL     1      -9.095   5.752 -30.974  1.00  0.00     0.021 A 
HETATM    9  C   UNL     1      -9.882   4.618 -31.231  1.00  0.00     0.011 A 
HETATM   10 BR   UNL     1     -11.742   4.684 -30.899  1.00  0.00    -0.051 Br
HETATM   11  C   UNL     1      -9.316   3.445 -31.734  1.00  0.00     0.032 A 
ENDROOT
BRANCH   1  12
HETATM   12  C   UNL     1      -7.292   0.937 -31.943  1.00  0.00     0.137 C 
BRANCH  12  13
HETATM   13  C   UNL     1      -7.713  -0.091 -32.986  1.00  0.00     0.163 C 
HETATM   14  O   UNL     1      -8.837  -0.109 -33.484  1.00  0.00    -0.292 OA
BRANCH  13  15
HETATM   15  C   UNL     1      -6.719  -1.110 -33.444  1.00  0.00     0.010 A 
HETATM   16  C   UNL     1      -7.051  -2.166 -34.301  1.00  0.00     0.018 A 
HETATM   17  C   UNL     1      -6.072  -3.091 -34.696  1.00  0.00     0.037 A 
HETATM   18  C   UNL     1      -4.760  -2.970 -34.237  1.00  0.00     0.068 A 
HETATM   19  C   UNL     1      -4.432  -1.921 -33.379  1.00  0.00     0.037 A 
HETATM   20  C   UNL     1      -5.401  -0.996 -32.985  1.00  0.00     0.018 A 
BRANCH  18  21
HETATM   21  O   UNL     1      -3.719  -3.799 -34.543  1.00  0.00    -0.356 OA
HETATM   22  C   UNL     1      -3.512  -4.925 -33.699  1.00  0.00     0.210 C 
ENDBRANCH  18  21
ENDBRANCH  13  15
ENDBRANCH  12  13
ENDBRANCH   1  12
BRANCH   1  23
HETATM   23  O   UNL     1      -7.381   2.309 -33.940  1.00  0.00    -0.375 OA
HETATM   24  H   UNL     1      -8.283   1.984 -34.091  1.00  0.00     0.211 HD
ENDBRANCH   1  23
BRANCH   4  25
HETATM   25  C   UNL     1      -4.720   5.115 -31.571  1.00  0.00     0.367 C 
BRANCH  25  26
HETATM   26  N   UNL     1      -3.596   5.055 -32.562  1.00  0.00    -0.055 N 
HETATM   27  H   UNL     1      -3.468   4.033 -32.715  1.00  0.00     0.281 HD
HETATM   28  C   UNL     1      -3.928   5.627 -33.915  1.00  0.00     0.237 C 
HETATM   29  C   UNL     1      -2.812   5.273 -34.889  1.00  0.00     0.028 C 
HETATM   30  C   UNL     1      -1.452   5.750 -34.387  1.00  0.00     0.003 C 
HETATM   31  C   UNL     1      -1.172   5.247 -32.975  1.00  0.00     0.028 C 
HETATM   32  C   UNL     1      -2.304   5.585 -32.015  1.00  0.00     0.237 C 
ENDBRANCH  25  26
ENDBRANCH   4  25
TORSDOF 7
ENDMDL
MODEL 6
REMARK VINA RESULT:      -7.9      3.773      7.555
REMARK  7 active torsions:
REMARK  status: ('A' for Active; 'I' for Inactive)
REMARK    1  A    between atoms: O_2  and  C_3 
REMARK    2  A    between atoms: C_6  and  C_7 
REMARK    3  A    between atoms: C_7  and  C_8 
REMARK    4  A    between atoms: C_8  and  C_9 
REMARK    5  A    between atoms: C_9  and  O_10 
REMARK    6  A    between atoms: N_13  and  C_14 
REMARK    7  A    between atoms: C_14  and  N_15 
ROOT
HETATM    1  C   UNL     1      -6.384   0.498 -30.641  1.00  0.00     0.175 C 
HETATM    2  C   UNL     1      -5.136  -0.084 -31.393  1.00  0.00     0.265 C 
HETATM    3  O   UNL     1      -3.957  -0.118 -31.068  1.00  0.00    -0.269 OA
HETATM    4  N   UNL     1      -5.581  -0.616 -32.611  1.00  0.00    -0.289 N 
HETATM    5  C   UNL     1      -6.846  -0.090 -32.915  1.00  0.00     0.049 A 
HETATM    6  C   UNL     1      -7.337   0.630 -31.814  1.00  0.00     0.014 A 
HETATM    7  C   UNL     1      -7.555  -0.177 -34.100  1.00  0.00     0.032 A 
HETATM    8  C   UNL     1      -8.788   0.481 -34.172  1.00  0.00     0.021 A 
HETATM    9  C   UNL     1      -9.282   1.199 -33.071  1.00  0.00     0.011 A 
HETATM   10 BR   UNL     1     -10.954   2.071 -33.207  1.00  0.00    -0.051 Br
HETATM   11  C   UNL     1      -8.564   1.275 -31.877  1.00  0.00     0.032 A 
ENDROOT
BRANCH   1  12
HETATM   12  C   UNL     1      -6.059   1.799 -29.907  1.00  0.00     0.137 C 
BRANCH  12  13
HETATM   13  C   UNL     1      -5.430   2.840 -30.826  1.00  0.00     0.163 C 
HETATM   14  O   UNL     1      -4.217   3.028 -30.884  1.00  0.00    -0.292 OA
BRANCH  13  15
HETATM   15  C   UNL     1      -6.317   3.655 -31.713  1.00  0.00     0.010 A 
HETATM   16  C   UNL     1      -6.162   3.708 -33.103  1.00  0.00     0.018 A 
HETATM   17  C   UNL     1      -7.027   4.492 -33.882  1.00  0.00     0.037 A 
HETATM   18  C   UNL     1      -8.049   5.227 -33.280  1.00  0.00     0.068 A 
HETATM   19  C   UNL     1      -8.198   5.178 -31.895  1.00  0.00     0.037 A 
HETATM   20  C   UNL     1      -7.343   4.397 -31.115  1.00  0.00     0.018 A 
BRANCH  18  21
HETATM   21  O   UNL     1      -8.953   6.026 -33.920  1.00  0.00    -0.356 OA
HETATM   22  C   UNL     1      -9.838   5.401 -34.841  1.00  0.00     0.210 C 
ENDBRANCH  18  21
ENDBRANCH  13  15
ENDBRANCH  12  13
ENDBRANCH   1  12
BRANCH   1  23
HETATM   23  O   UNL     1      -6.993  -0.433 -29.752  1.00  0.00    -0.375 OA
HETATM   24  H   UNL     1      -7.888  -0.655 -30.055  1.00  0.00     0.211 HD
ENDBRANCH   1  23
BRANCH   4  25
HETATM   25  C   UNL     1      -4.683  -1.165 -33.586  1.00  0.00     0.367 C 
BRANCH  25  26
HETATM   26  N   UNL     1      -4.900  -2.639 -33.754  1.00  0.00    -0.055 N 
HETATM   27  H   UNL     1      -5.576  -2.868 -32.997  1.00  0.00     0.281 HD
HETATM   28  C   UNL     1      -5.585  -3.025 -35.038  1.00  0.00     0.237 C 
HETATM   29  C   UNL     1      -5.975  -4.495 -34.967  1.00  0.00     0.028 C 
HETATM   30  C   UNL     1      -4.771  -5.386 -34.675  1.00  0.00     0.003 C 
HETATM   31  C   UNL     1      -4.025  -4.922 -33.428  1.00  0.00     0.028 C 
HETATM   32  C   UNL     1      -3.661  -3.446 -33.499  1.00  0.00     0.237 C 
ENDBRANCH  25  26
ENDBRANCH   4  25
TORSDOF 7
ENDMDL
MODEL 7
REMARK VINA RESULT:      -7.9      3.937      8.330
REMARK  7 active torsions:
REMARK  status: ('A' for Active; 'I' for Inactive)
REMARK    1  A    between atoms: O_2  and  C_3 
REMARK    2  A    between atoms: C_6  and  C_7 
REMARK    3  A    between atoms: C_7  and  C_8 
REMARK    4  A    between atoms: C_8  and  C_9 
REMARK    5  A    between atoms: C_9  and  O_10 
REMARK    6  A    between atoms: N_13  and  C_14 
REMARK    7  A    between atoms: C_14  and  N_15 
ROOT
HETATM    1  C   UNL     1      -7.576   0.869 -32.969  1.00  0.00     0.175 C 
HETATM    2  C   UNL     1      -7.063   2.304 -32.594  1.00  0.00     0.265 C 
HETATM    3  O   UNL     1      -7.625   3.389 -32.652  1.00  0.00    -0.269 OA
HETATM    4  N   UNL     1      -5.743   2.179 -32.140  1.00  0.00    -0.289 N 
HETATM    5  C   UNL     1      -5.219   0.947 -32.559  1.00  0.00     0.049 A 
HETATM    6  C   UNL     1      -6.242   0.162 -33.115  1.00  0.00     0.014 A 
HETATM    7  C   UNL     1      -3.908   0.506 -32.515  1.00  0.00     0.032 A 
HETATM    8  C   UNL     1      -3.627  -0.758 -33.045  1.00  0.00     0.021 A 
HETATM    9  C   UNL     1      -4.649  -1.546 -33.599  1.00  0.00     0.011 A 
HETATM   10 BR   UNL     1      -4.229  -3.250 -34.303  1.00  0.00    -0.051 Br
HETATM   11  C   UNL     1      -5.970  -1.096 -33.633  1.00  0.00     0.032 A 
ENDROOT
BRANCH   1  12
HETATM   12  C   UNL     1      -8.455   0.881 -34.220  1.00  0.00     0.137 C 
BRANCH  12  13
HETATM   13  C   UNL     1      -9.938   0.983 -33.884  1.00  0.00     0.163 C 
HETATM   14  O   UNL     1     -10.519   0.153 -33.189  1.00  0.00    -0.292 OA
BRANCH  13  15
HETATM   15  C   UNL     1     -10.721   2.148 -34.400  1.00  0.00     0.010 A 
HETATM   16  C   UNL     1     -10.147   3.399 -34.652  1.00  0.00     0.018 A 
HETATM   17  C   UNL     1     -10.935   4.455 -35.137  1.00  0.00     0.037 A 
HETATM   18  C   UNL     1     -12.298   4.268 -35.371  1.00  0.00     0.068 A 
HETATM   19  C   UNL     1     -12.870   3.023 -35.114  1.00  0.00     0.037 A 
HETATM   20  C   UNL     1     -12.090   1.969 -34.635  1.00  0.00     0.018 A 
BRANCH  18  21
HETATM   21  O   UNL     1     -13.173   5.208 -35.838  1.00  0.00    -0.356 OA
HETATM   22  C   UNL     1     -12.772   6.570 -35.752  1.00  0.00     0.210 C 
ENDBRANCH  18  21
ENDBRANCH  13  15
ENDBRANCH  12  13
ENDBRANCH   1  12
BRANCH   1  23
HETATM   23  O   UNL     1      -8.246   0.212 -31.899  1.00  0.00    -0.375 OA
HETATM   24  H   UNL     1      -9.112   0.622 -31.739  1.00  0.00     0.211 HD
ENDBRANCH   1  23
BRANCH   4  25
HETATM   25  C   UNL     1      -4.941   3.315 -31.783  1.00  0.00     0.367 C 
BRANCH  25  26
HETATM   26  N   UNL     1      -4.157   3.816 -32.959  1.00  0.00    -0.055 N 
HETATM   27  H   UNL     1      -4.076   2.976 -33.567  1.00  0.00     0.281 HD
HETATM   28  C   UNL     1      -4.872   4.848 -33.789  1.00  0.00     0.237 C 
HETATM   29  C   UNL     1      -4.089   5.077 -35.075  1.00  0.00     0.028 C 
HETATM   30  C   UNL     1      -2.644   5.475 -34.794  1.00  0.00     0.003 C 
HETATM   31  C   UNL     1      -1.961   4.474 -33.868  1.00  0.00     0.028 C 
HETATM   32  C   UNL     1      -2.763   4.235 -32.597  1.00  0.00     0.237 C 
ENDBRANCH  25  26
ENDBRANCH   4  25
TORSDOF 7
ENDMDL
MODEL 8
REMARK VINA RESULT:      -7.9      3.802      7.298
REMARK  7 active torsions:
REMARK  status: ('A' for Active; 'I' for Inactive)
REMARK    1  A    between atoms: O_2  and  C_3 
REMARK    2  A    between atoms: C_6  and  C_7 
REMARK    3  A    between atoms: C_7  and  C_8 
REMARK    4  A    between atoms: C_8  and  C_9 
REMARK    5  A    between atoms: C_9  and  O_10 
REMARK    6  A    between atoms: N_13  and  C_14 
REMARK    7  A    between atoms: C_14  and  N_15 
ROOT
HETATM    1  C   UNL     1      -6.409   0.757 -30.777  1.00  0.00     0.175 C 
HETATM    2  C   UNL     1      -5.231   0.144 -31.614  1.00  0.00     0.265 C 
HETATM    3  O   UNL     1      -4.035   0.074 -31.368  1.00  0.00    -0.269 OA
HETATM    4  N   UNL     1      -5.772  -0.364 -32.802  1.00  0.00    -0.289 N 
HETATM    5  C   UNL     1      -7.038   0.201 -33.018  1.00  0.00     0.049 A 
HETATM    6  C   UNL     1      -7.433   0.927 -31.884  1.00  0.00     0.014 A 
HETATM    7  C   UNL     1      -7.826   0.144 -34.155  1.00  0.00     0.032 A 
HETATM    8  C   UNL     1      -9.041   0.838 -34.140  1.00  0.00     0.021 A 
HETATM    9  C   UNL     1      -9.440   1.563 -33.005  1.00  0.00     0.011 A 
HETATM   10 BR   UNL     1     -11.090   2.485 -33.024  1.00  0.00    -0.051 Br
HETATM   11  C   UNL     1      -8.641   1.608 -31.861  1.00  0.00     0.032 A 
ENDROOT
BRANCH   1  12
HETATM   12  C   UNL     1      -5.996   2.043 -30.059  1.00  0.00     0.137 C 
BRANCH  12  13
HETATM   13  C   UNL     1      -6.489   3.292 -30.780  1.00  0.00     0.163 C 
HETATM   14  O   UNL     1      -7.487   3.913 -30.423  1.00  0.00    -0.292 OA
BRANCH  13  15
HETATM   15  C   UNL     1      -5.721   3.801 -31.958  1.00  0.00     0.010 A 
HETATM   16  C   UNL     1      -6.335   4.219 -33.144  1.00  0.00     0.018 A 
HETATM   17  C   UNL     1      -5.559   4.688 -34.215  1.00  0.00     0.037 A 
HETATM   18  C   UNL     1      -4.168   4.739 -34.111  1.00  0.00     0.068 A 
HETATM   19  C   UNL     1      -3.558   4.316 -32.931  1.00  0.00     0.037 A 
HETATM   20  C   UNL     1      -4.325   3.852 -31.861  1.00  0.00     0.018 A 
BRANCH  18  21
HETATM   21  O   UNL     1      -3.302   5.170 -35.075  1.00  0.00    -0.356 OA
HETATM   22  C   UNL     1      -1.912   5.099 -34.782  1.00  0.00     0.210 C 
ENDBRANCH  18  21
ENDBRANCH  13  15
ENDBRANCH  12  13
ENDBRANCH   1  12
BRANCH   1  23
HETATM   23  O   UNL     1      -6.985  -0.162 -29.855  1.00  0.00    -0.375 OA
HETATM   24  H   UNL     1      -6.394  -0.919 -29.718  1.00  0.00     0.211 HD
ENDBRANCH   1  23
BRANCH   4  25
HETATM   25  C   UNL     1      -4.957  -0.933 -33.838  1.00  0.00     0.367 C 
BRANCH  25  26
HETATM   26  N   UNL     1      -5.118  -2.422 -33.900  1.00  0.00    -0.055 N 
HETATM   27  H   UNL     1      -5.655  -2.639 -33.034  1.00  0.00     0.281 HD
HETATM   28  C   UNL     1      -5.974  -2.909 -35.038  1.00  0.00     0.237 C 
HETATM   29  C   UNL     1      -6.268  -4.390 -34.837  1.00  0.00     0.028 C 
HETATM   30  C   UNL     1      -4.986  -5.207 -34.698  1.00  0.00     0.003 C 
HETATM   31  C   UNL     1      -4.081  -4.641 -33.609  1.00  0.00     0.028 C 
HETATM   32  C   UNL     1      -3.813  -3.156 -33.806  1.00  0.00     0.237 C 
ENDBRANCH  25  26
ENDBRANCH   4  25
TORSDOF 7
ENDMDL
MODEL 9
REMARK VINA RESULT:      -7.8      4.741      7.567
REMARK  7 active torsions:
REMARK  status: ('A' for Active; 'I' for Inactive)
REMARK    1  A    between atoms: O_2  and  C_3 
REMARK    2  A    between atoms: C_6  and  C_7 
REMARK    3  A    between atoms: C_7  and  C_8 
REMARK    4  A    between atoms: C_8  and  C_9 
REMARK    5  A    between atoms: C_9  and  O_10 
REMARK    6  A    between atoms: N_13  and  C_14 
REMARK    7  A    between atoms: C_14  and  N_15 
ROOT
HETATM    1  C   UNL     1      -5.136   3.435 -32.485  1.00  0.00     0.175 C 
HETATM    2  C   UNL     1      -3.699   3.988 -32.788  1.00  0.00     0.265 C 
HETATM    3  O   UNL     1      -2.669   3.402 -33.092  1.00  0.00    -0.269 OA
HETATM    4  N   UNL     1      -3.741   5.383 -32.651  1.00  0.00    -0.289 N 
HETATM    5  C   UNL     1      -4.878   5.745 -31.913  1.00  0.00     0.049 A 
HETATM    6  C   UNL     1      -5.701   4.623 -31.729  1.00  0.00     0.014 A 
HETATM    7  C   UNL     1      -5.198   6.978 -31.370  1.00  0.00     0.032 A 
HETATM    8  C   UNL     1      -6.379   7.075 -30.626  1.00  0.00     0.021 A 
HETATM    9  C   UNL     1      -7.206   5.955 -30.443  1.00  0.00     0.011 A 
HETATM   10 BR   UNL     1      -8.794   6.128 -29.433  1.00  0.00    -0.051 Br
HETATM   11  C   UNL     1      -6.878   4.717 -31.000  1.00  0.00     0.032 A 
ENDROOT
BRANCH   1  12
HETATM   12  C   UNL     1      -5.094   2.120 -31.708  1.00  0.00     0.137 C 
BRANCH  12  13
HETATM   13  C   UNL     1      -6.249   1.194 -32.074  1.00  0.00     0.163 C 
HETATM   14  O   UNL     1      -7.409   1.413 -31.731  1.00  0.00    -0.292 OA
BRANCH  13  15
HETATM   15  C   UNL     1      -5.972  -0.020 -32.902  1.00  0.00     0.010 A 
HETATM   16  C   UNL     1      -4.791  -0.763 -32.792  1.00  0.00     0.018 A 
HETATM   17  C   UNL     1      -4.590  -1.895 -33.597  1.00  0.00     0.037 A 
HETATM   18  C   UNL     1      -5.562  -2.289 -34.517  1.00  0.00     0.068 A 
HETATM   19  C   UNL     1      -6.735  -1.544 -34.630  1.00  0.00     0.037 A 
HETATM   20  C   UNL     1      -6.943  -0.419 -33.829  1.00  0.00     0.018 A 
BRANCH  18  21
HETATM   21  O   UNL     1      -5.489  -3.364 -35.357  1.00  0.00    -0.356 OA
HETATM   22  C   UNL     1      -6.276  -4.502 -35.028  1.00  0.00     0.210 C 
ENDBRANCH  18  21
ENDBRANCH  13  15
ENDBRANCH  12  13
ENDBRANCH   1  12
BRANCH   1  23
HETATM   23  O   UNL     1      -5.945   3.298 -33.649  1.00  0.00    -0.375 OA
HETATM   24  H   UNL     1      -5.420   2.949 -34.387  1.00  0.00     0.211 HD
ENDBRANCH   1  23
BRANCH   4  25
HETATM   25  C   UNL     1      -2.573   6.205 -32.785  1.00  0.00     0.367 C 
BRANCH  25  26
HETATM   26  N   UNL     1      -1.724   6.147 -31.550  1.00  0.00    -0.055 N 
HETATM   27  H   UNL     1      -2.284   5.554 -30.904  1.00  0.00     0.281 HD
HETATM   28  C   UNL     1      -0.415   5.425 -31.728  1.00  0.00     0.237 C 
HETATM   29  C   UNL     1       0.221   5.211 -30.361  1.00  0.00     0.028 C 
HETATM   30  C   UNL     1       0.395   6.526 -29.607  1.00  0.00     0.003 C 
HETATM   31  C   UNL     1      -0.919   7.297 -29.522  1.00  0.00     0.028 C 
HETATM   32  C   UNL     1      -1.558   7.484 -30.891  1.00  0.00     0.237 C 
ENDBRANCH  25  26
ENDBRANCH   4  25
TORSDOF 7
ENDMDL
MODEL 10
REMARK VINA RESULT:      -7.8      2.337      3.716
REMARK  7 active torsions:
REMARK  status: ('A' for Active; 'I' for Inactive)
REMARK    1  A    between atoms: O_2  and  C_3 
REMARK    2  A    between atoms: C_6  and  C_7 
REMARK    3  A    between atoms: C_7  and  C_8 
REMARK    4  A    between atoms: C_8  and  C_9 
REMARK    5  A    between atoms: C_9  and  O_10 
REMARK    6  A    between atoms: N_13  and  C_14 
REMARK    7  A    between atoms: C_14  and  N_15 
ROOT
HETATM    1  C   UNL     1      -8.791   1.160 -31.902  1.00  0.00     0.175 C 
HETATM    2  C   UNL     1      -9.907   1.425 -32.973  1.00  0.00     0.265 C 
HETATM    3  O   UNL     1     -10.186   0.816 -33.997  1.00  0.00    -0.269 OA
HETATM    4  N   UNL     1     -10.618   2.565 -32.575  1.00  0.00    -0.289 N 
HETATM    5  C   UNL     1      -9.860   3.286 -31.641  1.00  0.00     0.049 A 
HETATM    6  C   UNL     1      -8.737   2.534 -31.260  1.00  0.00     0.014 A 
HETATM    7  C   UNL     1     -10.080   4.561 -31.149  1.00  0.00     0.032 A 
HETATM    8  C   UNL     1      -9.142   5.085 -30.252  1.00  0.00     0.021 A 
HETATM    9  C   UNL     1      -8.020   4.333 -29.867  1.00  0.00     0.011 A 
HETATM   10 BR   UNL     1      -6.778   5.076 -28.651  1.00  0.00    -0.051 Br
HETATM   11  C   UNL     1      -7.810   3.045 -30.363  1.00  0.00     0.032 A 
ENDROOT
BRANCH   1  12
HETATM   12  C   UNL     1      -7.486   0.679 -32.537  1.00  0.00     0.137 C 
BRANCH  12  13
HETATM   13  C   UNL     1      -6.763   1.791 -33.288  1.00  0.00     0.163 C 
HETATM   14  O   UNL     1      -7.218   2.311 -34.304  1.00  0.00    -0.292 OA
BRANCH  13  15
HETATM   15  C   UNL     1      -5.456   2.292 -32.761  1.00  0.00     0.010 A 
HETATM   16  C   UNL     1      -4.566   1.486 -32.041  1.00  0.00     0.018 A 
HETATM   17  C   UNL     1      -3.353   2.014 -31.573  1.00  0.00     0.037 A 
HETATM   18  C   UNL     1      -3.022   3.347 -31.818  1.00  0.00     0.068 A 
HETATM   19  C   UNL     1      -3.912   4.151 -32.529  1.00  0.00     0.037 A 
HETATM   20  C   UNL     1      -5.119   3.630 -33.001  1.00  0.00     0.018 A 
BRANCH  18  21
HETATM   21  O   UNL     1      -1.880   3.982 -31.418  1.00  0.00    -0.356 OA
HETATM   22  C   UNL     1      -1.357   4.985 -32.279  1.00  0.00     0.210 C 
ENDBRANCH  18  21
ENDBRANCH  13  15
ENDBRANCH  12  13
ENDBRANCH   1  12
BRANCH   1  23
HETATM   23  O   UNL     1      -9.198   0.268 -30.871  1.00  0.00    -0.375 OA
HETATM   24  H   UNL     1      -8.726  -0.577 -30.948  1.00  0.00     0.211 HD
ENDBRANCH   1  23
BRANCH   4  25
HETATM   25  C   UNL     1     -11.667   3.135 -33.371  1.00  0.00     0.367 C 
BRANCH  25  26
HETATM   26  N   UNL     1     -12.967   2.422 -33.147  1.00  0.00    -0.055 N 
HETATM   27  H   UNL     1     -12.693   1.604 -32.564  1.00  0.00     0.281 HD
HETATM   28  C   UNL     1     -13.964   3.190 -32.321  1.00  0.00     0.237 C 
HETATM   29  C   UNL     1     -15.117   2.266 -31.953  1.00  0.00     0.028 C 
HETATM   30  C   UNL     1     -15.761   1.645 -33.189  1.00  0.00     0.003 C 
HETATM   31  C   UNL     1     -14.723   0.956 -34.070  1.00  0.00     0.028 C 
HETATM   32  C   UNL     1     -13.564   1.881 -34.412  1.00  0.00     0.237 C 
ENDBRANCH  25  26
ENDBRANCH   4  25
TORSDOF 7
ENDMDL
