MODEL 1
REMARK VINA RESULT:     -10.1      0.000      0.000
REMARK  9 active torsions:
REMARK  status: ('A' for Active; 'I' for Inactive)
REMARK    1  A    between atoms: N_6  and  C_7 
REMARK    2  A    between atoms: C_7  and  C_8 
REMARK    3  A    between atoms: C_8  and  N_9 
REMARK       I    between atoms: N_9  and  C_10 
REMARK    4  A    between atoms: C_10  and  C_12 
REMARK    5  A    between atoms: C_16  and  C_17 
REMARK    6  A    between atoms: C_17  and  N_18 
REMARK    7  A    between atoms: N_18  and  C_19 
REMARK       I    between atoms: N_18  and  C_22 
REMARK    8  A    between atoms: C_22  and  C_24 
REMARK    9  A    between atoms: C_29  and  C_33 
ROOT
HETATM    1  C   UNL     1      -2.747   6.200 -31.919  1.00  0.00     0.165 C 
ENDROOT
BRANCH   1   2
HETATM    2  C   UNL     1      -1.552   6.047 -31.005  1.00  0.00    -0.039 A 
HETATM    3  C   UNL     1      -0.326   5.586 -31.503  1.00  0.00     0.009 A 
HETATM    4  C   UNL     1       0.783   5.467 -30.665  1.00  0.00     0.002 A 
HETATM    5  C   UNL     1       0.688   5.824 -29.318  1.00  0.00     0.017 A 
HETATM    6  C   UNL     1      -0.521   6.311 -28.807  1.00  0.00     0.032 A 
HETATM    7  C   UNL     1      -1.639   6.404 -29.650  1.00  0.00     0.026 A 
BRANCH   6   8
HETATM    8  C   UNL     1      -0.677   6.734 -27.385  1.00  0.00     0.251 C 
HETATM    9  N   UNL     1      -0.976   8.066 -27.153  1.00  0.00    -0.355 N 
HETATM   10  H   UNL     1      -1.299   8.631 -27.928  1.00  0.00     0.162 HD
HETATM   11  O   UNL     1      -0.570   5.917 -26.472  1.00  0.00    -0.268 OA
BRANCH   9  12
HETATM   12  C   UNL     1      -1.315   8.522 -25.815  1.00  0.00     0.153 C 
BRANCH  12  13
HETATM   13  C   UNL     1      -0.166   9.319 -25.157  1.00  0.00     0.292 C 
BRANCH  13  14
HETATM   14  N   UNL     1       0.948   9.715 -26.051  1.00  0.00     0.093 N 
HETATM   15  C   UNL     1       2.098   8.797 -25.872  1.00  0.00     0.300 C 
HETATM   16  C   UNL     1       2.882   8.968 -24.548  1.00  0.00     0.264 C 
HETATM   17  N   UNL     1       3.301  10.418 -24.360  1.00  0.00    -0.072 N 
HETATM   18  C   UNL     1       4.031  10.631 -23.070  1.00  0.00     0.269 C 
HETATM   19  H   UNL     1       3.947  10.642 -25.127  1.00  0.00     0.279 HD
HETATM   20  C   UNL     1       2.116  11.364 -24.495  1.00  0.00     0.264 C 
HETATM   21  C   UNL     1       1.400  11.108 -25.837  1.00  0.00     0.300 C 
ENDBRANCH  13  14
ENDBRANCH  12  13
ENDBRANCH   9  12
ENDBRANCH   6   8
ENDBRANCH   1   2
BRANCH   1  22
HETATM   22  N   UNL     1      -3.194   4.937 -32.508  1.00  0.00    -0.337 N 
HETATM   23  C   UNL     1      -4.143   4.175 -31.785  1.00  0.00     0.280 C 
HETATM   24  O   UNL     1      -4.520   4.579 -30.678  1.00  0.00    -0.265 OA
BRANCH  22  25
HETATM   25  C   UNL     1      -2.736   4.612 -33.839  1.00  0.00     0.088 A 
HETATM   26  C   UNL     1      -3.334   5.193 -35.099  1.00  0.00     0.027 A 
HETATM   27  C   UNL     1      -1.970   5.620 -34.663  1.00  0.00     0.027 A 
ENDBRANCH  22  25
BRANCH  23  28
HETATM   28  C   UNL     1      -4.650   2.913 -32.349  1.00  0.00     0.166 A 
HETATM   29  N   UNL     1      -5.614   2.787 -33.242  1.00  0.00    -0.235 NA
HETATM   30  C   UNL     1      -5.776   1.456 -33.587  1.00  0.00     0.075 A 
HETATM   31  C   UNL     1      -6.674   0.952 -34.546  1.00  0.00     0.034 A 
HETATM   32  C   UNL     1      -4.951   0.558 -32.911  1.00  0.00     0.036 A 
HETATM   33  C   UNL     1      -6.711  -0.424 -34.813  1.00  0.00     0.014 A 
HETATM   34  C   UNL     1      -5.875  -1.315 -34.131  1.00  0.00    -0.022 A 
HETATM   35  C   UNL     1      -4.987  -0.826 -33.161  1.00  0.00     0.033 A 
HETATM   36  S   UNL     1      -3.958   1.429 -31.813  1.00  0.00    -0.063 SA
BRANCH  34  37
HETATM   37  C   UNL     1      -5.914  -2.734 -34.448  1.00  0.00     0.010 A 
HETATM   38  C   UNL     1      -4.879  -3.698 -34.505  1.00  0.00     0.152 A 
HETATM   39  N   UNL     1      -5.320  -4.912 -34.838  1.00  0.00    -0.187 NA
HETATM   40  N   UNL     1      -6.640  -4.735 -34.998  1.00  0.00    -0.289 N 
HETATM   41  H   UNL     1      -7.206  -5.536 -35.260  1.00  0.00     0.188 HD
HETATM   42  C   UNL     1      -7.046  -3.450 -34.777  1.00  0.00     0.123 A 
ENDBRANCH  34  37
ENDBRANCH  23  28
ENDBRANCH   1  22
TORSDOF 9
ENDMDL
MODEL 2
REMARK VINA RESULT:      -9.2      1.759      3.234
REMARK  9 active torsions:
REMARK  status: ('A' for Active; 'I' for Inactive)
REMARK    1  A    between atoms: N_6  and  C_7 
REMARK    2  A    between atoms: C_7  and  C_8 
REMARK    3  A    between atoms: C_8  and  N_9 
REMARK       I    between atoms: N_9  and  C_10 
REMARK    4  A    between atoms: C_10  and  C_12 
REMARK    5  A    between atoms: C_16  and  C_17 
REMARK    6  A    between atoms: C_17  and  N_18 
REMARK    7  A    between atoms: N_18  and  C_19 
REMARK       I    between atoms: N_18  and  C_22 
REMARK    8  A    between atoms: C_22  and  C_24 
REMARK    9  A    between atoms: C_29  and  C_33 
ROOT
HETATM    1  C   UNL     1      -3.132   6.521 -31.795  1.00  0.00     0.165 C 
ENDROOT
BRANCH   1   2
HETATM    2  C   UNL     1      -1.790   6.536 -31.099  1.00  0.00    -0.039 A 
HETATM    3  C   UNL     1      -0.602   6.429 -31.833  1.00  0.00     0.009 A 
HETATM    4  C   UNL     1       0.637   6.467 -31.192  1.00  0.00     0.002 A 
HETATM    5  C   UNL     1       0.707   6.628 -29.807  1.00  0.00     0.017 A 
HETATM    6  C   UNL     1      -0.468   6.762 -29.057  1.00  0.00     0.032 A 
HETATM    7  C   UNL     1      -1.711   6.698 -29.706  1.00  0.00     0.026 A 
BRANCH   6   8
HETATM    8  C   UNL     1      -0.457   6.965 -27.579  1.00  0.00     0.251 C 
HETATM    9  N   UNL     1      -0.302   8.263 -27.123  1.00  0.00    -0.355 N 
HETATM   10  H   UNL     1      -0.435   9.025 -27.776  1.00  0.00     0.162 HD
HETATM   11  O   UNL     1      -0.609   6.014 -26.815  1.00  0.00    -0.268 OA
BRANCH   9  12
HETATM   12  C   UNL     1      -0.454   8.568 -25.710  1.00  0.00     0.153 C 
BRANCH  12  13
HETATM   13  C   UNL     1      -1.818   9.224 -25.394  1.00  0.00     0.292 C 
BRANCH  13  14
HETATM   14  N   UNL     1      -2.961   8.783 -26.228  1.00  0.00     0.093 N 
HETATM   15  C   UNL     1      -3.513   9.931 -26.988  1.00  0.00     0.300 C 
HETATM   16  C   UNL     1      -4.309  10.958 -26.148  1.00  0.00     0.264 C 
HETATM   17  N   UNL     1      -5.393  10.261 -25.341  1.00  0.00    -0.072 N 
HETATM   18  C   UNL     1      -6.164  11.220 -24.486  1.00  0.00     0.269 C 
HETATM   19  H   UNL     1      -6.048   9.848 -26.016  1.00  0.00     0.279 HD
HETATM   20  C   UNL     1      -4.827   9.111 -24.521  1.00  0.00     0.264 C 
HETATM   21  C   UNL     1      -4.046   8.153 -25.444  1.00  0.00     0.300 C 
ENDBRANCH  13  14
ENDBRANCH  12  13
ENDBRANCH   9  12
ENDBRANCH   6   8
ENDBRANCH   1   2
BRANCH   1  22
HETATM   22  N   UNL     1      -3.475   5.219 -32.369  1.00  0.00    -0.337 N 
HETATM   23  C   UNL     1      -4.379   4.401 -31.648  1.00  0.00     0.280 C 
HETATM   24  O   UNL     1      -4.805   4.795 -30.555  1.00  0.00    -0.265 OA
BRANCH  22  25
HETATM   25  C   UNL     1      -2.970   4.906 -33.686  1.00  0.00     0.088 A 
HETATM   26  C   UNL     1      -3.721   5.198 -34.965  1.00  0.00     0.027 A 
HETATM   27  C   UNL     1      -2.508   6.000 -34.619  1.00  0.00     0.027 A 
ENDBRANCH  22  25
BRANCH  23  28
HETATM   28  C   UNL     1      -4.782   3.097 -32.198  1.00  0.00     0.166 A 
HETATM   29  N   UNL     1      -5.784   2.874 -33.028  1.00  0.00    -0.235 NA
HETATM   30  C   UNL     1      -5.823   1.536 -33.382  1.00  0.00     0.075 A 
HETATM   31  C   UNL     1      -6.723   0.945 -34.289  1.00  0.00     0.034 A 
HETATM   32  C   UNL     1      -4.862   0.727 -32.776  1.00  0.00     0.036 A 
HETATM   33  C   UNL     1      -6.628  -0.425 -34.574  1.00  0.00     0.014 A 
HETATM   34  C   UNL     1      -5.656  -1.225 -33.963  1.00  0.00    -0.022 A 
HETATM   35  C   UNL     1      -4.764  -0.649 -33.045  1.00  0.00     0.033 A 
HETATM   36  S   UNL     1      -3.899   1.693 -31.732  1.00  0.00    -0.063 SA
BRANCH  34  37
HETATM   37  C   UNL     1      -5.562  -2.636 -34.298  1.00  0.00     0.010 A 
HETATM   38  C   UNL     1      -6.535  -3.537 -34.793  1.00  0.00     0.152 A 
HETATM   39  N   UNL     1      -6.055  -4.769 -34.975  1.00  0.00    -0.187 NA
HETATM   40  N   UNL     1      -4.772  -4.667 -34.599  1.00  0.00    -0.289 N 
HETATM   41  H   UNL     1      -4.187  -5.495 -34.650  1.00  0.00     0.188 HD
HETATM   42  C   UNL     1      -4.426  -3.412 -34.184  1.00  0.00     0.123 A 
ENDBRANCH  34  37
ENDBRANCH  23  28
ENDBRANCH   1  22
TORSDOF 9
ENDMDL
MODEL 3
REMARK VINA RESULT:      -9.1      2.648      4.060
REMARK  9 active torsions:
REMARK  status: ('A' for Active; 'I' for Inactive)
REMARK    1  A    between atoms: N_6  and  C_7 
REMARK    2  A    between atoms: C_7  and  C_8 
REMARK    3  A    between atoms: C_8  and  N_9 
REMARK       I    between atoms: N_9  and  C_10 
REMARK    4  A    between atoms: C_10  and  C_12 
REMARK    5  A    between atoms: C_16  and  C_17 
REMARK    6  A    between atoms: C_17  and  N_18 
REMARK    7  A    between atoms: N_18  and  C_19 
REMARK       I    between atoms: N_18  and  C_22 
REMARK    8  A    between atoms: C_22  and  C_24 
REMARK    9  A    between atoms: C_29  and  C_33 
ROOT
HETATM    1  C   UNL     1      -3.041   6.361 -31.870  1.00  0.00     0.165 C 
ENDROOT
BRANCH   1   2
HETATM    2  C   UNL     1      -1.853   6.616 -30.969  1.00  0.00    -0.039 A 
HETATM    3  C   UNL     1      -0.554   6.648 -31.491  1.00  0.00     0.009 A 
HETATM    4  C   UNL     1       0.540   6.907 -30.663  1.00  0.00     0.002 A 
HETATM    5  C   UNL     1       0.348   7.153 -29.303  1.00  0.00     0.017 A 
HETATM    6  C   UNL     1      -0.944   7.149 -28.765  1.00  0.00     0.032 A 
HETATM    7  C   UNL     1      -2.037   6.864 -29.599  1.00  0.00     0.026 A 
BRANCH   6   8
HETATM    8  C   UNL     1      -1.215   7.432 -27.326  1.00  0.00     0.251 C 
HETATM    9  N   UNL     1      -2.540   7.576 -26.950  1.00  0.00    -0.355 N 
HETATM   10  H   UNL     1      -3.260   7.261 -27.588  1.00  0.00     0.162 HD
HETATM   11  O   UNL     1      -0.292   7.504 -26.517  1.00  0.00    -0.268 OA
BRANCH   9  12
HETATM   12  C   UNL     1      -2.900   7.678 -25.546  1.00  0.00     0.153 C 
BRANCH  12  13
HETATM   13  C   UNL     1      -4.145   8.566 -25.321  1.00  0.00     0.292 C 
BRANCH  13  14
HETATM   14  N   UNL     1      -4.093   9.922 -25.915  1.00  0.00     0.093 N 
HETATM   15  C   UNL     1      -4.549  10.931 -24.928  1.00  0.00     0.300 C 
HETATM   16  C   UNL     1      -6.071  10.935 -24.642  1.00  0.00     0.264 C 
HETATM   17  N   UNL     1      -6.857  11.040 -25.939  1.00  0.00    -0.072 N 
HETATM   18  C   UNL     1      -8.337  11.010 -25.705  1.00  0.00     0.269 C 
HETATM   19  H   UNL     1      -6.624  11.950 -26.355  1.00  0.00     0.279 HD
HETATM   20  C   UNL     1      -6.427   9.977 -26.940  1.00  0.00     0.264 C 
HETATM   21  C   UNL     1      -4.901  10.050 -27.148  1.00  0.00     0.300 C 
ENDBRANCH  13  14
ENDBRANCH  12  13
ENDBRANCH   9  12
ENDBRANCH   6   8
ENDBRANCH   1   2
BRANCH   1  22
HETATM   22  N   UNL     1      -3.111   4.985 -32.363  1.00  0.00    -0.337 N 
HETATM   23  C   UNL     1      -3.880   4.058 -31.617  1.00  0.00     0.280 C 
HETATM   24  O   UNL     1      -4.418   4.432 -30.568  1.00  0.00    -0.265 OA
BRANCH  22  25
HETATM   25  C   UNL     1      -2.501   4.691 -33.639  1.00  0.00     0.088 A 
HETATM   26  C   UNL     1      -3.123   5.044 -34.970  1.00  0.00     0.027 A 
HETATM   27  C   UNL     1      -1.922   5.794 -34.493  1.00  0.00     0.027 A 
ENDBRANCH  22  25
BRANCH  23  28
HETATM   28  C   UNL     1      -4.010   2.670 -32.088  1.00  0.00     0.166 A 
HETATM   29  N   UNL     1      -3.190   1.672 -31.818  1.00  0.00    -0.235 NA
HETATM   30  C   UNL     1      -3.665   0.497 -32.377  1.00  0.00     0.075 A 
HETATM   31  C   UNL     1      -3.078  -0.776 -32.251  1.00  0.00     0.034 A 
HETATM   32  C   UNL     1      -4.840   0.619 -33.118  1.00  0.00     0.036 A 
HETATM   33  C   UNL     1      -3.687  -1.887 -32.852  1.00  0.00     0.014 A 
HETATM   34  C   UNL     1      -4.869  -1.754 -33.590  1.00  0.00    -0.022 A 
HETATM   35  C   UNL     1      -5.453  -0.486 -33.735  1.00  0.00     0.033 A 
HETATM   36  S   UNL     1      -5.340   2.262 -33.105  1.00  0.00    -0.063 SA
BRANCH  34  37
HETATM   37  C   UNL     1      -5.494  -2.927 -34.179  1.00  0.00     0.010 A 
HETATM   38  C   UNL     1      -4.963  -4.202 -34.487  1.00  0.00     0.152 A 
HETATM   39  N   UNL     1      -5.866  -5.022 -35.028  1.00  0.00    -0.187 NA
HETATM   40  N   UNL     1      -6.981  -4.278 -35.072  1.00  0.00    -0.289 N 
HETATM   41  H   UNL     1      -7.824  -4.695 -35.454  1.00  0.00     0.188 HD
HETATM   42  C   UNL     1      -6.812  -3.016 -34.577  1.00  0.00     0.123 A 
ENDBRANCH  34  37
ENDBRANCH  23  28
ENDBRANCH   1  22
TORSDOF 9
ENDMDL
MODEL 4
REMARK VINA RESULT:      -9.1      5.122      9.130
REMARK  9 active torsions:
REMARK  status: ('A' for Active; 'I' for Inactive)
REMARK    1  A    between atoms: N_6  and  C_7 
REMARK    2  A    between atoms: C_7  and  C_8 
REMARK    3  A    between atoms: C_8  and  N_9 
REMARK       I    between atoms: N_9  and  C_10 
REMARK    4  A    between atoms: C_10  and  C_12 
REMARK    5  A    between atoms: C_16  and  C_17 
REMARK    6  A    between atoms: C_17  and  N_18 
REMARK    7  A    between atoms: N_18  and  C_19 
REMARK       I    between atoms: N_18  and  C_22 
REMARK    8  A    between atoms: C_22  and  C_24 
REMARK    9  A    between atoms: C_29  and  C_33 
ROOT
HETATM    1  C   UNL     1      -3.787   5.878 -31.227  1.00  0.00     0.165 C 
ENDROOT
BRANCH   1   2
HETATM    2  C   UNL     1      -4.917   6.873 -31.371  1.00  0.00    -0.039 A 
HETATM    3  C   UNL     1      -4.756   8.202 -30.961  1.00  0.00     0.009 A 
HETATM    4  C   UNL     1      -5.791   9.125 -31.116  1.00  0.00     0.002 A 
HETATM    5  C   UNL     1      -6.998   8.736 -31.698  1.00  0.00     0.017 A 
HETATM    6  C   UNL     1      -7.172   7.418 -32.136  1.00  0.00     0.032 A 
HETATM    7  C   UNL     1      -6.135   6.489 -31.955  1.00  0.00     0.026 A 
BRANCH   6   8
HETATM    8  C   UNL     1      -8.428   6.949 -32.790  1.00  0.00     0.251 C 
HETATM    9  N   UNL     1      -8.315   5.909 -33.698  1.00  0.00    -0.355 N 
HETATM   10  H   UNL     1      -7.460   5.367 -33.709  1.00  0.00     0.162 HD
HETATM   11  O   UNL     1      -9.511   7.455 -32.503  1.00  0.00    -0.268 OA
BRANCH   9  12
HETATM   12  C   UNL     1      -9.505   5.279 -34.245  1.00  0.00     0.153 C 
BRANCH  12  13
HETATM   13  C   UNL     1      -9.497   3.745 -34.057  1.00  0.00     0.292 C 
BRANCH  13  14
HETATM   14  N   UNL     1      -9.955   3.248 -32.739  1.00  0.00     0.093 N 
HETATM   15  C   UNL     1      -9.787   1.777 -32.659  1.00  0.00     0.300 C 
HETATM   16  C   UNL     1     -10.788   0.951 -33.503  1.00  0.00     0.264 C 
HETATM   17  N   UNL     1     -12.217   1.359 -33.183  1.00  0.00    -0.072 N 
HETATM   18  C   UNL     1     -13.217   0.605 -34.007  1.00  0.00     0.269 C 
HETATM   19  H   UNL     1     -12.382   1.120 -32.197  1.00  0.00     0.279 HD
HETATM   20  C   UNL     1     -12.410   2.863 -33.308  1.00  0.00     0.264 C 
HETATM   21  C   UNL     1     -11.363   3.592 -32.442  1.00  0.00     0.300 C 
ENDBRANCH  13  14
ENDBRANCH  12  13
ENDBRANCH   9  12
ENDBRANCH   6   8
ENDBRANCH   1   2
BRANCH   1  22
HETATM   22  N   UNL     1      -4.030   4.616 -31.926  1.00  0.00    -0.337 N 
HETATM   23  C   UNL     1      -4.807   3.636 -31.260  1.00  0.00     0.280 C 
HETATM   24  O   UNL     1      -5.208   3.865 -30.112  1.00  0.00    -0.265 OA
BRANCH  22  25
HETATM   25  C   UNL     1      -3.572   4.498 -33.290  1.00  0.00     0.088 A 
HETATM   26  C   UNL     1      -4.332   5.033 -34.482  1.00  0.00     0.027 A 
HETATM   27  C   UNL     1      -3.071   5.706 -34.046  1.00  0.00     0.027 A 
ENDBRANCH  22  25
BRANCH  23  28
HETATM   28  C   UNL     1      -5.109   2.362 -31.933  1.00  0.00     0.166 A 
HETATM   29  N   UNL     1      -6.001   2.174 -32.887  1.00  0.00    -0.235 NA
HETATM   30  C   UNL     1      -5.963   0.861 -33.325  1.00  0.00     0.075 A 
HETATM   31  C   UNL     1      -6.735   0.312 -34.367  1.00  0.00     0.034 A 
HETATM   32  C   UNL     1      -5.059   0.033 -32.660  1.00  0.00     0.036 A 
HETATM   33  C   UNL     1      -6.571  -1.034 -34.722  1.00  0.00     0.014 A 
HETATM   34  C   UNL     1      -5.658  -1.854 -34.050  1.00  0.00    -0.022 A 
HETATM   35  C   UNL     1      -4.894  -1.321 -33.000  1.00  0.00     0.033 A 
HETATM   36  S   UNL     1      -4.250   0.948 -31.452  1.00  0.00    -0.063 SA
BRANCH  34  37
HETATM   37  C   UNL     1      -5.488  -3.239 -34.458  1.00  0.00     0.010 A 
HETATM   38  C   UNL     1      -6.350  -4.106 -35.170  1.00  0.00     0.152 A 
HETATM   39  N   UNL     1      -5.829  -5.322 -35.350  1.00  0.00    -0.187 NA
HETATM   40  N   UNL     1      -4.630  -5.242 -34.754  1.00  0.00    -0.289 N 
HETATM   41  H   UNL     1      -4.033  -6.063 -34.760  1.00  0.00     0.188 HD
HETATM   42  C   UNL     1      -4.378  -4.018 -34.204  1.00  0.00     0.123 A 
ENDBRANCH  34  37
ENDBRANCH  23  28
ENDBRANCH   1  22
TORSDOF 9
ENDMDL
MODEL 5
REMARK VINA RESULT:      -9.1      1.841      2.696
REMARK  9 active torsions:
REMARK  status: ('A' for Active; 'I' for Inactive)
REMARK    1  A    between atoms: N_6  and  C_7 
REMARK    2  A    between atoms: C_7  and  C_8 
REMARK    3  A    between atoms: C_8  and  N_9 
REMARK       I    between atoms: N_9  and  C_10 
REMARK    4  A    between atoms: C_10  and  C_12 
REMARK    5  A    between atoms: C_16  and  C_17 
REMARK    6  A    between atoms: C_17  and  N_18 
REMARK    7  A    between atoms: N_18  and  C_19 
REMARK       I    between atoms: N_18  and  C_22 
REMARK    8  A    between atoms: C_22  and  C_24 
REMARK    9  A    between atoms: C_29  and  C_33 
ROOT
HETATM    1  C   UNL     1      -5.369   6.496 -32.501  1.00  0.00     0.165 C 
ENDROOT
BRANCH   1   2
HETATM    2  C   UNL     1      -4.892   6.740 -31.087  1.00  0.00    -0.039 A 
HETATM    3  C   UNL     1      -5.810   6.927 -30.046  1.00  0.00     0.009 A 
HETATM    4  C   UNL     1      -5.370   7.128 -28.737  1.00  0.00     0.002 A 
HETATM    5  C   UNL     1      -4.005   7.129 -28.447  1.00  0.00     0.017 A 
HETATM    6  C   UNL     1      -3.072   6.919 -29.469  1.00  0.00     0.032 A 
HETATM    7  C   UNL     1      -3.520   6.743 -30.787  1.00  0.00     0.026 A 
BRANCH   6   8
HETATM    8  C   UNL     1      -1.602   6.882 -29.217  1.00  0.00     0.251 C 
HETATM    9  N   UNL     1      -1.187   6.457 -27.966  1.00  0.00    -0.355 N 
HETATM   10  H   UNL     1      -1.854   5.979 -27.372  1.00  0.00     0.162 HD
HETATM   11  O   UNL     1      -0.806   7.193 -30.102  1.00  0.00    -0.268 OA
BRANCH   9  12
HETATM   12  C   UNL     1       0.223   6.226 -27.698  1.00  0.00     0.153 C 
BRANCH  12  13
HETATM   13  C   UNL     1       0.717   6.993 -26.450  1.00  0.00     0.292 C 
BRANCH  13  14
HETATM   14  N   UNL     1       1.759   8.020 -26.687  1.00  0.00     0.093 N 
HETATM   15  C   UNL     1       2.279   8.529 -25.395  1.00  0.00     0.300 C 
HETATM   16  C   UNL     1       1.314   9.452 -24.612  1.00  0.00     0.264 C 
HETATM   17  N   UNL     1       0.829  10.590 -25.497  1.00  0.00    -0.072 N 
HETATM   18  C   UNL     1      -0.137  11.486 -24.785  1.00  0.00     0.269 C 
HETATM   19  H   UNL     1       1.655  11.150 -25.741  1.00  0.00     0.279 HD
HETATM   20  C   UNL     1       0.250  10.072 -26.806  1.00  0.00     0.264 C 
HETATM   21  C   UNL     1       1.280   9.159 -27.502  1.00  0.00     0.300 C 
ENDBRANCH  13  14
ENDBRANCH  12  13
ENDBRANCH   9  12
ENDBRANCH   6   8
ENDBRANCH   1   2
BRANCH   1  22
HETATM   22  N   UNL     1      -5.267   5.097 -32.917  1.00  0.00    -0.337 N 
HETATM   23  C   UNL     1      -6.352   4.239 -32.608  1.00  0.00     0.280 C 
HETATM   24  O   UNL     1      -7.311   4.690 -31.970  1.00  0.00    -0.265 OA
BRANCH  22  25
HETATM   25  C   UNL     1      -4.130   4.710 -33.720  1.00  0.00     0.088 A 
HETATM   26  C   UNL     1      -4.012   4.991 -35.200  1.00  0.00     0.027 A 
HETATM   27  C   UNL     1      -3.157   5.744 -34.233  1.00  0.00     0.027 A 
ENDBRANCH  22  25
BRANCH  23  28
HETATM   28  C   UNL     1      -6.313   2.831 -33.032  1.00  0.00     0.166 A 
HETATM   29  N   UNL     1      -6.955   2.306 -34.059  1.00  0.00    -0.235 NA
HETATM   30  C   UNL     1      -6.630   0.966 -34.193  1.00  0.00     0.075 A 
HETATM   31  C   UNL     1      -7.083   0.101 -35.206  1.00  0.00     0.034 A 
HETATM   32  C   UNL     1      -5.761   0.461 -33.226  1.00  0.00     0.036 A 
HETATM   33  C   UNL     1      -6.647  -1.231 -35.233  1.00  0.00     0.014 A 
HETATM   34  C   UNL     1      -5.772  -1.726 -34.260  1.00  0.00    -0.022 A 
HETATM   35  C   UNL     1      -5.326  -0.876 -33.236  1.00  0.00     0.033 A 
HETATM   36  S   UNL     1      -5.362   1.718 -32.125  1.00  0.00    -0.063 SA
BRANCH  34  37
HETATM   37  C   UNL     1      -5.314  -3.104 -34.327  1.00  0.00     0.010 A 
HETATM   38  C   UNL     1      -5.952  -4.268 -34.818  1.00  0.00     0.152 A 
HETATM   39  N   UNL     1      -5.194  -5.361 -34.703  1.00  0.00    -0.187 NA
HETATM   40  N   UNL     1      -4.066  -4.905 -34.138  1.00  0.00    -0.289 N 
HETATM   41  H   UNL     1      -3.321  -5.567 -33.947  1.00  0.00     0.188 HD
HETATM   42  C   UNL     1      -4.087  -3.561 -33.892  1.00  0.00     0.123 A 
ENDBRANCH  34  37
ENDBRANCH  23  28
ENDBRANCH   1  22
TORSDOF 9
ENDMDL
MODEL 6
REMARK VINA RESULT:      -9.0      6.122      9.647
REMARK  9 active torsions:
REMARK  status: ('A' for Active; 'I' for Inactive)
REMARK    1  A    between atoms: N_6  and  C_7 
REMARK    2  A    between atoms: C_7  and  C_8 
REMARK    3  A    between atoms: C_8  and  N_9 
REMARK       I    between atoms: N_9  and  C_10 
REMARK    4  A    between atoms: C_10  and  C_12 
REMARK    5  A    between atoms: C_16  and  C_17 
REMARK    6  A    between atoms: C_17  and  N_18 
REMARK    7  A    between atoms: N_18  and  C_19 
REMARK       I    between atoms: N_18  and  C_22 
REMARK    8  A    between atoms: C_22  and  C_24 
REMARK    9  A    between atoms: C_29  and  C_33 
ROOT
HETATM    1  C   UNL     1      -5.868   6.131 -31.016  1.00  0.00     0.165 C 
ENDROOT
BRANCH   1   2
HETATM    2  C   UNL     1      -6.891   7.138 -31.492  1.00  0.00    -0.039 A 
HETATM    3  C   UNL     1      -6.719   8.506 -31.240  1.00  0.00     0.009 A 
HETATM    4  C   UNL     1      -7.651   9.437 -31.699  1.00  0.00     0.002 A 
HETATM    5  C   UNL     1      -8.762   9.016 -32.432  1.00  0.00     0.017 A 
HETATM    6  C   UNL     1      -8.940   7.657 -32.715  1.00  0.00     0.032 A 
HETATM    7  C   UNL     1      -8.012   6.723 -32.229  1.00  0.00     0.026 A 
BRANCH   6   8
HETATM    8  C   UNL     1     -10.092   7.150 -33.516  1.00  0.00     0.251 C 
HETATM    9  N   UNL     1      -9.798   6.336 -34.598  1.00  0.00    -0.355 N 
HETATM   10  H   UNL     1      -8.870   5.937 -34.664  1.00  0.00     0.162 HD
HETATM   11  O   UNL     1     -11.247   7.427 -33.199  1.00  0.00    -0.268 OA
BRANCH   9  12
HETATM   12  C   UNL     1     -10.862   5.661 -35.322  1.00  0.00     0.153 C 
BRANCH  12  13
HETATM   13  C   UNL     1     -10.731   4.122 -35.259  1.00  0.00     0.292 C 
BRANCH  13  14
HETATM   14  N   UNL     1     -11.772   3.412 -34.480  1.00  0.00     0.093 N 
HETATM   15  C   UNL     1     -11.646   3.739 -33.039  1.00  0.00     0.300 C 
HETATM   16  C   UNL     1     -10.435   3.098 -32.319  1.00  0.00     0.264 C 
HETATM   17  N   UNL     1     -10.416   1.594 -32.544  1.00  0.00    -0.072 N 
HETATM   18  C   UNL     1      -9.237   0.941 -31.892  1.00  0.00     0.269 C 
HETATM   19  H   UNL     1     -11.266   1.217 -32.106  1.00  0.00     0.279 HD
HETATM   20  C   UNL     1     -10.498   1.250 -34.025  1.00  0.00     0.264 C 
HETATM   21  C   UNL     1     -11.727   1.942 -34.650  1.00  0.00     0.300 C 
ENDBRANCH  13  14
ENDBRANCH  12  13
ENDBRANCH   9  12
ENDBRANCH   6   8
ENDBRANCH   1   2
BRANCH   1  22
HETATM   22  N   UNL     1      -6.149   4.765 -31.458  1.00  0.00    -0.337 N 
HETATM   23  C   UNL     1      -5.323   4.221 -32.473  1.00  0.00     0.280 C 
HETATM   24  O   UNL     1      -4.438   4.927 -32.970  1.00  0.00    -0.265 OA
BRANCH  22  25
HETATM   25  C   UNL     1      -7.161   4.018 -30.749  1.00  0.00     0.088 A 
HETATM   26  C   UNL     1      -6.861   3.036 -29.641  1.00  0.00     0.027 A 
HETATM   27  C   UNL     1      -7.503   4.345 -29.315  1.00  0.00     0.027 A 
ENDBRANCH  22  25
BRANCH  23  28
HETATM   28  C   UNL     1      -5.542   2.839 -32.931  1.00  0.00     0.166 A 
HETATM   29  N   UNL     1      -6.436   2.441 -33.816  1.00  0.00    -0.235 NA
HETATM   30  C   UNL     1      -6.309   1.081 -34.046  1.00  0.00     0.075 A 
HETATM   31  C   UNL     1      -7.058   0.322 -34.965  1.00  0.00     0.034 A 
HETATM   32  C   UNL     1      -5.331   0.434 -33.290  1.00  0.00     0.036 A 
HETATM   33  C   UNL     1      -6.801  -1.048 -35.113  1.00  0.00     0.014 A 
HETATM   34  C   UNL     1      -5.815  -1.685 -34.351  1.00  0.00    -0.022 A 
HETATM   35  C   UNL     1      -5.073  -0.942 -33.421  1.00  0.00     0.033 A 
HETATM   36  S   UNL     1      -4.569   1.582 -32.264  1.00  0.00    -0.063 SA
BRANCH  34  37
HETATM   37  C   UNL     1      -5.550  -3.101 -34.545  1.00  0.00     0.010 A 
HETATM   38  C   UNL     1      -6.343  -4.121 -35.123  1.00  0.00     0.152 A 
HETATM   39  N   UNL     1      -5.742  -5.312 -35.115  1.00  0.00    -0.187 NA
HETATM   40  N   UNL     1      -4.560  -5.065 -34.531  1.00  0.00    -0.289 N 
HETATM   41  H   UNL     1      -3.911  -5.837 -34.410  1.00  0.00     0.188 HD
HETATM   42  C   UNL     1      -4.395  -3.758 -34.170  1.00  0.00     0.123 A 
ENDBRANCH  34  37
ENDBRANCH  23  28
ENDBRANCH   1  22
TORSDOF 9
ENDMDL
MODEL 7
REMARK VINA RESULT:      -8.9      4.078      6.514
REMARK  9 active torsions:
REMARK  status: ('A' for Active; 'I' for Inactive)
REMARK    1  A    between atoms: N_6  and  C_7 
REMARK    2  A    between atoms: C_7  and  C_8 
REMARK    3  A    between atoms: C_8  and  N_9 
REMARK       I    between atoms: N_9  and  C_10 
REMARK    4  A    between atoms: C_10  and  C_12 
REMARK    5  A    between atoms: C_16  and  C_17 
REMARK    6  A    between atoms: C_17  and  N_18 
REMARK    7  A    between atoms: N_18  and  C_19 
REMARK       I    between atoms: N_18  and  C_22 
REMARK    8  A    between atoms: C_22  and  C_24 
REMARK    9  A    between atoms: C_29  and  C_33 
ROOT
HETATM    1  C   UNL     1      -8.681   5.632 -31.938  1.00  0.00     0.165 C 
ENDROOT
BRANCH   1   2
HETATM    2  C   UNL     1      -8.254   6.289 -30.645  1.00  0.00    -0.039 A 
HETATM    3  C   UNL     1      -9.208   6.746 -29.726  1.00  0.00     0.009 A 
HETATM    4  C   UNL     1      -8.813   7.330 -28.522  1.00  0.00     0.002 A 
HETATM    5  C   UNL     1      -7.458   7.453 -28.211  1.00  0.00     0.017 A 
HETATM    6  C   UNL     1      -6.489   6.981 -29.104  1.00  0.00     0.032 A 
HETATM    7  C   UNL     1      -6.892   6.416 -30.325  1.00  0.00     0.026 A 
BRANCH   6   8
HETATM    8  C   UNL     1      -5.027   7.058 -28.816  1.00  0.00     0.251 C 
HETATM    9  N   UNL     1      -4.165   6.903 -29.889  1.00  0.00    -0.355 N 
HETATM   10  H   UNL     1      -4.540   6.977 -30.826  1.00  0.00     0.162 HD
HETATM   11  O   UNL     1      -4.623   7.279 -27.677  1.00  0.00    -0.268 OA
BRANCH   9  12
HETATM   12  C   UNL     1      -2.739   7.137 -29.726  1.00  0.00     0.153 C 
BRANCH  12  13
HETATM   13  C   UNL     1      -2.062   7.578 -31.044  1.00  0.00     0.292 C 
BRANCH  13  14
HETATM   14  N   UNL     1      -1.174   6.581 -31.685  1.00  0.00     0.093 N 
HETATM   15  C   UNL     1      -0.867   6.988 -33.078  1.00  0.00     0.300 C 
HETATM   16  C   UNL     1      -2.035   6.838 -34.083  1.00  0.00     0.264 C 
HETATM   17  N   UNL     1      -2.601   5.428 -34.035  1.00  0.00    -0.072 N 
HETATM   18  C   UNL     1      -3.759   5.253 -34.969  1.00  0.00     0.269 C 
HETATM   19  H   UNL     1      -1.852   4.795 -34.343  1.00  0.00     0.279 HD
HETATM   20  C   UNL     1      -2.963   5.019 -32.614  1.00  0.00     0.264 C 
HETATM   21  C   UNL     1      -1.741   5.214 -31.693  1.00  0.00     0.300 C 
ENDBRANCH  13  14
ENDBRANCH  12  13
ENDBRANCH   9  12
ENDBRANCH   6   8
ENDBRANCH   1   2
BRANCH   1  22
HETATM   22  N   UNL     1      -8.163   4.273 -32.099  1.00  0.00    -0.337 N 
HETATM   23  C   UNL     1      -7.355   4.008 -33.232  1.00  0.00     0.280 C 
HETATM   24  O   UNL     1      -7.156   4.913 -34.052  1.00  0.00    -0.265 OA
BRANCH  22  25
HETATM   25  C   UNL     1      -8.404   3.327 -31.035  1.00  0.00     0.088 A 
HETATM   26  C   UNL     1      -9.750   3.124 -30.379  1.00  0.00     0.027 A 
HETATM   27  C   UNL     1      -9.201   2.069 -31.283  1.00  0.00     0.027 A 
ENDBRANCH  22  25
BRANCH  23  28
HETATM   28  C   UNL     1      -6.782   2.666 -33.423  1.00  0.00     0.166 A 
HETATM   29  N   UNL     1      -5.643   2.224 -32.925  1.00  0.00    -0.235 NA
HETATM   30  C   UNL     1      -5.459   0.892 -33.259  1.00  0.00     0.075 A 
HETATM   31  C   UNL     1      -4.383   0.078 -32.857  1.00  0.00     0.034 A 
HETATM   32  C   UNL     1      -6.454   0.333 -34.059  1.00  0.00     0.036 A 
HETATM   33  C   UNL     1      -4.341  -1.267 -33.251  1.00  0.00     0.014 A 
HETATM   34  C   UNL     1      -5.348  -1.818 -34.051  1.00  0.00    -0.022 A 
HETATM   35  C   UNL     1      -6.417  -1.011 -34.470  1.00  0.00     0.033 A 
HETATM   36  S   UNL     1      -7.639   1.531 -34.394  1.00  0.00    -0.063 SA
BRANCH  34  37
HETATM   37  C   UNL     1      -5.294  -3.223 -34.421  1.00  0.00     0.010 A 
HETATM   38  C   UNL     1      -6.221  -4.032 -35.119  1.00  0.00     0.152 A 
HETATM   39  N   UNL     1      -5.805  -5.292 -35.262  1.00  0.00    -0.187 NA
HETATM   40  N   UNL     1      -4.608  -5.299 -34.657  1.00  0.00    -0.289 N 
HETATM   41  H   UNL     1      -4.083  -6.168 -34.636  1.00  0.00     0.188 HD
HETATM   42  C   UNL     1      -4.256  -4.086 -34.136  1.00  0.00     0.123 A 
ENDBRANCH  34  37
ENDBRANCH  23  28
ENDBRANCH   1  22
TORSDOF 9
ENDMDL
MODEL 8
REMARK VINA RESULT:      -8.8      4.013      5.553
REMARK  9 active torsions:
REMARK  status: ('A' for Active; 'I' for Inactive)
REMARK    1  A    between atoms: N_6  and  C_7 
REMARK    2  A    between atoms: C_7  and  C_8 
REMARK    3  A    between atoms: C_8  and  N_9 
REMARK       I    between atoms: N_9  and  C_10 
REMARK    4  A    between atoms: C_10  and  C_12 
REMARK    5  A    between atoms: C_16  and  C_17 
REMARK    6  A    between atoms: C_17  and  N_18 
REMARK    7  A    between atoms: N_18  and  C_19 
REMARK       I    between atoms: N_18  and  C_22 
REMARK    8  A    between atoms: C_22  and  C_24 
REMARK    9  A    between atoms: C_29  and  C_33 
ROOT
HETATM    1  C   UNL     1      -3.786   2.377 -31.601  1.00  0.00     0.165 C 
ENDROOT
BRANCH   1   2
HETATM    2  C   UNL     1      -2.901   3.495 -32.104  1.00  0.00    -0.039 A 
HETATM    3  C   UNL     1      -3.031   3.976 -33.414  1.00  0.00     0.009 A 
HETATM    4  C   UNL     1      -2.230   5.023 -33.871  1.00  0.00     0.002 A 
HETATM    5  C   UNL     1      -1.297   5.617 -33.019  1.00  0.00     0.017 A 
HETATM    6  C   UNL     1      -1.168   5.168 -31.699  1.00  0.00     0.032 A 
HETATM    7  C   UNL     1      -1.960   4.098 -31.254  1.00  0.00     0.026 A 
BRANCH   6   8
HETATM    8  C   UNL     1      -0.209   5.781 -30.734  1.00  0.00     0.251 C 
HETATM    9  N   UNL     1      -0.306   5.382 -29.411  1.00  0.00    -0.355 N 
HETATM   10  H   UNL     1      -0.840   4.550 -29.195  1.00  0.00     0.162 HD
HETATM   11  O   UNL     1       0.642   6.581 -31.118  1.00  0.00    -0.268 OA
BRANCH   9  12
HETATM   12  C   UNL     1       0.697   5.795 -28.444  1.00  0.00     0.153 C 
BRANCH  12  13
HETATM   13  C   UNL     1       0.188   6.920 -27.514  1.00  0.00     0.292 C 
BRANCH  13  14
HETATM   14  N   UNL     1      -1.152   7.469 -27.828  1.00  0.00     0.093 N 
HETATM   15  C   UNL     1      -1.029   8.847 -28.363  1.00  0.00     0.300 C 
HETATM   16  C   UNL     1      -0.649   9.928 -27.322  1.00  0.00     0.264 C 
HETATM   17  N   UNL     1      -1.597   9.881 -26.135  1.00  0.00    -0.072 N 
HETATM   18  C   UNL     1      -1.240  10.891 -25.087  1.00  0.00     0.269 C 
HETATM   19  H   UNL     1      -2.532  10.118 -26.491  1.00  0.00     0.279 HD
HETATM   20  C   UNL     1      -1.694   8.479 -25.551  1.00  0.00     0.264 C 
HETATM   21  C   UNL     1      -2.066   7.479 -26.664  1.00  0.00     0.300 C 
ENDBRANCH  13  14
ENDBRANCH  12  13
ENDBRANCH   9  12
ENDBRANCH   6   8
ENDBRANCH   1   2
BRANCH   1  22
HETATM   22  N   UNL     1      -5.208   2.598 -31.865  1.00  0.00    -0.337 N 
HETATM   23  C   UNL     1      -5.857   1.708 -32.756  1.00  0.00     0.280 C 
HETATM   24  O   UNL     1      -5.195   0.817 -33.303  1.00  0.00    -0.265 OA
BRANCH  22  25
HETATM   25  C   UNL     1      -5.886   3.626 -31.109  1.00  0.00     0.088 A 
HETATM   26  C   UNL     1      -6.695   3.356 -29.862  1.00  0.00     0.027 A 
HETATM   27  C   UNL     1      -5.377   4.052 -29.752  1.00  0.00     0.027 A 
ENDBRANCH  22  25
BRANCH  23  28
HETATM   28  C   UNL     1      -7.294   1.866 -33.030  1.00  0.00     0.166 A 
HETATM   29  N   UNL     1      -7.848   2.794 -33.788  1.00  0.00    -0.235 NA
HETATM   30  C   UNL     1      -9.216   2.592 -33.868  1.00  0.00     0.075 A 
HETATM   31  C   UNL     1     -10.123   3.354 -34.629  1.00  0.00     0.034 A 
HETATM   32  C   UNL     1      -9.708   1.522 -33.122  1.00  0.00     0.036 A 
HETATM   33  C   UNL     1     -11.484   3.017 -34.636  1.00  0.00     0.014 A 
HETATM   34  C   UNL     1     -11.965   1.938 -33.887  1.00  0.00    -0.022 A 
HETATM   35  C   UNL     1     -11.073   1.181 -33.112  1.00  0.00     0.033 A 
HETATM   36  S   UNL     1      -8.402   0.766 -32.302  1.00  0.00    -0.063 SA
BRANCH  34  37
HETATM   37  C   UNL     1     -13.377   1.593 -33.934  1.00  0.00     0.010 A 
HETATM   38  C   UNL     1     -14.075   0.661 -34.739  1.00  0.00     0.152 A 
HETATM   39  N   UNL     1     -15.385   0.636 -34.484  1.00  0.00    -0.187 NA
HETATM   40  N   UNL     1     -15.535   1.551 -33.514  1.00  0.00    -0.289 N 
HETATM   41  H   UNL     1     -16.467   1.715 -33.147  1.00  0.00     0.188 HD
HETATM   42  C   UNL     1     -14.364   2.153 -33.151  1.00  0.00     0.123 A 
ENDBRANCH  34  37
ENDBRANCH  23  28
ENDBRANCH   1  22
TORSDOF 9
ENDMDL
MODEL 9
REMARK VINA RESULT:      -8.6      2.940      3.622
REMARK  9 active torsions:
REMARK  status: ('A' for Active; 'I' for Inactive)
REMARK    1  A    between atoms: N_6  and  C_7 
REMARK    2  A    between atoms: C_7  and  C_8 
REMARK    3  A    between atoms: C_8  and  N_9 
REMARK       I    between atoms: N_9  and  C_10 
REMARK    4  A    between atoms: C_10  and  C_12 
REMARK    5  A    between atoms: C_16  and  C_17 
REMARK    6  A    between atoms: C_17  and  N_18 
REMARK    7  A    between atoms: N_18  and  C_19 
REMARK       I    between atoms: N_18  and  C_22 
REMARK    8  A    between atoms: C_22  and  C_24 
REMARK    9  A    between atoms: C_29  and  C_33 
ROOT
HETATM    1  C   UNL     1      -1.727   6.705 -32.060  1.00  0.00     0.165 C 
ENDROOT
BRANCH   1   2
HETATM    2  C   UNL     1      -0.834   6.399 -30.880  1.00  0.00    -0.039 A 
HETATM    3  C   UNL     1      -0.187   5.161 -30.774  1.00  0.00     0.009 A 
HETATM    4  C   UNL     1       0.656   4.888 -29.696  1.00  0.00     0.002 A 
HETATM    5  C   UNL     1       0.879   5.856 -28.715  1.00  0.00     0.017 A 
HETATM    6  C   UNL     1       0.262   7.108 -28.815  1.00  0.00     0.032 A 
HETATM    7  C   UNL     1      -0.605   7.367 -29.888  1.00  0.00     0.026 A 
BRANCH   6   8
HETATM    8  C   UNL     1       0.482   8.192 -27.814  1.00  0.00     0.251 C 
HETATM    9  N   UNL     1       1.477   7.988 -26.873  1.00  0.00    -0.355 N 
HETATM   10  H   UNL     1       2.152   7.251 -27.035  1.00  0.00     0.162 HD
HETATM   11  O   UNL     1      -0.182   9.226 -27.853  1.00  0.00    -0.268 OA
BRANCH   9  12
HETATM   12  C   UNL     1       1.872   9.061 -25.976  1.00  0.00     0.153 C 
BRANCH  12  13
HETATM   13  C   UNL     1       2.686   8.547 -24.767  1.00  0.00     0.292 C 
BRANCH  13  14
HETATM   14  N   UNL     1       3.160   9.579 -23.814  1.00  0.00     0.093 N 
HETATM   15  C   UNL     1       4.640   9.674 -23.856  1.00  0.00     0.300 C 
HETATM   16  C   UNL     1       5.396   8.490 -23.206  1.00  0.00     0.264 C 
HETATM   17  N   UNL     1       4.901   8.255 -21.788  1.00  0.00    -0.072 N 
HETATM   18  C   UNL     1       5.585   7.093 -21.137  1.00  0.00     0.269 C 
HETATM   19  H   UNL     1       5.133   9.098 -21.248  1.00  0.00     0.279 HD
HETATM   20  C   UNL     1       3.386   8.110 -21.742  1.00  0.00     0.264 C 
HETATM   21  C   UNL     1       2.729   9.329 -22.421  1.00  0.00     0.300 C 
ENDBRANCH  13  14
ENDBRANCH  12  13
ENDBRANCH   9  12
ENDBRANCH   6   8
ENDBRANCH   1   2
BRANCH   1  22
HETATM   22  N   UNL     1      -2.715   5.659 -32.328  1.00  0.00    -0.337 N 
HETATM   23  C   UNL     1      -3.837   5.579 -31.466  1.00  0.00     0.280 C 
HETATM   24  O   UNL     1      -3.914   6.357 -30.507  1.00  0.00    -0.265 OA
BRANCH  22  25
HETATM   25  C   UNL     1      -2.550   4.860 -33.520  1.00  0.00     0.088 A 
HETATM   26  C   UNL     1      -3.054   5.272 -34.884  1.00  0.00     0.027 A 
HETATM   27  C   UNL     1      -1.586   5.278 -34.604  1.00  0.00     0.027 A 
ENDBRANCH  22  25
BRANCH  23  28
HETATM   28  C   UNL     1      -4.876   4.566 -31.711  1.00  0.00     0.166 A 
HETATM   29  N   UNL     1      -4.828   3.295 -31.357  1.00  0.00    -0.235 NA
HETATM   30  C   UNL     1      -6.012   2.660 -31.694  1.00  0.00     0.075 A 
HETATM   31  C   UNL     1      -6.339   1.318 -31.424  1.00  0.00     0.034 A 
HETATM   32  C   UNL     1      -6.951   3.454 -32.352  1.00  0.00     0.036 A 
HETATM   33  C   UNL     1      -7.591   0.814 -31.801  1.00  0.00     0.014 A 
HETATM   34  C   UNL     1      -8.527   1.622 -32.457  1.00  0.00    -0.022 A 
HETATM   35  C   UNL     1      -8.206   2.957 -32.747  1.00  0.00     0.033 A 
HETATM   36  S   UNL     1      -6.307   5.034 -32.548  1.00  0.00    -0.063 SA
BRANCH  34  37
HETATM   37  C   UNL     1      -9.830   1.082 -32.812  1.00  0.00     0.010 A 
HETATM   38  C   UNL     1     -10.328  -0.242 -32.761  1.00  0.00     0.152 A 
HETATM   39  N   UNL     1     -11.592  -0.336 -33.180  1.00  0.00    -0.187 NA
HETATM   40  N   UNL     1     -11.912   0.926 -33.503  1.00  0.00    -0.289 N 
HETATM   41  H   UNL     1     -12.845   1.111 -33.855  1.00  0.00     0.188 HD
HETATM   42  C   UNL     1     -10.892   1.813 -33.303  1.00  0.00     0.123 A 
ENDBRANCH  34  37
ENDBRANCH  23  28
ENDBRANCH   1  22
TORSDOF 9
ENDMDL
MODEL 10
REMARK VINA RESULT:      -8.5      3.274     12.257
REMARK  9 active torsions:
REMARK  status: ('A' for Active; 'I' for Inactive)
REMARK    1  A    between atoms: N_6  and  C_7 
REMARK    2  A    between atoms: C_7  and  C_8 
REMARK    3  A    between atoms: C_8  and  N_9 
REMARK       I    between atoms: N_9  and  C_10 
REMARK    4  A    between atoms: C_10  and  C_12 
REMARK    5  A    between atoms: C_16  and  C_17 
REMARK    6  A    between atoms: C_17  and  N_18 
REMARK    7  A    between atoms: N_18  and  C_19 
REMARK       I    between atoms: N_18  and  C_22 
REMARK    8  A    between atoms: C_22  and  C_24 
REMARK    9  A    between atoms: C_29  and  C_33 
ROOT
HETATM    1  C   UNL     1      -4.037   3.811 -32.947  1.00  0.00     0.165 C 
ENDROOT
BRANCH   1   2
HETATM    2  C   UNL     1      -4.322   2.405 -32.470  1.00  0.00    -0.039 A 
HETATM    3  C   UNL     1      -3.404   1.726 -31.657  1.00  0.00     0.009 A 
HETATM    4  C   UNL     1      -3.678   0.437 -31.198  1.00  0.00     0.002 A 
HETATM    5  C   UNL     1      -4.881  -0.187 -31.532  1.00  0.00     0.017 A 
HETATM    6  C   UNL     1      -5.822   0.483 -32.323  1.00  0.00     0.032 A 
HETATM    7  C   UNL     1      -5.529   1.769 -32.802  1.00  0.00     0.026 A 
BRANCH   6   8
HETATM    8  C   UNL     1      -7.135  -0.121 -32.691  1.00  0.00     0.251 C 
HETATM    9  N   UNL     1      -8.275   0.547 -32.273  1.00  0.00    -0.355 N 
HETATM   10  H   UNL     1      -8.185   1.504 -31.954  1.00  0.00     0.162 HD
HETATM   11  O   UNL     1      -7.187  -1.151 -33.360  1.00  0.00    -0.268 OA
BRANCH   9  12
HETATM   12  C   UNL     1      -9.586   0.124 -32.736  1.00  0.00     0.153 C 
BRANCH  12  13
HETATM   13  C   UNL     1     -10.168   1.077 -33.805  1.00  0.00     0.292 C 
BRANCH  13  14
HETATM   14  N   UNL     1     -11.301   1.928 -33.372  1.00  0.00     0.093 N 
HETATM   15  C   UNL     1     -12.042   2.434 -34.552  1.00  0.00     0.300 C 
HETATM   16  C   UNL     1     -11.316   3.530 -35.369  1.00  0.00     0.264 C 
HETATM   17  N   UNL     1     -10.882   4.671 -34.462  1.00  0.00    -0.072 N 
HETATM   18  C   UNL     1     -10.142   5.737 -35.210  1.00  0.00     0.269 C 
HETATM   19  H   UNL     1     -11.739   5.092 -34.083  1.00  0.00     0.279 HD
HETATM   20  C   UNL     1     -10.080   4.165 -33.271  1.00  0.00     0.264 C 
HETATM   21  C   UNL     1     -10.882   3.074 -32.533  1.00  0.00     0.300 C 
ENDBRANCH  13  14
ENDBRANCH  12  13
ENDBRANCH   9  12
ENDBRANCH   6   8
ENDBRANCH   1   2
BRANCH   1  22
HETATM   22  N   UNL     1      -3.487   4.679 -31.904  1.00  0.00    -0.337 N 
HETATM   23  C   UNL     1      -2.162   5.150 -32.073  1.00  0.00     0.280 C 
HETATM   24  O   UNL     1      -1.514   4.780 -33.061  1.00  0.00    -0.265 OA
BRANCH  22  25
HETATM   25  C   UNL     1      -4.367   5.098 -30.838  1.00  0.00     0.088 A 
HETATM   26  C   UNL     1      -5.286   6.295 -30.928  1.00  0.00     0.027 A 
HETATM   27  C   UNL     1      -5.862   4.916 -30.951  1.00  0.00     0.027 A 
ENDBRANCH  22  25
BRANCH  23  28
HETATM   28  C   UNL     1      -1.573   6.051 -31.070  1.00  0.00     0.166 A 
HETATM   29  N   UNL     1      -2.044   7.229 -30.706  1.00  0.00    -0.235 NA
HETATM   30  C   UNL     1      -1.266   7.762 -29.691  1.00  0.00     0.075 A 
HETATM   31  C   UNL     1      -1.498   8.978 -29.021  1.00  0.00     0.034 A 
HETATM   32  C   UNL     1      -0.165   6.994 -29.314  1.00  0.00     0.036 A 
HETATM   33  C   UNL     1      -0.638   9.382 -27.990  1.00  0.00     0.014 A 
HETATM   34  C   UNL     1       0.461   8.601 -27.617  1.00  0.00    -0.022 A 
HETATM   35  C   UNL     1       0.711   7.394 -28.290  1.00  0.00     0.033 A 
HETATM   36  S   UNL     1      -0.121   5.572 -30.277  1.00  0.00    -0.063 SA
BRANCH  34  37
HETATM   37  C   UNL     1       1.320   9.029 -26.526  1.00  0.00     0.010 A 
HETATM   38  C   UNL     1       2.192   8.291 -25.690  1.00  0.00     0.152 A 
HETATM   39  N   UNL     1       2.816   9.054 -24.790  1.00  0.00    -0.187 NA
HETATM   40  N   UNL     1       2.348  10.286 -25.042  1.00  0.00    -0.289 N 
HETATM   41  H   UNL     1       2.684  11.055 -24.471  1.00  0.00     0.188 HD
HETATM   42  C   UNL     1       1.449  10.325 -26.070  1.00  0.00     0.123 A 
ENDBRANCH  34  37
ENDBRANCH  23  28
ENDBRANCH   1  22
TORSDOF 9
ENDMDL
