MODEL 1
REMARK VINA RESULT:      -8.0      0.000      0.000
REMARK  7 active torsions:
REMARK  status: ('A' for Active; 'I' for Inactive)
REMARK    1  A    between atoms: C_7  and  C_8 
REMARK    2  A    between atoms: C_8  and  N_9 
REMARK       I    between atoms: N_9  and  C_10 
REMARK       I    between atoms: C_10  and  N_11 
REMARK    3  A    between atoms: N_11  and  C_12 
REMARK    4  A    between atoms: C_12  and  C_13 
REMARK    5  A    between atoms: C_13  and  C_14 
REMARK    6  A    between atoms: C_14  and  O_15 
REMARK    7  A    between atoms: C_14  and  C_16 
ROOT
HETATM    1  N   UNL     1      -3.012   3.031 -31.779  1.00  0.00    -0.337 N 
HETATM    2  C   UNL     1      -2.871   4.390 -31.647  1.00  0.00     0.316 C 
HETATM    3  N   UNL     1      -1.655   4.826 -32.093  1.00  0.00    -0.339 N 
HETATM    4  O   UNL     1      -3.775   5.125 -31.265  1.00  0.00    -0.247 OA
HETATM    5  H   UNL     1      -2.141   2.523 -31.824  1.00  0.00     0.164 HD
HETATM    6  H   UNL     1      -0.888   4.170 -32.051  1.00  0.00     0.164 HD
ENDROOT
BRANCH   1   7
HETATM    7  C   UNL     1      -4.147   2.321 -31.221  1.00  0.00     0.183 C 
BRANCH   7   8
HETATM    8  C   UNL     1      -4.625   1.234 -32.117  1.00  0.00     0.044 A 
HETATM    9  N   UNL     1      -3.995   0.001 -32.194  1.00  0.00    -0.343 N 
HETATM   10  C   UNL     1      -4.583  -0.787 -33.079  1.00  0.00     0.112 A 
HETATM   11  H   UNL     1      -3.214  -0.259 -31.579  1.00  0.00     0.167 HD
HETATM   12  N   UNL     1      -5.616  -0.103 -33.611  1.00  0.00    -0.311 N 
HETATM   13  C   UNL     1      -4.262  -2.171 -33.497  1.00  0.00     0.049 A 
HETATM   14  C   UNL     1      -6.452  -0.649 -34.585  1.00  0.00     0.014 A 
HETATM   15  C   UNL     1      -5.663   1.156 -33.021  1.00  0.00     0.125 A 
HETATM   16  C   UNL     1      -7.597   0.134 -35.150  1.00  0.00     0.068 C 
HETATM   17  C   UNL     1      -6.164  -1.911 -34.978  1.00  0.00     0.025 A 
HETATM   18  C   UNL     1      -5.059  -2.698 -34.441  1.00  0.00     0.006 A 
ENDBRANCH   7   8
ENDBRANCH   1   7
BRANCH   3  19
HETATM   19  C   UNL     1      -1.282   6.236 -32.055  1.00  0.00     0.085 C 
HETATM   20  C   UNL     1      -0.950   6.721 -33.463  1.00  0.00     0.032 C 
BRANCH  19  21
HETATM   21  C   UNL     1      -0.201   6.552 -30.998  1.00  0.00     0.063 C 
BRANCH  21  22
HETATM   22  C   UNL     1      -0.459   6.158 -29.539  1.00  0.00     0.177 C 
BRANCH  22  23
HETATM   23  O   UNL     1      -1.836   6.306 -29.208  1.00  0.00    -0.389 OA
HETATM   24  H   UNL     1      -2.320   6.429 -30.043  1.00  0.00     0.210 HD
ENDBRANCH  22  23
BRANCH  22  25
HETATM   25  C   UNL     1       0.333   6.923 -28.536  1.00  0.00     0.081 A 
HETATM   26  O   UNL     1       0.315   6.455 -27.250  1.00  0.00    -0.324 OA
HETATM   27  C   UNL     1       1.028   7.330 -26.496  1.00  0.00     0.142 A 
HETATM   28  C   UNL     1       1.529   8.344 -27.276  1.00  0.00     0.027 A 
HETATM   29  C   UNL     1       1.081   8.083 -28.593  1.00  0.00     0.037 A 
ENDBRANCH  22  25
ENDBRANCH  21  22
ENDBRANCH  19  21
ENDBRANCH   3  19
TORSDOF 7
ENDMDL
MODEL 2
REMARK VINA RESULT:      -7.9      0.710      1.710
REMARK  7 active torsions:
REMARK  status: ('A' for Active; 'I' for Inactive)
REMARK    1  A    between atoms: C_7  and  C_8 
REMARK    2  A    between atoms: C_8  and  N_9 
REMARK       I    between atoms: N_9  and  C_10 
REMARK       I    between atoms: C_10  and  N_11 
REMARK    3  A    between atoms: N_11  and  C_12 
REMARK    4  A    between atoms: C_12  and  C_13 
REMARK    5  A    between atoms: C_13  and  C_14 
REMARK    6  A    between atoms: C_14  and  O_15 
REMARK    7  A    between atoms: C_14  and  C_16 
ROOT
HETATM    1  N   UNL     1      -2.991   3.312 -31.635  1.00  0.00    -0.337 N 
HETATM    2  C   UNL     1      -2.807   4.658 -31.443  1.00  0.00     0.316 C 
HETATM    3  N   UNL     1      -1.587   5.080 -31.891  1.00  0.00    -0.339 N 
HETATM    4  O   UNL     1      -3.682   5.402 -31.011  1.00  0.00    -0.247 OA
HETATM    5  H   UNL     1      -2.136   2.781 -31.719  1.00  0.00     0.164 HD
HETATM    6  H   UNL     1      -0.839   4.400 -31.895  1.00  0.00     0.164 HD
ENDROOT
BRANCH   1   7
HETATM    7  C   UNL     1      -4.136   2.611 -31.088  1.00  0.00     0.183 C 
BRANCH   7   8
HETATM    8  C   UNL     1      -4.780   1.720 -32.091  1.00  0.00     0.044 A 
HETATM    9  N   UNL     1      -5.871   2.119 -32.850  1.00  0.00    -0.343 N 
HETATM   10  C   UNL     1      -6.285   1.147 -33.647  1.00  0.00     0.112 A 
HETATM   11  H   UNL     1      -6.242   3.076 -32.821  1.00  0.00     0.167 HD
HETATM   12  N   UNL     1      -5.484   0.082 -33.440  1.00  0.00    -0.311 N 
HETATM   13  C   UNL     1      -7.401   1.111 -34.619  1.00  0.00     0.049 A 
HETATM   14  C   UNL     1      -5.650  -1.121 -34.127  1.00  0.00     0.014 A 
HETATM   15  C   UNL     1      -4.537   0.420 -32.479  1.00  0.00     0.125 A 
HETATM   16  C   UNL     1      -4.737  -2.284 -33.882  1.00  0.00     0.068 C 
HETATM   17  C   UNL     1      -6.669  -1.166 -35.015  1.00  0.00     0.025 A 
HETATM   18  C   UNL     1      -7.569  -0.047 -35.277  1.00  0.00     0.006 A 
ENDBRANCH   7   8
ENDBRANCH   1   7
BRANCH   3  19
HETATM   19  C   UNL     1      -1.171   6.475 -31.797  1.00  0.00     0.085 C 
HETATM   20  C   UNL     1      -0.907   7.032 -33.193  1.00  0.00     0.032 C 
BRANCH  19  21
HETATM   21  C   UNL     1      -0.021   6.701 -30.790  1.00  0.00     0.063 C 
BRANCH  21  22
HETATM   22  C   UNL     1      -0.232   6.296 -29.327  1.00  0.00     0.177 C 
BRANCH  22  23
HETATM   23  O   UNL     1      -1.608   6.389 -28.967  1.00  0.00    -0.389 OA
HETATM   24  H   UNL     1      -2.113   6.492 -29.792  1.00  0.00     0.210 HD
ENDBRANCH  22  23
BRANCH  22  25
HETATM   25  C   UNL     1       0.549   7.092 -28.339  1.00  0.00     0.081 A 
HETATM   26  O   UNL     1       0.582   6.620 -27.056  1.00  0.00    -0.324 OA
HETATM   27  C   UNL     1       1.275   7.522 -26.315  1.00  0.00     0.142 A 
HETATM   28  C   UNL     1       1.712   8.560 -27.103  1.00  0.00     0.027 A 
HETATM   29  C   UNL     1       1.244   8.284 -28.409  1.00  0.00     0.037 A 
ENDBRANCH  22  25
ENDBRANCH  21  22
ENDBRANCH  19  21
ENDBRANCH   3  19
TORSDOF 7
ENDMDL
MODEL 3
REMARK VINA RESULT:      -7.9      2.394      3.692
REMARK  7 active torsions:
REMARK  status: ('A' for Active; 'I' for Inactive)
REMARK    1  A    between atoms: C_7  and  C_8 
REMARK    2  A    between atoms: C_8  and  N_9 
REMARK       I    between atoms: N_9  and  C_10 
REMARK       I    between atoms: C_10  and  N_11 
REMARK    3  A    between atoms: N_11  and  C_12 
REMARK    4  A    between atoms: C_12  and  C_13 
REMARK    5  A    between atoms: C_13  and  C_14 
REMARK    6  A    between atoms: C_14  and  O_15 
REMARK    7  A    between atoms: C_14  and  C_16 
ROOT
HETATM    1  N   UNL     1      -4.119   1.674 -32.249  1.00  0.00    -0.337 N 
HETATM    2  C   UNL     1      -3.612   2.903 -31.909  1.00  0.00     0.316 C 
HETATM    3  N   UNL     1      -4.380   3.927 -32.387  1.00  0.00    -0.339 N 
HETATM    4  O   UNL     1      -2.637   3.049 -31.178  1.00  0.00    -0.247 OA
HETATM    5  H   UNL     1      -4.723   1.680 -33.058  1.00  0.00     0.164 HD
HETATM    6  H   UNL     1      -4.916   3.746 -33.225  1.00  0.00     0.164 HD
ENDROOT
BRANCH   1   7
HETATM    7  C   UNL     1      -3.387   0.448 -31.998  1.00  0.00     0.183 C 
BRANCH   7   8
HETATM    8  C   UNL     1      -3.970  -0.713 -32.723  1.00  0.00     0.044 A 
HETATM    9  N   UNL     1      -5.210  -0.658 -33.343  1.00  0.00    -0.343 N 
HETATM   10  C   UNL     1      -5.526  -1.819 -33.893  1.00  0.00     0.112 A 
HETATM   11  H   UNL     1      -5.756   0.209 -33.406  1.00  0.00     0.167 HD
HETATM   12  N   UNL     1      -4.509  -2.673 -33.656  1.00  0.00    -0.311 N 
HETATM   13  C   UNL     1      -6.733  -2.229 -34.646  1.00  0.00     0.049 A 
HETATM   14  C   UNL     1      -4.523  -3.993 -34.104  1.00  0.00     0.014 A 
HETATM   15  C   UNL     1      -3.528  -2.001 -32.934  1.00  0.00     0.125 A 
HETATM   16  C   UNL     1      -3.373  -4.915 -33.833  1.00  0.00     0.068 C 
HETATM   17  C   UNL     1      -5.623  -4.380 -34.789  1.00  0.00     0.025 A 
HETATM   18  C   UNL     1      -6.754  -3.502 -35.072  1.00  0.00     0.006 A 
ENDBRANCH   7   8
ENDBRANCH   1   7
BRANCH   3  19
HETATM   19  C   UNL     1      -4.039   5.325 -32.145  1.00  0.00     0.085 C 
HETATM   20  C   UNL     1      -5.198   6.026 -31.445  1.00  0.00     0.032 C 
BRANCH  19  21
HETATM   21  C   UNL     1      -3.518   6.051 -33.405  1.00  0.00     0.063 C 
BRANCH  21  22
HETATM   22  C   UNL     1      -2.048   5.875 -33.803  1.00  0.00     0.177 C 
BRANCH  22  23
HETATM   23  O   UNL     1      -1.821   4.580 -34.351  1.00  0.00    -0.389 OA
HETATM   24  H   UNL     1      -2.579   4.376 -34.926  1.00  0.00     0.210 HD
ENDBRANCH  22  23
BRANCH  22  25
HETATM   25  C   UNL     1      -1.072   6.076 -32.695  1.00  0.00     0.081 A 
HETATM   26  O   UNL     1      -0.468   4.955 -32.197  1.00  0.00    -0.324 OA
HETATM   27  C   UNL     1       0.315   5.349 -31.160  1.00  0.00     0.142 A 
HETATM   28  C   UNL     1       0.245   6.711 -30.994  1.00  0.00     0.027 A 
HETATM   29  C   UNL     1      -0.650   7.182 -31.984  1.00  0.00     0.037 A 
ENDBRANCH  22  25
ENDBRANCH  21  22
ENDBRANCH  19  21
ENDBRANCH   3  19
TORSDOF 7
ENDMDL
MODEL 4
REMARK VINA RESULT:      -7.9      1.474      2.017
REMARK  7 active torsions:
REMARK  status: ('A' for Active; 'I' for Inactive)
REMARK    1  A    between atoms: C_7  and  C_8 
REMARK    2  A    between atoms: C_8  and  N_9 
REMARK       I    between atoms: N_9  and  C_10 
REMARK       I    between atoms: C_10  and  N_11 
REMARK    3  A    between atoms: N_11  and  C_12 
REMARK    4  A    between atoms: C_12  and  C_13 
REMARK    5  A    between atoms: C_13  and  C_14 
REMARK    6  A    between atoms: C_14  and  O_15 
REMARK    7  A    between atoms: C_14  and  C_16 
ROOT
HETATM    1  N   UNL     1      -3.539   2.220 -32.327  1.00  0.00    -0.337 N 
HETATM    2  C   UNL     1      -3.486   3.527 -32.742  1.00  0.00     0.316 C 
HETATM    3  N   UNL     1      -2.259   4.087 -32.523  1.00  0.00    -0.339 N 
HETATM    4  O   UNL     1      -4.408   4.083 -33.330  1.00  0.00    -0.247 OA
HETATM    5  H   UNL     1      -2.854   1.976 -31.626  1.00  0.00     0.164 HD
HETATM    6  H   UNL     1      -1.713   3.712 -31.759  1.00  0.00     0.164 HD
ENDROOT
BRANCH   1   7
HETATM    7  C   UNL     1      -4.783   1.474 -32.304  1.00  0.00     0.183 C 
BRANCH   7   8
HETATM    8  C   UNL     1      -4.580   0.035 -32.623  1.00  0.00     0.044 A 
HETATM    9  N   UNL     1      -3.760  -0.788 -31.866  1.00  0.00    -0.343 N 
HETATM   10  C   UNL     1      -3.716  -2.014 -32.363  1.00  0.00     0.112 A 
HETATM   11  H   UNL     1      -3.313  -0.472 -30.997  1.00  0.00     0.167 HD
HETATM   12  N   UNL     1      -4.503  -2.038 -33.458  1.00  0.00    -0.311 N 
HETATM   13  C   UNL     1      -2.980  -3.212 -31.900  1.00  0.00     0.049 A 
HETATM   14  C   UNL     1      -4.679  -3.189 -34.225  1.00  0.00     0.014 A 
HETATM   15  C   UNL     1      -5.055  -0.773 -33.633  1.00  0.00     0.125 A 
HETATM   16  C   UNL     1      -5.568  -3.187 -35.431  1.00  0.00     0.068 C 
HETATM   17  C   UNL     1      -4.008  -4.289 -33.814  1.00  0.00     0.025 A 
HETATM   18  C   UNL     1      -3.140  -4.321 -32.641  1.00  0.00     0.006 A 
ENDBRANCH   7   8
ENDBRANCH   1   7
BRANCH   3  19
HETATM   19  C   UNL     1      -1.966   5.469 -32.889  1.00  0.00     0.085 C 
HETATM   20  C   UNL     1      -1.242   5.505 -34.231  1.00  0.00     0.032 C 
BRANCH  19  21
HETATM   21  C   UNL     1      -1.268   6.262 -31.762  1.00  0.00     0.063 C 
BRANCH  21  22
HETATM   22  C   UNL     1      -0.261   5.536 -30.863  1.00  0.00     0.177 C 
BRANCH  22  23
HETATM   23  O   UNL     1      -0.828   4.346 -30.323  1.00  0.00    -0.389 OA
HETATM   24  H   UNL     1      -0.399   3.596 -30.771  1.00  0.00     0.210 HD
ENDBRANCH  22  23
BRANCH  22  25
HETATM   25  C   UNL     1       0.259   6.346 -29.726  1.00  0.00     0.081 A 
HETATM   26  O   UNL     1       0.510   5.679 -28.559  1.00  0.00    -0.324 OA
HETATM   27  C   UNL     1       0.899   6.604 -27.644  1.00  0.00     0.142 A 
HETATM   28  C   UNL     1       0.928   7.857 -28.208  1.00  0.00     0.027 A 
HETATM   29  C   UNL     1       0.516   7.693 -29.551  1.00  0.00     0.037 A 
ENDBRANCH  22  25
ENDBRANCH  21  22
ENDBRANCH  19  21
ENDBRANCH   3  19
TORSDOF 7
ENDMDL
MODEL 5
REMARK VINA RESULT:      -7.8      1.402      2.249
REMARK  7 active torsions:
REMARK  status: ('A' for Active; 'I' for Inactive)
REMARK    1  A    between atoms: C_7  and  C_8 
REMARK    2  A    between atoms: C_8  and  N_9 
REMARK       I    between atoms: N_9  and  C_10 
REMARK       I    between atoms: C_10  and  N_11 
REMARK    3  A    between atoms: N_11  and  C_12 
REMARK    4  A    between atoms: C_12  and  C_13 
REMARK    5  A    between atoms: C_13  and  C_14 
REMARK    6  A    between atoms: C_14  and  O_15 
REMARK    7  A    between atoms: C_14  and  C_16 
ROOT
HETATM    1  N   UNL     1      -3.218   1.662 -31.618  1.00  0.00    -0.337 N 
HETATM    2  C   UNL     1      -3.479   3.000 -31.457  1.00  0.00     0.316 C 
HETATM    3  N   UNL     1      -2.484   3.783 -31.970  1.00  0.00    -0.339 N 
HETATM    4  O   UNL     1      -4.531   3.428 -30.995  1.00  0.00    -0.247 OA
HETATM    5  H   UNL     1      -2.240   1.438 -31.736  1.00  0.00     0.164 HD
HETATM    6  H   UNL     1      -1.555   3.386 -31.998  1.00  0.00     0.164 HD
ENDROOT
BRANCH   1   7
HETATM    7  C   UNL     1      -4.047   0.641 -31.007  1.00  0.00     0.183 C 
BRANCH   7   8
HETATM    8  C   UNL     1      -4.425  -0.427 -31.971  1.00  0.00     0.044 A 
HETATM    9  N   UNL     1      -5.551  -0.339 -32.777  1.00  0.00    -0.343 N 
HETATM   10  C   UNL     1      -5.694  -1.420 -33.525  1.00  0.00     0.112 A 
HETATM   11  H   UNL     1      -6.139   0.503 -32.811  1.00  0.00     0.167 HD
HETATM   12  N   UNL     1      -4.672  -2.252 -33.239  1.00  0.00    -0.311 N 
HETATM   13  C   UNL     1      -6.735  -1.771 -34.518  1.00  0.00     0.049 A 
HETATM   14  C   UNL     1      -4.523  -3.492 -33.859  1.00  0.00     0.014 A 
HETATM   15  C   UNL     1      -3.867  -1.649 -32.278  1.00  0.00     0.125 A 
HETATM   16  C   UNL     1      -3.371  -4.390 -33.527  1.00  0.00     0.068 C 
HETATM   17  C   UNL     1      -5.471  -3.825 -34.765  1.00  0.00     0.025 A 
HETATM   18  C   UNL     1      -6.600  -2.968 -35.112  1.00  0.00     0.006 A 
ENDBRANCH   7   8
ENDBRANCH   1   7
BRANCH   3  19
HETATM   19  C   UNL     1      -2.545   5.240 -31.917  1.00  0.00     0.085 C 
HETATM   20  C   UNL     1      -2.023   5.827 -33.224  1.00  0.00     0.032 C 
BRANCH  19  21
HETATM   21  C   UNL     1      -1.898   5.832 -30.645  1.00  0.00     0.063 C 
BRANCH  21  22
HETATM   22  C   UNL     1      -0.408   5.579 -30.390  1.00  0.00     0.177 C 
BRANCH  22  23
HETATM   23  O   UNL     1      -0.174   4.215 -30.052  1.00  0.00    -0.389 OA
HETATM   24  H   UNL     1      -0.856   3.688 -30.502  1.00  0.00     0.210 HD
ENDBRANCH  22  23
BRANCH  22  25
HETATM   25  C   UNL     1       0.194   6.421 -29.318  1.00  0.00     0.081 A 
HETATM   26  O   UNL     1       0.264   5.869 -28.069  1.00  0.00    -0.324 OA
HETATM   27  C   UNL     1       0.768   6.819 -27.240  1.00  0.00     0.142 A 
HETATM   28  C   UNL     1       1.048   7.969 -27.937  1.00  0.00     0.027 A 
HETATM   29  C   UNL     1       0.678   7.715 -29.279  1.00  0.00     0.037 A 
ENDBRANCH  22  25
ENDBRANCH  21  22
ENDBRANCH  19  21
ENDBRANCH   3  19
TORSDOF 7
ENDMDL
MODEL 6
REMARK VINA RESULT:      -7.8      2.315      3.473
REMARK  7 active torsions:
REMARK  status: ('A' for Active; 'I' for Inactive)
REMARK    1  A    between atoms: C_7  and  C_8 
REMARK    2  A    between atoms: C_8  and  N_9 
REMARK       I    between atoms: N_9  and  C_10 
REMARK       I    between atoms: C_10  and  N_11 
REMARK    3  A    between atoms: N_11  and  C_12 
REMARK    4  A    between atoms: C_12  and  C_13 
REMARK    5  A    between atoms: C_13  and  C_14 
REMARK    6  A    between atoms: C_14  and  O_15 
REMARK    7  A    between atoms: C_14  and  C_16 
ROOT
HETATM    1  N   UNL     1      -7.074   2.721 -31.666  1.00  0.00    -0.337 N 
HETATM    2  C   UNL     1      -5.953   3.369 -31.211  1.00  0.00     0.316 C 
HETATM    3  N   UNL     1      -5.715   4.527 -31.895  1.00  0.00    -0.339 N 
HETATM    4  O   UNL     1      -5.307   2.992 -30.238  1.00  0.00    -0.247 OA
HETATM    5  H   UNL     1      -7.338   2.957 -32.611  1.00  0.00     0.164 HD
HETATM    6  H   UNL     1      -6.051   4.575 -32.848  1.00  0.00     0.164 HD
ENDROOT
BRANCH   1   7
HETATM    7  C   UNL     1      -7.430   1.392 -31.206  1.00  0.00     0.183 C 
BRANCH   7   8
HETATM    8  C   UNL     1      -6.701   0.328 -31.948  1.00  0.00     0.044 A 
HETATM    9  N   UNL     1      -7.217  -0.273 -33.088  1.00  0.00    -0.343 N 
HETATM   10  C   UNL     1      -6.403  -1.208 -33.550  1.00  0.00     0.112 A 
HETATM   11  H   UNL     1      -8.091   0.040 -33.528  1.00  0.00     0.167 HD
HETATM   12  N   UNL     1      -5.330  -1.253 -32.735  1.00  0.00    -0.311 N 
HETATM   13  C   UNL     1      -6.535  -2.102 -34.722  1.00  0.00     0.049 A 
HETATM   14  C   UNL     1      -4.273  -2.139 -32.942  1.00  0.00     0.014 A 
HETATM   15  C   UNL     1      -5.493  -0.300 -31.735  1.00  0.00     0.125 A 
HETATM   16  C   UNL     1      -3.088  -2.159 -32.024  1.00  0.00     0.068 C 
HETATM   17  C   UNL     1      -4.385  -2.965 -34.008  1.00  0.00     0.025 A 
HETATM   18  C   UNL     1      -5.524  -2.963 -34.920  1.00  0.00     0.006 A 
ENDBRANCH   7   8
ENDBRANCH   1   7
BRANCH   3  19
HETATM   19  C   UNL     1      -4.578   5.387 -31.583  1.00  0.00     0.085 C 
HETATM   20  C   UNL     1      -5.055   6.823 -31.390  1.00  0.00     0.032 C 
BRANCH  19  21
HETATM   21  C   UNL     1      -3.405   5.230 -32.575  1.00  0.00     0.063 C 
BRANCH  21  22
HETATM   22  C   UNL     1      -2.203   4.371 -32.166  1.00  0.00     0.177 C 
BRANCH  22  23
HETATM   23  O   UNL     1      -2.582   3.393 -31.202  1.00  0.00    -0.389 OA
HETATM   24  H   UNL     1      -2.426   3.782 -30.324  1.00  0.00     0.210 HD
ENDBRANCH  22  23
BRANCH  22  25
HETATM   25  C   UNL     1      -1.051   5.134 -31.609  1.00  0.00     0.081 A 
HETATM   26  O   UNL     1      -0.374   4.556 -30.571  1.00  0.00    -0.324 OA
HETATM   27  C   UNL     1       0.576   5.439 -30.171  1.00  0.00     0.142 A 
HETATM   28  C   UNL     1       0.542   6.570 -30.950  1.00  0.00     0.027 A 
HETATM   29  C   UNL     1      -0.507   6.376 -31.879  1.00  0.00     0.037 A 
ENDBRANCH  22  25
ENDBRANCH  21  22
ENDBRANCH  19  21
ENDBRANCH   3  19
TORSDOF 7
ENDMDL
MODEL 7
REMARK VINA RESULT:      -7.7      1.304      1.858
REMARK  7 active torsions:
REMARK  status: ('A' for Active; 'I' for Inactive)
REMARK    1  A    between atoms: C_7  and  C_8 
REMARK    2  A    between atoms: C_8  and  N_9 
REMARK       I    between atoms: N_9  and  C_10 
REMARK       I    between atoms: C_10  and  N_11 
REMARK    3  A    between atoms: N_11  and  C_12 
REMARK    4  A    between atoms: C_12  and  C_13 
REMARK    5  A    between atoms: C_13  and  C_14 
REMARK    6  A    between atoms: C_14  and  O_15 
REMARK    7  A    between atoms: C_14  and  C_16 
ROOT
HETATM    1  N   UNL     1      -3.042   2.997 -31.727  1.00  0.00    -0.337 N 
HETATM    2  C   UNL     1      -3.153   4.036 -32.616  1.00  0.00     0.316 C 
HETATM    3  N   UNL     1      -1.952   4.645 -32.847  1.00  0.00    -0.339 N 
HETATM    4  O   UNL     1      -4.195   4.311 -33.202  1.00  0.00    -0.247 OA
HETATM    5  H   UNL     1      -2.239   3.051 -31.118  1.00  0.00     0.164 HD
HETATM    6  H   UNL     1      -1.265   4.603 -32.107  1.00  0.00     0.164 HD
ENDROOT
BRANCH   1   7
HETATM    7  C   UNL     1      -4.207   2.312 -31.201  1.00  0.00     0.183 C 
BRANCH   7   8
HETATM    8  C   UNL     1      -4.654   1.203 -32.087  1.00  0.00     0.044 A 
HETATM    9  N   UNL     1      -4.007  -0.023 -32.130  1.00  0.00    -0.343 N 
HETATM   10  C   UNL     1      -4.568  -0.834 -33.013  1.00  0.00     0.112 A 
HETATM   11  H   UNL     1      -3.236  -0.262 -31.495  1.00  0.00     0.167 HD
HETATM   12  N   UNL     1      -5.599  -0.172 -33.576  1.00  0.00    -0.311 N 
HETATM   13  C   UNL     1      -4.221  -2.220 -33.400  1.00  0.00     0.049 A 
HETATM   14  C   UNL     1      -6.408  -0.746 -34.557  1.00  0.00     0.014 A 
HETATM   15  C   UNL     1      -5.673   1.096 -33.009  1.00  0.00     0.125 A 
HETATM   16  C   UNL     1      -7.552   0.012 -35.158  1.00  0.00     0.068 C 
HETATM   17  C   UNL     1      -6.097  -2.011 -34.922  1.00  0.00     0.025 A 
HETATM   18  C   UNL     1      -4.993  -2.774 -34.350  1.00  0.00     0.006 A 
ENDBRANCH   7   8
ENDBRANCH   1   7
BRANCH   3  19
HETATM   19  C   UNL     1      -1.824   5.774 -33.763  1.00  0.00     0.085 C 
HETATM   20  C   UNL     1      -1.183   5.312 -35.068  1.00  0.00     0.032 C 
BRANCH  19  21
HETATM   21  C   UNL     1      -1.149   7.006 -33.119  1.00  0.00     0.063 C 
BRANCH  21  22
HETATM   22  C   UNL     1      -1.842   7.692 -31.936  1.00  0.00     0.177 C 
BRANCH  22  23
HETATM   23  O   UNL     1      -1.902   9.102 -32.130  1.00  0.00    -0.389 OA
HETATM   24  H   UNL     1      -2.817   9.377 -31.948  1.00  0.00     0.210 HD
ENDBRANCH  22  23
BRANCH  22  25
HETATM   25  C   UNL     1      -1.206   7.444 -30.611  1.00  0.00     0.081 A 
HETATM   26  O   UNL     1      -0.595   6.233 -30.439  1.00  0.00    -0.324 OA
HETATM   27  C   UNL     1      -0.154   6.185 -29.156  1.00  0.00     0.142 A 
HETATM   28  C   UNL     1      -0.449   7.357 -28.501  1.00  0.00     0.027 A 
HETATM   29  C   UNL     1      -1.128   8.171 -29.439  1.00  0.00     0.037 A 
ENDBRANCH  22  25
ENDBRANCH  21  22
ENDBRANCH  19  21
ENDBRANCH   3  19
TORSDOF 7
ENDMDL
MODEL 8
REMARK VINA RESULT:      -7.6      7.419      9.578
REMARK  7 active torsions:
REMARK  status: ('A' for Active; 'I' for Inactive)
REMARK    1  A    between atoms: C_7  and  C_8 
REMARK    2  A    between atoms: C_8  and  N_9 
REMARK       I    between atoms: N_9  and  C_10 
REMARK       I    between atoms: C_10  and  N_11 
REMARK    3  A    between atoms: N_11  and  C_12 
REMARK    4  A    between atoms: C_12  and  C_13 
REMARK    5  A    between atoms: C_13  and  C_14 
REMARK    6  A    between atoms: C_14  and  O_15 
REMARK    7  A    between atoms: C_14  and  C_16 
ROOT
HETATM    1  N   UNL     1      -8.568   0.984 -34.922  1.00  0.00    -0.337 N 
HETATM    2  C   UNL     1      -9.538   1.063 -33.955  1.00  0.00     0.316 C 
HETATM    3  N   UNL     1     -10.795   1.092 -34.488  1.00  0.00    -0.339 N 
HETATM    4  O   UNL     1      -9.294   1.011 -32.753  1.00  0.00    -0.247 OA
HETATM    5  H   UNL     1      -8.856   1.317 -35.831  1.00  0.00     0.164 HD
HETATM    6  H   UNL     1     -10.891   1.474 -35.419  1.00  0.00     0.164 HD
ENDROOT
BRANCH   1   7
HETATM    7  C   UNL     1      -7.158   1.109 -34.605  1.00  0.00     0.183 C 
BRANCH   7   8
HETATM    8  C   UNL     1      -6.503  -0.215 -34.427  1.00  0.00     0.044 A 
HETATM    9  N   UNL     1      -5.370  -0.387 -33.646  1.00  0.00    -0.343 N 
HETATM   10  C   UNL     1      -4.956  -1.643 -33.666  1.00  0.00     0.112 A 
HETATM   11  H   UNL     1      -4.968   0.373 -33.083  1.00  0.00     0.167 HD
HETATM   12  N   UNL     1      -5.800  -2.338 -34.455  1.00  0.00    -0.311 N 
HETATM   13  C   UNL     1      -3.802  -2.285 -32.996  1.00  0.00     0.049 A 
HETATM   14  C   UNL     1      -5.647  -3.703 -34.693  1.00  0.00     0.014 A 
HETATM   15  C   UNL     1      -6.774  -1.467 -34.934  1.00  0.00     0.125 A 
HETATM   16  C   UNL     1      -6.607  -4.450 -35.568  1.00  0.00     0.068 C 
HETATM   17  C   UNL     1      -4.593  -4.300 -34.090  1.00  0.00     0.025 A 
HETATM   18  C   UNL     1      -3.646  -3.599 -33.228  1.00  0.00     0.006 A 
ENDBRANCH   7   8
ENDBRANCH   1   7
BRANCH   3  19
HETATM   19  C   UNL     1     -11.987   1.169 -33.649  1.00  0.00     0.085 C 
HETATM   20  C   UNL     1     -12.863  -0.058 -33.881  1.00  0.00     0.032 C 
BRANCH  19  21
HETATM   21  C   UNL     1     -12.730   2.519 -33.769  1.00  0.00     0.063 C 
BRANCH  21  22
HETATM   22  C   UNL     1     -12.810   3.197 -35.142  1.00  0.00     0.177 C 
BRANCH  22  23
HETATM   23  O   UNL     1     -12.449   2.290 -36.179  1.00  0.00    -0.389 OA
HETATM   24  H   UNL     1     -13.132   2.356 -36.868  1.00  0.00     0.210 HD
ENDBRANCH  22  23
BRANCH  22  25
HETATM   25  C   UNL     1     -11.963   4.414 -35.288  1.00  0.00     0.081 A 
HETATM   26  O   UNL     1     -10.610   4.236 -35.199  1.00  0.00    -0.324 OA
HETATM   27  C   UNL     1     -10.038   5.464 -35.282  1.00  0.00     0.142 A 
HETATM   28  C   UNL     1     -10.999   6.433 -35.450  1.00  0.00     0.027 A 
HETATM   29  C   UNL     1     -12.242   5.757 -35.453  1.00  0.00     0.037 A 
ENDBRANCH  22  25
ENDBRANCH  21  22
ENDBRANCH  19  21
ENDBRANCH   3  19
TORSDOF 7
ENDMDL
MODEL 9
REMARK VINA RESULT:      -7.6      5.919      9.105
REMARK  7 active torsions:
REMARK  status: ('A' for Active; 'I' for Inactive)
REMARK    1  A    between atoms: C_7  and  C_8 
REMARK    2  A    between atoms: C_8  and  N_9 
REMARK       I    between atoms: N_9  and  C_10 
REMARK       I    between atoms: C_10  and  N_11 
REMARK    3  A    between atoms: N_11  and  C_12 
REMARK    4  A    between atoms: C_12  and  C_13 
REMARK    5  A    between atoms: C_13  and  C_14 
REMARK    6  A    between atoms: C_14  and  O_15 
REMARK    7  A    between atoms: C_14  and  C_16 
ROOT
HETATM    1  N   UNL     1      -5.287   1.069 -31.769  1.00  0.00    -0.337 N 
HETATM    2  C   UNL     1      -6.405   1.669 -32.292  1.00  0.00     0.316 C 
HETATM    3  N   UNL     1      -7.352   1.913 -31.338  1.00  0.00    -0.339 N 
HETATM    4  O   UNL     1      -6.489   2.030 -33.461  1.00  0.00    -0.247 OA
HETATM    5  H   UNL     1      -5.444   0.577 -30.901  1.00  0.00     0.164 HD
HETATM    6  H   UNL     1      -7.361   1.301 -30.533  1.00  0.00     0.164 HD
ENDROOT
BRANCH   1   7
HETATM    7  C   UNL     1      -4.223   0.565 -32.615  1.00  0.00     0.183 C 
BRANCH   7   8
HETATM    8  C   UNL     1      -4.544  -0.772 -33.185  1.00  0.00     0.044 A 
HETATM    9  N   UNL     1      -5.716  -1.022 -33.883  1.00  0.00    -0.343 N 
HETATM   10  C   UNL     1      -5.790  -2.287 -34.264  1.00  0.00     0.112 A 
HETATM   11  H   UNL     1      -6.389  -0.281 -34.114  1.00  0.00     0.167 HD
HETATM   12  N   UNL     1      -4.674  -2.908 -33.833  1.00  0.00    -0.311 N 
HETATM   13  C   UNL     1      -6.844  -3.003 -35.018  1.00  0.00     0.049 A 
HETATM   14  C   UNL     1      -4.434  -4.261 -34.070  1.00  0.00     0.014 A 
HETATM   15  C   UNL     1      -3.882  -1.980 -33.164  1.00  0.00     0.125 A 
HETATM   16  C   UNL     1      -3.178  -4.921 -33.586  1.00  0.00     0.068 C 
HETATM   17  C   UNL     1      -5.392  -4.927 -34.754  1.00  0.00     0.025 A 
HETATM   18  C   UNL     1      -6.621  -4.308 -35.241  1.00  0.00     0.006 A 
ENDBRANCH   7   8
ENDBRANCH   1   7
BRANCH   3  19
HETATM   19  C   UNL     1      -8.625   2.550 -31.659  1.00  0.00     0.085 C 
HETATM   20  C   UNL     1      -9.043   3.474 -30.521  1.00  0.00     0.032 C 
BRANCH  19  21
HETATM   21  C   UNL     1      -9.713   1.547 -32.102  1.00  0.00     0.063 C 
BRANCH  21  22
HETATM   22  C   UNL     1     -10.092   1.477 -33.586  1.00  0.00     0.177 C 
BRANCH  22  23
HETATM   23  O   UNL     1      -9.790   2.703 -34.246  1.00  0.00    -0.389 OA
HETATM   24  H   UNL     1      -9.024   2.537 -34.821  1.00  0.00     0.210 HD
ENDBRANCH  22  23
BRANCH  22  25
HETATM   25  C   UNL     1     -11.524   1.160 -33.851  1.00  0.00     0.081 A 
HETATM   26  O   UNL     1     -12.009   0.004 -33.305  1.00  0.00    -0.324 OA
HETATM   27  C   UNL     1     -13.293  -0.129 -33.726  1.00  0.00     0.142 A 
HETATM   28  C   UNL     1     -13.655   0.936 -34.516  1.00  0.00     0.027 A 
HETATM   29  C   UNL     1     -12.514   1.769 -34.598  1.00  0.00     0.037 A 
ENDBRANCH  22  25
ENDBRANCH  21  22
ENDBRANCH  19  21
ENDBRANCH   3  19
TORSDOF 7
ENDMDL
MODEL 10
REMARK VINA RESULT:      -7.3      2.361      4.443
REMARK  7 active torsions:
REMARK  status: ('A' for Active; 'I' for Inactive)
REMARK    1  A    between atoms: C_7  and  C_8 
REMARK    2  A    between atoms: C_8  and  N_9 
REMARK       I    between atoms: N_9  and  C_10 
REMARK       I    between atoms: C_10  and  N_11 
REMARK    3  A    between atoms: N_11  and  C_12 
REMARK    4  A    between atoms: C_12  and  C_13 
REMARK    5  A    between atoms: C_13  and  C_14 
REMARK    6  A    between atoms: C_14  and  O_15 
REMARK    7  A    between atoms: C_14  and  C_16 
ROOT
HETATM    1  N   UNL     1      -3.466   3.869 -31.351  1.00  0.00    -0.337 N 
HETATM    2  C   UNL     1      -2.335   4.585 -31.048  1.00  0.00     0.316 C 
HETATM    3  N   UNL     1      -2.627   5.831 -30.571  1.00  0.00    -0.339 N 
HETATM    4  O   UNL     1      -1.204   4.113 -31.109  1.00  0.00    -0.247 OA
HETATM    5  H   UNL     1      -4.282   4.435 -31.532  1.00  0.00     0.164 HD
HETATM    6  H   UNL     1      -3.497   6.247 -30.874  1.00  0.00     0.164 HD
ENDROOT
BRANCH   1   7
HETATM    7  C   UNL     1      -3.403   2.588 -32.028  1.00  0.00     0.183 C 
BRANCH   7   8
HETATM    8  C   UNL     1      -4.752   1.997 -32.238  1.00  0.00     0.044 A 
HETATM    9  N   UNL     1      -5.879   2.459 -31.575  1.00  0.00    -0.343 N 
HETATM   10  C   UNL     1      -6.952   1.758 -31.903  1.00  0.00     0.112 A 
HETATM   11  H   UNL     1      -5.860   3.286 -30.966  1.00  0.00     0.167 HD
HETATM   12  N   UNL     1      -6.569   0.816 -32.789  1.00  0.00    -0.311 N 
HETATM   13  C   UNL     1      -8.356   1.882 -31.450  1.00  0.00     0.049 A 
HETATM   14  C   UNL     1      -7.465  -0.100 -33.340  1.00  0.00     0.014 A 
HETATM   15  C   UNL     1      -5.203   0.952 -33.015  1.00  0.00     0.125 A 
HETATM   16  C   UNL     1      -7.010  -1.128 -34.329  1.00  0.00     0.068 C 
HETATM   17  C   UNL     1      -8.750   0.002 -32.930  1.00  0.00     0.025 A 
HETATM   18  C   UNL     1      -9.221   0.997 -31.972  1.00  0.00     0.006 A 
ENDBRANCH   7   8
ENDBRANCH   1   7
BRANCH   3  19
HETATM   19  C   UNL     1      -1.583   6.771 -30.178  1.00  0.00     0.085 C 
HETATM   20  C   UNL     1      -2.122   7.733 -29.124  1.00  0.00     0.032 C 
BRANCH  19  21
HETATM   21  C   UNL     1      -0.897   7.457 -31.380  1.00  0.00     0.063 C 
BRANCH  21  22
HETATM   22  C   UNL     1      -1.757   7.886 -32.574  1.00  0.00     0.177 C 
BRANCH  22  23
HETATM   23  O   UNL     1      -3.014   8.396 -32.138  1.00  0.00    -0.389 OA
HETATM   24  H   UNL     1      -3.416   7.716 -31.570  1.00  0.00     0.210 HD
ENDBRANCH  22  23
BRANCH  22  25
HETATM   25  C   UNL     1      -2.025   6.811 -33.570  1.00  0.00     0.081 A 
HETATM   26  O   UNL     1      -3.335   6.480 -33.781  1.00  0.00    -0.324 OA
HETATM   27  C   UNL     1      -3.350   5.442 -34.656  1.00  0.00     0.142 A 
HETATM   28  C   UNL     1      -2.071   5.112 -35.034  1.00  0.00     0.027 A 
HETATM   29  C   UNL     1      -1.214   5.994 -34.334  1.00  0.00     0.037 A 
ENDBRANCH  22  25
ENDBRANCH  21  22
ENDBRANCH  19  21
ENDBRANCH   3  19
TORSDOF 7
ENDMDL
