MODEL 1
REMARK VINA RESULT:      -9.0      0.000      0.000
REMARK  4 active torsions:
REMARK  status: ('A' for Active; 'I' for Inactive)
REMARK    1  A    between atoms: N_2  and  C_4 
REMARK    2  A    between atoms: N_2  and  C_16 
REMARK    3  A    between atoms: C_4  and  C_5 
REMARK    4  A    between atoms: C_16  and  C_17 
ROOT
HETATM    1  C   UNL     1      -9.021   1.754 -32.792  1.00  0.00     0.270 C 
HETATM    2  N   UNL     1      -7.704   1.836 -33.512  1.00  0.00    -0.064 N 
HETATM    3  H   UNL     1      -7.008   1.424 -32.867  1.00  0.00     0.280 HD
ENDROOT
BRANCH   2   4
HETATM    4  C   UNL     1      -7.661   0.934 -34.740  1.00  0.00     0.312 C 
BRANCH   4   5
HETATM    5  C   UNL     1      -6.737  -0.258 -34.526  1.00  0.00     0.133 A 
HETATM    6  N   UNL     1      -7.141  -1.435 -34.891  1.00  0.00    -0.233 NA
HETATM    7  C   UNL     1      -6.261  -2.518 -34.676  1.00  0.00     0.074 A 
HETATM    8  C   UNL     1      -4.998  -2.359 -34.095  1.00  0.00     0.061 A 
HETATM    9  C   UNL     1      -6.658  -3.800 -35.057  1.00  0.00     0.032 A 
HETATM   10  C   UNL     1      -4.601  -0.998 -33.703  1.00  0.00     0.259 A 
HETATM   11  C   UNL     1      -4.140  -3.442 -33.893  1.00  0.00     0.019 A 
HETATM   12  O   UNL     1      -3.521  -0.738 -33.190  1.00  0.00    -0.267 OA
HETATM   13  N   UNL     1      -5.523  -0.012 -33.952  1.00  0.00    -0.309 N 
HETATM   14  H   UNL     1      -5.222   0.909 -33.657  1.00  0.00     0.170 HD
HETATM   15  C   UNL     1      -4.552  -4.716 -34.280  1.00  0.00     0.001 A 
HETATM   16  C   UNL     1      -5.809  -4.895 -34.861  1.00  0.00     0.002 A 
ENDBRANCH   4   5
ENDBRANCH   2   4
BRANCH   2  17
HETATM   17  C   UNL     1      -7.270   3.239 -33.841  1.00  0.00     0.273 C 
BRANCH  17  18
HETATM   18  C   UNL     1      -5.833   3.540 -33.518  1.00  0.00    -0.028 A 
HETATM   19  C   UNL     1      -5.147   2.791 -32.550  1.00  0.00     0.035 A 
HETATM   20  C   UNL     1      -3.797   3.039 -32.279  1.00  0.00     0.070 A 
HETATM   21 CL   UNL     1      -3.010   2.049 -31.106  1.00  0.00    -0.081 Cl
HETATM   22  C   UNL     1      -3.116   4.060 -32.948  1.00  0.00     0.123 A 
HETATM   23  C   UNL     1      -3.800   4.822 -33.899  1.00  0.00     0.104 A 
HETATM   24  O   UNL     1      -1.770   4.199 -32.746  1.00  0.00    -0.346 OA
HETATM   25  O   UNL     1      -3.198   5.782 -34.666  1.00  0.00    -0.348 OA
HETATM   26  C   UNL     1      -5.141   4.553 -34.197  1.00  0.00     0.048 A 
HETATM   27  C   UNL     1      -2.668   6.858 -33.885  1.00  0.00     0.178 C 
HETATM   28  C   UNL     1      -1.309   6.528 -33.289  1.00  0.00     0.053 C 
HETATM   29  C   UNL     1      -1.427   5.474 -32.201  1.00  0.00     0.178 C 
ENDBRANCH  17  18
ENDBRANCH   2  17
TORSDOF 4
ENDMDL
MODEL 2
REMARK VINA RESULT:      -8.7      1.720      1.921
REMARK  4 active torsions:
REMARK  status: ('A' for Active; 'I' for Inactive)
REMARK    1  A    between atoms: N_2  and  C_4 
REMARK    2  A    between atoms: N_2  and  C_16 
REMARK    3  A    between atoms: C_4  and  C_5 
REMARK    4  A    between atoms: C_16  and  C_17 
ROOT
HETATM    1  C   UNL     1      -7.858   1.679 -31.609  1.00  0.00     0.270 C 
HETATM    2  N   UNL     1      -7.124   2.180 -32.823  1.00  0.00    -0.064 N 
HETATM    3  H   UNL     1      -6.120   2.036 -32.620  1.00  0.00     0.280 HD
ENDROOT
BRANCH   2   4
HETATM    4  C   UNL     1      -7.390   1.319 -34.052  1.00  0.00     0.312 C 
BRANCH   4   5
HETATM    5  C   UNL     1      -6.552   0.047 -34.035  1.00  0.00     0.133 A 
HETATM    6  N   UNL     1      -7.088  -1.058 -34.450  1.00  0.00    -0.233 NA
HETATM    7  C   UNL     1      -6.285  -2.220 -34.419  1.00  0.00     0.074 A 
HETATM    8  C   UNL     1      -4.962  -2.209 -33.963  1.00  0.00     0.061 A 
HETATM    9  C   UNL     1      -6.824  -3.429 -34.860  1.00  0.00     0.032 A 
HETATM   10  C   UNL     1      -4.416  -0.923 -33.504  1.00  0.00     0.259 A 
HETATM   11  C   UNL     1      -4.182  -3.368 -33.942  1.00  0.00     0.019 A 
HETATM   12  O   UNL     1      -3.273  -0.792 -33.087  1.00  0.00    -0.267 OA
HETATM   13  N   UNL     1      -5.272   0.148 -33.573  1.00  0.00    -0.309 N 
HETATM   14  H   UNL     1      -4.867   1.013 -33.237  1.00  0.00     0.170 HD
HETATM   15  C   UNL     1      -4.736  -4.567 -34.386  1.00  0.00     0.001 A 
HETATM   16  C   UNL     1      -6.054  -4.597 -34.845  1.00  0.00     0.002 A 
ENDBRANCH   4   5
ENDBRANCH   2   4
BRANCH   2  17
HETATM   17  C   UNL     1      -7.343   3.641 -33.112  1.00  0.00     0.273 C 
BRANCH  17  18
HETATM   18  C   UNL     1      -6.110   4.492 -32.987  1.00  0.00    -0.028 A 
HETATM   19  C   UNL     1      -6.167   5.742 -32.350  1.00  0.00     0.035 A 
HETATM   20  C   UNL     1      -5.013   6.517 -32.194  1.00  0.00     0.070 A 
HETATM   21 CL   UNL     1      -5.153   8.022 -31.362  1.00  0.00    -0.081 Cl
HETATM   22  C   UNL     1      -3.787   6.072 -32.698  1.00  0.00     0.123 A 
HETATM   23  C   UNL     1      -3.729   4.838 -33.351  1.00  0.00     0.104 A 
HETATM   24  O   UNL     1      -2.659   6.796 -32.425  1.00  0.00    -0.346 OA
HETATM   25  O   UNL     1      -2.563   4.279 -33.798  1.00  0.00    -0.348 OA
HETATM   26  C   UNL     1      -4.875   4.045 -33.477  1.00  0.00     0.048 A 
HETATM   27  C   UNL     1      -1.925   5.072 -34.804  1.00  0.00     0.178 C 
HETATM   28  C   UNL     1      -1.112   6.214 -34.215  1.00  0.00     0.053 C 
HETATM   29  C   UNL     1      -2.016   7.274 -33.607  1.00  0.00     0.178 C 
ENDBRANCH  17  18
ENDBRANCH   2  17
TORSDOF 4
ENDMDL
MODEL 3
REMARK VINA RESULT:      -8.7      3.961      5.931
REMARK  4 active torsions:
REMARK  status: ('A' for Active; 'I' for Inactive)
REMARK    1  A    between atoms: N_2  and  C_4 
REMARK    2  A    between atoms: N_2  and  C_16 
REMARK    3  A    between atoms: C_4  and  C_5 
REMARK    4  A    between atoms: C_16  and  C_17 
ROOT
HETATM    1  C   UNL     1      -6.053   1.433 -30.627  1.00  0.00     0.270 C 
HETATM    2  N   UNL     1      -6.745   1.411 -31.963  1.00  0.00    -0.064 N 
HETATM    3  H   UNL     1      -7.132   2.361 -32.091  1.00  0.00     0.280 HD
ENDROOT
BRANCH   2   4
HETATM    4  C   UNL     1      -5.764   1.243 -33.117  1.00  0.00     0.312 C 
BRANCH   4   5
HETATM    5  C   UNL     1      -5.292  -0.200 -33.244  1.00  0.00     0.133 A 
HETATM    6  N   UNL     1      -5.951  -1.006 -34.017  1.00  0.00    -0.233 NA
HETATM    7  C   UNL     1      -5.489  -2.337 -34.110  1.00  0.00     0.074 A 
HETATM    8  C   UNL     1      -4.369  -2.797 -33.409  1.00  0.00     0.061 A 
HETATM    9  C   UNL     1      -6.170  -3.235 -34.934  1.00  0.00     0.032 A 
HETATM   10  C   UNL     1      -3.668  -1.832 -32.548  1.00  0.00     0.259 A 
HETATM   11  C   UNL     1      -3.925  -4.117 -33.516  1.00  0.00     0.019 A 
HETATM   12  O   UNL     1      -2.677  -2.119 -31.891  1.00  0.00    -0.267 OA
HETATM   13  N   UNL     1      -4.192  -0.564 -32.523  1.00  0.00    -0.309 N 
HETATM   14  H   UNL     1      -3.692   0.070 -31.911  1.00  0.00     0.170 HD
HETATM   15  C   UNL     1      -4.616  -5.000 -34.343  1.00  0.00     0.001 A 
HETATM   16  C   UNL     1      -5.736  -4.560 -35.051  1.00  0.00     0.002 A 
ENDBRANCH   4   5
ENDBRANCH   2   4
BRANCH   2  17
HETATM   17  C   UNL     1      -7.877   0.423 -32.050  1.00  0.00     0.273 C 
BRANCH  17  18
HETATM   18  C   UNL     1      -9.136   0.970 -32.664  1.00  0.00    -0.028 A 
HETATM   19  C   UNL     1     -10.249   0.140 -32.870  1.00  0.00     0.035 A 
HETATM   20  C   UNL     1     -11.436   0.657 -33.400  1.00  0.00     0.070 A 
HETATM   21 CL   UNL     1     -12.776  -0.414 -33.583  1.00  0.00    -0.081 Cl
HETATM   22  C   UNL     1     -11.523   2.004 -33.764  1.00  0.00     0.123 A 
HETATM   23  C   UNL     1     -10.410   2.829 -33.580  1.00  0.00     0.104 A 
HETATM   24  O   UNL     1     -12.731   2.503 -34.167  1.00  0.00    -0.346 OA
HETATM   25  O   UNL     1     -10.426   4.176 -33.823  1.00  0.00    -0.348 OA
HETATM   26  C   UNL     1      -9.233   2.323 -33.017  1.00  0.00     0.048 A 
HETATM   27  C   UNL     1     -10.684   4.484 -35.197  1.00  0.00     0.178 C 
HETATM   28  C   UNL     1     -12.166   4.439 -35.533  1.00  0.00     0.053 C 
HETATM   29  C   UNL     1     -12.694   3.014 -35.500  1.00  0.00     0.178 C 
ENDBRANCH  17  18
ENDBRANCH   2  17
TORSDOF 4
ENDMDL
MODEL 4
REMARK VINA RESULT:      -8.6      4.291      6.948
REMARK  4 active torsions:
REMARK  status: ('A' for Active; 'I' for Inactive)
REMARK    1  A    between atoms: N_2  and  C_4 
REMARK    2  A    between atoms: N_2  and  C_16 
REMARK    3  A    between atoms: C_4  and  C_5 
REMARK    4  A    between atoms: C_16  and  C_17 
ROOT
HETATM    1  C   UNL     1      -8.609   0.755 -32.242  1.00  0.00     0.270 C 
HETATM    2  N   UNL     1      -7.956   1.608 -33.294  1.00  0.00    -0.064 N 
HETATM    3  H   UNL     1      -6.999   1.794 -32.947  1.00  0.00     0.280 HD
ENDROOT
BRANCH   2   4
HETATM    4  C   UNL     1      -7.745   0.852 -34.601  1.00  0.00     0.312 C 
BRANCH   4   5
HETATM    5  C   UNL     1      -6.778  -0.311 -34.422  1.00  0.00     0.133 A 
HETATM    6  N   UNL     1      -7.160  -1.500 -34.772  1.00  0.00    -0.233 NA
HETATM    7  C   UNL     1      -6.241  -2.556 -34.591  1.00  0.00     0.074 A 
HETATM    8  C   UNL     1      -4.962  -2.358 -34.059  1.00  0.00     0.061 A 
HETATM    9  C   UNL     1      -6.614  -3.850 -34.957  1.00  0.00     0.032 A 
HETATM   10  C   UNL     1      -4.591  -0.986 -33.682  1.00  0.00     0.259 A 
HETATM   11  C   UNL     1      -4.065  -3.416 -33.891  1.00  0.00     0.019 A 
HETATM   12  O   UNL     1      -3.501  -0.694 -33.210  1.00  0.00    -0.267 OA
HETATM   13  N   UNL     1      -5.551  -0.029 -33.895  1.00  0.00    -0.309 N 
HETATM   14  H   UNL     1      -5.266   0.901 -33.612  1.00  0.00     0.170 HD
HETATM   15  C   UNL     1      -4.453  -4.702 -34.262  1.00  0.00     0.001 A 
HETATM   16  C   UNL     1      -5.725  -4.918 -34.794  1.00  0.00     0.002 A 
ENDBRANCH   4   5
ENDBRANCH   2   4
BRANCH   2  17
HETATM   17  C   UNL     1      -8.641   2.930 -33.524  1.00  0.00     0.273 C 
BRANCH  17  18
HETATM   18  C   UNL     1     -10.133   2.899 -33.343  1.00  0.00    -0.028 A 
HETATM   19  C   UNL     1     -10.737   3.585 -32.279  1.00  0.00     0.035 A 
HETATM   20  C   UNL     1     -12.129   3.594 -32.134  1.00  0.00     0.070 A 
HETATM   21 CL   UNL     1     -12.802   4.496 -30.825  1.00  0.00    -0.081 Cl
HETATM   22  C   UNL     1     -12.939   2.893 -33.030  1.00  0.00     0.123 A 
HETATM   23  C   UNL     1     -12.341   2.191 -34.080  1.00  0.00     0.104 A 
HETATM   24  O   UNL     1     -14.298   3.019 -32.931  1.00  0.00    -0.346 OA
HETATM   25  O   UNL     1     -13.053   1.549 -35.056  1.00  0.00    -0.348 OA
HETATM   26  C   UNL     1     -10.952   2.209 -34.248  1.00  0.00     0.048 A 
HETATM   27  C   UNL     1     -13.865   0.489 -34.538  1.00  0.00     0.178 C 
HETATM   28  C   UNL     1     -15.176   0.993 -33.959  1.00  0.00     0.053 C 
HETATM   29  C   UNL     1     -14.946   1.772 -32.674  1.00  0.00     0.178 C 
ENDBRANCH  17  18
ENDBRANCH   2  17
TORSDOF 4
ENDMDL
MODEL 5
REMARK VINA RESULT:      -8.6      2.324      3.262
REMARK  4 active torsions:
REMARK  status: ('A' for Active; 'I' for Inactive)
REMARK    1  A    between atoms: N_2  and  C_4 
REMARK    2  A    between atoms: N_2  and  C_16 
REMARK    3  A    between atoms: C_4  and  C_5 
REMARK    4  A    between atoms: C_16  and  C_17 
ROOT
HETATM    1  C   UNL     1      -7.151   3.706 -31.232  1.00  0.00     0.270 C 
HETATM    2  N   UNL     1      -5.741   3.231 -31.008  1.00  0.00    -0.064 N 
HETATM    3  H   UNL     1      -5.321   3.907 -30.348  1.00  0.00     0.280 HD
ENDROOT
BRANCH   2   4
HETATM    4  C   UNL     1      -5.692   1.899 -30.269  1.00  0.00     0.312 C 
BRANCH   4   5
HETATM    5  C   UNL     1      -5.379   0.747 -31.215  1.00  0.00     0.133 A 
HETATM    6  N   UNL     1      -6.303   0.337 -32.026  1.00  0.00    -0.233 NA
HETATM    7  C   UNL     1      -5.981  -0.734 -32.888  1.00  0.00     0.074 A 
HETATM    8  C   UNL     1      -4.724  -1.348 -32.890  1.00  0.00     0.061 A 
HETATM    9  C   UNL     1      -6.949  -1.203 -33.778  1.00  0.00     0.032 A 
HETATM   10  C   UNL     1      -3.720  -0.835 -31.944  1.00  0.00     0.259 A 
HETATM   11  C   UNL     1      -4.423  -2.404 -33.753  1.00  0.00     0.019 A 
HETATM   12  O   UNL     1      -2.589  -1.291 -31.859  1.00  0.00    -0.267 OA
HETATM   13  N   UNL     1      -4.128   0.206 -31.149  1.00  0.00    -0.309 N 
HETATM   14  H   UNL     1      -3.416   0.524 -30.502  1.00  0.00     0.170 HD
HETATM   15  C   UNL     1      -5.401  -2.860 -34.635  1.00  0.00     0.001 A 
HETATM   16  C   UNL     1      -6.661  -2.260 -34.647  1.00  0.00     0.002 A 
ENDBRANCH   4   5
ENDBRANCH   2   4
BRANCH   2  17
HETATM   17  C   UNL     1      -4.898   3.203 -32.256  1.00  0.00     0.273 C 
BRANCH  17  18
HETATM   18  C   UNL     1      -3.739   4.161 -32.246  1.00  0.00    -0.028 A 
HETATM   19  C   UNL     1      -2.950   4.338 -33.393  1.00  0.00     0.035 A 
HETATM   20  C   UNL     1      -1.898   5.261 -33.400  1.00  0.00     0.070 A 
HETATM   21 CL   UNL     1      -1.000   5.455 -34.860  1.00  0.00    -0.081 Cl
HETATM   22  C   UNL     1      -1.597   6.001 -32.253  1.00  0.00     0.123 A 
HETATM   23  C   UNL     1      -2.366   5.813 -31.102  1.00  0.00     0.104 A 
HETATM   24  O   UNL     1      -0.641   6.977 -32.329  1.00  0.00    -0.346 OA
HETATM   25  O   UNL     1      -2.204   6.551 -29.962  1.00  0.00    -0.348 OA
HETATM   26  C   UNL     1      -3.441   4.917 -31.103  1.00  0.00     0.048 A 
HETATM   27  C   UNL     1      -0.911   6.377 -29.373  1.00  0.00     0.178 C 
HETATM   28  C   UNL     1       0.151   7.235 -30.040  1.00  0.00     0.053 C 
HETATM   29  C   UNL     1       0.455   6.740 -31.445  1.00  0.00     0.178 C 
ENDBRANCH  17  18
ENDBRANCH   2  17
TORSDOF 4
ENDMDL
MODEL 6
REMARK VINA RESULT:      -8.6      3.700      6.039
REMARK  4 active torsions:
REMARK  status: ('A' for Active; 'I' for Inactive)
REMARK    1  A    between atoms: N_2  and  C_4 
REMARK    2  A    between atoms: N_2  and  C_16 
REMARK    3  A    between atoms: C_4  and  C_5 
REMARK    4  A    between atoms: C_16  and  C_17 
ROOT
HETATM    1  C   UNL     1      -5.369   3.590 -30.304  1.00  0.00     0.270 C 
HETATM    2  N   UNL     1      -6.345   2.508 -30.675  1.00  0.00    -0.064 N 
HETATM    3  H   UNL     1      -6.228   2.364 -31.693  1.00  0.00     0.280 HD
ENDROOT
BRANCH   2   4
HETATM    4  C   UNL     1      -5.977   1.163 -30.057  1.00  0.00     0.312 C 
BRANCH   4   5
HETATM    5  C   UNL     1      -5.565   0.154 -31.122  1.00  0.00     0.133 A 
HETATM    6  N   UNL     1      -6.449  -0.236 -31.987  1.00  0.00    -0.233 NA
HETATM    7  C   UNL     1      -6.035  -1.173 -32.958  1.00  0.00     0.074 A 
HETATM    8  C   UNL     1      -4.731  -1.678 -33.011  1.00  0.00     0.061 A 
HETATM    9  C   UNL     1      -6.956  -1.616 -33.908  1.00  0.00     0.032 A 
HETATM   10  C   UNL     1      -3.778  -1.195 -32.000  1.00  0.00     0.259 A 
HETATM   11  C   UNL     1      -4.339  -2.602 -33.982  1.00  0.00     0.019 A 
HETATM   12  O   UNL     1      -2.612  -1.563 -31.949  1.00  0.00    -0.267 OA
HETATM   13  N   UNL     1      -4.274  -0.286 -31.099  1.00  0.00    -0.309 N 
HETATM   14  H   UNL     1      -3.594   0.014 -30.410  1.00  0.00     0.170 HD
HETATM   15  C   UNL     1      -5.271  -3.035 -34.923  1.00  0.00     0.001 A 
HETATM   16  C   UNL     1      -6.577  -2.542 -34.887  1.00  0.00     0.002 A 
ENDBRANCH   4   5
ENDBRANCH   2   4
BRANCH   2  17
HETATM   17  C   UNL     1      -7.785   2.862 -30.411  1.00  0.00     0.273 C 
BRANCH  17  18
HETATM   18  C   UNL     1      -8.646   2.931 -31.641  1.00  0.00    -0.028 A 
HETATM   19  C   UNL     1      -8.689   4.099 -32.418  1.00  0.00     0.035 A 
HETATM   20  C   UNL     1      -9.455   4.151 -33.588  1.00  0.00     0.070 A 
HETATM   21 CL   UNL     1      -9.424   5.606 -34.513  1.00  0.00    -0.081 Cl
HETATM   22  C   UNL     1     -10.215   3.047 -33.986  1.00  0.00     0.123 A 
HETATM   23  C   UNL     1     -10.192   1.889 -33.205  1.00  0.00     0.104 A 
HETATM   24  O   UNL     1     -10.857   3.089 -35.193  1.00  0.00    -0.346 OA
HETATM   25  O   UNL     1     -10.831   0.732 -33.559  1.00  0.00    -0.348 OA
HETATM   26  C   UNL     1      -9.399   1.823 -32.054  1.00  0.00     0.048 A 
HETATM   27  C   UNL     1     -12.251   0.892 -33.643  1.00  0.00     0.178 C 
HETATM   28  C   UNL     1     -12.689   1.499 -34.966  1.00  0.00     0.053 C 
HETATM   29  C   UNL     1     -12.274   2.958 -35.065  1.00  0.00     0.178 C 
ENDBRANCH  17  18
ENDBRANCH   2  17
TORSDOF 4
ENDMDL
MODEL 7
REMARK VINA RESULT:      -8.5      3.480      8.335
REMARK  4 active torsions:
REMARK  status: ('A' for Active; 'I' for Inactive)
REMARK    1  A    between atoms: N_2  and  C_4 
REMARK    2  A    between atoms: N_2  and  C_16 
REMARK    3  A    between atoms: C_4  and  C_5 
REMARK    4  A    between atoms: C_16  and  C_17 
ROOT
HETATM    1  C   UNL     1      -3.402   5.286 -35.090  1.00  0.00     0.270 C 
HETATM    2  N   UNL     1      -3.199   5.267 -33.599  1.00  0.00    -0.064 N 
HETATM    3  H   UNL     1      -2.444   4.581 -33.430  1.00  0.00     0.280 HD
ENDROOT
BRANCH   2   4
HETATM    4  C   UNL     1      -2.639   6.585 -33.077  1.00  0.00     0.312 C 
BRANCH   4   5
HETATM    5  C   UNL     1      -1.801   6.377 -31.822  1.00  0.00     0.133 A 
HETATM    6  N   UNL     1      -2.165   6.963 -30.725  1.00  0.00    -0.233 NA
HETATM    7  C   UNL     1      -1.365   6.750 -29.580  1.00  0.00     0.074 A 
HETATM    8  C   UNL     1      -0.221   5.945 -29.600  1.00  0.00     0.061 A 
HETATM    9  C   UNL     1      -1.725   7.362 -28.379  1.00  0.00     0.032 A 
HETATM   10  C   UNL     1       0.138   5.311 -30.877  1.00  0.00     0.259 A 
HETATM   11  C   UNL     1       0.556   5.745 -28.456  1.00  0.00     0.019 A 
HETATM   12  O   UNL     1       1.113   4.585 -31.013  1.00  0.00    -0.267 OA
HETATM   13  N   UNL     1      -0.700   5.577 -31.931  1.00  0.00    -0.309 N 
HETATM   14  H   UNL     1      -0.416   5.134 -32.797  1.00  0.00     0.170 HD
HETATM   15  C   UNL     1       0.183   6.363 -27.264  1.00  0.00     0.001 A 
HETATM   16  C   UNL     1      -0.956   7.170 -27.226  1.00  0.00     0.002 A 
ENDBRANCH   4   5
ENDBRANCH   2   4
BRANCH   2  17
HETATM   17  C   UNL     1      -4.413   4.835 -32.821  1.00  0.00     0.273 C 
BRANCH  17  18
HETATM   18  C   UNL     1      -4.685   3.357 -32.860  1.00  0.00    -0.028 A 
HETATM   19  C   UNL     1      -3.824   2.455 -32.216  1.00  0.00     0.035 A 
HETATM   20  C   UNL     1      -4.098   1.083 -32.215  1.00  0.00     0.070 A 
HETATM   21 CL   UNL     1      -3.017   0.041 -31.366  1.00  0.00    -0.081 Cl
HETATM   22  C   UNL     1      -5.221   0.584 -32.881  1.00  0.00     0.123 A 
HETATM   23  C   UNL     1      -6.071   1.475 -33.541  1.00  0.00     0.104 A 
HETATM   24  O   UNL     1      -5.525  -0.745 -32.761  1.00  0.00    -0.346 OA
HETATM   25  O   UNL     1      -7.237   1.093 -34.145  1.00  0.00    -0.348 OA
HETATM   26  C   UNL     1      -5.818   2.852 -33.515  1.00  0.00     0.048 A 
HETATM   27  C   UNL     1      -7.024   0.179 -35.225  1.00  0.00     0.178 C 
HETATM   28  C   UNL     1      -6.842  -1.252 -34.746  1.00  0.00     0.053 C 
HETATM   29  C   UNL     1      -5.519  -1.424 -34.017  1.00  0.00     0.178 C 
ENDBRANCH  17  18
ENDBRANCH   2  17
TORSDOF 4
ENDMDL
MODEL 8
REMARK VINA RESULT:      -8.4      2.565      7.811
REMARK  4 active torsions:
REMARK  status: ('A' for Active; 'I' for Inactive)
REMARK    1  A    between atoms: N_2  and  C_4 
REMARK    2  A    between atoms: N_2  and  C_16 
REMARK    3  A    between atoms: C_4  and  C_5 
REMARK    4  A    between atoms: C_16  and  C_17 
ROOT
HETATM    1  C   UNL     1      -6.979   3.399 -30.336  1.00  0.00     0.270 C 
HETATM    2  N   UNL     1      -6.070   2.375 -30.958  1.00  0.00    -0.064 N 
HETATM    3  H   UNL     1      -6.152   2.514 -31.980  1.00  0.00     0.280 HD
ENDROOT
BRANCH   2   4
HETATM    4  C   UNL     1      -4.601   2.649 -30.656  1.00  0.00     0.312 C 
BRANCH   4   5
HETATM    5  C   UNL     1      -4.013   3.669 -31.623  1.00  0.00     0.133 A 
HETATM    6  N   UNL     1      -2.959   4.333 -31.265  1.00  0.00    -0.233 NA
HETATM    7  C   UNL     1      -2.441   5.272 -32.184  1.00  0.00     0.074 A 
HETATM    8  C   UNL     1      -3.020   5.498 -33.437  1.00  0.00     0.061 A 
HETATM    9  C   UNL     1      -1.306   6.005 -31.836  1.00  0.00     0.032 A 
HETATM   10  C   UNL     1      -4.215   4.712 -33.781  1.00  0.00     0.259 A 
HETATM   11  C   UNL     1      -2.491   6.429 -34.334  1.00  0.00     0.019 A 
HETATM   12  O   UNL     1      -4.803   4.822 -34.848  1.00  0.00    -0.267 OA
HETATM   13  N   UNL     1      -4.642   3.826 -32.824  1.00  0.00    -0.309 N 
HETATM   14  H   UNL     1      -5.474   3.312 -33.090  1.00  0.00     0.170 HD
HETATM   15  C   UNL     1      -1.357   7.153 -33.971  1.00  0.00     0.001 A 
HETATM   16  C   UNL     1      -0.765   6.941 -32.724  1.00  0.00     0.002 A 
ENDBRANCH   4   5
ENDBRANCH   2   4
BRANCH   2  17
HETATM   17  C   UNL     1      -6.443   0.951 -30.643  1.00  0.00     0.273 C 
BRANCH  17  18
HETATM   18  C   UNL     1      -5.968  -0.056 -31.653  1.00  0.00    -0.028 A 
HETATM   19  C   UNL     1      -6.679  -0.263 -32.845  1.00  0.00     0.035 A 
HETATM   20  C   UNL     1      -6.214  -1.168 -33.806  1.00  0.00     0.070 A 
HETATM   21 CL   UNL     1      -7.119  -1.336 -35.265  1.00  0.00    -0.081 Cl
HETATM   22  C   UNL     1      -5.048  -1.905 -33.580  1.00  0.00     0.123 A 
HETATM   23  C   UNL     1      -4.348  -1.718 -32.385  1.00  0.00     0.104 A 
HETATM   24  O   UNL     1      -4.559  -2.691 -34.587  1.00  0.00    -0.346 OA
HETATM   25  O   UNL     1      -3.153  -2.327 -32.113  1.00  0.00    -0.348 OA
HETATM   26  C   UNL     1      -4.791  -0.788 -31.438  1.00  0.00     0.048 A 
HETATM   27  C   UNL     1      -3.261  -3.753 -32.065  1.00  0.00     0.178 C 
HETATM   28  C   UNL     1      -3.229  -4.385 -33.447  1.00  0.00     0.053 C 
HETATM   29  C   UNL     1      -4.498  -4.071 -34.223  1.00  0.00     0.178 C 
ENDBRANCH  17  18
ENDBRANCH   2  17
TORSDOF 4
ENDMDL
MODEL 9
REMARK VINA RESULT:      -8.4      4.403      7.975
REMARK  4 active torsions:
REMARK  status: ('A' for Active; 'I' for Inactive)
REMARK    1  A    between atoms: N_2  and  C_4 
REMARK    2  A    between atoms: N_2  and  C_16 
REMARK    3  A    between atoms: C_4  and  C_5 
REMARK    4  A    between atoms: C_16  and  C_17 
ROOT
HETATM    1  C   UNL     1      -8.853   0.885 -31.876  1.00  0.00     0.270 C 
HETATM    2  N   UNL     1      -9.413   1.260 -33.221  1.00  0.00    -0.064 N 
HETATM    3  H   UNL     1     -10.155   0.566 -33.417  1.00  0.00     0.280 HD
ENDROOT
BRANCH   2   4
HETATM    4  C   UNL     1     -10.144   2.597 -33.189  1.00  0.00     0.312 C 
BRANCH   4   5
HETATM    5  C   UNL     1     -11.651   2.406 -33.062  1.00  0.00     0.133 A 
HETATM    6  N   UNL     1     -12.364   3.378 -32.587  1.00  0.00    -0.233 NA
HETATM    7  C   UNL     1     -13.757   3.168 -32.481  1.00  0.00     0.074 A 
HETATM    8  C   UNL     1     -14.369   1.970 -32.864  1.00  0.00     0.061 A 
HETATM    9  C   UNL     1     -14.560   4.191 -31.976  1.00  0.00     0.032 A 
HETATM   10  C   UNL     1     -13.502   0.907 -33.394  1.00  0.00     0.259 A 
HETATM   11  C   UNL     1     -15.749   1.782 -32.754  1.00  0.00     0.019 A 
HETATM   12  O   UNL     1     -13.925  -0.180 -33.763  1.00  0.00    -0.267 OA
HETATM   13  N   UNL     1     -12.164   1.205 -33.459  1.00  0.00    -0.309 N 
HETATM   14  H   UNL     1     -11.596   0.446 -33.816  1.00  0.00     0.170 HD
HETATM   15  C   UNL     1     -16.537   2.814 -32.248  1.00  0.00     0.001 A 
HETATM   16  C   UNL     1     -15.943   4.016 -31.860  1.00  0.00     0.002 A 
ENDBRANCH   4   5
ENDBRANCH   2   4
BRANCH   2  17
HETATM   17  C   UNL     1      -8.407   1.205 -34.341  1.00  0.00     0.273 C 
BRANCH  17  18
HETATM   18  C   UNL     1      -7.247   0.282 -34.092  1.00  0.00    -0.028 A 
HETATM   19  C   UNL     1      -7.322  -1.071 -34.455  1.00  0.00     0.035 A 
HETATM   20  C   UNL     1      -6.227  -1.923 -34.265  1.00  0.00     0.070 A 
HETATM   21 CL   UNL     1      -6.379  -3.564 -34.776  1.00  0.00    -0.081 Cl
HETATM   22  C   UNL     1      -5.051  -1.445 -33.681  1.00  0.00     0.123 A 
HETATM   23  C   UNL     1      -4.979  -0.103 -33.299  1.00  0.00     0.104 A 
HETATM   24  O   UNL     1      -3.962  -2.271 -33.619  1.00  0.00    -0.346 OA
HETATM   25  O   UNL     1      -3.843   0.476 -32.803  1.00  0.00    -0.348 OA
HETATM   26  C   UNL     1      -6.059   0.759 -33.521  1.00  0.00     0.048 A 
HETATM   27  C   UNL     1      -3.422  -0.110 -31.567  1.00  0.00     0.178 C 
HETATM   28  C   UNL     1      -2.637  -1.395 -31.772  1.00  0.00     0.053 C 
HETATM   29  C   UNL     1      -3.535  -2.512 -32.278  1.00  0.00     0.178 C 
ENDBRANCH  17  18
ENDBRANCH   2  17
TORSDOF 4
ENDMDL
MODEL 10
REMARK VINA RESULT:      -8.2      2.446      7.700
REMARK  4 active torsions:
REMARK  status: ('A' for Active; 'I' for Inactive)
REMARK    1  A    between atoms: N_2  and  C_4 
REMARK    2  A    between atoms: N_2  and  C_16 
REMARK    3  A    between atoms: C_4  and  C_5 
REMARK    4  A    between atoms: C_16  and  C_17 
ROOT
HETATM    1  C   UNL     1      -6.145   5.923 -32.727  1.00  0.00     0.270 C 
HETATM    2  N   UNL     1      -5.817   4.491 -33.048  1.00  0.00    -0.064 N 
HETATM    3  H   UNL     1      -6.608   4.145 -33.617  1.00  0.00     0.280 HD
ENDROOT
BRANCH   2   4
HETATM    4  C   UNL     1      -4.607   4.368 -33.967  1.00  0.00     0.312 C 
BRANCH   4   5
HETATM    5  C   UNL     1      -3.394   5.090 -33.393  1.00  0.00     0.133 A 
HETATM    6  N   UNL     1      -2.758   4.548 -32.401  1.00  0.00    -0.233 NA
HETATM    7  C   UNL     1      -1.640   5.244 -31.891  1.00  0.00     0.074 A 
HETATM    8  C   UNL     1      -1.212   6.469 -32.414  1.00  0.00     0.061 A 
HETATM    9  C   UNL     1      -0.927   4.692 -30.826  1.00  0.00     0.032 A 
HETATM   10  C   UNL     1      -1.979   7.029 -33.538  1.00  0.00     0.259 A 
HETATM   11  C   UNL     1      -0.102   7.141 -31.898  1.00  0.00     0.019 A 
HETATM   12  O   UNL     1      -1.697   8.090 -34.076  1.00  0.00    -0.267 OA
HETATM   13  N   UNL     1      -3.048   6.280 -33.963  1.00  0.00    -0.309 N 
HETATM   14  H   UNL     1      -3.559   6.702 -34.728  1.00  0.00     0.170 HD
HETATM   15  C   UNL     1       0.599   6.576 -30.834  1.00  0.00     0.001 A 
HETATM   16  C   UNL     1       0.187   5.354 -30.299  1.00  0.00     0.002 A 
ENDBRANCH   4   5
ENDBRANCH   2   4
BRANCH   2  17
HETATM   17  C   UNL     1      -5.684   3.606 -31.837  1.00  0.00     0.273 C 
BRANCH  17  18
HETATM   18  C   UNL     1      -5.453   2.153 -32.149  1.00  0.00    -0.028 A 
HETATM   19  C   UNL     1      -4.255   1.525 -31.775  1.00  0.00     0.035 A 
HETATM   20  C   UNL     1      -4.056   0.162 -32.025  1.00  0.00     0.070 A 
HETATM   21 CL   UNL     1      -2.575  -0.550 -31.498  1.00  0.00    -0.081 Cl
HETATM   22  C   UNL     1      -5.036  -0.589 -32.680  1.00  0.00     0.123 A 
HETATM   23  C   UNL     1      -6.221   0.037 -33.073  1.00  0.00     0.104 A 
HETATM   24  O   UNL     1      -4.860  -1.940 -32.803  1.00  0.00    -0.346 OA
HETATM   25  O   UNL     1      -7.272  -0.632 -33.639  1.00  0.00    -0.348 OA
HETATM   26  C   UNL     1      -6.438   1.391 -32.792  1.00  0.00     0.048 A 
HETATM   27  C   UNL     1      -6.931  -1.229 -34.894  1.00  0.00     0.178 C 
HETATM   28  C   UNL     1      -6.215  -2.559 -34.729  1.00  0.00     0.053 C 
HETATM   29  C   UNL     1      -4.817  -2.365 -34.165  1.00  0.00     0.178 C 
ENDBRANCH  17  18
ENDBRANCH   2  17
TORSDOF 4
ENDMDL
