MODEL 1
REMARK VINA RESULT:      -8.7      0.000      0.000
REMARK  9 active torsions:
REMARK  status: ('A' for Active; 'I' for Inactive)
REMARK    1  A    between atoms: C_2  and  O_3 
REMARK    2  A    between atoms: O_3  and  C_4 
REMARK    3  A    between atoms: C_7  and  N_8 
REMARK       I    between atoms: N_8  and  C_9 
REMARK    4  A    between atoms: C_9  and  C_10 
REMARK    5  A    between atoms: C_10  and  S_11 
REMARK    6  A    between atoms: S_11  and  C_12 
REMARK    7  A    between atoms: C_16  and  C_17 
REMARK       I    between atoms: C_17  and  N_18 
REMARK    8  A    between atoms: N_18  and  C_19 
REMARK    9  A    between atoms: C_27  and  C_28 
ROOT
HETATM    1  C   UNL     1     -11.023   5.308 -33.095  1.00  0.00     0.087 C 
HETATM    2  N   UNL     1     -10.553   4.724 -31.931  1.00  0.00    -0.353 N 
HETATM    3  C   UNL     1     -10.210   3.391 -31.826  1.00  0.00     0.019 C 
HETATM    4  C   UNL     1      -9.431   3.010 -30.592  1.00  0.00     0.069 C 
HETATM    5  C   UNL     1     -10.557   2.554 -32.831  1.00  0.00     0.046 C 
HETATM    6  C   UNL     1     -11.553   3.003 -33.909  1.00  0.00     0.104 C 
HETATM    7  C   UNL     1     -11.588   4.530 -34.052  1.00  0.00     0.055 C 
HETATM    8  C   UNL     1     -12.373   5.146 -35.198  1.00  0.00     0.019 C 
HETATM    9  N   UNL     1     -13.024   5.658 -36.148  1.00  0.00    -0.096 N 
HETATM   10  H   UNL     1     -10.157   5.371 -31.251  1.00  0.00     0.166 HD
ENDROOT
BRANCH   1  11
HETATM   11  S   UNL     1     -10.726   7.022 -33.351  1.00  0.00    -0.102 SA
BRANCH  11  12
HETATM   12  C   UNL     1     -10.062   7.335 -31.676  1.00  0.00     0.184 C 
BRANCH  12  13
HETATM   13  C   UNL     1      -8.643   6.852 -31.472  1.00  0.00     0.231 C 
HETATM   14  N   UNL     1      -7.862   6.907 -32.607  1.00  0.00    -0.327 N 
HETATM   15  H   UNL     1      -8.172   7.537 -33.339  1.00  0.00     0.169 HD
HETATM   16  O   UNL     1      -8.318   6.367 -30.390  1.00  0.00    -0.272 OA
BRANCH  14  17
HETATM   17  C   UNL     1      -6.653   6.217 -32.829  1.00  0.00     0.034 A 
HETATM   18  C   UNL     1      -5.430   6.608 -32.281  1.00  0.00     0.032 A 
HETATM   19  C   UNL     1      -4.288   5.827 -32.477  1.00  0.00     0.039 A 
HETATM   20  C   UNL     1      -4.347   4.648 -33.222  1.00  0.00     0.068 A 
HETATM   21  C   UNL     1      -5.561   4.268 -33.792  1.00  0.00     0.039 A 
HETATM   22  C   UNL     1      -6.708   5.044 -33.589  1.00  0.00     0.032 A 
BRANCH  20  23
HETATM   23  O   UNL     1      -3.165   3.970 -33.311  1.00  0.00    -0.352 OA
BRANCH  23  24
HETATM   24  C   UNL     1      -1.979   4.752 -33.442  1.00  0.00     0.171 C 
HETATM   25  C   UNL     1      -1.789   5.066 -34.915  1.00  0.00     0.034 C 
ENDBRANCH  23  24
ENDBRANCH  20  23
ENDBRANCH  14  17
ENDBRANCH  12  13
ENDBRANCH  11  12
ENDBRANCH   1  11
BRANCH   6  26
HETATM   26  C   UNL     1     -12.939   2.415 -33.652  1.00  0.00    -0.042 A 
HETATM   27  C   UNL     1     -13.506   1.449 -34.494  1.00  0.00     0.027 A 
HETATM   28  C   UNL     1     -14.780   0.978 -34.213  1.00  0.00     0.116 A 
HETATM   29  N   UNL     1     -15.527   1.405 -33.174  1.00  0.00    -0.273 NA
HETATM   30  C   UNL     1     -14.977   2.350 -32.385  1.00  0.00     0.116 A 
HETATM   31  C   UNL     1     -13.708   2.875 -32.576  1.00  0.00     0.027 A 
ENDBRANCH   6  26
BRANCH   5  32
HETATM   32  C   UNL     1      -9.890   1.230 -33.031  1.00  0.00     0.255 C 
HETATM   33  N   UNL     1      -8.573   1.378 -33.435  1.00  0.00    -0.323 N 
HETATM   34  H   UNL     1      -8.234   2.323 -33.541  1.00  0.00     0.169 HD
HETATM   35  O   UNL     1     -10.522   0.189 -32.939  1.00  0.00    -0.268 OA
BRANCH  33  36
HETATM   36  C   UNL     1      -7.618   0.377 -33.693  1.00  0.00     0.035 A 
HETATM   37  C   UNL     1      -7.555  -0.360 -34.876  1.00  0.00     0.031 A 
HETATM   38  C   UNL     1      -6.568  -1.340 -35.040  1.00  0.00     0.026 A 
HETATM   39  C   UNL     1      -5.651  -1.589 -34.021  1.00  0.00     0.034 A 
HETATM   40 CL   UNL     1      -4.445  -2.798 -34.225  1.00  0.00    -0.084 Cl
HETATM   41  C   UNL     1      -5.707  -0.864 -32.836  1.00  0.00     0.026 A 
HETATM   42  C   UNL     1      -6.686   0.120 -32.677  1.00  0.00     0.031 A 
ENDBRANCH  33  36
ENDBRANCH   5  32
TORSDOF 9
ENDMDL
MODEL 2
REMARK VINA RESULT:      -8.6      4.231      8.389
REMARK  9 active torsions:
REMARK  status: ('A' for Active; 'I' for Inactive)
REMARK    1  A    between atoms: C_2  and  O_3 
REMARK    2  A    between atoms: O_3  and  C_4 
REMARK    3  A    between atoms: C_7  and  N_8 
REMARK       I    between atoms: N_8  and  C_9 
REMARK    4  A    between atoms: C_9  and  C_10 
REMARK    5  A    between atoms: C_10  and  S_11 
REMARK    6  A    between atoms: S_11  and  C_12 
REMARK    7  A    between atoms: C_16  and  C_17 
REMARK       I    between atoms: C_17  and  N_18 
REMARK    8  A    between atoms: N_18  and  C_19 
REMARK    9  A    between atoms: C_27  and  C_28 
ROOT
HETATM    1  C   UNL     1      -7.908   5.357 -30.531  1.00  0.00     0.087 C 
HETATM    2  N   UNL     1      -7.422   5.374 -29.235  1.00  0.00    -0.353 N 
HETATM    3  C   UNL     1      -6.202   5.914 -28.881  1.00  0.00     0.019 C 
HETATM    4  C   UNL     1      -5.983   6.124 -27.403  1.00  0.00     0.069 C 
HETATM    5  C   UNL     1      -5.331   6.243 -29.864  1.00  0.00     0.046 C 
HETATM    6  C   UNL     1      -5.563   5.760 -31.301  1.00  0.00     0.104 C 
HETATM    7  C   UNL     1      -7.044   5.462 -31.571  1.00  0.00     0.055 C 
HETATM    8  C   UNL     1      -7.489   5.156 -32.992  1.00  0.00     0.019 C 
HETATM    9  N   UNL     1      -7.858   4.903 -34.170  1.00  0.00    -0.096 N 
HETATM   10  H   UNL     1      -8.127   5.274 -28.507  1.00  0.00     0.166 HD
ENDROOT
BRANCH   1  11
HETATM   11  S   UNL     1      -9.650   5.356 -30.772  1.00  0.00    -0.102 SA
BRANCH  11  12
HETATM   12  C   UNL     1      -9.900   3.630 -30.222  1.00  0.00     0.184 C 
BRANCH  12  13
HETATM   13  C   UNL     1      -9.409   2.589 -31.203  1.00  0.00     0.231 C 
HETATM   14  N   UNL     1      -8.264   1.933 -30.801  1.00  0.00    -0.327 N 
HETATM   15  H   UNL     1      -8.057   1.954 -29.808  1.00  0.00     0.169 HD
HETATM   16  O   UNL     1      -9.970   2.469 -32.291  1.00  0.00    -0.272 OA
BRANCH  14  17
HETATM   17  C   UNL     1      -7.386   1.197 -31.620  1.00  0.00     0.034 A 
HETATM   18  C   UNL     1      -7.045   1.574 -32.920  1.00  0.00     0.032 A 
HETATM   19  C   UNL     1      -6.102   0.839 -33.643  1.00  0.00     0.039 A 
HETATM   20  C   UNL     1      -5.488  -0.282 -33.084  1.00  0.00     0.068 A 
HETATM   21  C   UNL     1      -5.845  -0.677 -31.796  1.00  0.00     0.039 A 
HETATM   22  C   UNL     1      -6.782   0.064 -31.066  1.00  0.00     0.032 A 
BRANCH  20  23
HETATM   23  O   UNL     1      -4.568  -0.890 -33.890  1.00  0.00    -0.352 OA
BRANCH  23  24
HETATM   24  C   UNL     1      -4.370  -2.290 -33.704  1.00  0.00     0.171 C 
HETATM   25  C   UNL     1      -5.179  -3.019 -34.761  1.00  0.00     0.034 C 
ENDBRANCH  23  24
ENDBRANCH  20  23
ENDBRANCH  14  17
ENDBRANCH  12  13
ENDBRANCH  11  12
ENDBRANCH   1  11
BRANCH   6  26
HETATM   26  C   UNL     1      -4.665   4.569 -31.630  1.00  0.00    -0.042 A 
HETATM   27  C   UNL     1      -4.623   3.423 -30.825  1.00  0.00     0.027 A 
HETATM   28  C   UNL     1      -3.764   2.390 -31.172  1.00  0.00     0.116 A 
HETATM   29  N   UNL     1      -2.942   2.423 -32.241  1.00  0.00    -0.273 NA
HETATM   30  C   UNL     1      -2.977   3.542 -32.994  1.00  0.00     0.116 A 
HETATM   31  C   UNL     1      -3.808   4.622 -32.737  1.00  0.00     0.027 A 
ENDBRANCH   6  26
BRANCH   5  32
HETATM   32  C   UNL     1      -4.203   7.198 -29.641  1.00  0.00     0.255 C 
HETATM   33  N   UNL     1      -3.111   6.573 -29.063  1.00  0.00    -0.323 N 
HETATM   34  H   UNL     1      -3.202   5.585 -28.870  1.00  0.00     0.169 HD
HETATM   35  O   UNL     1      -4.340   8.392 -29.861  1.00  0.00    -0.268 OA
BRANCH  33  36
HETATM   36  C   UNL     1      -1.860   7.124 -28.729  1.00  0.00     0.035 A 
HETATM   37  C   UNL     1      -0.729   7.054 -29.543  1.00  0.00     0.031 A 
HETATM   38  C   UNL     1       0.475   7.631 -29.124  1.00  0.00     0.026 A 
HETATM   39  C   UNL     1       0.554   8.268 -27.887  1.00  0.00     0.034 A 
HETATM   40 CL   UNL     1       2.038   8.969 -27.372  1.00  0.00    -0.084 Cl
HETATM   41  C   UNL     1      -0.565   8.340 -27.064  1.00  0.00     0.026 A 
HETATM   42  C   UNL     1      -1.769   7.773 -27.488  1.00  0.00     0.031 A 
ENDBRANCH  33  36
ENDBRANCH   5  32
TORSDOF 9
ENDMDL
MODEL 3
REMARK VINA RESULT:      -8.6      4.989      6.974
REMARK  9 active torsions:
REMARK  status: ('A' for Active; 'I' for Inactive)
REMARK    1  A    between atoms: C_2  and  O_3 
REMARK    2  A    between atoms: O_3  and  C_4 
REMARK    3  A    between atoms: C_7  and  N_8 
REMARK       I    between atoms: N_8  and  C_9 
REMARK    4  A    between atoms: C_9  and  C_10 
REMARK    5  A    between atoms: C_10  and  S_11 
REMARK    6  A    between atoms: S_11  and  C_12 
REMARK    7  A    between atoms: C_16  and  C_17 
REMARK       I    between atoms: C_17  and  N_18 
REMARK    8  A    between atoms: N_18  and  C_19 
REMARK    9  A    between atoms: C_27  and  C_28 
ROOT
HETATM    1  C   UNL     1      -4.360   4.814 -31.322  1.00  0.00     0.087 C 
HETATM    2  N   UNL     1      -4.018   3.531 -30.931  1.00  0.00    -0.353 N 
HETATM    3  C   UNL     1      -4.505   2.389 -31.535  1.00  0.00     0.019 C 
HETATM    4  C   UNL     1      -3.790   1.107 -31.188  1.00  0.00     0.069 C 
HETATM    5  C   UNL     1      -5.537   2.508 -32.404  1.00  0.00     0.046 C 
HETATM    6  C   UNL     1      -6.334   3.816 -32.489  1.00  0.00     0.104 C 
HETATM    7  C   UNL     1      -5.510   5.019 -32.011  1.00  0.00     0.055 C 
HETATM    8  C   UNL     1      -6.068   6.420 -32.203  1.00  0.00     0.019 C 
HETATM    9  N   UNL     1      -6.530   7.581 -32.361  1.00  0.00    -0.096 N 
HETATM   10  H   UNL     1      -3.151   3.455 -30.403  1.00  0.00     0.166 HD
ENDROOT
BRANCH   1  11
HETATM   11  S   UNL     1      -3.204   6.109 -31.042  1.00  0.00    -0.102 SA
BRANCH  11  12
HETATM   12  C   UNL     1      -1.720   5.088 -31.352  1.00  0.00     0.184 C 
BRANCH  12  13
HETATM   13  C   UNL     1      -0.600   5.303 -30.359  1.00  0.00     0.231 C 
HETATM   14  N   UNL     1      -0.938   6.119 -29.299  1.00  0.00    -0.327 N 
HETATM   15  H   UNL     1      -1.928   6.219 -29.104  1.00  0.00     0.169 HD
HETATM   16  O   UNL     1       0.517   4.847 -30.597  1.00  0.00    -0.272 OA
BRANCH  14  17
HETATM   17  C   UNL     1      -0.047   6.781 -28.432  1.00  0.00     0.034 A 
HETATM   18  C   UNL     1       0.788   7.826 -28.833  1.00  0.00     0.032 A 
HETATM   19  C   UNL     1       1.585   8.491 -27.898  1.00  0.00     0.039 A 
HETATM   20  C   UNL     1       1.564   8.125 -26.552  1.00  0.00     0.068 A 
HETATM   21  C   UNL     1       0.751   7.066 -26.151  1.00  0.00     0.039 A 
HETATM   22  C   UNL     1      -0.055   6.404 -27.085  1.00  0.00     0.032 A 
BRANCH  20  23
HETATM   23  O   UNL     1       2.370   8.876 -25.744  1.00  0.00    -0.352 OA
BRANCH  23  24
HETATM   24  C   UNL     1       1.786   9.398 -24.552  1.00  0.00     0.171 C 
HETATM   25  C   UNL     1       2.720   9.082 -23.398  1.00  0.00     0.034 C 
ENDBRANCH  23  24
ENDBRANCH  20  23
ENDBRANCH  14  17
ENDBRANCH  12  13
ENDBRANCH  11  12
ENDBRANCH   1  11
BRANCH   6  26
HETATM   26  C   UNL     1      -7.664   3.696 -31.748  1.00  0.00    -0.042 A 
HETATM   27  C   UNL     1      -8.886   3.575 -32.424  1.00  0.00     0.027 A 
HETATM   28  C   UNL     1     -10.057   3.494 -31.686  1.00  0.00     0.116 A 
HETATM   29  N   UNL     1     -10.101   3.542 -30.339  1.00  0.00    -0.273 NA
HETATM   30  C   UNL     1      -8.920   3.681 -29.702  1.00  0.00     0.116 A 
HETATM   31  C   UNL     1      -7.696   3.758 -30.350  1.00  0.00     0.027 A 
ENDBRANCH   6  26
BRANCH   5  32
HETATM   32  C   UNL     1      -5.855   1.451 -33.412  1.00  0.00     0.255 C 
HETATM   33  N   UNL     1      -5.537   0.186 -32.944  1.00  0.00    -0.323 N 
HETATM   34  H   UNL     1      -5.146   0.132 -32.014  1.00  0.00     0.169 HD
HETATM   35  O   UNL     1      -6.240   1.748 -34.533  1.00  0.00    -0.268 OA
BRANCH  33  36
HETATM   36  C   UNL     1      -5.715  -1.055 -33.581  1.00  0.00     0.035 A 
HETATM   37  C   UNL     1      -6.954  -1.575 -33.956  1.00  0.00     0.031 A 
HETATM   38  C   UNL     1      -7.031  -2.824 -34.584  1.00  0.00     0.026 A 
HETATM   39  C   UNL     1      -5.872  -3.558 -34.828  1.00  0.00     0.034 A 
HETATM   40 CL   UNL     1      -5.972  -5.095 -35.594  1.00  0.00    -0.084 Cl
HETATM   41  C   UNL     1      -4.632  -3.053 -34.455  1.00  0.00     0.026 A 
HETATM   42  C   UNL     1      -4.554  -1.802 -33.838  1.00  0.00     0.031 A 
ENDBRANCH  33  36
ENDBRANCH   5  32
TORSDOF 9
ENDMDL
MODEL 4
REMARK VINA RESULT:      -8.6      4.456      9.106
REMARK  9 active torsions:
REMARK  status: ('A' for Active; 'I' for Inactive)
REMARK    1  A    between atoms: C_2  and  O_3 
REMARK    2  A    between atoms: O_3  and  C_4 
REMARK    3  A    between atoms: C_7  and  N_8 
REMARK       I    between atoms: N_8  and  C_9 
REMARK    4  A    between atoms: C_9  and  C_10 
REMARK    5  A    between atoms: C_10  and  S_11 
REMARK    6  A    between atoms: S_11  and  C_12 
REMARK    7  A    between atoms: C_16  and  C_17 
REMARK       I    between atoms: C_17  and  N_18 
REMARK    8  A    between atoms: N_18  and  C_19 
REMARK    9  A    between atoms: C_27  and  C_28 
ROOT
HETATM    1  C   UNL     1      -3.601   1.763 -31.787  1.00  0.00     0.087 C 
HETATM    2  N   UNL     1      -3.001   2.617 -32.696  1.00  0.00    -0.353 N 
HETATM    3  C   UNL     1      -2.897   3.981 -32.514  1.00  0.00     0.019 C 
HETATM    4  C   UNL     1      -1.948   4.696 -33.444  1.00  0.00     0.069 C 
HETATM    5  C   UNL     1      -3.606   4.556 -31.515  1.00  0.00     0.046 C 
HETATM    6  C   UNL     1      -4.715   3.773 -30.799  1.00  0.00     0.104 C 
HETATM    7  C   UNL     1      -4.498   2.257 -30.897  1.00  0.00     0.055 C 
HETATM    8  C   UNL     1      -5.389   1.330 -30.088  1.00  0.00     0.019 C 
HETATM    9  N   UNL     1      -6.128   0.560 -29.417  1.00  0.00    -0.096 N 
HETATM   10  H   UNL     1      -2.352   2.173 -33.344  1.00  0.00     0.166 HD
ENDROOT
BRANCH   1  11
HETATM   11  S   UNL     1      -3.056   0.093 -31.721  1.00  0.00    -0.102 SA
BRANCH  11  12
HETATM   12  C   UNL     1      -3.785  -0.390 -33.327  1.00  0.00     0.184 C 
BRANCH  12  13
HETATM   13  C   UNL     1      -5.283  -0.592 -33.292  1.00  0.00     0.231 C 
HETATM   14  N   UNL     1      -6.004   0.454 -33.828  1.00  0.00    -0.327 N 
HETATM   15  H   UNL     1      -5.505   1.068 -34.463  1.00  0.00     0.169 HD
HETATM   16  O   UNL     1      -5.749  -1.578 -32.723  1.00  0.00    -0.272 OA
BRANCH  14  17
HETATM   17  C   UNL     1      -7.372   0.724 -33.623  1.00  0.00     0.034 A 
HETATM   18  C   UNL     1      -7.918   1.041 -32.378  1.00  0.00     0.032 A 
HETATM   19  C   UNL     1      -9.269   1.378 -32.265  1.00  0.00     0.039 A 
HETATM   20  C   UNL     1     -10.096   1.405 -33.389  1.00  0.00     0.068 A 
HETATM   21  C   UNL     1      -9.560   1.065 -34.630  1.00  0.00     0.039 A 
HETATM   22  C   UNL     1      -8.204   0.735 -34.747  1.00  0.00     0.032 A 
BRANCH  20  23
HETATM   23  O   UNL     1     -11.385   1.777 -33.140  1.00  0.00    -0.352 OA
BRANCH  23  24
HETATM   24  C   UNL     1     -12.348   1.492 -34.154  1.00  0.00     0.171 C 
HETATM   25  C   UNL     1     -13.129   0.264 -33.723  1.00  0.00     0.034 C 
ENDBRANCH  23  24
ENDBRANCH  20  23
ENDBRANCH  14  17
ENDBRANCH  12  13
ENDBRANCH  11  12
ENDBRANCH   1  11
BRANCH   6  26
HETATM   26  C   UNL     1      -6.095   4.192 -31.305  1.00  0.00    -0.042 A 
HETATM   27  C   UNL     1      -6.380   4.320 -32.671  1.00  0.00     0.027 A 
HETATM   28  C   UNL     1      -7.648   4.730 -33.056  1.00  0.00     0.116 A 
HETATM   29  N   UNL     1      -8.636   5.032 -32.189  1.00  0.00    -0.273 NA
HETATM   30  C   UNL     1      -8.340   4.926 -30.878  1.00  0.00     0.116 A 
HETATM   31  C   UNL     1      -7.108   4.514 -30.394  1.00  0.00     0.027 A 
ENDBRANCH   6  26
BRANCH   5  32
HETATM   32  C   UNL     1      -3.258   5.900 -30.961  1.00  0.00     0.255 C 
HETATM   33  N   UNL     1      -2.256   5.816 -30.008  1.00  0.00    -0.323 N 
HETATM   34  H   UNL     1      -1.895   4.894 -29.809  1.00  0.00     0.169 HD
HETATM   35  O   UNL     1      -3.896   6.893 -31.276  1.00  0.00    -0.268 OA
BRANCH  33  36
HETATM   36  C   UNL     1      -1.641   6.857 -29.288  1.00  0.00     0.035 A 
HETATM   37  C   UNL     1      -2.334   7.808 -28.539  1.00  0.00     0.031 A 
HETATM   38  C   UNL     1      -1.633   8.811 -27.857  1.00  0.00     0.026 A 
HETATM   39  C   UNL     1      -0.243   8.869 -27.931  1.00  0.00     0.034 A 
HETATM   40 CL   UNL     1       0.613  10.106 -27.098  1.00  0.00    -0.084 Cl
HETATM   41  C   UNL     1       0.458   7.929 -28.679  1.00  0.00     0.026 A 
HETATM   42  C   UNL     1      -0.241   6.922 -29.350  1.00  0.00     0.031 A 
ENDBRANCH  33  36
ENDBRANCH   5  32
TORSDOF 9
ENDMDL
MODEL 5
REMARK VINA RESULT:      -8.3      4.727      7.464
REMARK  9 active torsions:
REMARK  status: ('A' for Active; 'I' for Inactive)
REMARK    1  A    between atoms: C_2  and  O_3 
REMARK    2  A    between atoms: O_3  and  C_4 
REMARK    3  A    between atoms: C_7  and  N_8 
REMARK       I    between atoms: N_8  and  C_9 
REMARK    4  A    between atoms: C_9  and  C_10 
REMARK    5  A    between atoms: C_10  and  S_11 
REMARK    6  A    between atoms: S_11  and  C_12 
REMARK    7  A    between atoms: C_16  and  C_17 
REMARK       I    between atoms: C_17  and  N_18 
REMARK    8  A    between atoms: N_18  and  C_19 
REMARK    9  A    between atoms: C_27  and  C_28 
ROOT
HETATM    1  C   UNL     1      -4.470   3.342 -32.364  1.00  0.00     0.087 C 
HETATM    2  N   UNL     1      -5.328   4.138 -33.102  1.00  0.00    -0.353 N 
HETATM    3  C   UNL     1      -6.701   3.992 -33.101  1.00  0.00     0.019 C 
HETATM    4  C   UNL     1      -7.482   5.131 -33.708  1.00  0.00     0.069 C 
HETATM    5  C   UNL     1      -7.233   2.883 -32.535  1.00  0.00     0.046 C 
HETATM    6  C   UNL     1      -6.338   1.690 -32.174  1.00  0.00     0.104 C 
HETATM    7  C   UNL     1      -4.880   2.115 -31.955  1.00  0.00     0.055 C 
HETATM    8  C   UNL     1      -3.890   1.101 -31.406  1.00  0.00     0.019 C 
HETATM    9  N   UNL     1      -3.068   0.262 -30.951  1.00  0.00    -0.096 N 
HETATM   10  H   UNL     1      -4.947   5.038 -33.389  1.00  0.00     0.166 HD
ENDROOT
BRANCH   1  11
HETATM   11  S   UNL     1      -2.931   4.021 -31.852  1.00  0.00    -0.102 SA
BRANCH  11  12
HETATM   12  C   UNL     1      -3.268   5.706 -32.479  1.00  0.00     0.184 C 
BRANCH  12  13
HETATM   13  C   UNL     1      -2.357   6.772 -31.913  1.00  0.00     0.231 C 
HETATM   14  N   UNL     1      -1.696   6.394 -30.763  1.00  0.00    -0.327 N 
HETATM   15  H   UNL     1      -1.614   5.397 -30.596  1.00  0.00     0.169 HD
HETATM   16  O   UNL     1      -2.341   7.890 -32.426  1.00  0.00    -0.272 OA
BRANCH  14  17
HETATM   17  C   UNL     1      -1.082   7.250 -29.827  1.00  0.00     0.034 A 
HETATM   18  C   UNL     1      -1.778   8.196 -29.074  1.00  0.00     0.032 A 
HETATM   19  C   UNL     1      -1.114   8.953 -28.104  1.00  0.00     0.039 A 
HETATM   20  C   UNL     1       0.251   8.780 -27.873  1.00  0.00     0.068 A 
HETATM   21  C   UNL     1       0.955   7.854 -28.641  1.00  0.00     0.039 A 
HETATM   22  C   UNL     1       0.290   7.088 -29.606  1.00  0.00     0.032 A 
BRANCH  20  23
HETATM   23  O   UNL     1       0.765   9.564 -26.880  1.00  0.00    -0.352 OA
BRANCH  23  24
HETATM   24  C   UNL     1       0.845   8.988 -25.577  1.00  0.00     0.171 C 
HETATM   25  C   UNL     1       2.300   8.645 -25.308  1.00  0.00     0.034 C 
ENDBRANCH  23  24
ENDBRANCH  20  23
ENDBRANCH  14  17
ENDBRANCH  12  13
ENDBRANCH  11  12
ENDBRANCH   1  11
BRANCH   6  26
HETATM   26  C   UNL     1      -6.466   0.577 -33.212  1.00  0.00    -0.042 A 
HETATM   27  C   UNL     1      -6.762   0.842 -34.556  1.00  0.00     0.027 A 
HETATM   28  C   UNL     1      -6.887  -0.222 -35.438  1.00  0.00     0.116 A 
HETATM   29  N   UNL     1      -6.757  -1.515 -35.079  1.00  0.00    -0.273 NA
HETATM   30  C   UNL     1      -6.495  -1.756 -33.778  1.00  0.00     0.116 A 
HETATM   31  C   UNL     1      -6.340  -0.762 -32.823  1.00  0.00     0.027 A 
ENDBRANCH   6  26
BRANCH   5  32
HETATM   32  C   UNL     1      -8.661   2.819 -32.099  1.00  0.00     0.255 C 
HETATM   33  N   UNL     1      -9.509   2.564 -33.164  1.00  0.00    -0.323 N 
HETATM   34  H   UNL     1      -9.078   2.456 -34.072  1.00  0.00     0.169 HD
HETATM   35  O   UNL     1      -8.979   3.080 -30.949  1.00  0.00    -0.268 OA
BRANCH  33  36
HETATM   36  C   UNL     1     -10.907   2.403 -33.154  1.00  0.00     0.035 A 
HETATM   37  C   UNL     1     -11.806   3.379 -32.723  1.00  0.00     0.031 A 
HETATM   38  C   UNL     1     -13.182   3.125 -32.747  1.00  0.00     0.026 A 
HETATM   39  C   UNL     1     -13.661   1.894 -33.190  1.00  0.00     0.034 A 
HETATM   40 CL   UNL     1     -15.352   1.584 -33.211  1.00  0.00    -0.084 Cl
HETATM   41  C   UNL     1     -12.774   0.911 -33.617  1.00  0.00     0.026 A 
HETATM   42  C   UNL     1     -11.401   1.169 -33.604  1.00  0.00     0.031 A 
ENDBRANCH  33  36
ENDBRANCH   5  32
TORSDOF 9
ENDMDL
MODEL 6
REMARK VINA RESULT:      -8.3      2.370      7.204
REMARK  9 active torsions:
REMARK  status: ('A' for Active; 'I' for Inactive)
REMARK    1  A    between atoms: C_2  and  O_3 
REMARK    2  A    between atoms: O_3  and  C_4 
REMARK    3  A    between atoms: C_7  and  N_8 
REMARK       I    between atoms: N_8  and  C_9 
REMARK    4  A    between atoms: C_9  and  C_10 
REMARK    5  A    between atoms: C_10  and  S_11 
REMARK    6  A    between atoms: S_11  and  C_12 
REMARK    7  A    between atoms: C_16  and  C_17 
REMARK       I    between atoms: C_17  and  N_18 
REMARK    8  A    between atoms: N_18  and  C_19 
REMARK    9  A    between atoms: C_27  and  C_28 
ROOT
HETATM    1  C   UNL     1      -7.474   6.703 -32.151  1.00  0.00     0.087 C 
HETATM    2  N   UNL     1      -8.133   6.083 -33.199  1.00  0.00    -0.353 N 
HETATM    3  C   UNL     1      -8.020   4.738 -33.488  1.00  0.00     0.019 C 
HETATM    4  C   UNL     1      -9.039   4.188 -34.455  1.00  0.00     0.069 C 
HETATM    5  C   UNL     1      -7.052   4.023 -32.869  1.00  0.00     0.046 C 
HETATM    6  C   UNL     1      -5.930   4.735 -32.102  1.00  0.00     0.104 C 
HETATM    7  C   UNL     1      -6.357   6.132 -31.633  1.00  0.00     0.055 C 
HETATM    8  C   UNL     1      -5.446   6.908 -30.696  1.00  0.00     0.019 C 
HETATM    9  N   UNL     1      -4.691   7.551 -29.919  1.00  0.00    -0.096 N 
HETATM   10  H   UNL     1      -8.953   6.577 -33.547  1.00  0.00     0.166 HD
ENDROOT
BRANCH   1  11
HETATM   11  S   UNL     1      -8.205   8.129 -31.429  1.00  0.00    -0.102 SA
BRANCH  11  12
HETATM   12  C   UNL     1      -9.126   7.219 -30.138  1.00  0.00     0.184 C 
BRANCH  12  13
HETATM   13  C   UNL     1     -10.478   6.709 -30.583  1.00  0.00     0.231 C 
HETATM   14  N   UNL     1     -10.684   5.368 -30.333  1.00  0.00    -0.327 N 
HETATM   15  H   UNL     1     -10.099   4.947 -29.620  1.00  0.00     0.169 HD
HETATM   16  O   UNL     1     -11.233   7.456 -31.203  1.00  0.00    -0.272 OA
BRANCH  14  17
HETATM   17  C   UNL     1     -11.656   4.542 -30.931  1.00  0.00     0.034 A 
HETATM   18  C   UNL     1     -12.993   4.509 -30.531  1.00  0.00     0.032 A 
HETATM   19  C   UNL     1     -13.918   3.725 -31.226  1.00  0.00     0.039 A 
HETATM   20  C   UNL     1     -13.526   2.964 -32.327  1.00  0.00     0.068 A 
HETATM   21  C   UNL     1     -12.187   2.974 -32.715  1.00  0.00     0.039 A 
HETATM   22  C   UNL     1     -11.260   3.766 -32.026  1.00  0.00     0.032 A 
BRANCH  20  23
HETATM   23  O   UNL     1     -14.535   2.268 -32.928  1.00  0.00    -0.352 OA
BRANCH  23  24
HETATM   24  C   UNL     1     -14.198   1.516 -34.093  1.00  0.00     0.171 C 
HETATM   25  C   UNL     1     -14.031   0.065 -33.677  1.00  0.00     0.034 C 
ENDBRANCH  23  24
ENDBRANCH  20  23
ENDBRANCH  14  17
ENDBRANCH  12  13
ENDBRANCH  11  12
ENDBRANCH   1  11
BRANCH   6  26
HETATM   26  C   UNL     1      -4.642   4.770 -32.922  1.00  0.00    -0.042 A 
HETATM   27  C   UNL     1      -4.604   5.278 -34.228  1.00  0.00     0.027 A 
HETATM   28  C   UNL     1      -3.403   5.254 -34.922  1.00  0.00     0.116 A 
HETATM   29  N   UNL     1      -2.256   4.753 -34.422  1.00  0.00    -0.273 NA
HETATM   30  C   UNL     1      -2.313   4.247 -33.173  1.00  0.00     0.116 A 
HETATM   31  C   UNL     1      -3.460   4.236 -32.395  1.00  0.00     0.027 A 
ENDBRANCH   6  26
BRANCH   5  32
HETATM   32  C   UNL     1      -7.103   2.532 -32.771  1.00  0.00     0.255 C 
HETATM   33  N   UNL     1      -6.351   1.929 -33.765  1.00  0.00    -0.323 N 
HETATM   34  H   UNL     1      -5.875   2.543 -34.411  1.00  0.00     0.169 HD
HETATM   35  O   UNL     1      -7.829   1.981 -31.958  1.00  0.00    -0.268 OA
BRANCH  33  36
HETATM   36  C   UNL     1      -6.128   0.557 -33.986  1.00  0.00     0.035 A 
HETATM   37  C   UNL     1      -5.051  -0.157 -33.461  1.00  0.00     0.031 A 
HETATM   38  C   UNL     1      -4.912  -1.522 -33.740  1.00  0.00     0.026 A 
HETATM   39  C   UNL     1      -5.841  -2.171 -34.551  1.00  0.00     0.034 A 
HETATM   40 CL   UNL     1      -5.661  -3.846 -34.897  1.00  0.00    -0.084 Cl
HETATM   41  C   UNL     1      -6.915  -1.468 -35.085  1.00  0.00     0.026 A 
HETATM   42  C   UNL     1      -7.060  -0.108 -34.797  1.00  0.00     0.031 A 
ENDBRANCH  33  36
ENDBRANCH   5  32
TORSDOF 9
ENDMDL
MODEL 7
REMARK VINA RESULT:      -8.3      3.974      8.992
REMARK  9 active torsions:
REMARK  status: ('A' for Active; 'I' for Inactive)
REMARK    1  A    between atoms: C_2  and  O_3 
REMARK    2  A    between atoms: O_3  and  C_4 
REMARK    3  A    between atoms: C_7  and  N_8 
REMARK       I    between atoms: N_8  and  C_9 
REMARK    4  A    between atoms: C_9  and  C_10 
REMARK    5  A    between atoms: C_10  and  S_11 
REMARK    6  A    between atoms: S_11  and  C_12 
REMARK    7  A    between atoms: C_16  and  C_17 
REMARK       I    between atoms: C_17  and  N_18 
REMARK    8  A    between atoms: N_18  and  C_19 
REMARK    9  A    between atoms: C_27  and  C_28 
ROOT
HETATM    1  C   UNL     1      -5.482   2.067 -32.688  1.00  0.00     0.087 C 
HETATM    2  N   UNL     1      -5.448   3.089 -33.621  1.00  0.00    -0.353 N 
HETATM    3  C   UNL     1      -4.886   4.327 -33.382  1.00  0.00     0.019 C 
HETATM    4  C   UNL     1      -4.660   5.190 -34.599  1.00  0.00     0.069 C 
HETATM    5  C   UNL     1      -4.550   4.650 -32.111  1.00  0.00     0.046 C 
HETATM    6  C   UNL     1      -5.048   3.798 -30.936  1.00  0.00     0.104 C 
HETATM    7  C   UNL     1      -5.372   2.362 -31.369  1.00  0.00     0.055 C 
HETATM    8  C   UNL     1      -5.695   1.326 -30.305  1.00  0.00     0.019 C 
HETATM    9  N   UNL     1      -5.963   0.465 -29.424  1.00  0.00    -0.096 N 
HETATM   10  H   UNL     1      -5.553   2.794 -34.591  1.00  0.00     0.166 HD
ENDROOT
BRANCH   1  11
HETATM   11  S   UNL     1      -5.513   0.407 -33.266  1.00  0.00    -0.102 SA
BRANCH  11  12
HETATM   12  C   UNL     1      -6.778   0.694 -34.554  1.00  0.00     0.184 C 
BRANCH  12  13
HETATM   13  C   UNL     1      -8.203   0.583 -34.059  1.00  0.00     0.231 C 
HETATM   14  N   UNL     1      -9.066   1.502 -34.620  1.00  0.00    -0.327 N 
HETATM   15  H   UNL     1      -8.776   1.916 -35.500  1.00  0.00     0.169 HD
HETATM   16  O   UNL     1      -8.472  -0.208 -33.158  1.00  0.00    -0.272 OA
BRANCH  14  17
HETATM   17  C   UNL     1     -10.327   1.884 -34.121  1.00  0.00     0.034 A 
HETATM   18  C   UNL     1     -11.509   1.199 -34.406  1.00  0.00     0.032 A 
HETATM   19  C   UNL     1     -12.711   1.586 -33.808  1.00  0.00     0.039 A 
HETATM   20  C   UNL     1     -12.753   2.660 -32.919  1.00  0.00     0.068 A 
HETATM   21  C   UNL     1     -11.580   3.363 -32.651  1.00  0.00     0.039 A 
HETATM   22  C   UNL     1     -10.373   2.971 -33.242  1.00  0.00     0.032 A 
BRANCH  20  23
HETATM   23  O   UNL     1     -13.986   2.913 -32.387  1.00  0.00    -0.352 OA
BRANCH  23  24
HETATM   24  C   UNL     1     -14.990   1.919 -32.584  1.00  0.00     0.171 C 
HETATM   25  C   UNL     1     -16.322   2.512 -32.160  1.00  0.00     0.034 C 
ENDBRANCH  23  24
ENDBRANCH  20  23
ENDBRANCH  14  17
ENDBRANCH  12  13
ENDBRANCH  11  12
ENDBRANCH   1  11
BRANCH   6  26
HETATM   26  C   UNL     1      -6.227   4.470 -30.234  1.00  0.00    -0.042 A 
HETATM   27  C   UNL     1      -7.443   4.712 -30.887  1.00  0.00     0.027 A 
HETATM   28  C   UNL     1      -8.462   5.349 -30.194  1.00  0.00     0.116 A 
HETATM   29  N   UNL     1      -8.353   5.771 -28.918  1.00  0.00    -0.273 NA
HETATM   30  C   UNL     1      -7.169   5.552 -28.309  1.00  0.00     0.116 A 
HETATM   31  C   UNL     1      -6.096   4.913 -28.913  1.00  0.00     0.027 A 
ENDBRANCH   6  26
BRANCH   5  32
HETATM   32  C   UNL     1      -3.576   5.739 -31.797  1.00  0.00     0.255 C 
HETATM   33  N   UNL     1      -2.746   5.394 -30.743  1.00  0.00    -0.323 N 
HETATM   34  H   UNL     1      -2.892   4.484 -30.330  1.00  0.00     0.169 HD
HETATM   35  O   UNL     1      -3.635   6.818 -32.367  1.00  0.00    -0.268 OA
BRANCH  33  36
HETATM   36  C   UNL     1      -1.692   6.134 -30.178  1.00  0.00     0.035 A 
HETATM   37  C   UNL     1      -0.357   6.023 -30.569  1.00  0.00     0.031 A 
HETATM   38  C   UNL     1       0.625   6.801 -29.944  1.00  0.00     0.026 A 
HETATM   39  C   UNL     1       0.276   7.682 -28.922  1.00  0.00     0.034 A 
HETATM   40 CL   UNL     1       1.487   8.631 -28.152  1.00  0.00    -0.084 Cl
HETATM   41  C   UNL     1      -1.050   7.798 -28.520  1.00  0.00     0.026 A 
HETATM   42  C   UNL     1      -2.031   7.029 -29.152  1.00  0.00     0.031 A 
ENDBRANCH  33  36
ENDBRANCH   5  32
TORSDOF 9
ENDMDL
MODEL 8
REMARK VINA RESULT:      -8.2      2.362      7.275
REMARK  9 active torsions:
REMARK  status: ('A' for Active; 'I' for Inactive)
REMARK    1  A    between atoms: C_2  and  O_3 
REMARK    2  A    between atoms: O_3  and  C_4 
REMARK    3  A    between atoms: C_7  and  N_8 
REMARK       I    between atoms: N_8  and  C_9 
REMARK    4  A    between atoms: C_9  and  C_10 
REMARK    5  A    between atoms: C_10  and  S_11 
REMARK    6  A    between atoms: S_11  and  C_12 
REMARK    7  A    between atoms: C_16  and  C_17 
REMARK       I    between atoms: C_17  and  N_18 
REMARK    8  A    between atoms: N_18  and  C_19 
REMARK    9  A    between atoms: C_27  and  C_28 
ROOT
HETATM    1  C   UNL     1      -7.813   5.275 -32.234  1.00  0.00     0.087 C 
HETATM    2  N   UNL     1      -8.266   4.270 -33.071  1.00  0.00    -0.353 N 
HETATM    3  C   UNL     1      -7.693   3.016 -33.144  1.00  0.00     0.019 C 
HETATM    4  C   UNL     1      -8.502   1.967 -33.866  1.00  0.00     0.069 C 
HETATM    5  C   UNL     1      -6.496   2.816 -32.544  1.00  0.00     0.046 C 
HETATM    6  C   UNL     1      -5.663   4.008 -32.057  1.00  0.00     0.104 C 
HETATM    7  C   UNL     1      -6.536   5.238 -31.776  1.00  0.00     0.055 C 
HETATM    8  C   UNL     1      -5.911   6.451 -31.106  1.00  0.00     0.019 C 
HETATM    9  N   UNL     1      -5.393   7.456 -30.550  1.00  0.00    -0.096 N 
HETATM   10  H   UNL     1      -9.229   4.371 -33.388  1.00  0.00     0.166 HD
ENDROOT
BRANCH   1  11
HETATM   11  S   UNL     1      -8.964   6.478 -31.671  1.00  0.00    -0.102 SA
BRANCH  11  12
HETATM   12  C   UNL     1      -9.325   7.161 -33.329  1.00  0.00     0.184 C 
BRANCH  12  13
HETATM   13  C   UNL     1     -10.186   6.268 -34.194  1.00  0.00     0.231 C 
HETATM   14  N   UNL     1     -11.253   5.701 -33.529  1.00  0.00    -0.327 N 
HETATM   15  H   UNL     1     -11.550   6.163 -32.676  1.00  0.00     0.169 HD
HETATM   16  O   UNL     1      -9.841   6.029 -35.350  1.00  0.00    -0.272 OA
BRANCH  14  17
HETATM   17  C   UNL     1     -12.001   4.581 -33.942  1.00  0.00     0.034 A 
HETATM   18  C   UNL     1     -11.664   3.791 -35.042  1.00  0.00     0.032 A 
HETATM   19  C   UNL     1     -12.406   2.645 -35.341  1.00  0.00     0.039 A 
HETATM   20  C   UNL     1     -13.494   2.271 -34.552  1.00  0.00     0.068 A 
HETATM   21  C   UNL     1     -13.849   3.072 -33.468  1.00  0.00     0.039 A 
HETATM   22  C   UNL     1     -13.101   4.215 -33.160  1.00  0.00     0.032 A 
BRANCH  20  23
HETATM   23  O   UNL     1     -14.112   1.118 -34.942  1.00  0.00    -0.352 OA
BRANCH  23  24
HETATM   24  C   UNL     1     -14.336   0.132 -33.936  1.00  0.00     0.171 C 
HETATM   25  C   UNL     1     -12.995  -0.489 -33.586  1.00  0.00     0.034 C 
ENDBRANCH  23  24
ENDBRANCH  20  23
ENDBRANCH  14  17
ENDBRANCH  12  13
ENDBRANCH  11  12
ENDBRANCH   1  11
BRANCH   6  26
HETATM   26  C   UNL     1      -4.527   4.316 -33.030  1.00  0.00    -0.042 A 
HETATM   27  C   UNL     1      -3.186   4.058 -32.715  1.00  0.00     0.027 A 
HETATM   28  C   UNL     1      -2.204   4.387 -33.639  1.00  0.00     0.116 A 
HETATM   29  N   UNL     1      -2.457   4.961 -34.832  1.00  0.00    -0.273 NA
HETATM   30  C   UNL     1      -3.750   5.224 -35.112  1.00  0.00     0.116 A 
HETATM   31  C   UNL     1      -4.803   4.923 -34.261  1.00  0.00     0.027 A 
ENDBRANCH   6  26
BRANCH   5  32
HETATM   32  C   UNL     1      -6.000   1.450 -32.194  1.00  0.00     0.255 C 
HETATM   33  N   UNL     1      -5.628   0.736 -33.321  1.00  0.00    -0.323 N 
HETATM   34  H   UNL     1      -5.732   1.206 -34.210  1.00  0.00     0.169 HD
HETATM   35  O   UNL     1      -6.049   1.041 -31.044  1.00  0.00    -0.268 OA
BRANCH  33  36
HETATM   36  C   UNL     1      -5.090  -0.561 -33.400  1.00  0.00     0.035 A 
HETATM   37  C   UNL     1      -3.989  -0.999 -32.665  1.00  0.00     0.031 A 
HETATM   38  C   UNL     1      -3.522  -2.311 -32.814  1.00  0.00     0.026 A 
HETATM   39  C   UNL     1      -4.148  -3.181 -33.704  1.00  0.00     0.034 A 
HETATM   40 CL   UNL     1      -3.567  -4.789 -33.889  1.00  0.00    -0.084 Cl
HETATM   41  C   UNL     1      -5.243  -2.754 -34.447  1.00  0.00     0.026 A 
HETATM   42  C   UNL     1      -5.715  -1.448 -34.290  1.00  0.00     0.031 A 
ENDBRANCH  33  36
ENDBRANCH   5  32
TORSDOF 9
ENDMDL
MODEL 9
REMARK VINA RESULT:      -8.2      3.059      3.768
REMARK  9 active torsions:
REMARK  status: ('A' for Active; 'I' for Inactive)
REMARK    1  A    between atoms: C_2  and  O_3 
REMARK    2  A    between atoms: O_3  and  C_4 
REMARK    3  A    between atoms: C_7  and  N_8 
REMARK       I    between atoms: N_8  and  C_9 
REMARK    4  A    between atoms: C_9  and  C_10 
REMARK    5  A    between atoms: C_10  and  S_11 
REMARK    6  A    between atoms: S_11  and  C_12 
REMARK    7  A    between atoms: C_16  and  C_17 
REMARK       I    between atoms: C_17  and  N_18 
REMARK    8  A    between atoms: N_18  and  C_19 
REMARK    9  A    between atoms: C_27  and  C_28 
ROOT
HETATM    1  C   UNL     1      -8.317   5.299 -32.368  1.00  0.00     0.087 C 
HETATM    2  N   UNL     1      -8.054   4.595 -31.206  1.00  0.00    -0.353 N 
HETATM    3  C   UNL     1      -8.039   3.217 -31.131  1.00  0.00     0.019 C 
HETATM    4  C   UNL     1      -7.431   2.634 -29.879  1.00  0.00     0.069 C 
HETATM    5  C   UNL     1      -8.523   2.507 -32.178  1.00  0.00     0.046 C 
HETATM    6  C   UNL     1      -9.332   3.203 -33.280  1.00  0.00     0.104 C 
HETATM    7  C   UNL     1      -9.001   4.699 -33.373  1.00  0.00     0.055 C 
HETATM    8  C   UNL     1      -9.564   5.509 -34.530  1.00  0.00     0.019 C 
HETATM    9  N   UNL     1     -10.030   6.181 -35.489  1.00  0.00    -0.096 N 
HETATM   10  H   UNL     1      -7.551   5.115 -30.488  1.00  0.00     0.166 HD
ENDROOT
BRANCH   1  11
HETATM   11  S   UNL     1      -7.615   6.901 -32.553  1.00  0.00    -0.102 SA
BRANCH  11  12
HETATM   12  C   UNL     1      -5.901   6.312 -32.795  1.00  0.00     0.184 C 
BRANCH  12  13
HETATM   13  C   UNL     1      -5.020   6.448 -31.574  1.00  0.00     0.231 C 
HETATM   14  N   UNL     1      -3.819   7.082 -31.814  1.00  0.00    -0.327 N 
HETATM   15  H   UNL     1      -3.775   7.666 -32.643  1.00  0.00     0.169 HD
HETATM   16  O   UNL     1      -5.362   5.919 -30.517  1.00  0.00    -0.272 OA
BRANCH  14  17
HETATM   17  C   UNL     1      -2.670   7.043 -31.000  1.00  0.00     0.034 A 
HETATM   18  C   UNL     1      -1.776   5.971 -30.978  1.00  0.00     0.032 A 
HETATM   19  C   UNL     1      -0.613   6.038 -30.207  1.00  0.00     0.039 A 
HETATM   20  C   UNL     1      -0.324   7.172 -29.447  1.00  0.00     0.068 A 
HETATM   21  C   UNL     1      -1.226   8.234 -29.446  1.00  0.00     0.039 A 
HETATM   22  C   UNL     1      -2.388   8.173 -30.225  1.00  0.00     0.032 A 
BRANCH  20  23
HETATM   23  O   UNL     1       0.857   7.114 -28.764  1.00  0.00    -0.352 OA
BRANCH  23  24
HETATM   24  C   UNL     1       1.218   8.262 -27.998  1.00  0.00     0.171 C 
HETATM   25  C   UNL     1       1.568   7.796 -26.596  1.00  0.00     0.034 C 
ENDBRANCH  23  24
ENDBRANCH  20  23
ENDBRANCH  14  17
ENDBRANCH  12  13
ENDBRANCH  11  12
ENDBRANCH   1  11
BRANCH   6  26
HETATM   26  C   UNL     1     -10.829   2.953 -33.101  1.00  0.00    -0.042 A 
HETATM   27  C   UNL     1     -11.506   1.949 -33.807  1.00  0.00     0.027 A 
HETATM   28  C   UNL     1     -12.870   1.795 -33.612  1.00  0.00     0.116 A 
HETATM   29  N   UNL     1     -13.604   2.570 -32.786  1.00  0.00    -0.273 NA
HETATM   30  C   UNL     1     -12.943   3.545 -32.130  1.00  0.00     0.116 A 
HETATM   31  C   UNL     1     -11.580   3.771 -32.249  1.00  0.00     0.027 A 
ENDBRANCH   6  26
BRANCH   5  32
HETATM   32  C   UNL     1      -8.176   1.069 -32.393  1.00  0.00     0.255 C 
HETATM   33  N   UNL     1      -6.977   0.929 -33.072  1.00  0.00    -0.323 N 
HETATM   34  H   UNL     1      -6.498   1.782 -33.329  1.00  0.00     0.169 HD
HETATM   35  O   UNL     1      -8.957   0.182 -32.082  1.00  0.00    -0.268 OA
BRANCH  33  36
HETATM   36  C   UNL     1      -6.306  -0.254 -33.433  1.00  0.00     0.035 A 
HETATM   37  C   UNL     1      -6.744  -1.132 -34.424  1.00  0.00     0.031 A 
HETATM   38  C   UNL     1      -6.010  -2.289 -34.712  1.00  0.00     0.026 A 
HETATM   39  C   UNL     1      -4.844  -2.574 -34.003  1.00  0.00     0.034 A 
HETATM   40 CL   UNL     1      -3.949  -4.000 -34.354  1.00  0.00    -0.084 Cl
HETATM   41  C   UNL     1      -4.401  -1.708 -33.009  1.00  0.00     0.026 A 
HETATM   42  C   UNL     1      -5.128  -0.549 -32.730  1.00  0.00     0.031 A 
ENDBRANCH  33  36
ENDBRANCH   5  32
TORSDOF 9
ENDMDL
MODEL 10
REMARK VINA RESULT:      -8.1      1.736      2.477
REMARK  9 active torsions:
REMARK  status: ('A' for Active; 'I' for Inactive)
REMARK    1  A    between atoms: C_2  and  O_3 
REMARK    2  A    between atoms: O_3  and  C_4 
REMARK    3  A    between atoms: C_7  and  N_8 
REMARK       I    between atoms: N_8  and  C_9 
REMARK    4  A    between atoms: C_9  and  C_10 
REMARK    5  A    between atoms: C_10  and  S_11 
REMARK    6  A    between atoms: S_11  and  C_12 
REMARK    7  A    between atoms: C_16  and  C_17 
REMARK       I    between atoms: C_17  and  N_18 
REMARK    8  A    between atoms: N_18  and  C_19 
REMARK    9  A    between atoms: C_27  and  C_28 
ROOT
HETATM    1  C   UNL     1      -9.759   5.287 -32.714  1.00  0.00     0.087 C 
HETATM    2  N   UNL     1      -9.511   4.615 -31.529  1.00  0.00    -0.353 N 
HETATM    3  C   UNL     1      -9.321   3.250 -31.448  1.00  0.00     0.019 C 
HETATM    4  C   UNL     1      -8.758   2.744 -30.142  1.00  0.00     0.069 C 
HETATM    5  C   UNL     1      -9.610   2.491 -32.531  1.00  0.00     0.046 C 
HETATM    6  C   UNL     1     -10.400   3.083 -33.705  1.00  0.00     0.104 C 
HETATM    7  C   UNL     1     -10.263   4.609 -33.775  1.00  0.00     0.055 C 
HETATM    8  C   UNL     1     -10.820   5.346 -34.982  1.00  0.00     0.019 C 
HETATM    9  N   UNL     1     -11.282   5.958 -35.982  1.00  0.00    -0.096 N 
HETATM   10  H   UNL     1      -9.149   5.191 -30.772  1.00  0.00     0.166 HD
ENDROOT
BRANCH   1  11
HETATM   11  S   UNL     1      -9.261   6.969 -32.841  1.00  0.00    -0.102 SA
BRANCH  11  12
HETATM   12  C   UNL     1      -7.963   6.863 -31.558  1.00  0.00     0.184 C 
BRANCH  12  13
HETATM   13  C   UNL     1      -6.689   6.190 -32.017  1.00  0.00     0.231 C 
HETATM   14  N   UNL     1      -5.853   5.808 -30.989  1.00  0.00    -0.327 N 
HETATM   15  H   UNL     1      -6.280   5.703 -30.075  1.00  0.00     0.169 HD
HETATM   16  O   UNL     1      -6.439   6.122 -33.219  1.00  0.00    -0.272 OA
BRANCH  14  17
HETATM   17  C   UNL     1      -4.482   5.498 -31.092  1.00  0.00     0.034 A 
HETATM   18  C   UNL     1      -4.000   4.235 -31.438  1.00  0.00     0.032 A 
HETATM   19  C   UNL     1      -2.629   4.024 -31.602  1.00  0.00     0.039 A 
HETATM   20  C   UNL     1      -1.718   5.066 -31.422  1.00  0.00     0.068 A 
HETATM   21  C   UNL     1      -2.194   6.322 -31.051  1.00  0.00     0.039 A 
HETATM   22  C   UNL     1      -3.568   6.539 -30.896  1.00  0.00     0.032 A 
BRANCH  20  23
HETATM   23  O   UNL     1      -0.414   4.728 -31.640  1.00  0.00    -0.352 OA
BRANCH  23  24
HETATM   24  C   UNL     1       0.576   5.491 -30.952  1.00  0.00     0.171 C 
HETATM   25  C   UNL     1       0.842   4.815 -29.619  1.00  0.00     0.034 C 
ENDBRANCH  23  24
ENDBRANCH  20  23
ENDBRANCH  14  17
ENDBRANCH  12  13
ENDBRANCH  11  12
ENDBRANCH   1  11
BRANCH   6  26
HETATM   26  C   UNL     1     -11.860   2.635 -33.662  1.00  0.00    -0.042 A 
HETATM   27  C   UNL     1     -12.774   3.162 -32.739  1.00  0.00     0.027 A 
HETATM   28  C   UNL     1     -14.079   2.690 -32.742  1.00  0.00     0.116 A 
HETATM   29  N   UNL     1     -14.529   1.732 -33.577  1.00  0.00    -0.273 NA
HETATM   30  C   UNL     1     -13.633   1.218 -34.445  1.00  0.00     0.116 A 
HETATM   31  C   UNL     1     -12.312   1.631 -34.528  1.00  0.00     0.027 A 
ENDBRANCH   6  26
BRANCH   5  32
HETATM   32  C   UNL     1      -9.057   1.113 -32.707  1.00  0.00     0.255 C 
HETATM   33  N   UNL     1      -7.744   1.142 -33.148  1.00  0.00    -0.323 N 
HETATM   34  H   UNL     1      -7.333   2.054 -33.289  1.00  0.00     0.169 HD
HETATM   35  O   UNL     1      -9.769   0.130 -32.570  1.00  0.00    -0.268 OA
BRANCH  33  36
HETATM   36  C   UNL     1      -6.880   0.061 -33.400  1.00  0.00     0.035 A 
HETATM   37  C   UNL     1      -5.785  -0.271 -32.602  1.00  0.00     0.031 A 
HETATM   38  C   UNL     1      -4.979  -1.366 -32.936  1.00  0.00     0.026 A 
HETATM   39  C   UNL     1      -5.260  -2.123 -34.072  1.00  0.00     0.034 A 
HETATM   40 CL   UNL     1      -4.262  -3.463 -34.482  1.00  0.00    -0.084 Cl
HETATM   41  C   UNL     1      -6.345  -1.799 -34.878  1.00  0.00     0.026 A 
HETATM   42  C   UNL     1      -7.156  -0.713 -34.538  1.00  0.00     0.031 A 
ENDBRANCH  33  36
ENDBRANCH   5  32
TORSDOF 9
ENDMDL
