MODEL 1
REMARK VINA RESULT:      -9.0      0.000      0.000
REMARK  6 active torsions:
REMARK  status: ('A' for Active; 'I' for Inactive)
REMARK    1  A    between atoms: C_2  and  C_3 
REMARK    2  A    between atoms: C_4  and  N_5 
REMARK       I    between atoms: N_5  and  C_6 
REMARK    3  A    between atoms: C_6  and  C_7 
REMARK    4  A    between atoms: C_7  and  N_8 
REMARK       I    between atoms: N_8  and  C_9 
REMARK    5  A    between atoms: C_9  and  C_10 
REMARK    6  A    between atoms: C_11  and  C_12 
ROOT
HETATM    1  N   UNL     1      -3.371   0.231 -31.058  1.00  0.00    -0.348 N 
HETATM    2  C   UNL     1      -3.990   1.182 -31.849  1.00  0.00     0.255 C 
HETATM    3  O   UNL     1      -4.146   1.020 -33.053  1.00  0.00    -0.268 OA
HETATM    4  H   UNL     1      -3.165   0.480 -30.101  1.00  0.00     0.163 HD
ENDROOT
BRANCH   1   5
HETATM    5  C   UNL     1      -2.528  -0.779 -31.684  1.00  0.00     0.226 C 
BRANCH   5   6
HETATM    6  C   UNL     1      -3.222  -2.066 -32.163  1.00  0.00     0.239 C 
HETATM    7  N   UNL     1      -4.089  -1.868 -33.222  1.00  0.00    -0.325 N 
HETATM    8  H   UNL     1      -4.145  -0.913 -33.545  1.00  0.00     0.169 HD
HETATM    9  O   UNL     1      -3.058  -3.110 -31.535  1.00  0.00    -0.271 OA
BRANCH   7  10
HETATM   10  C   UNL     1      -4.858  -2.833 -33.911  1.00  0.00     0.041 A 
HETATM   11  C   UNL     1      -6.178  -2.515 -34.304  1.00  0.00    -0.032 A 
HETATM   12  C   UNL     1      -6.934  -3.474 -35.012  1.00  0.00     0.009 A 
HETATM   13  C   UNL     1      -6.400  -4.720 -35.330  1.00  0.00     0.001 A 
HETATM   14  C   UNL     1      -5.103  -5.029 -34.943  1.00  0.00     0.002 A 
HETATM   15  C   UNL     1      -4.341  -4.094 -34.239  1.00  0.00     0.030 A 
BRANCH  11  16
HETATM   16  C   UNL     1      -6.852  -1.200 -33.980  1.00  0.00     0.036 C 
HETATM   17  C   UNL     1      -6.989  -0.296 -35.196  1.00  0.00     0.010 C 
ENDBRANCH  11  16
ENDBRANCH   7  10
ENDBRANCH   5   6
ENDBRANCH   1   5
BRANCH   2  18
HETATM   18  C   UNL     1      -4.448   2.363 -31.139  1.00  0.00     0.080 A 
HETATM   19  C   UNL     1      -4.175   3.744 -31.415  1.00  0.00     0.104 A 
HETATM   20  N   UNL     1      -4.720   4.532 -30.469  1.00  0.00    -0.174 NA
HETATM   21  N   UNL     1      -5.317   3.692 -29.622  1.00  0.00    -0.288 N 
HETATM   22  H   UNL     1      -5.779   4.084 -28.806  1.00  0.00     0.188 HD
HETATM   23  C   UNL     1      -5.208   2.385 -29.981  1.00  0.00     0.128 A 
BRANCH  19  24
HETATM   24  C   UNL     1      -3.453   4.349 -32.540  1.00  0.00    -0.005 A 
HETATM   25  C   UNL     1      -4.115   4.716 -33.717  1.00  0.00     0.014 A 
HETATM   26  C   UNL     1      -3.421   5.319 -34.770  1.00  0.00     0.001 A 
HETATM   27  C   UNL     1      -2.056   5.567 -34.653  1.00  0.00     0.000 A 
HETATM   28  C   UNL     1      -1.384   5.213 -33.485  1.00  0.00     0.001 A 
HETATM   29  C   UNL     1      -2.079   4.612 -32.433  1.00  0.00     0.014 A 
ENDBRANCH  19  24
ENDBRANCH   2  18
TORSDOF 6
ENDMDL
MODEL 2
REMARK VINA RESULT:      -8.8      2.761      3.894
REMARK  6 active torsions:
REMARK  status: ('A' for Active; 'I' for Inactive)
REMARK    1  A    between atoms: C_2  and  C_3 
REMARK    2  A    between atoms: C_4  and  N_5 
REMARK       I    between atoms: N_5  and  C_6 
REMARK    3  A    between atoms: C_6  and  C_7 
REMARK    4  A    between atoms: C_7  and  N_8 
REMARK       I    between atoms: N_8  and  C_9 
REMARK    5  A    between atoms: C_9  and  C_10 
REMARK    6  A    between atoms: C_11  and  C_12 
ROOT
HETATM    1  N   UNL     1      -3.704   3.154 -32.591  1.00  0.00    -0.348 N 
HETATM    2  C   UNL     1      -2.600   3.906 -32.233  1.00  0.00     0.255 C 
HETATM    3  O   UNL     1      -1.937   3.647 -31.236  1.00  0.00    -0.268 OA
HETATM    4  H   UNL     1      -4.276   3.495 -33.350  1.00  0.00     0.163 HD
ENDROOT
BRANCH   1   5
HETATM    5  C   UNL     1      -4.348   2.311 -31.593  1.00  0.00     0.226 C 
BRANCH   5   6
HETATM    6  C   UNL     1      -4.383   0.800 -31.874  1.00  0.00     0.239 C 
HETATM    7  N   UNL     1      -5.068   0.465 -33.028  1.00  0.00    -0.325 N 
HETATM    8  H   UNL     1      -5.445   1.252 -33.535  1.00  0.00     0.169 HD
HETATM    9  O   UNL     1      -3.924   0.019 -31.043  1.00  0.00    -0.271 OA
BRANCH   7  10
HETATM   10  C   UNL     1      -5.264  -0.820 -33.584  1.00  0.00     0.041 A 
HETATM   11  C   UNL     1      -6.569  -1.228 -33.941  1.00  0.00    -0.032 A 
HETATM   12  C   UNL     1      -6.757  -2.502 -34.516  1.00  0.00     0.009 A 
HETATM   13  C   UNL     1      -5.680  -3.357 -34.741  1.00  0.00     0.001 A 
HETATM   14  C   UNL     1      -4.400  -2.953 -34.390  1.00  0.00     0.002 A 
HETATM   15  C   UNL     1      -4.195  -1.696 -33.816  1.00  0.00     0.030 A 
BRANCH  11  16
HETATM   16  C   UNL     1      -7.802  -0.382 -33.709  1.00  0.00     0.036 C 
HETATM   17  C   UNL     1      -8.213   0.404 -34.946  1.00  0.00     0.010 C 
ENDBRANCH  11  16
ENDBRANCH   7  10
ENDBRANCH   5   6
ENDBRANCH   1   5
BRANCH   2  18
HETATM   18  C   UNL     1      -2.288   5.002 -33.133  1.00  0.00     0.080 A 
HETATM   19  C   UNL     1      -1.708   6.280 -32.833  1.00  0.00     0.104 A 
HETATM   20  N   UNL     1      -1.659   7.047 -33.938  1.00  0.00    -0.174 NA
HETATM   21  N   UNL     1      -2.187   6.296 -34.905  1.00  0.00    -0.288 N 
HETATM   22  H   UNL     1      -2.269   6.700 -35.834  1.00  0.00     0.188 HD
HETATM   23  C   UNL     1      -2.561   5.055 -34.490  1.00  0.00     0.128 A 
BRANCH  19  24
HETATM   24  C   UNL     1      -1.174   6.790 -31.566  1.00  0.00    -0.005 A 
HETATM   25  C   UNL     1       0.141   6.522 -31.169  1.00  0.00     0.014 A 
HETATM   26  C   UNL     1       0.647   7.040 -29.973  1.00  0.00     0.001 A 
HETATM   27  C   UNL     1      -0.157   7.839 -29.164  1.00  0.00     0.000 A 
HETATM   28  C   UNL     1      -1.466   8.121 -29.549  1.00  0.00     0.001 A 
HETATM   29  C   UNL     1      -1.970   7.603 -30.744  1.00  0.00     0.014 A 
ENDBRANCH  19  24
ENDBRANCH   2  18
TORSDOF 6
ENDMDL
MODEL 3
REMARK VINA RESULT:      -8.8      2.941      4.586
REMARK  6 active torsions:
REMARK  status: ('A' for Active; 'I' for Inactive)
REMARK    1  A    between atoms: C_2  and  C_3 
REMARK    2  A    between atoms: C_4  and  N_5 
REMARK       I    between atoms: N_5  and  C_6 
REMARK    3  A    between atoms: C_6  and  C_7 
REMARK    4  A    between atoms: C_7  and  N_8 
REMARK       I    between atoms: N_8  and  C_9 
REMARK    5  A    between atoms: C_9  and  C_10 
REMARK    6  A    between atoms: C_11  and  C_12 
ROOT
HETATM    1  N   UNL     1      -3.883   3.871 -32.175  1.00  0.00    -0.348 N 
HETATM    2  C   UNL     1      -2.594   4.354 -32.049  1.00  0.00     0.255 C 
HETATM    3  O   UNL     1      -1.789   3.853 -31.273  1.00  0.00    -0.268 OA
HETATM    4  H   UNL     1      -4.530   4.405 -32.738  1.00  0.00     0.163 HD
ENDROOT
BRANCH   1   5
HETATM    5  C   UNL     1      -4.443   3.043 -31.115  1.00  0.00     0.226 C 
BRANCH   5   6
HETATM    6  C   UNL     1      -5.247   1.806 -31.548  1.00  0.00     0.239 C 
HETATM    7  N   UNL     1      -4.817   1.252 -32.741  1.00  0.00    -0.325 N 
HETATM    8  H   UNL     1      -4.030   1.725 -33.162  1.00  0.00     0.169 HD
HETATM    9  O   UNL     1      -6.240   1.473 -30.903  1.00  0.00    -0.271 OA
BRANCH   7  10
HETATM   10  C   UNL     1      -5.316   0.107 -33.401  1.00  0.00     0.041 A 
HETATM   11  C   UNL     1      -4.705  -1.147 -33.171  1.00  0.00    -0.032 A 
HETATM   12  C   UNL     1      -5.221  -2.291 -33.815  1.00  0.00     0.009 A 
HETATM   13  C   UNL     1      -6.320  -2.204 -34.666  1.00  0.00     0.001 A 
HETATM   14  C   UNL     1      -6.918  -0.972 -34.889  1.00  0.00     0.002 A 
HETATM   15  C   UNL     1      -6.419   0.172 -34.263  1.00  0.00     0.030 A 
BRANCH  11  16
HETATM   16  C   UNL     1      -3.491  -1.335 -32.287  1.00  0.00     0.036 C 
HETATM   17  C   UNL     1      -3.168  -2.802 -32.042  1.00  0.00     0.010 C 
ENDBRANCH  11  16
ENDBRANCH   7  10
ENDBRANCH   5   6
ENDBRANCH   1   5
BRANCH   2  18
HETATM   18  C   UNL     1      -2.275   5.478 -32.911  1.00  0.00     0.080 A 
HETATM   19  C   UNL     1      -1.693   6.744 -32.566  1.00  0.00     0.104 A 
HETATM   20  N   UNL     1      -1.637   7.547 -33.645  1.00  0.00    -0.174 NA
HETATM   21  N   UNL     1      -2.161   6.829 -34.639  1.00  0.00    -0.288 N 
HETATM   22  H   UNL     1      -2.237   7.263 -35.554  1.00  0.00     0.188 HD
HETATM   23  C   UNL     1      -2.540   5.576 -34.267  1.00  0.00     0.128 A 
BRANCH  19  24
HETATM   24  C   UNL     1      -1.165   7.211 -31.280  1.00  0.00    -0.005 A 
HETATM   25  C   UNL     1      -1.910   8.058 -30.451  1.00  0.00     0.014 A 
HETATM   26  C   UNL     1      -1.408   8.471 -29.214  1.00  0.00     0.001 A 
HETATM   27  C   UNL     1      -0.154   8.036 -28.790  1.00  0.00     0.000 A 
HETATM   28  C   UNL     1       0.597   7.187 -29.601  1.00  0.00     0.001 A 
HETATM   29  C   UNL     1       0.093   6.774 -30.836  1.00  0.00     0.014 A 
ENDBRANCH  19  24
ENDBRANCH   2  18
TORSDOF 6
ENDMDL
MODEL 4
REMARK VINA RESULT:      -8.4      2.287      7.727
REMARK  6 active torsions:
REMARK  status: ('A' for Active; 'I' for Inactive)
REMARK    1  A    between atoms: C_2  and  C_3 
REMARK    2  A    between atoms: C_4  and  N_5 
REMARK       I    between atoms: N_5  and  C_6 
REMARK    3  A    between atoms: C_6  and  C_7 
REMARK    4  A    between atoms: C_7  and  N_8 
REMARK       I    between atoms: N_8  and  C_9 
REMARK    5  A    between atoms: C_9  and  C_10 
REMARK    6  A    between atoms: C_11  and  C_12 
ROOT
HETATM    1  N   UNL     1      -6.120   2.177 -31.641  1.00  0.00    -0.348 N 
HETATM    2  C   UNL     1      -6.740   0.953 -31.818  1.00  0.00     0.255 C 
HETATM    3  O   UNL     1      -6.660   0.062 -30.981  1.00  0.00    -0.268 OA
HETATM    4  H   UNL     1      -6.122   2.819 -32.421  1.00  0.00     0.163 HD
ENDROOT
BRANCH   1   5
HETATM    5  C   UNL     1      -5.033   2.295 -30.678  1.00  0.00     0.226 C 
BRANCH   5   6
HETATM    6  C   UNL     1      -3.697   2.848 -31.200  1.00  0.00     0.239 C 
HETATM    7  N   UNL     1      -3.613   4.228 -31.162  1.00  0.00    -0.325 N 
HETATM    8  H   UNL     1      -4.433   4.688 -30.791  1.00  0.00     0.169 HD
HETATM    9  O   UNL     1      -2.877   2.079 -31.698  1.00  0.00    -0.271 OA
BRANCH   7  10
HETATM   10  C   UNL     1      -2.526   5.047 -31.541  1.00  0.00     0.041 A 
HETATM   11  C   UNL     1      -2.625   5.834 -32.710  1.00  0.00    -0.032 A 
HETATM   12  C   UNL     1      -1.545   6.667 -33.072  1.00  0.00     0.009 A 
HETATM   13  C   UNL     1      -0.391   6.729 -32.294  1.00  0.00     0.001 A 
HETATM   14  C   UNL     1      -0.297   5.955 -31.146  1.00  0.00     0.002 A 
HETATM   15  C   UNL     1      -1.355   5.122 -30.774  1.00  0.00     0.030 A 
BRANCH  11  16
HETATM   16  C   UNL     1      -3.825   5.813 -33.632  1.00  0.00     0.036 C 
HETATM   17  C   UNL     1      -3.483   5.304 -35.025  1.00  0.00     0.010 C 
ENDBRANCH  11  16
ENDBRANCH   7  10
ENDBRANCH   5   6
ENDBRANCH   1   5
BRANCH   2  18
HETATM   18  C   UNL     1      -7.493   0.822 -33.051  1.00  0.00     0.080 A 
HETATM   19  C   UNL     1      -7.315  -0.116 -34.123  1.00  0.00     0.104 A 
HETATM   20  N   UNL     1      -8.169   0.148 -35.129  1.00  0.00    -0.174 NA
HETATM   21  N   UNL     1      -8.865   1.211 -34.722  1.00  0.00    -0.288 N 
HETATM   22  H   UNL     1      -9.561   1.597 -35.354  1.00  0.00     0.188 HD
HETATM   23  C   UNL     1      -8.521   1.646 -33.480  1.00  0.00     0.128 A 
BRANCH  19  24
HETATM   24  C   UNL     1      -6.402  -1.260 -34.222  1.00  0.00    -0.005 A 
HETATM   25  C   UNL     1      -5.065  -1.162 -33.819  1.00  0.00     0.014 A 
HETATM   26  C   UNL     1      -4.214  -2.268 -33.889  1.00  0.00     0.001 A 
HETATM   27  C   UNL     1      -4.693  -3.488 -34.360  1.00  0.00     0.000 A 
HETATM   28  C   UNL     1      -6.024  -3.603 -34.759  1.00  0.00     0.001 A 
HETATM   29  C   UNL     1      -6.873  -2.497 -34.687  1.00  0.00     0.014 A 
ENDBRANCH  19  24
ENDBRANCH   2  18
TORSDOF 6
ENDMDL
MODEL 5
REMARK VINA RESULT:      -8.3      3.008      8.437
REMARK  6 active torsions:
REMARK  status: ('A' for Active; 'I' for Inactive)
REMARK    1  A    between atoms: C_2  and  C_3 
REMARK    2  A    between atoms: C_4  and  N_5 
REMARK       I    between atoms: N_5  and  C_6 
REMARK    3  A    between atoms: C_6  and  C_7 
REMARK    4  A    between atoms: C_7  and  N_8 
REMARK       I    between atoms: N_8  and  C_9 
REMARK    5  A    between atoms: C_9  and  C_10 
REMARK    6  A    between atoms: C_11  and  C_12 
ROOT
HETATM    1  N   UNL     1      -3.489   2.960 -32.322  1.00  0.00    -0.348 N 
HETATM    2  C   UNL     1      -4.811   2.579 -32.466  1.00  0.00     0.255 C 
HETATM    3  O   UNL     1      -5.468   2.884 -33.453  1.00  0.00    -0.268 OA
HETATM    4  H   UNL     1      -3.044   2.783 -31.433  1.00  0.00     0.163 HD
ENDROOT
BRANCH   1   5
HETATM    5  C   UNL     1      -2.974   4.065 -33.120  1.00  0.00     0.226 C 
BRANCH   5   6
HETATM    6  C   UNL     1      -1.833   4.894 -32.507  1.00  0.00     0.239 C 
HETATM    7  N   UNL     1      -2.029   5.210 -31.175  1.00  0.00    -0.325 N 
HETATM    8  H   UNL     1      -2.885   4.848 -30.780  1.00  0.00     0.169 HD
HETATM    9  O   UNL     1      -0.925   5.301 -33.230  1.00  0.00    -0.271 OA
BRANCH   7  10
HETATM   10  C   UNL     1      -1.171   5.930 -30.314  1.00  0.00     0.041 A 
HETATM   11  C   UNL     1      -1.424   7.299 -30.070  1.00  0.00    -0.032 A 
HETATM   12  C   UNL     1      -0.578   8.009 -29.193  1.00  0.00     0.009 A 
HETATM   13  C   UNL     1       0.495   7.383 -28.562  1.00  0.00     0.001 A 
HETATM   14  C   UNL     1       0.741   6.038 -28.803  1.00  0.00     0.002 A 
HETATM   15  C   UNL     1      -0.085   5.320 -29.672  1.00  0.00     0.030 A 
BRANCH  11  16
HETATM   16  C   UNL     1      -2.546   8.072 -30.730  1.00  0.00     0.036 C 
HETATM   17  C   UNL     1      -2.372   9.578 -30.604  1.00  0.00     0.010 C 
ENDBRANCH  11  16
ENDBRANCH   7  10
ENDBRANCH   5   6
ENDBRANCH   1   5
BRANCH   2  18
HETATM   18  C   UNL     1      -5.340   1.784 -31.372  1.00  0.00     0.080 A 
HETATM   19  C   UNL     1      -5.827   0.434 -31.389  1.00  0.00     0.104 A 
HETATM   20  N   UNL     1      -6.309   0.091 -30.180  1.00  0.00    -0.174 NA
HETATM   21  N   UNL     1      -6.142   1.174 -29.420  1.00  0.00    -0.288 N 
HETATM   22  H   UNL     1      -6.467   1.137 -28.458  1.00  0.00     0.188 HD
HETATM   23  C   UNL     1      -5.547   2.210 -30.070  1.00  0.00     0.128 A 
BRANCH  19  24
HETATM   24  C   UNL     1      -5.826  -0.546 -32.480  1.00  0.00    -0.005 A 
HETATM   25  C   UNL     1      -6.953  -0.734 -33.290  1.00  0.00     0.014 A 
HETATM   26  C   UNL     1      -6.929  -1.649 -34.346  1.00  0.00     0.001 A 
HETATM   27  C   UNL     1      -5.775  -2.383 -34.608  1.00  0.00     0.000 A 
HETATM   28  C   UNL     1      -4.643  -2.202 -33.814  1.00  0.00     0.001 A 
HETATM   29  C   UNL     1      -4.668  -1.286 -32.760  1.00  0.00     0.014 A 
ENDBRANCH  19  24
ENDBRANCH   2  18
TORSDOF 6
ENDMDL
MODEL 6
REMARK VINA RESULT:      -8.0      2.137      3.466
REMARK  6 active torsions:
REMARK  status: ('A' for Active; 'I' for Inactive)
REMARK    1  A    between atoms: C_2  and  C_3 
REMARK    2  A    between atoms: C_4  and  N_5 
REMARK       I    between atoms: N_5  and  C_6 
REMARK    3  A    between atoms: C_6  and  C_7 
REMARK    4  A    between atoms: C_7  and  N_8 
REMARK       I    between atoms: N_8  and  C_9 
REMARK    5  A    between atoms: C_9  and  C_10 
REMARK    6  A    between atoms: C_11  and  C_12 
ROOT
HETATM    1  N   UNL     1      -3.616   1.800 -32.517  1.00  0.00    -0.348 N 
HETATM    2  C   UNL     1      -3.216   3.031 -32.029  1.00  0.00     0.255 C 
HETATM    3  O   UNL     1      -2.374   3.133 -31.144  1.00  0.00    -0.268 OA
HETATM    4  H   UNL     1      -4.399   1.782 -33.154  1.00  0.00     0.163 HD
ENDROOT
BRANCH   1   5
HETATM    5  C   UNL     1      -3.368   0.603 -31.724  1.00  0.00     0.226 C 
BRANCH   5   6
HETATM    6  C   UNL     1      -4.285  -0.604 -31.981  1.00  0.00     0.239 C 
HETATM    7  N   UNL     1      -4.179  -1.121 -33.260  1.00  0.00    -0.325 N 
HETATM    8  H   UNL     1      -3.511  -0.645 -33.850  1.00  0.00     0.169 HD
HETATM    9  O   UNL     1      -5.094  -0.944 -31.120  1.00  0.00    -0.271 OA
BRANCH   7  10
HETATM   10  C   UNL     1      -4.855  -2.233 -33.811  1.00  0.00     0.041 A 
HETATM   11  C   UNL     1      -6.194  -2.087 -34.240  1.00  0.00    -0.032 A 
HETATM   12  C   UNL     1      -6.857  -3.195 -34.809  1.00  0.00     0.009 A 
HETATM   13  C   UNL     1      -6.214  -4.421 -34.958  1.00  0.00     0.001 A 
HETATM   14  C   UNL     1      -4.899  -4.561 -34.536  1.00  0.00     0.002 A 
HETATM   15  C   UNL     1      -4.228  -3.476 -33.967  1.00  0.00     0.030 A 
BRANCH  11  16
HETATM   16  C   UNL     1      -6.983  -0.804 -34.093  1.00  0.00     0.036 C 
HETATM   17  C   UNL     1      -7.111  -0.043 -35.405  1.00  0.00     0.010 C 
ENDBRANCH  11  16
ENDBRANCH   7  10
ENDBRANCH   5   6
ENDBRANCH   1   5
BRANCH   2  18
HETATM   18  C   UNL     1      -3.855   4.174 -32.655  1.00  0.00     0.080 A 
HETATM   19  C   UNL     1      -5.254   4.476 -32.769  1.00  0.00     0.104 A 
HETATM   20  N   UNL     1      -5.438   5.593 -33.498  1.00  0.00    -0.174 NA
HETATM   21  N   UNL     1      -4.211   5.990 -33.838  1.00  0.00    -0.288 N 
HETATM   22  H   UNL     1      -4.121   6.818 -34.421  1.00  0.00     0.188 HD
HETATM   23  C   UNL     1      -3.223   5.195 -33.346  1.00  0.00     0.128 A 
BRANCH  19  24
HETATM   24  C   UNL     1      -6.411   3.778 -32.198  1.00  0.00    -0.005 A 
HETATM   25  C   UNL     1      -7.156   2.864 -32.954  1.00  0.00     0.014 A 
HETATM   26  C   UNL     1      -8.237   2.183 -32.389  1.00  0.00     0.001 A 
HETATM   27  C   UNL     1      -8.582   2.404 -31.057  1.00  0.00     0.000 A 
HETATM   28  C   UNL     1      -7.846   3.305 -30.290  1.00  0.00     0.001 A 
HETATM   29  C   UNL     1      -6.764   3.984 -30.856  1.00  0.00     0.014 A 
ENDBRANCH  19  24
ENDBRANCH   2  18
TORSDOF 6
ENDMDL
MODEL 7
REMARK VINA RESULT:      -7.8      2.805      8.500
REMARK  6 active torsions:
REMARK  status: ('A' for Active; 'I' for Inactive)
REMARK    1  A    between atoms: C_2  and  C_3 
REMARK    2  A    between atoms: C_4  and  N_5 
REMARK       I    between atoms: N_5  and  C_6 
REMARK    3  A    between atoms: C_6  and  C_7 
REMARK    4  A    between atoms: C_7  and  N_8 
REMARK       I    between atoms: N_8  and  C_9 
REMARK    5  A    between atoms: C_9  and  C_10 
REMARK    6  A    between atoms: C_11  and  C_12 
ROOT
HETATM    1  N   UNL     1      -4.542   3.392 -32.875  1.00  0.00    -0.348 N 
HETATM    2  C   UNL     1      -5.698   2.634 -32.898  1.00  0.00     0.255 C 
HETATM    3  O   UNL     1      -6.460   2.647 -33.857  1.00  0.00    -0.268 OA
HETATM    4  H   UNL     1      -4.025   3.430 -32.008  1.00  0.00     0.163 HD
ENDROOT
BRANCH   1   5
HETATM    5  C   UNL     1      -4.411   4.523 -33.784  1.00  0.00     0.226 C 
BRANCH   5   6
HETATM    6  C   UNL     1      -3.592   5.725 -33.286  1.00  0.00     0.239 C 
HETATM    7  N   UNL     1      -3.528   5.822 -31.907  1.00  0.00    -0.325 N 
HETATM    8  H   UNL     1      -4.016   5.089 -31.413  1.00  0.00     0.169 HD
HETATM    9  O   UNL     1      -3.166   6.545 -34.097  1.00  0.00    -0.271 OA
BRANCH   7  10
HETATM   10  C   UNL     1      -2.843   6.784 -31.131  1.00  0.00     0.041 A 
HETATM   11  C   UNL     1      -1.542   6.494 -30.659  1.00  0.00    -0.032 A 
HETATM   12  C   UNL     1      -0.854   7.467 -29.903  1.00  0.00     0.009 A 
HETATM   13  C   UNL     1      -1.431   8.702 -29.622  1.00  0.00     0.001 A 
HETATM   14  C   UNL     1      -2.708   8.984 -30.087  1.00  0.00     0.002 A 
HETATM   15  C   UNL     1      -3.407   8.032 -30.834  1.00  0.00     0.030 A 
BRANCH  11  16
HETATM   16  C   UNL     1      -0.845   5.171 -30.890  1.00  0.00     0.036 C 
HETATM   17  C   UNL     1       0.671   5.293 -30.840  1.00  0.00     0.010 C 
ENDBRANCH  11  16
ENDBRANCH   7  10
ENDBRANCH   5   6
ENDBRANCH   1   5
BRANCH   2  18
HETATM   18  C   UNL     1      -5.921   1.821 -31.715  1.00  0.00     0.080 A 
HETATM   19  C   UNL     1      -6.052   0.396 -31.611  1.00  0.00     0.104 A 
HETATM   20  N   UNL     1      -6.334   0.040 -30.344  1.00  0.00    -0.174 NA
HETATM   21  N   UNL     1      -6.384   1.186 -29.664  1.00  0.00    -0.288 N 
HETATM   22  H   UNL     1      -6.610   1.146 -28.675  1.00  0.00     0.188 HD
HETATM   23  C   UNL     1      -6.123   2.283 -30.426  1.00  0.00     0.128 A 
BRANCH  19  24
HETATM   24  C   UNL     1      -5.893  -0.636 -32.641  1.00  0.00    -0.005 A 
HETATM   25  C   UNL     1      -6.965  -1.024 -33.455  1.00  0.00     0.014 A 
HETATM   26  C   UNL     1      -6.792  -1.986 -34.454  1.00  0.00     0.001 A 
HETATM   27  C   UNL     1      -5.543  -2.568 -34.653  1.00  0.00     0.000 A 
HETATM   28  C   UNL     1      -4.465  -2.187 -33.856  1.00  0.00     0.001 A 
HETATM   29  C   UNL     1      -4.638  -1.224 -32.859  1.00  0.00     0.014 A 
ENDBRANCH  19  24
ENDBRANCH   2  18
TORSDOF 6
ENDMDL
MODEL 8
REMARK VINA RESULT:      -7.7      2.734      8.130
REMARK  6 active torsions:
REMARK  status: ('A' for Active; 'I' for Inactive)
REMARK    1  A    between atoms: C_2  and  C_3 
REMARK    2  A    between atoms: C_4  and  N_5 
REMARK       I    between atoms: N_5  and  C_6 
REMARK    3  A    between atoms: C_6  and  C_7 
REMARK    4  A    between atoms: C_7  and  N_8 
REMARK       I    between atoms: N_8  and  C_9 
REMARK    5  A    between atoms: C_9  and  C_10 
REMARK    6  A    between atoms: C_11  and  C_12 
ROOT
HETATM    1  N   UNL     1      -5.339   2.508 -32.505  1.00  0.00    -0.348 N 
HETATM    2  C   UNL     1      -5.816   1.590 -31.587  1.00  0.00     0.255 C 
HETATM    3  O   UNL     1      -5.148   1.230 -30.626  1.00  0.00    -0.268 OA
HETATM    4  H   UNL     1      -5.888   2.667 -33.337  1.00  0.00     0.163 HD
ENDROOT
BRANCH   1   5
HETATM    5  C   UNL     1      -3.904   2.749 -32.593  1.00  0.00     0.226 C 
BRANCH   5   6
HETATM    6  C   UNL     1      -3.349   3.940 -31.794  1.00  0.00     0.239 C 
HETATM    7  N   UNL     1      -1.993   4.147 -31.975  1.00  0.00    -0.325 N 
HETATM    8  H   UNL     1      -1.551   3.499 -32.611  1.00  0.00     0.169 HD
HETATM    9  O   UNL     1      -4.079   4.530 -31.000  1.00  0.00    -0.271 OA
BRANCH   7  10
HETATM   10  C   UNL     1      -1.182   5.160 -31.415  1.00  0.00     0.041 A 
HETATM   11  C   UNL     1      -1.111   6.421 -32.050  1.00  0.00    -0.032 A 
HETATM   12  C   UNL     1      -0.318   7.435 -31.474  1.00  0.00     0.009 A 
HETATM   13  C   UNL     1       0.387   7.216 -30.293  1.00  0.00     0.001 A 
HETATM   14  C   UNL     1       0.315   5.977 -29.672  1.00  0.00     0.002 A 
HETATM   15  C   UNL     1      -0.462   4.959 -30.229  1.00  0.00     0.030 A 
BRANCH  11  16
HETATM   16  C   UNL     1      -1.818   6.743 -33.348  1.00  0.00     0.036 C 
HETATM   17  C   UNL     1      -1.245   5.978 -34.532  1.00  0.00     0.010 C 
ENDBRANCH  11  16
ENDBRANCH   7  10
ENDBRANCH   5   6
ENDBRANCH   1   5
BRANCH   2  18
HETATM   18  C   UNL     1      -7.162   1.111 -31.846  1.00  0.00     0.080 A 
HETATM   19  C   UNL     1      -7.587   0.010 -32.663  1.00  0.00     0.104 A 
HETATM   20  N   UNL     1      -8.930  -0.054 -32.708  1.00  0.00    -0.174 NA
HETATM   21  N   UNL     1      -9.351   0.963 -31.954  1.00  0.00    -0.288 N 
HETATM   22  H   UNL     1     -10.352   1.114 -31.871  1.00  0.00     0.188 HD
HETATM   23  C   UNL     1      -8.340   1.682 -31.395  1.00  0.00     0.128 A 
BRANCH  19  24
HETATM   24  C   UNL     1      -6.784  -0.994 -33.371  1.00  0.00    -0.005 A 
HETATM   25  C   UNL     1      -5.387  -1.001 -33.285  1.00  0.00     0.014 A 
HETATM   26  C   UNL     1      -4.636  -1.981 -33.939  1.00  0.00     0.001 A 
HETATM   27  C   UNL     1      -5.276  -2.970 -34.682  1.00  0.00     0.000 A 
HETATM   28  C   UNL     1      -6.667  -2.981 -34.771  1.00  0.00     0.001 A 
HETATM   29  C   UNL     1      -7.416  -2.001 -34.116  1.00  0.00     0.014 A 
ENDBRANCH  19  24
ENDBRANCH   2  18
TORSDOF 6
ENDMDL
MODEL 9
REMARK VINA RESULT:      -7.7      3.318      5.238
REMARK  6 active torsions:
REMARK  status: ('A' for Active; 'I' for Inactive)
REMARK    1  A    between atoms: C_2  and  C_3 
REMARK    2  A    between atoms: C_4  and  N_5 
REMARK       I    between atoms: N_5  and  C_6 
REMARK    3  A    between atoms: C_6  and  C_7 
REMARK    4  A    between atoms: C_7  and  N_8 
REMARK       I    between atoms: N_8  and  C_9 
REMARK    5  A    between atoms: C_9  and  C_10 
REMARK    6  A    between atoms: C_11  and  C_12 
ROOT
HETATM    1  N   UNL     1      -4.018   3.710 -32.122  1.00  0.00    -0.348 N 
HETATM    2  C   UNL     1      -2.708   4.150 -32.070  1.00  0.00     0.255 C 
HETATM    3  O   UNL     1      -1.888   3.653 -31.307  1.00  0.00    -0.268 OA
HETATM    4  H   UNL     1      -4.669   4.243 -32.680  1.00  0.00     0.163 HD
ENDROOT
BRANCH   1   5
HETATM    5  C   UNL     1      -4.560   2.949 -31.004  1.00  0.00     0.226 C 
BRANCH   5   6
HETATM    6  C   UNL     1      -5.899   2.229 -31.236  1.00  0.00     0.239 C 
HETATM    7  N   UNL     1      -6.565   2.647 -32.374  1.00  0.00    -0.325 N 
HETATM    8  H   UNL     1      -6.083   3.358 -32.905  1.00  0.00     0.169 HD
HETATM    9  O   UNL     1      -6.325   1.454 -30.382  1.00  0.00    -0.271 OA
BRANCH   7  10
HETATM   10  C   UNL     1      -7.796   2.177 -32.887  1.00  0.00     0.041 A 
HETATM   11  C   UNL     1      -7.793   1.181 -33.889  1.00  0.00    -0.032 A 
HETATM   12  C   UNL     1      -9.024   0.699 -34.382  1.00  0.00     0.009 A 
HETATM   13  C   UNL     1     -10.235   1.185 -33.894  1.00  0.00     0.001 A 
HETATM   14  C   UNL     1     -10.234   2.163 -32.910  1.00  0.00     0.002 A 
HETATM   15  C   UNL     1      -9.025   2.654 -32.412  1.00  0.00     0.030 A 
BRANCH  11  16
HETATM   16  C   UNL     1      -6.530   0.613 -34.500  1.00  0.00     0.036 C 
HETATM   17  C   UNL     1      -6.658  -0.864 -34.841  1.00  0.00     0.010 C 
ENDBRANCH  11  16
ENDBRANCH   7  10
ENDBRANCH   5   6
ENDBRANCH   1   5
BRANCH   2  18
HETATM   18  C   UNL     1      -2.387   5.224 -32.993  1.00  0.00     0.080 A 
HETATM   19  C   UNL     1      -1.773   6.493 -32.724  1.00  0.00     0.104 A 
HETATM   20  N   UNL     1      -1.726   7.241 -33.842  1.00  0.00    -0.174 NA
HETATM   21  N   UNL     1      -2.286   6.487 -34.788  1.00  0.00    -0.288 N 
HETATM   22  H   UNL     1      -2.375   6.878 -35.721  1.00  0.00     0.188 HD
HETATM   23  C   UNL     1      -2.681   5.262 -34.346  1.00  0.00     0.128 A 
BRANCH  19  24
HETATM   24  C   UNL     1      -1.206   7.011 -31.474  1.00  0.00    -0.005 A 
HETATM   25  C   UNL     1      -1.936   7.872 -30.645  1.00  0.00     0.014 A 
HETATM   26  C   UNL     1      -1.397   8.334 -29.442  1.00  0.00     0.001 A 
HETATM   27  C   UNL     1      -0.121   7.935 -29.051  1.00  0.00     0.000 A 
HETATM   28  C   UNL     1       0.616   7.073 -29.862  1.00  0.00     0.001 A 
HETATM   29  C   UNL     1       0.074   6.611 -31.064  1.00  0.00     0.014 A 
ENDBRANCH  19  24
ENDBRANCH   2  18
TORSDOF 6
ENDMDL
MODEL 10
REMARK VINA RESULT:      -7.7      3.375      8.887
REMARK  6 active torsions:
REMARK  status: ('A' for Active; 'I' for Inactive)
REMARK    1  A    between atoms: C_2  and  C_3 
REMARK    2  A    between atoms: C_4  and  N_5 
REMARK       I    between atoms: N_5  and  C_6 
REMARK    3  A    between atoms: C_6  and  C_7 
REMARK    4  A    between atoms: C_7  and  N_8 
REMARK       I    between atoms: N_8  and  C_9 
REMARK    5  A    between atoms: C_9  and  C_10 
REMARK    6  A    between atoms: C_11  and  C_12 
ROOT
HETATM    1  N   UNL     1      -3.341   3.057 -32.198  1.00  0.00    -0.348 N 
HETATM    2  C   UNL     1      -4.212   2.230 -31.512  1.00  0.00     0.255 C 
HETATM    3  O   UNL     1      -5.150   2.676 -30.862  1.00  0.00    -0.268 OA
HETATM    4  H   UNL     1      -2.521   2.635 -32.609  1.00  0.00     0.163 HD
ENDROOT
BRANCH   1   5
HETATM    5  C   UNL     1      -3.260   4.466 -31.837  1.00  0.00     0.226 C 
BRANCH   5   6
HETATM    6  C   UNL     1      -1.930   4.956 -31.240  1.00  0.00     0.239 C 
HETATM    7  N   UNL     1      -2.083   5.907 -30.247  1.00  0.00    -0.325 N 
HETATM    8  H   UNL     1      -3.042   6.146 -30.040  1.00  0.00     0.169 HD
HETATM    9  O   UNL     1      -0.869   4.578 -31.734  1.00  0.00    -0.271 OA
BRANCH   7  10
HETATM   10  C   UNL     1      -1.076   6.540 -29.483  1.00  0.00     0.041 A 
HETATM   11  C   UNL     1      -1.124   7.940 -29.298  1.00  0.00    -0.032 A 
HETATM   12  C   UNL     1      -0.130   8.564 -28.516  1.00  0.00     0.009 A 
HETATM   13  C   UNL     1       0.890   7.824 -27.922  1.00  0.00     0.001 A 
HETATM   14  C   UNL     1       0.934   6.449 -28.105  1.00  0.00     0.002 A 
HETATM   15  C   UNL     1      -0.040   5.814 -28.880  1.00  0.00     0.030 A 
BRANCH  11  16
HETATM   16  C   UNL     1      -2.175   8.830 -29.926  1.00  0.00     0.036 C 
HETATM   17  C   UNL     1      -3.247   9.257 -28.934  1.00  0.00     0.010 C 
ENDBRANCH  11  16
ENDBRANCH   7  10
ENDBRANCH   5   6
ENDBRANCH   1   5
BRANCH   2  18
HETATM   18  C   UNL     1      -3.935   0.811 -31.638  1.00  0.00     0.080 A 
HETATM   19  C   UNL     1      -4.746  -0.219 -32.221  1.00  0.00     0.104 A 
HETATM   20  N   UNL     1      -4.165  -1.423 -32.064  1.00  0.00    -0.174 NA
HETATM   21  N   UNL     1      -3.031  -1.178 -31.407  1.00  0.00    -0.288 N 
HETATM   22  H   UNL     1      -2.440  -1.967 -31.161  1.00  0.00     0.188 HD
HETATM   23  C   UNL     1      -2.828   0.141 -31.144  1.00  0.00     0.128 A 
BRANCH  19  24
HETATM   24  C   UNL     1      -6.020  -0.112 -32.940  1.00  0.00    -0.005 A 
HETATM   25  C   UNL     1      -7.224   0.109 -32.261  1.00  0.00     0.014 A 
HETATM   26  C   UNL     1      -8.427   0.240 -32.961  1.00  0.00     0.001 A 
HETATM   27  C   UNL     1      -8.437   0.158 -34.351  1.00  0.00     0.000 A 
HETATM   28  C   UNL     1      -7.245  -0.054 -35.042  1.00  0.00     0.001 A 
HETATM   29  C   UNL     1      -6.044  -0.184 -34.341  1.00  0.00     0.014 A 
ENDBRANCH  19  24
ENDBRANCH   2  18
TORSDOF 6
ENDMDL
