MODEL 1
REMARK VINA RESULT:     -10.5      0.000      0.000
REMARK  8 active torsions:
REMARK  status: ('A' for Active; 'I' for Inactive)
REMARK    1  A    between atoms: C_4  and  C_5 
REMARK    2  A    between atoms: C_7  and  C_8 
REMARK    3  A    between atoms: C_9  and  C_10 
REMARK       I    between atoms: C_10  and  N_11 
REMARK    4  A    between atoms: N_11  and  C_12 
REMARK    5  A    between atoms: C_12  and  N_13 
REMARK    6  A    between atoms: N_13  and  C_14 
REMARK    7  A    between atoms: C_17  and  N_18 
REMARK       I    between atoms: N_21  and  C_22 
REMARK    8  A    between atoms: C_22  and  C_23 
ROOT
HETATM    1  N   UNL     1     -11.140   3.390 -31.723  1.00  0.00    -0.333 N 
HETATM    2  H   UNL     1     -11.385   3.271 -30.746  1.00  0.00     0.168 HD
ENDROOT
BRANCH   1   3
HETATM    3  C   UNL     1     -12.214   3.603 -32.553  1.00  0.00     0.179 C 
HETATM    4  S   UNL     1     -12.861   5.084 -32.993  1.00  0.00    -0.040 SA
BRANCH   3   5
HETATM    5  N   UNL     1     -12.891   2.466 -32.967  1.00  0.00    -0.300 N 
HETATM    6  C   UNL     1     -12.523   1.210 -33.418  1.00  0.00     0.247 C 
HETATM    7  O   UNL     1     -13.335   0.288 -33.414  1.00  0.00    -0.268 OA
HETATM    8  H   UNL     1     -13.898   2.564 -32.921  1.00  0.00     0.171 HD
BRANCH   6   9
HETATM    9  C   UNL     1     -11.162   1.054 -33.976  1.00  0.00     0.077 C 
HETATM   10  C   UNL     1     -10.228   0.383 -33.286  1.00  0.00     0.042 C 
BRANCH  10  11
HETATM   11  C   UNL     1      -8.945   0.167 -33.857  1.00  0.00     0.076 A 
HETATM   12  O   UNL     1      -8.253  -1.016 -33.744  1.00  0.00    -0.310 OA
HETATM   13  C   UNL     1      -7.058  -0.900 -34.391  1.00  0.00     0.086 A 
HETATM   14  C   UNL     1      -6.954   0.366 -34.922  1.00  0.00     0.041 A 
HETATM   15  C   UNL     1      -8.159   1.039 -34.596  1.00  0.00     0.040 A 
BRANCH  13  16
HETATM   16  C   UNL     1      -6.202  -2.083 -34.375  1.00  0.00    -0.002 A 
HETATM   17  C   UNL     1      -6.685  -3.322 -34.823  1.00  0.00     0.014 A 
HETATM   18  C   UNL     1      -5.875  -4.462 -34.790  1.00  0.00     0.001 A 
HETATM   19  C   UNL     1      -4.572  -4.380 -34.303  1.00  0.00     0.000 A 
HETATM   20  C   UNL     1      -4.077  -3.159 -33.855  1.00  0.00     0.001 A 
HETATM   21  C   UNL     1      -4.884  -2.019 -33.897  1.00  0.00     0.014 A 
ENDBRANCH  13  16
ENDBRANCH  10  11
ENDBRANCH   6   9
ENDBRANCH   3   5
ENDBRANCH   1   3
BRANCH   1  22
HETATM   22  C   UNL     1      -9.774   3.625 -31.983  1.00  0.00     0.034 A 
HETATM   23  C   UNL     1      -8.825   3.005 -31.168  1.00  0.00     0.031 A 
HETATM   24  C   UNL     1      -7.455   3.182 -31.409  1.00  0.00     0.026 A 
HETATM   25  C   UNL     1      -7.002   3.942 -32.493  1.00  0.00     0.010 A 
HETATM   26  C   UNL     1      -7.970   4.522 -33.325  1.00  0.00     0.026 A 
HETATM   27  C   UNL     1      -9.339   4.373 -33.074  1.00  0.00     0.031 A 
BRANCH  25  28
HETATM   28  N   UNL     1      -5.650   4.157 -32.788  1.00  0.00    -0.280 NA
HETATM   29  C   UNL     1      -4.834   4.462 -31.591  1.00  0.00     0.115 C 
HETATM   30  C   UNL     1      -3.334   4.360 -31.926  1.00  0.00     0.141 C 
HETATM   31  N   UNL     1      -2.961   5.146 -33.115  1.00  0.00    -0.344 N 
HETATM   32  C   UNL     1      -1.632   5.502 -33.388  1.00  0.00     0.277 C 
HETATM   33  C   UNL     1      -3.831   4.914 -34.277  1.00  0.00     0.141 C 
HETATM   34  O   UNL     1      -1.228   5.561 -34.552  1.00  0.00    -0.265 OA
HETATM   35  C   UNL     1      -5.325   5.036 -33.929  1.00  0.00     0.115 C 
BRANCH  32  36
HETATM   36  C   UNL     1      -0.745   5.821 -32.280  1.00  0.00     0.142 A 
HETATM   37  O   UNL     1       0.013   4.848 -31.682  1.00  0.00    -0.317 OA
HETATM   38  C   UNL     1       0.679   5.430 -30.651  1.00  0.00     0.143 A 
HETATM   39  C   UNL     1       0.353   6.761 -30.555  1.00  0.00     0.027 A 
HETATM   40  C   UNL     1      -0.576   7.011 -31.592  1.00  0.00     0.045 A 
ENDBRANCH  32  36
ENDBRANCH  25  28
ENDBRANCH   1  22
TORSDOF 8
ENDMDL
MODEL 2
REMARK VINA RESULT:     -10.3      1.189      1.727
REMARK  8 active torsions:
REMARK  status: ('A' for Active; 'I' for Inactive)
REMARK    1  A    between atoms: C_4  and  C_5 
REMARK    2  A    between atoms: C_7  and  C_8 
REMARK    3  A    between atoms: C_9  and  C_10 
REMARK       I    between atoms: C_10  and  N_11 
REMARK    4  A    between atoms: N_11  and  C_12 
REMARK    5  A    between atoms: C_12  and  N_13 
REMARK    6  A    between atoms: N_13  and  C_14 
REMARK    7  A    between atoms: C_17  and  N_18 
REMARK       I    between atoms: N_21  and  C_22 
REMARK    8  A    between atoms: C_22  and  C_23 
ROOT
HETATM    1  N   UNL     1     -11.322   3.335 -31.812  1.00  0.00    -0.333 N 
HETATM    2  H   UNL     1     -11.590   3.362 -30.835  1.00  0.00     0.168 HD
ENDROOT
BRANCH   1   3
HETATM    3  C   UNL     1     -12.378   3.380 -32.690  1.00  0.00     0.179 C 
HETATM    4  S   UNL     1     -13.191   4.749 -33.209  1.00  0.00    -0.040 SA
BRANCH   3   5
HETATM    5  N   UNL     1     -12.885   2.151 -33.086  1.00  0.00    -0.300 N 
HETATM    6  C   UNL     1     -12.340   0.933 -33.452  1.00  0.00     0.247 C 
HETATM    7  O   UNL     1     -13.033  -0.082 -33.450  1.00  0.00    -0.268 OA
HETATM    8  H   UNL     1     -13.897   2.126 -33.104  1.00  0.00     0.171 HD
BRANCH   6   9
HETATM    9  C   UNL     1     -10.936   0.923 -33.921  1.00  0.00     0.077 C 
HETATM   10  C   UNL     1      -9.989   0.320 -33.187  1.00  0.00     0.042 C 
BRANCH  10  11
HETATM   11  C   UNL     1      -8.657   0.244 -33.676  1.00  0.00     0.076 A 
HETATM   12  O   UNL     1      -7.566   0.006 -32.872  1.00  0.00    -0.310 OA
HETATM   13  C   UNL     1      -6.438   0.002 -33.637  1.00  0.00     0.086 A 
HETATM   14  C   UNL     1      -6.781   0.251 -34.948  1.00  0.00     0.041 A 
HETATM   15  C   UNL     1      -8.192   0.390 -34.974  1.00  0.00     0.040 A 
BRANCH  13  16
HETATM   16  C   UNL     1      -5.185  -0.251 -32.932  1.00  0.00    -0.002 A 
HETATM   17  C   UNL     1      -4.561   0.765 -32.193  1.00  0.00     0.014 A 
HETATM   18  C   UNL     1      -3.349   0.532 -31.533  1.00  0.00     0.001 A 
HETATM   19  C   UNL     1      -2.742  -0.719 -31.608  1.00  0.00     0.000 A 
HETATM   20  C   UNL     1      -3.347  -1.739 -32.337  1.00  0.00     0.001 A 
HETATM   21  C   UNL     1      -4.562  -1.508 -32.988  1.00  0.00     0.014 A 
ENDBRANCH  13  16
ENDBRANCH  10  11
ENDBRANCH   6   9
ENDBRANCH   3   5
ENDBRANCH   1   3
BRANCH   1  22
HETATM   22  C   UNL     1      -9.957   3.572 -32.075  1.00  0.00     0.034 A 
HETATM   23  C   UNL     1      -9.014   3.138 -31.140  1.00  0.00     0.031 A 
HETATM   24  C   UNL     1      -7.643   3.322 -31.374  1.00  0.00     0.026 A 
HETATM   25  C   UNL     1      -7.182   3.900 -32.561  1.00  0.00     0.010 A 
HETATM   26  C   UNL     1      -8.141   4.291 -33.506  1.00  0.00     0.026 A 
HETATM   27  C   UNL     1      -9.512   4.137 -33.267  1.00  0.00     0.031 A 
BRANCH  25  28
HETATM   28  N   UNL     1      -5.829   4.112 -32.855  1.00  0.00    -0.280 NA
HETATM   29  C   UNL     1      -5.019   4.448 -31.661  1.00  0.00     0.115 C 
HETATM   30  C   UNL     1      -3.518   4.342 -31.987  1.00  0.00     0.141 C 
HETATM   31  N   UNL     1      -3.141   5.099 -33.193  1.00  0.00    -0.344 N 
HETATM   32  C   UNL     1      -1.811   5.451 -33.469  1.00  0.00     0.277 C 
HETATM   33  C   UNL     1      -4.004   4.835 -34.353  1.00  0.00     0.141 C 
HETATM   34  O   UNL     1      -1.402   5.482 -34.631  1.00  0.00    -0.265 OA
HETATM   35  C   UNL     1      -5.501   4.962 -34.016  1.00  0.00     0.115 C 
BRANCH  32  36
HETATM   36  C   UNL     1      -0.931   5.801 -32.365  1.00  0.00     0.142 A 
HETATM   37  O   UNL     1      -0.174   4.844 -31.738  1.00  0.00    -0.317 OA
HETATM   38  C   UNL     1       0.485   5.454 -30.719  1.00  0.00     0.143 A 
HETATM   39  C   UNL     1       0.157   6.786 -30.659  1.00  0.00     0.027 A 
HETATM   40  C   UNL     1      -0.767   7.008 -31.706  1.00  0.00     0.045 A 
ENDBRANCH  32  36
ENDBRANCH  25  28
ENDBRANCH   1  22
TORSDOF 8
ENDMDL
MODEL 3
REMARK VINA RESULT:     -10.2      1.733      2.368
REMARK  8 active torsions:
REMARK  status: ('A' for Active; 'I' for Inactive)
REMARK    1  A    between atoms: C_4  and  C_5 
REMARK    2  A    between atoms: C_7  and  C_8 
REMARK    3  A    between atoms: C_9  and  C_10 
REMARK       I    between atoms: C_10  and  N_11 
REMARK    4  A    between atoms: N_11  and  C_12 
REMARK    5  A    between atoms: C_12  and  N_13 
REMARK    6  A    between atoms: N_13  and  C_14 
REMARK    7  A    between atoms: C_17  and  N_18 
REMARK       I    between atoms: N_21  and  C_22 
REMARK    8  A    between atoms: C_22  and  C_23 
ROOT
HETATM    1  N   UNL     1     -12.865   4.514 -32.175  1.00  0.00    -0.333 N 
HETATM    2  H   UNL     1     -13.320   5.404 -32.006  1.00  0.00     0.168 HD
ENDROOT
BRANCH   1   3
HETATM    3  C   UNL     1     -13.658   3.585 -32.805  1.00  0.00     0.179 C 
HETATM    4  S   UNL     1     -14.809   2.601 -32.090  1.00  0.00    -0.040 SA
BRANCH   3   5
HETATM    5  N   UNL     1     -13.383   3.370 -34.147  1.00  0.00    -0.300 N 
HETATM    6  C   UNL     1     -12.728   2.391 -34.874  1.00  0.00     0.247 C 
HETATM    7  O   UNL     1     -12.909   2.293 -36.086  1.00  0.00    -0.268 OA
HETATM    8  H   UNL     1     -13.758   4.093 -34.750  1.00  0.00     0.171 HD
BRANCH   6   9
HETATM    9  C   UNL     1     -11.751   1.543 -34.156  1.00  0.00     0.077 C 
HETATM   10  C   UNL     1     -10.441   1.658 -34.421  1.00  0.00     0.042 C 
BRANCH  10  11
HETATM   11  C   UNL     1      -9.500   0.899 -33.676  1.00  0.00     0.076 A 
HETATM   12  O   UNL     1      -8.497   0.154 -34.254  1.00  0.00    -0.310 OA
HETATM   13  C   UNL     1      -7.772  -0.459 -33.275  1.00  0.00     0.086 A 
HETATM   14  C   UNL     1      -8.304  -0.130 -32.048  1.00  0.00     0.041 A 
HETATM   15  C   UNL     1      -9.391   0.744 -32.302  1.00  0.00     0.040 A 
BRANCH  13  16
HETATM   16  C   UNL     1      -6.655  -1.284 -33.725  1.00  0.00    -0.002 A 
HETATM   17  C   UNL     1      -6.875  -2.409 -34.534  1.00  0.00     0.014 A 
HETATM   18  C   UNL     1      -5.809  -3.214 -34.950  1.00  0.00     0.001 A 
HETATM   19  C   UNL     1      -4.508  -2.907 -34.557  1.00  0.00     0.000 A 
HETATM   20  C   UNL     1      -4.271  -1.795 -33.755  1.00  0.00     0.001 A 
HETATM   21  C   UNL     1      -5.336  -0.987 -33.348  1.00  0.00     0.014 A 
ENDBRANCH  13  16
ENDBRANCH  10  11
ENDBRANCH   6   9
ENDBRANCH   3   5
ENDBRANCH   1   3
BRANCH   1  22
HETATM   22  C   UNL     1     -11.462   4.511 -32.030  1.00  0.00     0.034 A 
HETATM   23  C   UNL     1     -10.915   3.940 -30.879  1.00  0.00     0.031 A 
HETATM   24  C   UNL     1      -9.524   3.883 -30.705  1.00  0.00     0.026 A 
HETATM   25  C   UNL     1      -8.651   4.350 -31.693  1.00  0.00     0.010 A 
HETATM   26  C   UNL     1      -9.219   4.882 -32.859  1.00  0.00     0.026 A 
HETATM   27  C   UNL     1     -10.605   4.969 -33.027  1.00  0.00     0.031 A 
BRANCH  25  28
HETATM   28  N   UNL     1      -7.255   4.323 -31.581  1.00  0.00    -0.280 NA
HETATM   29  C   UNL     1      -6.577   5.256 -32.510  1.00  0.00     0.115 C 
HETATM   30  C   UNL     1      -5.098   5.421 -32.116  1.00  0.00     0.141 C 
HETATM   31  N   UNL     1      -4.402   4.133 -31.957  1.00  0.00    -0.344 N 
HETATM   32  C   UNL     1      -3.003   4.033 -31.969  1.00  0.00     0.277 C 
HETATM   33  C   UNL     1      -5.122   3.171 -31.109  1.00  0.00     0.141 C 
HETATM   34  O   UNL     1      -2.430   3.204 -31.258  1.00  0.00    -0.265 OA
HETATM   35  C   UNL     1      -6.594   3.004 -31.526  1.00  0.00     0.115 C 
BRANCH  32  36
HETATM   36  C   UNL     1      -2.241   4.905 -32.848  1.00  0.00     0.142 A 
HETATM   37  O   UNL     1      -1.738   6.098 -32.395  1.00  0.00    -0.317 OA
HETATM   38  C   UNL     1      -1.140   6.712 -33.448  1.00  0.00     0.143 A 
HETATM   39  C   UNL     1      -1.260   5.950 -34.585  1.00  0.00     0.027 A 
HETATM   40  C   UNL     1      -1.984   4.795 -34.205  1.00  0.00     0.045 A 
ENDBRANCH  32  36
ENDBRANCH  25  28
ENDBRANCH   1  22
TORSDOF 8
ENDMDL
MODEL 4
REMARK VINA RESULT:      -9.6      5.063      7.883
REMARK  8 active torsions:
REMARK  status: ('A' for Active; 'I' for Inactive)
REMARK    1  A    between atoms: C_4  and  C_5 
REMARK    2  A    between atoms: C_7  and  C_8 
REMARK    3  A    between atoms: C_9  and  C_10 
REMARK       I    between atoms: C_10  and  N_11 
REMARK    4  A    between atoms: N_11  and  C_12 
REMARK    5  A    between atoms: C_12  and  N_13 
REMARK    6  A    between atoms: N_13  and  C_14 
REMARK    7  A    between atoms: C_17  and  N_18 
REMARK       I    between atoms: N_21  and  C_22 
REMARK    8  A    between atoms: C_22  and  C_23 
ROOT
HETATM    1  N   UNL     1      -1.653   4.826 -31.894  1.00  0.00    -0.333 N 
HETATM    2  H   UNL     1      -1.182   3.941 -32.042  1.00  0.00     0.168 HD
ENDROOT
BRANCH   1   3
HETATM    3  C   UNL     1      -2.908   4.898 -32.449  1.00  0.00     0.179 C 
HETATM    4  S   UNL     1      -3.280   5.269 -34.039  1.00  0.00    -0.040 SA
BRANCH   3   5
HETATM    5  N   UNL     1      -3.967   4.761 -31.564  1.00  0.00    -0.300 N 
HETATM    6  C   UNL     1      -4.839   3.742 -31.221  1.00  0.00     0.247 C 
HETATM    7  O   UNL     1      -5.481   3.801 -30.175  1.00  0.00    -0.268 OA
HETATM    8  H   UNL     1      -4.146   5.600 -31.026  1.00  0.00     0.171 HD
BRANCH   6   9
HETATM    9  C   UNL     1      -5.026   2.644 -32.195  1.00  0.00     0.077 C 
HETATM   10  C   UNL     1      -6.253   2.151 -32.421  1.00  0.00     0.042 C 
BRANCH  10  11
HETATM   11  C   UNL     1      -6.442   1.150 -33.412  1.00  0.00     0.076 A 
HETATM   12  O   UNL     1      -5.970  -0.137 -33.291  1.00  0.00    -0.310 OA
HETATM   13  C   UNL     1      -6.306  -0.844 -34.407  1.00  0.00     0.086 A 
HETATM   14  C   UNL     1      -6.991  -0.021 -35.273  1.00  0.00     0.041 A 
HETATM   15  C   UNL     1      -7.090   1.241 -34.635  1.00  0.00     0.040 A 
BRANCH  13  16
HETATM   16  C   UNL     1      -5.886  -2.242 -34.432  1.00  0.00    -0.002 A 
HETATM   17  C   UNL     1      -4.583  -2.605 -34.057  1.00  0.00     0.014 A 
HETATM   18  C   UNL     1      -4.170  -3.941 -34.099  1.00  0.00     0.001 A 
HETATM   19  C   UNL     1      -5.053  -4.932 -34.522  1.00  0.00     0.000 A 
HETATM   20  C   UNL     1      -6.349  -4.590 -34.897  1.00  0.00     0.001 A 
HETATM   21  C   UNL     1      -6.763  -3.257 -34.846  1.00  0.00     0.014 A 
ENDBRANCH  13  16
ENDBRANCH  10  11
ENDBRANCH   6   9
ENDBRANCH   3   5
ENDBRANCH   1   3
BRANCH   1  22
HETATM   22  C   UNL     1      -1.084   5.661 -30.910  1.00  0.00     0.034 A 
HETATM   23  C   UNL     1      -1.599   6.949 -30.754  1.00  0.00     0.031 A 
HETATM   24  C   UNL     1      -1.088   7.805 -29.766  1.00  0.00     0.026 A 
HETATM   25  C   UNL     1      -0.087   7.379 -28.886  1.00  0.00     0.010 A 
HETATM   26  C   UNL     1       0.387   6.067 -29.031  1.00  0.00     0.026 A 
HETATM   27  C   UNL     1      -0.098   5.218 -30.033  1.00  0.00     0.031 A 
BRANCH  25  28
HETATM   28  N   UNL     1       0.465   8.182 -27.880  1.00  0.00    -0.280 NA
HETATM   29  C   UNL     1       1.436   7.461 -27.026  1.00  0.00     0.115 C 
HETATM   30  C   UNL     1       2.241   8.458 -26.172  1.00  0.00     0.141 C 
HETATM   31  N   UNL     1       1.381   9.397 -25.431  1.00  0.00    -0.344 N 
HETATM   32  C   UNL     1       1.851  10.131 -24.331  1.00  0.00     0.277 C 
HETATM   33  C   UNL     1       0.354  10.043 -26.261  1.00  0.00     0.141 C 
HETATM   34  O   UNL     1       1.441  11.276 -24.124  1.00  0.00    -0.265 OA
HETATM   35  C   UNL     1      -0.452   9.032 -27.095  1.00  0.00     0.115 C 
BRANCH  32  36
HETATM   36  C   UNL     1       2.809   9.513 -23.428  1.00  0.00     0.142 A 
HETATM   37  O   UNL     1       4.149   9.512 -23.716  1.00  0.00    -0.317 OA
HETATM   38  C   UNL     1       4.774   8.813 -22.734  1.00  0.00     0.143 A 
HETATM   39  C   UNL     1       3.863   8.342 -21.821  1.00  0.00     0.027 A 
HETATM   40  C   UNL     1       2.596   8.777 -22.275  1.00  0.00     0.045 A 
ENDBRANCH  32  36
ENDBRANCH  25  28
ENDBRANCH   1  22
TORSDOF 8
ENDMDL
MODEL 5
REMARK VINA RESULT:      -9.4      2.736      8.219
REMARK  8 active torsions:
REMARK  status: ('A' for Active; 'I' for Inactive)
REMARK    1  A    between atoms: C_4  and  C_5 
REMARK    2  A    between atoms: C_7  and  C_8 
REMARK    3  A    between atoms: C_9  and  C_10 
REMARK       I    between atoms: C_10  and  N_11 
REMARK    4  A    between atoms: N_11  and  C_12 
REMARK    5  A    between atoms: C_12  and  N_13 
REMARK    6  A    between atoms: N_13  and  C_14 
REMARK    7  A    between atoms: C_17  and  N_18 
REMARK       I    between atoms: N_21  and  C_22 
REMARK    8  A    between atoms: C_22  and  C_23 
ROOT
HETATM    1  N   UNL     1      -4.164   6.302 -29.587  1.00  0.00    -0.333 N 
HETATM    2  H   UNL     1      -4.139   5.993 -28.621  1.00  0.00     0.168 HD
ENDROOT
BRANCH   1   3
HETATM    3  C   UNL     1      -2.967   6.787 -30.056  1.00  0.00     0.179 C 
HETATM    4  S   UNL     1      -2.691   8.297 -30.724  1.00  0.00    -0.040 SA
BRANCH   3   5
HETATM    5  N   UNL     1      -1.917   5.881 -30.077  1.00  0.00    -0.300 N 
HETATM    6  C   UNL     1      -1.541   4.828 -30.894  1.00  0.00     0.247 C 
HETATM    7  O   UNL     1      -0.391   4.397 -30.859  1.00  0.00    -0.268 OA
HETATM    8  H   UNL     1      -1.254   6.023 -29.325  1.00  0.00     0.171 HD
BRANCH   6   9
HETATM    9  C   UNL     1      -2.590   4.201 -31.728  1.00  0.00     0.077 C 
HETATM   10  C   UNL     1      -2.938   2.923 -31.517  1.00  0.00     0.042 C 
BRANCH  10  11
HETATM   11  C   UNL     1      -3.998   2.346 -32.267  1.00  0.00     0.076 A 
HETATM   12  O   UNL     1      -4.042   1.016 -32.620  1.00  0.00    -0.310 OA
HETATM   13  C   UNL     1      -5.176   0.780 -33.339  1.00  0.00     0.086 A 
HETATM   14  C   UNL     1      -5.878   1.958 -33.471  1.00  0.00     0.041 A 
HETATM   15  C   UNL     1      -5.138   2.948 -32.777  1.00  0.00     0.040 A 
BRANCH  13  16
HETATM   16  C   UNL     1      -5.380  -0.596 -33.783  1.00  0.00    -0.002 A 
HETATM   17  C   UNL     1      -6.644  -1.030 -34.209  1.00  0.00     0.014 A 
HETATM   18  C   UNL     1      -6.849  -2.353 -34.615  1.00  0.00     0.001 A 
HETATM   19  C   UNL     1      -5.793  -3.261 -34.595  1.00  0.00     0.000 A 
HETATM   20  C   UNL     1      -4.533  -2.847 -34.176  1.00  0.00     0.001 A 
HETATM   21  C   UNL     1      -4.327  -1.523 -33.779  1.00  0.00     0.014 A 
ENDBRANCH  13  16
ENDBRANCH  10  11
ENDBRANCH   6   9
ENDBRANCH   3   5
ENDBRANCH   1   3
BRANCH   1  22
HETATM   22  C   UNL     1      -5.291   5.890 -30.328  1.00  0.00     0.034 A 
HETATM   23  C   UNL     1      -6.148   4.944 -29.764  1.00  0.00     0.031 A 
HETATM   24  C   UNL     1      -7.299   4.529 -30.450  1.00  0.00     0.026 A 
HETATM   25  C   UNL     1      -7.644   5.081 -31.688  1.00  0.00     0.010 A 
HETATM   26  C   UNL     1      -6.793   6.061 -32.218  1.00  0.00     0.026 A 
HETATM   27  C   UNL     1      -5.627   6.458 -31.554  1.00  0.00     0.031 A 
BRANCH  25  28
HETATM   28  N   UNL     1      -8.778   4.710 -32.422  1.00  0.00    -0.280 NA
HETATM   29  C   UNL     1      -9.495   3.552 -31.842  1.00  0.00     0.115 C 
HETATM   30  C   UNL     1     -10.885   3.407 -32.488  1.00  0.00     0.141 C 
HETATM   31  N   UNL     1     -10.831   3.395 -33.960  1.00  0.00    -0.344 N 
HETATM   32  C   UNL     1     -11.891   2.911 -34.742  1.00  0.00     0.277 C 
HETATM   33  C   UNL     1     -10.040   4.492 -34.534  1.00  0.00     0.141 C 
HETATM   34  O   UNL     1     -12.152   3.431 -35.830  1.00  0.00    -0.265 OA
HETATM   35  C   UNL     1      -8.647   4.614 -33.889  1.00  0.00     0.115 C 
BRANCH  32  36
HETATM   36  C   UNL     1     -12.661   1.774 -34.262  1.00  0.00     0.142 A 
HETATM   37  O   UNL     1     -12.044   0.595 -33.933  1.00  0.00    -0.317 OA
HETATM   38  C   UNL     1     -13.016  -0.288 -33.587  1.00  0.00     0.143 A 
HETATM   39  C   UNL     1     -14.257   0.289 -33.703  1.00  0.00     0.027 A 
HETATM   40  C   UNL     1     -14.032   1.611 -34.154  1.00  0.00     0.045 A 
ENDBRANCH  32  36
ENDBRANCH  25  28
ENDBRANCH   1  22
TORSDOF 8
ENDMDL
MODEL 6
REMARK VINA RESULT:      -9.0      3.366      9.279
REMARK  8 active torsions:
REMARK  status: ('A' for Active; 'I' for Inactive)
REMARK    1  A    between atoms: C_4  and  C_5 
REMARK    2  A    between atoms: C_7  and  C_8 
REMARK    3  A    between atoms: C_9  and  C_10 
REMARK       I    between atoms: C_10  and  N_11 
REMARK    4  A    between atoms: N_11  and  C_12 
REMARK    5  A    between atoms: C_12  and  N_13 
REMARK    6  A    between atoms: N_13  and  C_14 
REMARK    7  A    between atoms: C_17  and  N_18 
REMARK       I    between atoms: N_21  and  C_22 
REMARK    8  A    between atoms: C_22  and  C_23 
ROOT
HETATM    1  N   UNL     1      -5.320  -1.466 -34.502  1.00  0.00    -0.333 N 
HETATM    2  H   UNL     1      -4.509  -0.858 -34.508  1.00  0.00     0.168 HD
ENDROOT
BRANCH   1   3
HETATM    3  C   UNL     1      -5.028  -2.799 -34.341  1.00  0.00     0.179 C 
HETATM    4  S   UNL     1      -5.864  -4.094 -34.995  1.00  0.00    -0.040 SA
BRANCH   3   5
HETATM    5  N   UNL     1      -4.004  -3.087 -33.452  1.00  0.00    -0.300 N 
HETATM    6  C   UNL     1      -3.376  -2.412 -32.419  1.00  0.00     0.247 C 
HETATM    7  O   UNL     1      -2.710  -3.028 -31.590  1.00  0.00    -0.268 OA
HETATM    8  H   UNL     1      -3.624  -4.019 -33.571  1.00  0.00     0.171 HD
BRANCH   6   9
HETATM    9  C   UNL     1      -3.470  -0.935 -32.410  1.00  0.00     0.077 C 
HETATM   10  C   UNL     1      -4.043  -0.307 -31.373  1.00  0.00     0.042 C 
BRANCH  10  11
HETATM   11  C   UNL     1      -4.062   1.113 -31.329  1.00  0.00     0.076 A 
HETATM   12  O   UNL     1      -3.169   1.906 -32.013  1.00  0.00    -0.310 OA
HETATM   13  C   UNL     1      -3.447   3.216 -31.759  1.00  0.00     0.086 A 
HETATM   14  C   UNL     1      -4.517   3.291 -30.896  1.00  0.00     0.041 A 
HETATM   15  C   UNL     1      -4.917   1.956 -30.635  1.00  0.00     0.040 A 
BRANCH  13  16
HETATM   16  C   UNL     1      -2.591   4.194 -32.424  1.00  0.00    -0.002 A 
HETATM   17  C   UNL     1      -2.709   4.429 -33.803  1.00  0.00     0.014 A 
HETATM   18  C   UNL     1      -1.877   5.350 -34.448  1.00  0.00     0.001 A 
HETATM   19  C   UNL     1      -0.911   6.046 -33.724  1.00  0.00     0.000 A 
HETATM   20  C   UNL     1      -0.780   5.825 -32.356  1.00  0.00     0.001 A 
HETATM   21  C   UNL     1      -1.618   4.911 -31.711  1.00  0.00     0.014 A 
ENDBRANCH  13  16
ENDBRANCH  10  11
ENDBRANCH   6   9
ENDBRANCH   3   5
ENDBRANCH   1   3
BRANCH   1  22
HETATM   22  C   UNL     1      -6.563  -0.819 -34.341  1.00  0.00     0.034 A 
HETATM   23  C   UNL     1      -7.209  -0.918 -33.107  1.00  0.00     0.031 A 
HETATM   24  C   UNL     1      -8.431  -0.263 -32.888  1.00  0.00     0.026 A 
HETATM   25  C   UNL     1      -9.010   0.539 -33.877  1.00  0.00     0.010 A 
HETATM   26  C   UNL     1      -8.325   0.660 -35.095  1.00  0.00     0.026 A 
HETATM   27  C   UNL     1      -7.121  -0.013 -35.330  1.00  0.00     0.031 A 
BRANCH  25  28
HETATM   28  N   UNL     1     -10.225   1.217 -33.723  1.00  0.00    -0.280 NA
HETATM   29  C   UNL     1     -10.125   2.397 -32.832  1.00  0.00     0.115 C 
HETATM   30  C   UNL     1     -11.383   3.275 -32.965  1.00  0.00     0.141 C 
HETATM   31  N   UNL     1     -12.632   2.510 -32.801  1.00  0.00    -0.344 N 
HETATM   32  C   UNL     1     -13.856   3.133 -32.515  1.00  0.00     0.277 C 
HETATM   33  C   UNL     1     -12.691   1.289 -33.615  1.00  0.00     0.141 C 
HETATM   34  O   UNL     1     -14.908   2.684 -32.976  1.00  0.00    -0.265 OA
HETATM   35  C   UNL     1     -11.435   0.414 -33.458  1.00  0.00     0.115 C 
BRANCH  32  36
HETATM   36  C   UNL     1     -13.868   4.301 -31.648  1.00  0.00     0.142 A 
HETATM   37  O   UNL     1     -14.275   5.523 -32.118  1.00  0.00    -0.317 OA
HETATM   38  C   UNL     1     -14.115   6.419 -31.110  1.00  0.00     0.143 A 
HETATM   39  C   UNL     1     -13.593   5.806 -29.997  1.00  0.00     0.027 A 
HETATM   40  C   UNL     1     -13.418   4.447 -30.347  1.00  0.00     0.045 A 
ENDBRANCH  32  36
ENDBRANCH  25  28
ENDBRANCH   1  22
TORSDOF 8
ENDMDL
MODEL 7
REMARK VINA RESULT:      -8.9      2.511      8.521
REMARK  8 active torsions:
REMARK  status: ('A' for Active; 'I' for Inactive)
REMARK    1  A    between atoms: C_4  and  C_5 
REMARK    2  A    between atoms: C_7  and  C_8 
REMARK    3  A    between atoms: C_9  and  C_10 
REMARK       I    between atoms: C_10  and  N_11 
REMARK    4  A    between atoms: N_11  and  C_12 
REMARK    5  A    between atoms: C_12  and  N_13 
REMARK    6  A    between atoms: N_13  and  C_14 
REMARK    7  A    between atoms: C_17  and  N_18 
REMARK       I    between atoms: N_21  and  C_22 
REMARK    8  A    between atoms: C_22  and  C_23 
ROOT
HETATM    1  N   UNL     1      -4.724   6.328 -31.716  1.00  0.00    -0.333 N 
HETATM    2  H   UNL     1      -4.540   7.201 -32.198  1.00  0.00     0.168 HD
ENDROOT
BRANCH   1   3
HETATM    3  C   UNL     1      -3.964   6.134 -30.588  1.00  0.00     0.179 C 
HETATM    4  S   UNL     1      -4.340   6.620 -29.030  1.00  0.00    -0.040 SA
BRANCH   3   5
HETATM    5  N   UNL     1      -2.709   5.582 -30.796  1.00  0.00    -0.300 N 
HETATM    6  C   UNL     1      -2.195   4.574 -31.594  1.00  0.00     0.247 C 
HETATM    7  O   UNL     1      -0.988   4.508 -31.810  1.00  0.00    -0.268 OA
HETATM    8  H   UNL     1      -1.984   6.025 -30.244  1.00  0.00     0.171 HD
BRANCH   6   9
HETATM    9  C   UNL     1      -3.138   3.548 -32.092  1.00  0.00     0.077 C 
HETATM   10  C   UNL     1      -3.498   2.528 -31.298  1.00  0.00     0.042 C 
BRANCH  10  11
HETATM   11  C   UNL     1      -4.462   1.587 -31.750  1.00  0.00     0.076 A 
HETATM   12  O   UNL     1      -4.135   0.405 -32.374  1.00  0.00    -0.310 OA
HETATM   13  C   UNL     1      -5.279  -0.267 -32.689  1.00  0.00     0.086 A 
HETATM   14  C   UNL     1      -6.365   0.477 -32.284  1.00  0.00     0.041 A 
HETATM   15  C   UNL     1      -5.845   1.647 -31.674  1.00  0.00     0.040 A 
BRANCH  13  16
HETATM   16  C   UNL     1      -5.104  -1.557 -33.350  1.00  0.00    -0.002 A 
HETATM   17  C   UNL     1      -6.052  -2.022 -34.274  1.00  0.00     0.014 A 
HETATM   18  C   UNL     1      -5.899  -3.267 -34.894  1.00  0.00     0.001 A 
HETATM   19  C   UNL     1      -4.798  -4.066 -34.595  1.00  0.00     0.000 A 
HETATM   20  C   UNL     1      -3.848  -3.620 -33.681  1.00  0.00     0.001 A 
HETATM   21  C   UNL     1      -3.997  -2.373 -33.069  1.00  0.00     0.014 A 
ENDBRANCH  13  16
ENDBRANCH  10  11
ENDBRANCH   6   9
ENDBRANCH   3   5
ENDBRANCH   1   3
BRANCH   1  22
HETATM   22  C   UNL     1      -5.905   5.659 -32.099  1.00  0.00     0.034 A 
HETATM   23  C   UNL     1      -5.992   5.156 -33.399  1.00  0.00     0.031 A 
HETATM   24  C   UNL     1      -7.133   4.455 -33.815  1.00  0.00     0.026 A 
HETATM   25  C   UNL     1      -8.189   4.200 -32.934  1.00  0.00     0.010 A 
HETATM   26  C   UNL     1      -8.065   4.676 -31.621  1.00  0.00     0.026 A 
HETATM   27  C   UNL     1      -6.943   5.403 -31.207  1.00  0.00     0.031 A 
BRANCH  25  28
HETATM   28  N   UNL     1      -9.354   3.507 -33.286  1.00  0.00    -0.280 NA
HETATM   29  C   UNL     1     -10.584   4.113 -32.728  1.00  0.00     0.115 C 
HETATM   30  C   UNL     1     -11.830   3.517 -33.409  1.00  0.00     0.141 C 
HETATM   31  N   UNL     1     -11.836   2.044 -33.399  1.00  0.00    -0.344 N 
HETATM   32  C   UNL     1     -13.006   1.300 -33.617  1.00  0.00     0.277 C 
HETATM   33  C   UNL     1     -10.579   1.442 -33.865  1.00  0.00     0.141 C 
HETATM   34  O   UNL     1     -12.958   0.223 -34.215  1.00  0.00    -0.265 OA
HETATM   35  C   UNL     1      -9.345   2.036 -33.162  1.00  0.00     0.115 C 
BRANCH  32  36
HETATM   36  C   UNL     1     -14.270   1.808 -33.108  1.00  0.00     0.142 A 
HETATM   37  O   UNL     1     -14.302   2.712 -32.077  1.00  0.00    -0.317 OA
HETATM   38  C   UNL     1     -15.607   2.944 -31.782  1.00  0.00     0.143 A 
HETATM   39  C   UNL     1     -16.427   2.194 -32.591  1.00  0.00     0.027 A 
HETATM   40  C   UNL     1     -15.568   1.449 -33.432  1.00  0.00     0.045 A 
ENDBRANCH  32  36
ENDBRANCH  25  28
ENDBRANCH   1  22
TORSDOF 8
ENDMDL
MODEL 8
REMARK VINA RESULT:      -8.8      3.690      9.385
REMARK  8 active torsions:
REMARK  status: ('A' for Active; 'I' for Inactive)
REMARK    1  A    between atoms: C_4  and  C_5 
REMARK    2  A    between atoms: C_7  and  C_8 
REMARK    3  A    between atoms: C_9  and  C_10 
REMARK       I    between atoms: C_10  and  N_11 
REMARK    4  A    between atoms: N_11  and  C_12 
REMARK    5  A    between atoms: C_12  and  N_13 
REMARK    6  A    between atoms: N_13  and  C_14 
REMARK    7  A    between atoms: C_17  and  N_18 
REMARK       I    between atoms: N_21  and  C_22 
REMARK    8  A    between atoms: C_22  and  C_23 
ROOT
HETATM    1  N   UNL     1      -4.325   7.679 -26.829  1.00  0.00    -0.333 N 
HETATM    2  H   UNL     1      -3.866   7.298 -26.010  1.00  0.00     0.168 HD
ENDROOT
BRANCH   1   3
HETATM    3  C   UNL     1      -4.218   9.044 -26.955  1.00  0.00     0.179 C 
HETATM    4  S   UNL     1      -5.286  10.065 -27.742  1.00  0.00    -0.040 SA
BRANCH   3   5
HETATM    5  N   UNL     1      -3.041   9.601 -26.476  1.00  0.00    -0.300 N 
HETATM    6  C   UNL     1      -1.750   9.739 -26.956  1.00  0.00     0.247 C 
HETATM    7  O   UNL     1      -0.985  10.558 -26.451  1.00  0.00    -0.268 OA
HETATM    8  H   UNL     1      -3.144  10.021 -25.560  1.00  0.00     0.171 HD
BRANCH   6   9
HETATM    9  C   UNL     1      -1.314   8.813 -28.024  1.00  0.00     0.077 C 
HETATM   10  C   UNL     1      -0.753   7.638 -27.702  1.00  0.00     0.042 C 
BRANCH  10  11
HETATM   11  C   UNL     1      -0.405   6.716 -28.727  1.00  0.00     0.076 A 
HETATM   12  O   UNL     1      -1.059   6.643 -29.936  1.00  0.00    -0.310 OA
HETATM   13  C   UNL     1      -0.495   5.658 -30.691  1.00  0.00     0.086 A 
HETATM   14  C   UNL     1       0.524   5.070 -29.976  1.00  0.00     0.041 A 
HETATM   15  C   UNL     1       0.591   5.752 -28.736  1.00  0.00     0.040 A 
BRANCH  13  16
HETATM   16  C   UNL     1      -1.070   5.458 -32.019  1.00  0.00    -0.002 A 
HETATM   17  C   UNL     1      -0.736   6.313 -33.079  1.00  0.00     0.014 A 
HETATM   18  C   UNL     1      -1.300   6.139 -34.348  1.00  0.00     0.001 A 
HETATM   19  C   UNL     1      -2.212   5.109 -34.571  1.00  0.00     0.000 A 
HETATM   20  C   UNL     1      -2.555   4.252 -33.530  1.00  0.00     0.001 A 
HETATM   21  C   UNL     1      -1.984   4.422 -32.266  1.00  0.00     0.014 A 
ENDBRANCH  13  16
ENDBRANCH  10  11
ENDBRANCH   6   9
ENDBRANCH   3   5
ENDBRANCH   1   3
BRANCH   1  22
HETATM   22  C   UNL     1      -4.694   6.738 -27.813  1.00  0.00     0.034 A 
HETATM   23  C   UNL     1      -5.671   5.793 -27.495  1.00  0.00     0.031 A 
HETATM   24  C   UNL     1      -6.094   4.858 -28.452  1.00  0.00     0.026 A 
HETATM   25  C   UNL     1      -5.587   4.875 -29.755  1.00  0.00     0.010 A 
HETATM   26  C   UNL     1      -4.637   5.858 -30.067  1.00  0.00     0.026 A 
HETATM   27  C   UNL     1      -4.189   6.775 -29.110  1.00  0.00     0.031 A 
BRANCH  25  28
HETATM   28  N   UNL     1      -5.967   3.971 -30.755  1.00  0.00    -0.280 NA
HETATM   29  C   UNL     1      -5.335   2.639 -30.608  1.00  0.00     0.115 C 
HETATM   30  C   UNL     1      -6.033   1.613 -31.519  1.00  0.00     0.141 C 
HETATM   31  N   UNL     1      -6.138   2.069 -32.916  1.00  0.00    -0.344 N 
HETATM   32  C   UNL     1      -6.388   1.182 -33.974  1.00  0.00     0.277 C 
HETATM   33  C   UNL     1      -6.678   3.428 -33.057  1.00  0.00     0.141 C 
HETATM   34  O   UNL     1      -7.070   1.537 -34.938  1.00  0.00    -0.265 OA
HETATM   35  C   UNL     1      -5.959   4.445 -32.153  1.00  0.00     0.115 C 
BRANCH  32  36
HETATM   36  C   UNL     1      -5.812  -0.153 -33.927  1.00  0.00     0.142 A 
HETATM   37  O   UNL     1      -4.518  -0.347 -33.519  1.00  0.00    -0.317 OA
HETATM   38  C   UNL     1      -4.248  -1.673 -33.644  1.00  0.00     0.143 A 
HETATM   39  C   UNL     1      -5.339  -2.343 -34.143  1.00  0.00     0.027 A 
HETATM   40  C   UNL     1      -6.340  -1.364 -34.342  1.00  0.00     0.045 A 
ENDBRANCH  32  36
ENDBRANCH  25  28
ENDBRANCH   1  22
TORSDOF 8
ENDMDL
MODEL 9
REMARK VINA RESULT:      -8.7      2.030      2.745
REMARK  8 active torsions:
REMARK  status: ('A' for Active; 'I' for Inactive)
REMARK    1  A    between atoms: C_4  and  C_5 
REMARK    2  A    between atoms: C_7  and  C_8 
REMARK    3  A    between atoms: C_9  and  C_10 
REMARK       I    between atoms: C_10  and  N_11 
REMARK    4  A    between atoms: N_11  and  C_12 
REMARK    5  A    between atoms: C_12  and  N_13 
REMARK    6  A    between atoms: N_13  and  C_14 
REMARK    7  A    between atoms: C_17  and  N_18 
REMARK       I    between atoms: N_21  and  C_22 
REMARK    8  A    between atoms: C_22  and  C_23 
ROOT
HETATM    1  N   UNL     1     -11.341   6.243 -30.200  1.00  0.00    -0.333 N 
HETATM    2  H   UNL     1     -11.456   6.954 -29.487  1.00  0.00     0.168 HD
ENDROOT
BRANCH   1   3
HETATM    3  C   UNL     1     -12.503   5.899 -30.848  1.00  0.00     0.179 C 
HETATM    4  S   UNL     1     -13.879   5.241 -30.158  1.00  0.00    -0.040 SA
BRANCH   3   5
HETATM    5  N   UNL     1     -12.474   6.006 -32.231  1.00  0.00    -0.300 N 
HETATM    6  C   UNL     1     -12.447   5.113 -33.288  1.00  0.00     0.247 C 
HETATM    7  O   UNL     1     -12.745   5.483 -34.421  1.00  0.00    -0.268 OA
HETATM    8  H   UNL     1     -12.488   6.966 -32.555  1.00  0.00     0.171 HD
BRANCH   6   9
HETATM    9  C   UNL     1     -11.966   3.741 -33.012  1.00  0.00     0.077 C 
HETATM   10  C   UNL     1     -10.958   3.228 -33.733  1.00  0.00     0.042 C 
BRANCH  10  11
HETATM   11  C   UNL     1     -10.446   1.941 -33.416  1.00  0.00     0.076 A 
HETATM   12  O   UNL     1      -9.111   1.688 -33.194  1.00  0.00    -0.310 OA
HETATM   13  C   UNL     1      -8.945   0.362 -32.923  1.00  0.00     0.086 A 
HETATM   14  C   UNL     1     -10.169  -0.266 -32.978  1.00  0.00     0.041 A 
HETATM   15  C   UNL     1     -11.124   0.739 -33.276  1.00  0.00     0.040 A 
BRANCH  13  16
HETATM   16  C   UNL     1      -7.577  -0.071 -32.650  1.00  0.00    -0.002 A 
HETATM   17  C   UNL     1      -6.944   0.275 -31.447  1.00  0.00     0.014 A 
HETATM   18  C   UNL     1      -5.626  -0.120 -31.190  1.00  0.00     0.001 A 
HETATM   19  C   UNL     1      -4.922  -0.861 -32.136  1.00  0.00     0.000 A 
HETATM   20  C   UNL     1      -5.535  -1.213 -33.335  1.00  0.00     0.001 A 
HETATM   21  C   UNL     1      -6.854  -0.826 -33.586  1.00  0.00     0.014 A 
ENDBRANCH  13  16
ENDBRANCH  10  11
ENDBRANCH   6   9
ENDBRANCH   3   5
ENDBRANCH   1   3
BRANCH   1  22
HETATM   22  C   UNL     1     -10.011   5.987 -30.595  1.00  0.00     0.034 A 
HETATM   23  C   UNL     1      -9.554   4.668 -30.576  1.00  0.00     0.031 A 
HETATM   24  C   UNL     1      -8.251   4.360 -30.992  1.00  0.00     0.026 A 
HETATM   25  C   UNL     1      -7.392   5.352 -31.478  1.00  0.00     0.010 A 
HETATM   26  C   UNL     1      -7.884   6.664 -31.529  1.00  0.00     0.026 A 
HETATM   27  C   UNL     1      -9.173   6.983 -31.088  1.00  0.00     0.031 A 
BRANCH  25  28
HETATM   28  N   UNL     1      -6.081   5.112 -31.908  1.00  0.00    -0.280 NA
HETATM   29  C   UNL     1      -5.057   5.596 -30.954  1.00  0.00     0.115 C 
HETATM   30  C   UNL     1      -3.676   5.017 -31.314  1.00  0.00     0.141 C 
HETATM   31  N   UNL     1      -3.319   5.230 -32.727  1.00  0.00    -0.344 N 
HETATM   32  C   UNL     1      -1.997   5.129 -33.187  1.00  0.00     0.277 C 
HETATM   33  C   UNL     1      -4.374   4.837 -33.671  1.00  0.00     0.141 C 
HETATM   34  O   UNL     1      -1.760   4.684 -34.312  1.00  0.00    -0.265 OA
HETATM   35  C   UNL     1      -5.745   5.437 -33.308  1.00  0.00     0.115 C 
BRANCH  32  36
HETATM   36  C   UNL     1      -0.915   5.578 -32.326  1.00  0.00     0.142 A 
HETATM   37  O   UNL     1      -0.233   4.693 -31.531  1.00  0.00    -0.317 OA
HETATM   38  C   UNL     1       0.662   5.409 -30.803  1.00  0.00     0.143 A 
HETATM   39  C   UNL     1       0.563   6.747 -31.095  1.00  0.00     0.027 A 
HETATM   40  C   UNL     1      -0.462   6.860 -32.062  1.00  0.00     0.045 A 
ENDBRANCH  32  36
ENDBRANCH  25  28
ENDBRANCH   1  22
TORSDOF 8
ENDMDL
MODEL 10
REMARK VINA RESULT:      -8.6      2.671      8.404
REMARK  8 active torsions:
REMARK  status: ('A' for Active; 'I' for Inactive)
REMARK    1  A    between atoms: C_4  and  C_5 
REMARK    2  A    between atoms: C_7  and  C_8 
REMARK    3  A    between atoms: C_9  and  C_10 
REMARK       I    between atoms: C_10  and  N_11 
REMARK    4  A    between atoms: N_11  and  C_12 
REMARK    5  A    between atoms: C_12  and  N_13 
REMARK    6  A    between atoms: N_13  and  C_14 
REMARK    7  A    between atoms: C_17  and  N_18 
REMARK       I    between atoms: N_21  and  C_22 
REMARK    8  A    between atoms: C_22  and  C_23 
ROOT
HETATM    1  N   UNL     1      -2.994   6.714 -33.039  1.00  0.00    -0.333 N 
HETATM    2  H   UNL     1      -2.547   6.999 -33.903  1.00  0.00     0.168 HD
ENDROOT
BRANCH   1   3
HETATM    3  C   UNL     1      -2.368   7.167 -31.902  1.00  0.00     0.179 C 
HETATM    4  S   UNL     1      -2.564   8.664 -31.179  1.00  0.00    -0.040 SA
BRANCH   3   5
HETATM    5  N   UNL     1      -1.392   6.332 -31.380  1.00  0.00    -0.300 N 
HETATM    6  C   UNL     1      -1.251   4.965 -31.211  1.00  0.00     0.247 C 
HETATM    7  O   UNL     1      -0.143   4.476 -31.007  1.00  0.00    -0.268 OA
HETATM    8  H   UNL     1      -0.575   6.833 -31.050  1.00  0.00     0.171 HD
BRANCH   6   9
HETATM    9  C   UNL     1      -2.484   4.146 -31.199  1.00  0.00     0.077 C 
HETATM   10  C   UNL     1      -2.609   3.113 -32.045  1.00  0.00     0.042 C 
BRANCH  10  11
HETATM   11  C   UNL     1      -3.759   2.281 -31.979  1.00  0.00     0.076 A 
HETATM   12  O   UNL     1      -3.930   1.158 -32.756  1.00  0.00    -0.310 OA
HETATM   13  C   UNL     1      -5.133   0.588 -32.463  1.00  0.00     0.086 A 
HETATM   14  C   UNL     1      -5.766   1.342 -31.500  1.00  0.00     0.041 A 
HETATM   15  C   UNL     1      -4.887   2.408 -31.182  1.00  0.00     0.040 A 
BRANCH  13  16
HETATM   16  C   UNL     1      -5.463  -0.630 -33.198  1.00  0.00    -0.002 A 
HETATM   17  C   UNL     1      -4.455  -1.522 -33.594  1.00  0.00     0.014 A 
HETATM   18  C   UNL     1      -4.765  -2.679 -34.317  1.00  0.00     0.001 A 
HETATM   19  C   UNL     1      -6.086  -2.957 -34.658  1.00  0.00     0.000 A 
HETATM   20  C   UNL     1      -7.099  -2.083 -34.273  1.00  0.00     0.001 A 
HETATM   21  C   UNL     1      -6.789  -0.932 -33.544  1.00  0.00     0.014 A 
ENDBRANCH  13  16
ENDBRANCH  10  11
ENDBRANCH   6   9
ENDBRANCH   3   5
ENDBRANCH   1   3
BRANCH   1  22
HETATM   22  C   UNL     1      -4.302   6.202 -33.171  1.00  0.00     0.034 A 
HETATM   23  C   UNL     1      -4.522   5.171 -34.086  1.00  0.00     0.031 A 
HETATM   24  C   UNL     1      -5.799   4.606 -34.228  1.00  0.00     0.026 A 
HETATM   25  C   UNL     1      -6.869   5.025 -33.430  1.00  0.00     0.010 A 
HETATM   26  C   UNL     1      -6.618   6.032 -32.488  1.00  0.00     0.026 A 
HETATM   27  C   UNL     1      -5.354   6.620 -32.361  1.00  0.00     0.031 A 
BRANCH  25  28
HETATM   28  N   UNL     1      -8.165   4.503 -33.522  1.00  0.00    -0.280 NA
HETATM   29  C   UNL     1      -9.176   5.328 -32.822  1.00  0.00     0.115 C 
HETATM   30  C   UNL     1     -10.596   4.895 -33.232  1.00  0.00     0.141 C 
HETATM   31  N   UNL     1     -10.813   3.444 -33.092  1.00  0.00    -0.344 N 
HETATM   32  C   UNL     1     -12.097   2.882 -33.048  1.00  0.00     0.277 C 
HETATM   33  C   UNL     1      -9.759   2.625 -33.707  1.00  0.00     0.141 C 
HETATM   34  O   UNL     1     -12.313   1.776 -33.549  1.00  0.00    -0.265 OA
HETATM   35  C   UNL     1      -8.347   3.059 -33.274  1.00  0.00     0.115 C 
BRANCH  32  36
HETATM   36  C   UNL     1     -13.164   3.612 -32.381  1.00  0.00     0.142 A 
HETATM   37  O   UNL     1     -14.190   4.171 -33.099  1.00  0.00    -0.317 OA
HETATM   38  C   UNL     1     -14.985   4.834 -32.220  1.00  0.00     0.143 A 
HETATM   39  C   UNL     1     -14.485   4.733 -30.944  1.00  0.00     0.027 A 
HETATM   40  C   UNL     1     -13.305   3.961 -31.049  1.00  0.00     0.045 A 
ENDBRANCH  32  36
ENDBRANCH  25  28
ENDBRANCH   1  22
TORSDOF 8
ENDMDL
