MODEL 1
REMARK VINA RESULT:      -9.9      0.000      0.000
REMARK  6 active torsions:
REMARK  status: ('A' for Active; 'I' for Inactive)
REMARK    1  A    between atoms: C_6  and  C_7 
REMARK    2  A    between atoms: C_7  and  N_8 
REMARK    3  A    between atoms: C_12  and  C_13 
REMARK    4  A    between atoms: C_13  and  C_14 
REMARK    5  A    between atoms: N_23  and  C_24 
REMARK    6  A    between atoms: C_24  and  C_25 
ROOT
HETATM    1  C   UNL     1      -7.001   1.731 -32.467  1.00  0.00     0.149 C 
HETATM    2  N   UNL     1      -7.370   2.697 -33.492  1.00  0.00    -0.220 NA
HETATM    3  C   UNL     1      -6.454   3.723 -33.562  1.00  0.00     0.304 C 
HETATM    4  O   UNL     1      -6.418   4.510 -34.491  1.00  0.00    -0.253 OA
HETATM    5  N   UNL     1      -5.651   3.676 -32.472  1.00  0.00    -0.270 N 
HETATM    6  C   UNL     1      -5.838   2.501 -31.802  1.00  0.00     0.257 C 
HETATM    7  O   UNL     1      -5.215   2.120 -30.819  1.00  0.00    -0.270 OA
HETATM    8  H   UNL     1      -7.619   2.331 -34.410  1.00  0.00     0.134 HD
ENDROOT
BRANCH   1   9
HETATM    9  C   UNL     1      -8.155   1.460 -31.446  1.00  0.00     0.028 C 
HETATM   10  C   UNL     1      -9.184   0.405 -31.901  1.00  0.00     0.035 C 
HETATM   11  C   UNL     1     -10.169   0.906 -32.950  1.00  0.00     0.235 C 
HETATM   12  N   UNL     1     -10.865   2.155 -32.462  1.00  0.00    -0.067 N 
HETATM   13  H   UNL     1     -11.431   1.881 -31.650  1.00  0.00     0.280 HD
HETATM   14  C   UNL     1      -9.920   3.246 -32.021  1.00  0.00     0.235 C 
HETATM   15  C   UNL     1      -8.938   2.712 -30.991  1.00  0.00     0.035 C 
BRANCH  12  16
HETATM   16  C   UNL     1     -11.841   2.706 -33.492  1.00  0.00     0.273 C 
BRANCH  16  17
HETATM   17  C   UNL     1     -13.284   2.657 -33.058  1.00  0.00    -0.027 A 
HETATM   18  C   UNL     1     -14.119   1.552 -33.324  1.00  0.00    -0.054 A 
HETATM   19  C   UNL     1     -15.459   1.583 -32.897  1.00  0.00     0.014 A 
HETATM   20  C   UNL     1     -13.644   0.340 -34.082  1.00  0.00     0.049 C 
HETATM   21  C   UNL     1     -15.982   2.689 -32.219  1.00  0.00    -0.061 A 
HETATM   22  C   UNL     1     -17.418   2.717 -31.783  1.00  0.00     0.048 C 
HETATM   23  C   UNL     1     -15.149   3.776 -31.952  1.00  0.00     0.007 A 
HETATM   24  C   UNL     1     -13.817   3.763 -32.367  1.00  0.00     0.010 A 
ENDBRANCH  16  17
ENDBRANCH  12  16
ENDBRANCH   1   9
BRANCH   1  25
HETATM   25  C   UNL     1      -6.529   0.450 -33.155  1.00  0.00     0.067 A 
HETATM   26  N   UNL     1      -5.642  -0.302 -32.436  1.00  0.00    -0.263 NA
HETATM   27  C   UNL     1      -5.198  -1.453 -32.996  1.00  0.00     0.117 A 
HETATM   28  C   UNL     1      -5.573  -1.888 -34.252  1.00  0.00     0.019 A 
HETATM   29  C   UNL     1      -6.453  -1.099 -34.984  1.00  0.00     0.003 A 
HETATM   30  C   UNL     1      -6.935   0.087 -34.437  1.00  0.00     0.030 A 
ENDBRANCH   1  25
BRANCH   5  31
HETATM   31  C   UNL     1      -4.625   4.657 -32.159  1.00  0.00     0.168 C 
BRANCH  31  32
HETATM   32  C   UNL     1      -3.626   4.842 -33.307  1.00  0.00     0.140 C 
HETATM   33  O   UNL     1      -3.653   6.199 -33.806  1.00  0.00    -0.384 OA
HETATM   34  C   UNL     1      -2.306   6.556 -34.176  1.00  0.00     0.168 C 
HETATM   35  C   UNL     1      -1.437   5.333 -33.966  1.00  0.00     0.029 C 
HETATM   36  C   UNL     1      -2.187   4.587 -32.891  1.00  0.00     0.036 C 
ENDBRANCH  31  32
ENDBRANCH   5  31
TORSDOF 6
ENDMDL
MODEL 2
REMARK VINA RESULT:      -9.4      2.972      8.526
REMARK  6 active torsions:
REMARK  status: ('A' for Active; 'I' for Inactive)
REMARK    1  A    between atoms: C_6  and  C_7 
REMARK    2  A    between atoms: C_7  and  N_8 
REMARK    3  A    between atoms: C_12  and  C_13 
REMARK    4  A    between atoms: C_13  and  C_14 
REMARK    5  A    between atoms: N_23  and  C_24 
REMARK    6  A    between atoms: C_24  and  C_25 
ROOT
HETATM    1  C   UNL     1      -9.209   3.744 -31.884  1.00  0.00     0.149 C 
HETATM    2  N   UNL     1      -9.095   3.634 -33.331  1.00  0.00    -0.220 NA
HETATM    3  C   UNL     1     -10.330   3.722 -33.936  1.00  0.00     0.304 C 
HETATM    4  O   UNL     1     -10.465   3.898 -35.133  1.00  0.00    -0.253 OA
HETATM    5  N   UNL     1     -11.295   3.594 -32.993  1.00  0.00    -0.270 N 
HETATM    6  C   UNL     1     -10.746   3.677 -31.746  1.00  0.00     0.257 C 
HETATM    7  O   UNL     1     -11.356   3.671 -30.684  1.00  0.00    -0.270 OA
HETATM    8  H   UNL     1      -8.393   4.214 -33.789  1.00  0.00     0.134 HD
ENDROOT
BRANCH   1   9
HETATM    9  C   UNL     1      -8.522   2.557 -31.131  1.00  0.00     0.028 C 
HETATM   10  C   UNL     1      -6.981   2.583 -31.157  1.00  0.00     0.035 C 
HETATM   11  C   UNL     1      -6.371   2.151 -32.486  1.00  0.00     0.235 C 
HETATM   12  N   UNL     1      -6.890   0.789 -32.881  1.00  0.00    -0.067 N 
HETATM   13  H   UNL     1      -6.541   0.124 -32.181  1.00  0.00     0.280 HD
HETATM   14  C   UNL     1      -8.395   0.692 -32.903  1.00  0.00     0.235 C 
HETATM   15  C   UNL     1      -8.975   1.148 -31.573  1.00  0.00     0.035 C 
BRANCH  12  16
HETATM   16  C   UNL     1      -6.326   0.328 -34.218  1.00  0.00     0.273 C 
BRANCH  16  17
HETATM   17  C   UNL     1      -5.870  -1.109 -34.231  1.00  0.00    -0.027 A 
HETATM   18  C   UNL     1      -4.623  -1.514 -33.709  1.00  0.00    -0.054 A 
HETATM   19  C   UNL     1      -4.262  -2.872 -33.766  1.00  0.00     0.014 A 
HETATM   20  C   UNL     1      -3.637  -0.541 -33.117  1.00  0.00     0.049 C 
HETATM   21  C   UNL     1      -5.110  -3.828 -34.333  1.00  0.00    -0.061 A 
HETATM   22  C   UNL     1      -4.705  -5.273 -34.402  1.00  0.00     0.048 C 
HETATM   23  C   UNL     1      -6.345  -3.423 -34.840  1.00  0.00     0.007 A 
HETATM   24  C   UNL     1      -6.721  -2.080 -34.793  1.00  0.00     0.010 A 
ENDBRANCH  16  17
ENDBRANCH  12  16
ENDBRANCH   1   9
BRANCH   1  25
HETATM   25  C   UNL     1      -8.647   5.100 -31.455  1.00  0.00     0.067 A 
HETATM   26  N   UNL     1      -7.962   5.777 -32.426  1.00  0.00    -0.263 NA
HETATM   27  C   UNL     1      -7.450   6.988 -32.103  1.00  0.00     0.117 A 
HETATM   28  C   UNL     1      -7.562   7.557 -30.849  1.00  0.00     0.019 A 
HETATM   29  C   UNL     1      -8.235   6.845 -29.863  1.00  0.00     0.003 A 
HETATM   30  C   UNL     1      -8.781   5.599 -30.162  1.00  0.00     0.030 A 
ENDBRANCH   1  25
BRANCH   5  31
HETATM   31  C   UNL     1     -12.721   3.544 -33.272  1.00  0.00     0.168 C 
BRANCH  31  32
HETATM   32  C   UNL     1     -13.314   2.152 -33.029  1.00  0.00     0.140 C 
HETATM   33  O   UNL     1     -14.642   2.046 -33.594  1.00  0.00    -0.384 OA
HETATM   34  C   UNL     1     -14.796   0.705 -34.099  1.00  0.00     0.168 C 
HETATM   35  C   UNL     1     -13.534  -0.060 -33.755  1.00  0.00     0.029 C 
HETATM   36  C   UNL     1     -12.505   1.039 -33.674  1.00  0.00     0.036 C 
ENDBRANCH  31  32
ENDBRANCH   5  31
TORSDOF 6
ENDMDL
MODEL 3
REMARK VINA RESULT:      -9.3      1.717      2.380
REMARK  6 active torsions:
REMARK  status: ('A' for Active; 'I' for Inactive)
REMARK    1  A    between atoms: C_6  and  C_7 
REMARK    2  A    between atoms: C_7  and  N_8 
REMARK    3  A    between atoms: C_12  and  C_13 
REMARK    4  A    between atoms: C_13  and  C_14 
REMARK    5  A    between atoms: N_23  and  C_24 
REMARK    6  A    between atoms: C_24  and  C_25 
ROOT
HETATM    1  C   UNL     1      -5.806   2.587 -32.697  1.00  0.00     0.149 C 
HETATM    2  N   UNL     1      -6.009   3.697 -33.617  1.00  0.00    -0.220 NA
HETATM    3  C   UNL     1      -4.807   4.253 -33.997  1.00  0.00     0.304 C 
HETATM    4  O   UNL     1      -4.707   5.025 -34.933  1.00  0.00    -0.253 OA
HETATM    5  N   UNL     1      -3.827   3.790 -33.184  1.00  0.00    -0.270 N 
HETATM    6  C   UNL     1      -4.293   2.749 -32.434  1.00  0.00     0.257 C 
HETATM    7  O   UNL     1      -3.639   2.066 -31.654  1.00  0.00    -0.270 OA
HETATM    8  H   UNL     1      -6.635   3.541 -34.405  1.00  0.00     0.134 HD
ENDROOT
BRANCH   1   9
HETATM    9  C   UNL     1      -6.629   2.738 -31.375  1.00  0.00     0.028 C 
HETATM   10  C   UNL     1      -7.958   1.956 -31.349  1.00  0.00     0.035 C 
HETATM   11  C   UNL     1      -9.074   2.593 -32.169  1.00  0.00     0.235 C 
HETATM   12  N   UNL     1      -9.288   4.025 -31.738  1.00  0.00    -0.067 N 
HETATM   13  H   UNL     1      -9.630   3.995 -30.770  1.00  0.00     0.280 HD
HETATM   14  C   UNL     1      -8.034   4.862 -31.761  1.00  0.00     0.235 C 
HETATM   15  C   UNL     1      -6.934   4.192 -30.952  1.00  0.00     0.035 C 
BRANCH  12  16
HETATM   16  C   UNL     1     -10.378   4.709 -32.550  1.00  0.00     0.273 C 
BRANCH  16  17
HETATM   17  C   UNL     1     -11.727   4.042 -32.453  1.00  0.00    -0.027 A 
HETATM   18  C   UNL     1     -12.284   3.299 -33.516  1.00  0.00    -0.054 A 
HETATM   19  C   UNL     1     -13.553   2.715 -33.356  1.00  0.00     0.014 A 
HETATM   20  C   UNL     1     -11.586   3.130 -34.841  1.00  0.00     0.049 C 
HETATM   21  C   UNL     1     -14.276   2.859 -32.168  1.00  0.00    -0.061 A 
HETATM   22  C   UNL     1     -15.637   2.243 -32.015  1.00  0.00     0.048 C 
HETATM   23  C   UNL     1     -13.718   3.587 -31.118  1.00  0.00     0.007 A 
HETATM   24  C   UNL     1     -12.459   4.175 -31.258  1.00  0.00     0.010 A 
ENDBRANCH  16  17
ENDBRANCH  12  16
ENDBRANCH   1   9
BRANCH   1  25
HETATM   25  C   UNL     1      -6.131   1.285 -33.430  1.00  0.00     0.067 A 
HETATM   26  N   UNL     1      -6.817   1.436 -34.604  1.00  0.00    -0.263 NA
HETATM   27  C   UNL     1      -7.123   0.315 -35.300  1.00  0.00     0.117 A 
HETATM   28  C   UNL     1      -6.803  -0.960 -34.876  1.00  0.00     0.019 A 
HETATM   29  C   UNL     1      -6.131  -1.102 -33.668  1.00  0.00     0.003 A 
HETATM   30  C   UNL     1      -5.794   0.030 -32.929  1.00  0.00     0.030 A 
ENDBRANCH   1  25
BRANCH   5  31
HETATM   31  C   UNL     1      -2.442   4.229 -33.227  1.00  0.00     0.168 C 
BRANCH  31  32
HETATM   32  C   UNL     1      -2.066   5.093 -32.018  1.00  0.00     0.140 C 
HETATM   33  O   UNL     1      -1.219   4.364 -31.100  1.00  0.00    -0.384 OA
HETATM   34  C   UNL     1      -0.273   5.297 -30.543  1.00  0.00     0.168 C 
HETATM   35  C   UNL     1      -0.611   6.669 -31.088  1.00  0.00     0.029 C 
HETATM   36  C   UNL     1      -1.282   6.338 -32.398  1.00  0.00     0.036 C 
ENDBRANCH  31  32
ENDBRANCH   5  31
TORSDOF 6
ENDMDL
MODEL 4
REMARK VINA RESULT:      -9.3      3.225      7.793
REMARK  6 active torsions:
REMARK  status: ('A' for Active; 'I' for Inactive)
REMARK    1  A    between atoms: C_6  and  C_7 
REMARK    2  A    between atoms: C_7  and  N_8 
REMARK    3  A    between atoms: C_12  and  C_13 
REMARK    4  A    between atoms: C_13  and  C_14 
REMARK    5  A    between atoms: N_23  and  C_24 
REMARK    6  A    between atoms: C_24  and  C_25 
ROOT
HETATM    1  C   UNL     1      -4.590   5.002 -31.833  1.00  0.00     0.149 C 
HETATM    2  N   UNL     1      -5.290   4.560 -33.031  1.00  0.00    -0.220 NA
HETATM    3  C   UNL     1      -6.485   5.227 -33.185  1.00  0.00     0.304 C 
HETATM    4  O   UNL     1      -7.122   5.205 -34.223  1.00  0.00    -0.253 OA
HETATM    5  N   UNL     1      -6.781   5.878 -32.034  1.00  0.00    -0.270 N 
HETATM    6  C   UNL     1      -5.698   5.874 -31.202  1.00  0.00     0.257 C 
HETATM    7  O   UNL     1      -5.615   6.437 -30.117  1.00  0.00    -0.270 OA
HETATM    8  H   UNL     1      -4.752   4.515 -33.896  1.00  0.00     0.134 HD
ENDROOT
BRANCH   1   9
HETATM    9  C   UNL     1      -4.195   3.819 -30.890  1.00  0.00     0.028 C 
HETATM   10  C   UNL     1      -3.344   2.719 -31.557  1.00  0.00     0.035 C 
HETATM   11  C   UNL     1      -4.132   1.787 -32.470  1.00  0.00     0.235 C 
HETATM   12  N   UNL     1      -5.296   1.182 -31.722  1.00  0.00    -0.067 N 
HETATM   13  H   UNL     1      -4.899   0.586 -30.986  1.00  0.00     0.280 HD
HETATM   14  C   UNL     1      -6.192   2.200 -31.062  1.00  0.00     0.235 C 
HETATM   15  C   UNL     1      -5.376   3.127 -30.173  1.00  0.00     0.035 C 
BRANCH  12  16
HETATM   16  C   UNL     1      -6.127   0.263 -32.606  1.00  0.00     0.273 C 
BRANCH  16  17
HETATM   17  C   UNL     1      -5.436  -1.026 -32.974  1.00  0.00    -0.027 A 
HETATM   18  C   UNL     1      -5.826  -1.805 -34.085  1.00  0.00    -0.054 A 
HETATM   19  C   UNL     1      -5.141  -3.002 -34.360  1.00  0.00     0.014 A 
HETATM   20  C   UNL     1      -6.978  -1.424 -34.978  1.00  0.00     0.049 C 
HETATM   21  C   UNL     1      -4.084  -3.438 -33.554  1.00  0.00    -0.061 A 
HETATM   22  C   UNL     1      -3.370  -4.726 -33.850  1.00  0.00     0.048 C 
HETATM   23  C   UNL     1      -3.698  -2.660 -32.463  1.00  0.00     0.007 A 
HETATM   24  C   UNL     1      -4.366  -1.469 -32.173  1.00  0.00     0.010 A 
ENDBRANCH  16  17
ENDBRANCH  12  16
ENDBRANCH   1   9
BRANCH   1  25
HETATM   25  C   UNL     1      -3.376   5.828 -32.259  1.00  0.00     0.067 A 
HETATM   26  N   UNL     1      -3.242   6.011 -33.609  1.00  0.00    -0.263 NA
HETATM   27  C   UNL     1      -2.188   6.743 -34.041  1.00  0.00     0.117 A 
HETATM   28  C   UNL     1      -1.238   7.287 -33.199  1.00  0.00     0.019 A 
HETATM   29  C   UNL     1      -1.368   7.069 -31.833  1.00  0.00     0.003 A 
HETATM   30  C   UNL     1      -2.444   6.327 -31.352  1.00  0.00     0.030 A 
ENDBRANCH   1  25
BRANCH   5  31
HETATM   31  C   UNL     1      -8.011   6.614 -31.794  1.00  0.00     0.168 C 
BRANCH  31  32
HETATM   32  C   UNL     1      -9.158   5.701 -31.346  1.00  0.00     0.140 C 
HETATM   33  O   UNL     1      -9.701   4.962 -32.464  1.00  0.00    -0.384 OA
HETATM   34  C   UNL     1     -10.074   3.655 -31.984  1.00  0.00     0.168 C 
HETATM   35  C   UNL     1      -9.818   3.627 -30.491  1.00  0.00     0.029 C 
HETATM   36  C   UNL     1      -8.724   4.653 -30.335  1.00  0.00     0.036 C 
ENDBRANCH  31  32
ENDBRANCH   5  31
TORSDOF 6
ENDMDL
MODEL 5
REMARK VINA RESULT:      -9.1      2.210      3.446
REMARK  6 active torsions:
REMARK  status: ('A' for Active; 'I' for Inactive)
REMARK    1  A    between atoms: C_6  and  C_7 
REMARK    2  A    between atoms: C_7  and  N_8 
REMARK    3  A    between atoms: C_12  and  C_13 
REMARK    4  A    between atoms: C_13  and  C_14 
REMARK    5  A    between atoms: N_23  and  C_24 
REMARK    6  A    between atoms: C_24  and  C_25 
ROOT
HETATM    1  C   UNL     1      -5.365   2.338 -32.355  1.00  0.00     0.149 C 
HETATM    2  N   UNL     1      -5.756   3.547 -33.065  1.00  0.00    -0.220 NA
HETATM    3  C   UNL     1      -4.654   4.230 -33.530  1.00  0.00     0.304 C 
HETATM    4  O   UNL     1      -4.732   5.127 -34.349  1.00  0.00    -0.253 OA
HETATM    5  N   UNL     1      -3.541   3.727 -32.942  1.00  0.00    -0.270 N 
HETATM    6  C   UNL     1      -3.839   2.564 -32.291  1.00  0.00     0.257 C 
HETATM    7  O   UNL     1      -3.043   1.827 -31.721  1.00  0.00    -0.270 OA
HETATM    8  H   UNL     1      -6.487   3.459 -33.770  1.00  0.00     0.134 HD
ENDROOT
BRANCH   1   9
HETATM    9  C   UNL     1      -5.984   2.251 -30.921  1.00  0.00     0.028 C 
HETATM   10  C   UNL     1      -7.383   1.606 -30.860  1.00  0.00     0.035 C 
HETATM   11  C   UNL     1      -8.511   2.512 -31.340  1.00  0.00     0.235 C 
HETATM   12  N   UNL     1      -8.492   3.818 -30.582  1.00  0.00    -0.067 N 
HETATM   13  H   UNL     1      -8.706   3.596 -29.602  1.00  0.00     0.280 HD
HETATM   14  C   UNL     1      -7.159   4.524 -30.617  1.00  0.00     0.235 C 
HETATM   15  C   UNL     1      -6.052   3.590 -30.152  1.00  0.00     0.035 C 
BRANCH  12  16
HETATM   16  C   UNL     1      -9.587   4.766 -31.048  1.00  0.00     0.273 C 
BRANCH  16  17
HETATM   17  C   UNL     1     -10.278   4.331 -32.316  1.00  0.00    -0.027 A 
HETATM   18  C   UNL     1      -9.794   4.669 -33.598  1.00  0.00    -0.054 A 
HETATM   19  C   UNL     1     -10.498   4.236 -34.736  1.00  0.00     0.014 A 
HETATM   20  C   UNL     1      -8.561   5.511 -33.804  1.00  0.00     0.049 C 
HETATM   21  C   UNL     1     -11.670   3.481 -34.623  1.00  0.00    -0.061 A 
HETATM   22  C   UNL     1     -12.422   3.038 -35.845  1.00  0.00     0.048 C 
HETATM   23  C   UNL     1     -12.139   3.143 -33.354  1.00  0.00     0.007 A 
HETATM   24  C   UNL     1     -11.454   3.564 -32.213  1.00  0.00     0.010 A 
ENDBRANCH  16  17
ENDBRANCH  12  16
ENDBRANCH   1   9
BRANCH   1  25
HETATM   25  C   UNL     1      -5.737   1.129 -33.215  1.00  0.00     0.067 A 
HETATM   26  N   UNL     1      -6.577   1.398 -34.261  1.00  0.00    -0.263 NA
HETATM   27  C   UNL     1      -6.931   0.364 -35.061  1.00  0.00     0.117 A 
HETATM   28  C   UNL     1      -6.512  -0.937 -34.862  1.00  0.00     0.019 A 
HETATM   29  C   UNL     1      -5.683  -1.201 -33.779  1.00  0.00     0.003 A 
HETATM   30  C   UNL     1      -5.292  -0.161 -32.939  1.00  0.00     0.030 A 
ENDBRANCH   1  25
BRANCH   5  31
HETATM   31  C   UNL     1      -2.200   4.260 -33.120  1.00  0.00     0.168 C 
BRANCH  31  32
HETATM   32  C   UNL     1      -1.762   5.139 -31.944  1.00  0.00     0.140 C 
HETATM   33  O   UNL     1      -0.969   4.385 -30.996  1.00  0.00    -0.384 OA
HETATM   34  C   UNL     1       0.043   5.267 -30.473  1.00  0.00     0.168 C 
HETATM   35  C   UNL     1      -0.195   6.639 -31.070  1.00  0.00     0.029 C 
HETATM   36  C   UNL     1      -0.889   6.308 -32.368  1.00  0.00     0.036 C 
ENDBRANCH  31  32
ENDBRANCH   5  31
TORSDOF 6
ENDMDL
MODEL 6
REMARK VINA RESULT:      -9.0      1.267      2.005
REMARK  6 active torsions:
REMARK  status: ('A' for Active; 'I' for Inactive)
REMARK    1  A    between atoms: C_6  and  C_7 
REMARK    2  A    between atoms: C_7  and  N_8 
REMARK    3  A    between atoms: C_12  and  C_13 
REMARK    4  A    between atoms: C_13  and  C_14 
REMARK    5  A    between atoms: N_23  and  C_24 
REMARK    6  A    between atoms: C_24  and  C_25 
ROOT
HETATM    1  C   UNL     1      -6.950   1.721 -32.396  1.00  0.00     0.149 C 
HETATM    2  N   UNL     1      -7.315   2.683 -33.427  1.00  0.00    -0.220 NA
HETATM    3  C   UNL     1      -6.417   3.725 -33.476  1.00  0.00     0.304 C 
HETATM    4  O   UNL     1      -6.375   4.515 -34.403  1.00  0.00    -0.253 OA
HETATM    5  N   UNL     1      -5.635   3.689 -32.370  1.00  0.00    -0.270 N 
HETATM    6  C   UNL     1      -5.814   2.509 -31.707  1.00  0.00     0.257 C 
HETATM    7  O   UNL     1      -5.206   2.137 -30.711  1.00  0.00    -0.270 OA
HETATM    8  H   UNL     1      -7.539   2.314 -34.350  1.00  0.00     0.134 HD
ENDROOT
BRANCH   1   9
HETATM    9  C   UNL     1      -8.120   1.427 -31.400  1.00  0.00     0.028 C 
HETATM   10  C   UNL     1      -9.139   0.379 -31.893  1.00  0.00     0.035 C 
HETATM   11  C   UNL     1     -10.108   0.899 -32.948  1.00  0.00     0.235 C 
HETATM   12  N   UNL     1     -10.815   2.136 -32.446  1.00  0.00    -0.067 N 
HETATM   13  H   UNL     1     -11.393   1.845 -31.650  1.00  0.00     0.280 HD
HETATM   14  C   UNL     1      -9.880   3.220 -31.969  1.00  0.00     0.235 C 
HETATM   15  C   UNL     1      -8.913   2.668 -30.933  1.00  0.00     0.035 C 
BRANCH  12  16
HETATM   16  C   UNL     1     -11.775   2.705 -33.480  1.00  0.00     0.273 C 
BRANCH  16  17
HETATM   17  C   UNL     1     -13.226   2.640 -33.073  1.00  0.00    -0.027 A 
HETATM   18  C   UNL     1     -14.052   1.539 -33.382  1.00  0.00    -0.054 A 
HETATM   19  C   UNL     1     -15.399   1.555 -32.978  1.00  0.00     0.014 A 
HETATM   20  C   UNL     1     -13.559   0.349 -34.163  1.00  0.00     0.049 C 
HETATM   21  C   UNL     1     -15.938   2.641 -32.281  1.00  0.00    -0.061 A 
HETATM   22  C   UNL     1     -17.382   2.653 -31.869  1.00  0.00     0.048 C 
HETATM   23  C   UNL     1     -15.114   3.723 -31.971  1.00  0.00     0.007 A 
HETATM   24  C   UNL     1     -13.775   3.726 -32.364  1.00  0.00     0.010 A 
ENDBRANCH  16  17
ENDBRANCH  12  16
ENDBRANCH   1   9
BRANCH   1  25
HETATM   25  C   UNL     1      -6.442   0.450 -33.078  1.00  0.00     0.067 A 
HETATM   26  N   UNL     1      -6.901   0.251 -34.351  1.00  0.00    -0.263 NA
HETATM   27  C   UNL     1      -6.475  -0.855 -35.006  1.00  0.00     0.117 A 
HETATM   28  C   UNL     1      -5.631  -1.796 -34.450  1.00  0.00     0.019 A 
HETATM   29  C   UNL     1      -5.195  -1.597 -33.145  1.00  0.00     0.003 A 
HETATM   30  C   UNL     1      -5.607  -0.466 -32.444  1.00  0.00     0.030 A 
ENDBRANCH   1  25
BRANCH   5  31
HETATM   31  C   UNL     1      -4.633   4.687 -32.034  1.00  0.00     0.168 C 
BRANCH  31  32
HETATM   32  C   UNL     1      -5.063   5.572 -30.858  1.00  0.00     0.140 C 
HETATM   33  O   UNL     1      -4.436   6.873 -30.929  1.00  0.00    -0.384 OA
HETATM   34  C   UNL     1      -5.385   7.844 -30.445  1.00  0.00     0.168 C 
HETATM   35  C   UNL     1      -6.615   7.088 -29.987  1.00  0.00     0.029 C 
HETATM   36  C   UNL     1      -6.559   5.840 -30.831  1.00  0.00     0.036 C 
ENDBRANCH  31  32
ENDBRANCH   5  31
TORSDOF 6
ENDMDL
MODEL 7
REMARK VINA RESULT:      -8.9      2.534      8.697
REMARK  6 active torsions:
REMARK  status: ('A' for Active; 'I' for Inactive)
REMARK    1  A    between atoms: C_6  and  C_7 
REMARK    2  A    between atoms: C_7  and  N_8 
REMARK    3  A    between atoms: C_12  and  C_13 
REMARK    4  A    between atoms: C_13  and  C_14 
REMARK    5  A    between atoms: N_23  and  C_24 
REMARK    6  A    between atoms: C_24  and  C_25 
ROOT
HETATM    1  C   UNL     1      -8.467   2.398 -33.023  1.00  0.00     0.149 C 
HETATM    2  N   UNL     1      -7.698   2.368 -34.260  1.00  0.00    -0.220 NA
HETATM    3  C   UNL     1      -7.443   1.074 -34.656  1.00  0.00     0.304 C 
HETATM    4  O   UNL     1      -7.034   0.795 -35.769  1.00  0.00    -0.253 OA
HETATM    5  N   UNL     1      -7.732   0.232 -33.634  1.00  0.00    -0.270 N 
HETATM    6  C   UNL     1      -8.412   0.899 -32.655  1.00  0.00     0.257 C 
HETATM    7  O   UNL     1      -8.878   0.409 -31.634  1.00  0.00    -0.270 OA
HETATM    8  H   UNL     1      -8.024   2.955 -35.026  1.00  0.00     0.134 HD
ENDROOT
BRANCH   1   9
HETATM    9  C   UNL     1      -7.799   3.277 -31.916  1.00  0.00     0.028 C 
HETATM   10  C   UNL     1      -7.151   4.579 -32.429  1.00  0.00     0.035 C 
HETATM   11  C   UNL     1      -5.815   4.375 -33.135  1.00  0.00     0.235 C 
HETATM   12  N   UNL     1      -4.860   3.619 -32.242  1.00  0.00    -0.067 N 
HETATM   13  H   UNL     1      -4.664   4.225 -31.437  1.00  0.00     0.280 HD
HETATM   14  C   UNL     1      -5.417   2.318 -31.719  1.00  0.00     0.235 C 
HETATM   15  C   UNL     1      -6.756   2.549 -31.038  1.00  0.00     0.035 C 
BRANCH  12  16
HETATM   16  C   UNL     1      -3.520   3.370 -32.919  1.00  0.00     0.273 C 
BRANCH  16  17
HETATM   17  C   UNL     1      -2.439   4.340 -32.516  1.00  0.00    -0.027 A 
HETATM   18  C   UNL     1      -1.772   5.162 -33.449  1.00  0.00    -0.054 A 
HETATM   19  C   UNL     1      -0.765   6.036 -33.000  1.00  0.00     0.014 A 
HETATM   20  C   UNL     1      -2.071   5.122 -34.925  1.00  0.00     0.049 C 
HETATM   21  C   UNL     1      -0.408   6.103 -31.650  1.00  0.00    -0.061 A 
HETATM   22  C   UNL     1       0.680   7.028 -31.185  1.00  0.00     0.048 C 
HETATM   23  C   UNL     1      -1.076   5.293 -30.731  1.00  0.00     0.007 A 
HETATM   24  C   UNL     1      -2.078   4.420 -31.157  1.00  0.00     0.010 A 
ENDBRANCH  16  17
ENDBRANCH  12  16
ENDBRANCH   1   9
BRANCH   1  25
HETATM   25  C   UNL     1      -9.888   2.862 -33.348  1.00  0.00     0.067 A 
HETATM   26  N   UNL     1     -10.118   3.148 -34.665  1.00  0.00    -0.263 NA
HETATM   27  C   UNL     1     -11.363   3.555 -35.010  1.00  0.00     0.117 A 
HETATM   28  C   UNL     1     -12.392   3.720 -34.104  1.00  0.00     0.019 A 
HETATM   29  C   UNL     1     -12.137   3.455 -32.764  1.00  0.00     0.003 A 
HETATM   30  C   UNL     1     -10.870   3.027 -32.375  1.00  0.00     0.030 A 
ENDBRANCH   1  25
BRANCH   5  31
HETATM   31  C   UNL     1      -7.501  -1.203 -33.656  1.00  0.00     0.168 C 
BRANCH  31  32
HETATM   32  C   UNL     1      -6.094  -1.559 -34.149  1.00  0.00     0.140 C 
HETATM   33  O   UNL     1      -5.133  -1.502 -33.069  1.00  0.00    -0.384 OA
HETATM   34  C   UNL     1      -4.170  -2.551 -33.285  1.00  0.00     0.168 C 
HETATM   35  C   UNL     1      -4.517  -3.226 -34.596  1.00  0.00     0.029 C 
HETATM   36  C   UNL     1      -5.999  -2.969 -34.707  1.00  0.00     0.036 C 
ENDBRANCH  31  32
ENDBRANCH   5  31
TORSDOF 6
ENDMDL
MODEL 8
REMARK VINA RESULT:      -8.7      4.625      7.770
REMARK  6 active torsions:
REMARK  status: ('A' for Active; 'I' for Inactive)
REMARK    1  A    between atoms: C_6  and  C_7 
REMARK    2  A    between atoms: C_7  and  N_8 
REMARK    3  A    between atoms: C_12  and  C_13 
REMARK    4  A    between atoms: C_13  and  C_14 
REMARK    5  A    between atoms: N_23  and  C_24 
REMARK    6  A    between atoms: C_24  and  C_25 
ROOT
HETATM    1  C   UNL     1      -4.504   4.989 -31.836  1.00  0.00     0.149 C 
HETATM    2  N   UNL     1      -5.258   4.552 -33.002  1.00  0.00    -0.220 NA
HETATM    3  C   UNL     1      -6.445   5.241 -33.114  1.00  0.00     0.304 C 
HETATM    4  O   UNL     1      -7.123   5.224 -34.126  1.00  0.00    -0.253 OA
HETATM    5  N   UNL     1      -6.683   5.905 -31.957  1.00  0.00    -0.270 N 
HETATM    6  C   UNL     1      -5.569   5.886 -31.168  1.00  0.00     0.257 C 
HETATM    7  O   UNL     1      -5.433   6.454 -30.091  1.00  0.00    -0.270 OA
HETATM    8  H   UNL     1      -4.756   4.491 -33.887  1.00  0.00     0.134 HD
ENDROOT
BRANCH   1   9
HETATM    9  C   UNL     1      -4.095   3.804 -30.901  1.00  0.00     0.028 C 
HETATM   10  C   UNL     1      -3.255   2.704 -31.582  1.00  0.00     0.035 C 
HETATM   11  C   UNL     1      -4.059   1.774 -32.483  1.00  0.00     0.235 C 
HETATM   12  N   UNL     1      -5.211   1.169 -31.717  1.00  0.00    -0.067 N 
HETATM   13  H   UNL     1      -4.802   0.572 -30.988  1.00  0.00     0.280 HD
HETATM   14  C   UNL     1      -6.095   2.187 -31.041  1.00  0.00     0.235 C 
HETATM   15  C   UNL     1      -5.264   3.112 -30.165  1.00  0.00     0.035 C 
BRANCH  12  16
HETATM   16  C   UNL     1      -6.057   0.251 -32.588  1.00  0.00     0.273 C 
BRANCH  16  17
HETATM   17  C   UNL     1      -5.366  -1.028 -32.986  1.00  0.00    -0.027 A 
HETATM   18  C   UNL     1      -5.703  -1.740 -34.157  1.00  0.00    -0.054 A 
HETATM   19  C   UNL     1      -5.022  -2.934 -34.457  1.00  0.00     0.014 A 
HETATM   20  C   UNL     1      -6.795  -1.292 -35.092  1.00  0.00     0.049 C 
HETATM   21  C   UNL     1      -4.020  -3.431 -33.617  1.00  0.00    -0.061 A 
HETATM   22  C   UNL     1      -3.311  -4.714 -33.940  1.00  0.00     0.048 C 
HETATM   23  C   UNL     1      -3.686  -2.719 -32.465  1.00  0.00     0.007 A 
HETATM   24  C   UNL     1      -4.351  -1.533 -32.150  1.00  0.00     0.010 A 
ENDBRANCH  16  17
ENDBRANCH  12  16
ENDBRANCH   1   9
BRANCH   1  25
HETATM   25  C   UNL     1      -3.291   5.789 -32.315  1.00  0.00     0.067 A 
HETATM   26  N   UNL     1      -3.271   6.065 -33.655  1.00  0.00    -0.263 NA
HETATM   27  C   UNL     1      -2.224   6.779 -34.131  1.00  0.00     0.117 A 
HETATM   28  C   UNL     1      -1.174   7.215 -33.347  1.00  0.00     0.019 A 
HETATM   29  C   UNL     1      -1.192   6.902 -31.993  1.00  0.00     0.003 A 
HETATM   30  C   UNL     1      -2.257   6.175 -31.467  1.00  0.00     0.030 A 
ENDBRANCH   1  25
BRANCH   5  31
HETATM   31  C   UNL     1      -7.889   6.666 -31.674  1.00  0.00     0.168 C 
BRANCH  31  32
HETATM   32  C   UNL     1      -7.748   8.143 -32.059  1.00  0.00     0.140 C 
HETATM   33  O   UNL     1      -8.930   8.617 -32.747  1.00  0.00    -0.384 OA
HETATM   34  C   UNL     1      -9.150   9.984 -32.348  1.00  0.00     0.168 C 
HETATM   35  C   UNL     1      -8.007  10.383 -31.438  1.00  0.00     0.029 C 
HETATM   36  C   UNL     1      -7.582   9.058 -30.857  1.00  0.00     0.036 C 
ENDBRANCH  31  32
ENDBRANCH   5  31
TORSDOF 6
ENDMDL
MODEL 9
REMARK VINA RESULT:      -8.6      3.867      5.440
REMARK  6 active torsions:
REMARK  status: ('A' for Active; 'I' for Inactive)
REMARK    1  A    between atoms: C_6  and  C_7 
REMARK    2  A    between atoms: C_7  and  N_8 
REMARK    3  A    between atoms: C_12  and  C_13 
REMARK    4  A    between atoms: C_13  and  C_14 
REMARK    5  A    between atoms: N_23  and  C_24 
REMARK    6  A    between atoms: C_24  and  C_25 
ROOT
HETATM    1  C   UNL     1      -5.380   2.215 -32.345  1.00  0.00     0.149 C 
HETATM    2  N   UNL     1      -5.853   3.484 -32.879  1.00  0.00    -0.220 NA
HETATM    3  C   UNL     1      -4.811   4.236 -33.373  1.00  0.00     0.304 C 
HETATM    4  O   UNL     1      -4.982   5.214 -34.079  1.00  0.00    -0.253 OA
HETATM    5  N   UNL     1      -3.639   3.698 -32.955  1.00  0.00    -0.270 N 
HETATM    6  C   UNL     1      -3.857   2.466 -32.408  1.00  0.00     0.257 C 
HETATM    7  O   UNL     1      -3.000   1.691 -32.003  1.00  0.00    -0.270 OA
HETATM    8  H   UNL     1      -6.650   3.455 -33.513  1.00  0.00     0.134 HD
ENDROOT
BRANCH   1   9
HETATM    9  C   UNL     1      -5.850   1.962 -30.874  1.00  0.00     0.028 C 
HETATM   10  C   UNL     1      -7.352   1.649 -30.723  1.00  0.00     0.035 C 
HETATM   11  C   UNL     1      -8.260   2.867 -30.851  1.00  0.00     0.235 C 
HETATM   12  N   UNL     1      -7.837   3.941 -29.878  1.00  0.00    -0.067 N 
HETATM   13  H   UNL     1      -7.999   3.567 -28.935  1.00  0.00     0.280 HD
HETATM   14  C   UNL     1      -6.381   4.320 -29.983  1.00  0.00     0.235 C 
HETATM   15  C   UNL     1      -5.502   3.084 -29.871  1.00  0.00     0.035 C 
BRANCH  12  16
HETATM   16  C   UNL     1      -8.702   5.188 -29.990  1.00  0.00     0.273 C 
BRANCH  16  17
HETATM   17  C   UNL     1      -7.935   6.439 -30.334  1.00  0.00    -0.027 A 
HETATM   18  C   UNL     1      -7.739   6.867 -31.665  1.00  0.00    -0.054 A 
HETATM   19  C   UNL     1      -7.002   8.040 -31.909  1.00  0.00     0.014 A 
HETATM   20  C   UNL     1      -8.260   6.097 -32.850  1.00  0.00     0.049 C 
HETATM   21  C   UNL     1      -6.456   8.788 -30.861  1.00  0.00    -0.061 A 
HETATM   22  C   UNL     1      -5.658  10.030 -31.136  1.00  0.00     0.048 C 
HETATM   23  C   UNL     1      -6.660   8.365 -29.548  1.00  0.00     0.007 A 
HETATM   24  C   UNL     1      -7.388   7.204 -29.285  1.00  0.00     0.010 A 
ENDBRANCH  16  17
ENDBRANCH  12  16
ENDBRANCH   1   9
BRANCH   1  25
HETATM   25  C   UNL     1      -5.822   1.096 -33.290  1.00  0.00     0.067 A 
HETATM   26  N   UNL     1      -6.662   1.486 -34.297  1.00  0.00    -0.263 NA
HETATM   27  C   UNL     1      -7.078   0.537 -35.169  1.00  0.00     0.117 A 
HETATM   28  C   UNL     1      -6.721  -0.794 -35.079  1.00  0.00     0.019 A 
HETATM   29  C   UNL     1      -5.890  -1.182 -34.034  1.00  0.00     0.003 A 
HETATM   30  C   UNL     1      -5.437  -0.231 -33.123  1.00  0.00     0.030 A 
ENDBRANCH   1  25
BRANCH   5  31
HETATM   31  C   UNL     1      -2.329   4.276 -33.206  1.00  0.00     0.168 C 
BRANCH  31  32
HETATM   32  C   UNL     1      -1.847   5.152 -32.044  1.00  0.00     0.140 C 
HETATM   33  O   UNL     1      -1.071   4.380 -31.098  1.00  0.00    -0.384 OA
HETATM   34  C   UNL     1      -0.022   5.231 -30.595  1.00  0.00     0.168 C 
HETATM   35  C   UNL     1      -0.218   6.604 -31.205  1.00  0.00     0.029 C 
HETATM   36  C   UNL     1      -0.938   6.285 -32.491  1.00  0.00     0.036 C 
ENDBRANCH  31  32
ENDBRANCH   5  31
TORSDOF 6
ENDMDL
MODEL 10
REMARK VINA RESULT:      -8.5      4.569      7.675
REMARK  6 active torsions:
REMARK  status: ('A' for Active; 'I' for Inactive)
REMARK    1  A    between atoms: C_6  and  C_7 
REMARK    2  A    between atoms: C_7  and  N_8 
REMARK    3  A    between atoms: C_12  and  C_13 
REMARK    4  A    between atoms: C_13  and  C_14 
REMARK    5  A    between atoms: N_23  and  C_24 
REMARK    6  A    between atoms: C_24  and  C_25 
ROOT
HETATM    1  C   UNL     1      -4.699   6.844 -29.964  1.00  0.00     0.149 C 
HETATM    2  N   UNL     1      -3.648   5.837 -29.914  1.00  0.00    -0.220 NA
HETATM    3  C   UNL     1      -2.550   6.228 -30.647  1.00  0.00     0.304 C 
HETATM    4  O   UNL     1      -1.469   5.673 -30.560  1.00  0.00    -0.253 OA
HETATM    5  N   UNL     1      -2.888   7.287 -31.422  1.00  0.00    -0.270 N 
HETATM    6  C   UNL     1      -4.105   7.777 -31.042  1.00  0.00     0.257 C 
HETATM    7  O   UNL     1      -4.660   8.771 -31.493  1.00  0.00    -0.270 OA
HETATM    8  H   UNL     1      -3.396   5.471 -28.997  1.00  0.00     0.134 HD
ENDROOT
BRANCH   1   9
HETATM    9  C   UNL     1      -6.077   6.259 -30.419  1.00  0.00     0.028 C 
HETATM   10  C   UNL     1      -6.858   5.515 -29.317  1.00  0.00     0.035 C 
HETATM   11  C   UNL     1      -6.321   4.123 -29.002  1.00  0.00     0.235 C 
HETATM   12  N   UNL     1      -6.250   3.292 -30.261  1.00  0.00    -0.067 N 
HETATM   13  H   UNL     1      -7.216   3.156 -30.582  1.00  0.00     0.280 HD
HETATM   14  C   UNL     1      -5.478   3.946 -31.380  1.00  0.00     0.235 C 
HETATM   15  C   UNL     1      -6.023   5.338 -31.658  1.00  0.00     0.035 C 
BRANCH  12  16
HETATM   16  C   UNL     1      -5.693   1.900 -29.997  1.00  0.00     0.273 C 
BRANCH  16  17
HETATM   17  C   UNL     1      -5.968   0.909 -31.099  1.00  0.00    -0.027 A 
HETATM   18  C   UNL     1      -4.976   0.042 -31.604  1.00  0.00    -0.054 A 
HETATM   19  C   UNL     1      -5.305  -0.850 -32.642  1.00  0.00     0.014 A 
HETATM   20  C   UNL     1      -3.557   0.051 -31.099  1.00  0.00     0.049 C 
HETATM   21  C   UNL     1      -6.592  -0.891 -33.186  1.00  0.00    -0.061 A 
HETATM   22  C   UNL     1      -6.926  -1.835 -34.305  1.00  0.00     0.048 C 
HETATM   23  C   UNL     1      -7.571  -0.036 -32.678  1.00  0.00     0.007 A 
HETATM   24  C   UNL     1      -7.264   0.855 -31.649  1.00  0.00     0.010 A 
ENDBRANCH  16  17
ENDBRANCH  12  16
ENDBRANCH   1   9
BRANCH   1  25
HETATM   25  C   UNL     1      -4.786   7.521 -28.595  1.00  0.00     0.067 A 
HETATM   26  N   UNL     1      -5.569   8.643 -28.552  1.00  0.00    -0.263 NA
HETATM   27  C   UNL     1      -5.688   9.277 -27.362  1.00  0.00     0.117 A 
HETATM   28  C   UNL     1      -5.047   8.869 -26.208  1.00  0.00     0.019 A 
HETATM   29  C   UNL     1      -4.231   7.746 -26.273  1.00  0.00     0.003 A 
HETATM   30  C   UNL     1      -4.091   7.064 -27.479  1.00  0.00     0.030 A 
ENDBRANCH   1  25
BRANCH   5  31
HETATM   31  C   UNL     1      -2.010   7.911 -32.397  1.00  0.00     0.168 C 
BRANCH  31  32
HETATM   32  C   UNL     1      -2.098   7.241 -33.773  1.00  0.00     0.140 C 
HETATM   33  O   UNL     1      -0.832   6.648 -34.145  1.00  0.00    -0.384 OA
HETATM   34  C   UNL     1      -1.113   5.435 -34.870  1.00  0.00     0.168 C 
HETATM   35  C   UNL     1      -2.617   5.327 -35.012  1.00  0.00     0.029 C 
HETATM   36  C   UNL     1      -3.109   6.108 -33.819  1.00  0.00     0.036 C 
ENDBRANCH  31  32
ENDBRANCH   5  31
TORSDOF 6
ENDMDL
