MODEL 1
REMARK VINA RESULT:      -9.5      0.000      0.000
REMARK  6 active torsions:
REMARK  status: ('A' for Active; 'I' for Inactive)
REMARK    1  A    between atoms: C_2  and  C_3 
REMARK    2  A    between atoms: C_3  and  C_4 
REMARK       I    between atoms: C_4  and  N_5 
REMARK    3  A    between atoms: N_5  and  C_6 
REMARK    4  A    between atoms: C_8  and  C_9 
REMARK    5  A    between atoms: C_9  and  N_10 
REMARK       I    between atoms: N_10  and  C_11 
REMARK    6  A    between atoms: C_11  and  C_12 
ROOT
HETATM    1  C   UNL     1      -4.174   3.099 -32.608  1.00  0.00     0.161 C 
ENDROOT
BRANCH   1   2
HETATM    2  C   UNL     1      -3.003   4.042 -32.557  1.00  0.00    -0.038 A 
HETATM    3  C   UNL     1      -2.526   4.505 -31.317  1.00  0.00     0.038 A 
HETATM    4  C   UNL     1      -1.427   5.363 -31.245  1.00  0.00     0.035 A 
HETATM    5  C   UNL     1      -0.804   5.764 -32.433  1.00  0.00     0.029 A 
HETATM    6  C   UNL     1      -1.285   5.333 -33.671  1.00  0.00     0.003 A 
HETATM    7  C   UNL     1      -2.384   4.479 -33.733  1.00  0.00     0.009 A 
BRANCH   4   8
HETATM    8  N   UNL     1      -0.881   5.846 -30.036  1.00  0.00    -0.327 N 
HETATM    9  C   UNL     1       0.289   5.442 -29.421  1.00  0.00     0.226 C 
HETATM   10  O   UNL     1       1.047   4.560 -29.816  1.00  0.00    -0.273 OA
HETATM   11  H   UNL     1      -1.441   6.534 -29.553  1.00  0.00     0.169 HD
BRANCH   9  12
HETATM   12  C   UNL     1       0.626   6.216 -28.143  1.00  0.00     0.074 C 
HETATM   13  C   UNL     1       0.934   7.673 -28.487  1.00  0.00     0.020 C 
BRANCH  12  14
HETATM   14  C   UNL     1      -0.457   6.126 -27.057  1.00  0.00     0.009 C 
HETATM   15  C   UNL     1      -0.839   7.486 -26.486  1.00  0.00     0.006 C 
ENDBRANCH  12  14
ENDBRANCH   9  12
ENDBRANCH   4   8
ENDBRANCH   1   2
BRANCH   1  16
HETATM   16  N   UNL     1      -3.791   1.756 -32.275  1.00  0.00    -0.351 N 
HETATM   17  C   UNL     1      -4.569   0.680 -32.642  1.00  0.00     0.273 C 
HETATM   18  O   UNL     1      -5.684   0.802 -33.141  1.00  0.00    -0.266 OA
HETATM   19  H   UNL     1      -2.843   1.538 -31.980  1.00  0.00     0.163 HD
BRANCH  17  20
HETATM   20  C   UNL     1      -3.923  -0.620 -32.403  1.00  0.00     0.157 A 
HETATM   21  N   UNL     1      -2.915  -0.756 -31.514  1.00  0.00    -0.168 NA
HETATM   22  N   UNL     1      -2.595  -2.060 -31.589  1.00  0.00    -0.277 N 
HETATM   23  H   UNL     1      -1.847  -2.404 -30.999  1.00  0.00     0.189 HD
HETATM   24  C   UNL     1      -3.337  -2.776 -32.486  1.00  0.00     0.063 A 
HETATM   25  C   UNL     1      -4.222  -1.860 -33.041  1.00  0.00     0.029 A 
HETATM   26  C   UNL     1      -3.302  -4.123 -32.853  1.00  0.00     0.032 A 
HETATM   27  C   UNL     1      -5.129  -2.304 -34.024  1.00  0.00     0.023 A 
HETATM   28  C   UNL     1      -5.118  -3.653 -34.420  1.00  0.00    -0.061 A 
HETATM   29  C   UNL     1      -4.210  -4.544 -33.834  1.00  0.00     0.009 A 
HETATM   30  C   UNL     1      -6.077  -4.117 -35.478  1.00  0.00     0.048 C 
ENDBRANCH  17  20
ENDBRANCH   1  16
TORSDOF 6
ENDMDL
MODEL 2
REMARK VINA RESULT:      -9.3      1.606      2.136
REMARK  6 active torsions:
REMARK  status: ('A' for Active; 'I' for Inactive)
REMARK    1  A    between atoms: C_2  and  C_3 
REMARK    2  A    between atoms: C_3  and  C_4 
REMARK       I    between atoms: C_4  and  N_5 
REMARK    3  A    between atoms: N_5  and  C_6 
REMARK    4  A    between atoms: C_8  and  C_9 
REMARK    5  A    between atoms: C_9  and  N_10 
REMARK       I    between atoms: N_10  and  C_11 
REMARK    6  A    between atoms: C_11  and  C_12 
ROOT
HETATM    1  C   UNL     1      -5.671   2.966 -32.583  1.00  0.00     0.161 C 
ENDROOT
BRANCH   1   2
HETATM    2  C   UNL     1      -4.655   3.874 -33.219  1.00  0.00    -0.038 A 
HETATM    3  C   UNL     1      -3.468   4.191 -32.533  1.00  0.00     0.038 A 
HETATM    4  C   UNL     1      -2.501   5.014 -33.114  1.00  0.00     0.035 A 
HETATM    5  C   UNL     1      -2.733   5.528 -34.396  1.00  0.00     0.029 A 
HETATM    6  C   UNL     1      -3.920   5.242 -35.075  1.00  0.00     0.003 A 
HETATM    7  C   UNL     1      -4.880   4.422 -34.487  1.00  0.00     0.009 A 
BRANCH   4   8
HETATM    8  N   UNL     1      -1.279   5.354 -32.496  1.00  0.00    -0.327 N 
HETATM    9  C   UNL     1      -1.020   6.445 -31.687  1.00  0.00     0.226 C 
HETATM   10  O   UNL     1      -1.816   7.331 -31.391  1.00  0.00    -0.273 OA
HETATM   11  H   UNL     1      -0.501   4.745 -32.711  1.00  0.00     0.169 HD
BRANCH   9  12
HETATM   12  C   UNL     1       0.404   6.486 -31.125  1.00  0.00     0.074 C 
HETATM   13  C   UNL     1       0.434   7.330 -29.852  1.00  0.00     0.020 C 
BRANCH  12  14
HETATM   14  C   UNL     1       1.015   5.098 -30.877  1.00  0.00     0.009 C 
HETATM   15  C   UNL     1       0.931   4.665 -29.419  1.00  0.00     0.006 C 
ENDBRANCH  12  14
ENDBRANCH   9  12
ENDBRANCH   4   8
ENDBRANCH   1   2
BRANCH   1  16
HETATM   16  N   UNL     1      -5.118   1.675 -32.282  1.00  0.00    -0.351 N 
HETATM   17  C   UNL     1      -5.278   0.612 -33.143  1.00  0.00     0.273 C 
HETATM   18  O   UNL     1      -6.007   0.656 -34.130  1.00  0.00    -0.266 OA
HETATM   19  H   UNL     1      -4.404   1.564 -31.567  1.00  0.00     0.163 HD
BRANCH  17  20
HETATM   20  C   UNL     1      -4.474  -0.565 -32.779  1.00  0.00     0.157 A 
HETATM   21  N   UNL     1      -3.476  -0.487 -31.871  1.00  0.00    -0.168 NA
HETATM   22  N   UNL     1      -2.987  -1.738 -31.823  1.00  0.00    -0.277 N 
HETATM   23  H   UNL     1      -2.214  -1.926 -31.196  1.00  0.00     0.189 HD
HETATM   24  C   UNL     1      -3.610  -2.623 -32.657  1.00  0.00     0.063 A 
HETATM   25  C   UNL     1      -4.595  -1.886 -33.302  1.00  0.00     0.029 A 
HETATM   26  C   UNL     1      -3.392  -3.982 -32.898  1.00  0.00     0.032 A 
HETATM   27  C   UNL     1      -5.415  -2.533 -34.249  1.00  0.00     0.023 A 
HETATM   28  C   UNL     1      -5.219  -3.899 -34.519  1.00  0.00    -0.061 A 
HETATM   29  C   UNL     1      -4.216  -4.605 -33.844  1.00  0.00     0.009 A 
HETATM   30  C   UNL     1      -6.087  -4.578 -35.538  1.00  0.00     0.048 C 
ENDBRANCH  17  20
ENDBRANCH   1  16
TORSDOF 6
ENDMDL
MODEL 3
REMARK VINA RESULT:      -9.2      1.994      9.818
REMARK  6 active torsions:
REMARK  status: ('A' for Active; 'I' for Inactive)
REMARK    1  A    between atoms: C_2  and  C_3 
REMARK    2  A    between atoms: C_3  and  C_4 
REMARK       I    between atoms: C_4  and  N_5 
REMARK    3  A    between atoms: N_5  and  C_6 
REMARK    4  A    between atoms: C_8  and  C_9 
REMARK    5  A    between atoms: C_9  and  N_10 
REMARK       I    between atoms: N_10  and  C_11 
REMARK    6  A    between atoms: C_11  and  C_12 
ROOT
HETATM    1  C   UNL     1      -3.821   3.800 -31.985  1.00  0.00     0.161 C 
ENDROOT
BRANCH   1   2
HETATM    2  C   UNL     1      -4.472   2.481 -31.668  1.00  0.00    -0.038 A 
HETATM    3  C   UNL     1      -4.484   1.453 -32.628  1.00  0.00     0.038 A 
HETATM    4  C   UNL     1      -5.062   0.214 -32.346  1.00  0.00     0.035 A 
HETATM    5  C   UNL     1      -5.639   0.008 -31.087  1.00  0.00     0.029 A 
HETATM    6  C   UNL     1      -5.657   1.030 -30.135  1.00  0.00     0.003 A 
HETATM    7  C   UNL     1      -5.079   2.264 -30.426  1.00  0.00     0.009 A 
BRANCH   4   8
HETATM    8  N   UNL     1      -5.089  -0.868 -33.252  1.00  0.00    -0.327 N 
HETATM    9  C   UNL     1      -4.279  -1.988 -33.249  1.00  0.00     0.226 C 
HETATM   10  O   UNL     1      -3.366  -2.218 -32.460  1.00  0.00    -0.273 OA
HETATM   11  H   UNL     1      -5.752  -0.782 -34.010  1.00  0.00     0.169 HD
BRANCH   9  12
HETATM   12  C   UNL     1      -4.613  -3.007 -34.341  1.00  0.00     0.074 C 
HETATM   13  C   UNL     1      -3.996  -4.361 -33.992  1.00  0.00     0.020 C 
BRANCH  12  14
HETATM   14  C   UNL     1      -6.116  -3.147 -34.624  1.00  0.00     0.009 C 
HETATM   15  C   UNL     1      -6.475  -4.469 -35.290  1.00  0.00     0.006 C 
ENDBRANCH  12  14
ENDBRANCH   9  12
ENDBRANCH   4   8
ENDBRANCH   1   2
BRANCH   1  16
HETATM   16  N   UNL     1      -2.702   4.063 -31.125  1.00  0.00    -0.351 N 
HETATM   17  C   UNL     1      -1.612   4.776 -31.571  1.00  0.00     0.273 C 
HETATM   18  O   UNL     1      -1.462   5.103 -32.745  1.00  0.00    -0.266 OA
HETATM   19  H   UNL     1      -2.776   3.949 -30.118  1.00  0.00     0.163 HD
BRANCH  17  20
HETATM   20  C   UNL     1      -0.662   5.127 -30.503  1.00  0.00     0.157 A 
HETATM   21  N   UNL     1       0.294   4.263 -30.095  1.00  0.00    -0.168 NA
HETATM   22  N   UNL     1       0.935   4.932 -29.120  1.00  0.00    -0.277 N 
HETATM   23  H   UNL     1       1.709   4.474 -28.654  1.00  0.00     0.189 HD
HETATM   24  C   UNL     1       0.441   6.181 -28.869  1.00  0.00     0.063 A 
HETATM   25  C   UNL     1      -0.611   6.344 -29.761  1.00  0.00     0.029 A 
HETATM   26  C   UNL     1       0.819   7.161 -27.948  1.00  0.00     0.032 A 
HETATM   27  C   UNL     1      -1.338   7.551 -29.740  1.00  0.00     0.023 A 
HETATM   28  C   UNL     1      -0.987   8.557 -28.822  1.00  0.00    -0.061 A 
HETATM   29  C   UNL     1       0.083   8.352 -27.941  1.00  0.00     0.009 A 
HETATM   30  C   UNL     1      -1.774   9.835 -28.794  1.00  0.00     0.048 C 
ENDBRANCH  17  20
ENDBRANCH   1  16
TORSDOF 6
ENDMDL
MODEL 4
REMARK VINA RESULT:      -8.9      2.505      3.241
REMARK  6 active torsions:
REMARK  status: ('A' for Active; 'I' for Inactive)
REMARK    1  A    between atoms: C_2  and  C_3 
REMARK    2  A    between atoms: C_3  and  C_4 
REMARK       I    between atoms: C_4  and  N_5 
REMARK    3  A    between atoms: N_5  and  C_6 
REMARK    4  A    between atoms: C_8  and  C_9 
REMARK    5  A    between atoms: C_9  and  N_10 
REMARK       I    between atoms: N_10  and  C_11 
REMARK    6  A    between atoms: C_11  and  C_12 
ROOT
HETATM    1  C   UNL     1      -5.540   5.224 -33.824  1.00  0.00     0.161 C 
ENDROOT
BRANCH   1   2
HETATM    2  C   UNL     1      -4.048   5.417 -33.846  1.00  0.00    -0.038 A 
HETATM    3  C   UNL     1      -3.392   5.960 -32.727  1.00  0.00     0.038 A 
HETATM    4  C   UNL     1      -2.006   6.127 -32.717  1.00  0.00     0.035 A 
HETATM    5  C   UNL     1      -1.272   5.748 -33.848  1.00  0.00     0.029 A 
HETATM    6  C   UNL     1      -1.916   5.233 -34.976  1.00  0.00     0.003 A 
HETATM    7  C   UNL     1      -3.300   5.072 -34.977  1.00  0.00     0.009 A 
BRANCH   4   8
HETATM    8  N   UNL     1      -1.281   6.641 -31.622  1.00  0.00    -0.327 N 
HETATM    9  C   UNL     1      -0.568   5.929 -30.675  1.00  0.00     0.226 C 
HETATM   10  O   UNL     1      -0.470   4.706 -30.613  1.00  0.00    -0.273 OA
HETATM   11  H   UNL     1      -1.331   7.643 -31.501  1.00  0.00     0.169 HD
BRANCH   9  12
HETATM   12  C   UNL     1       0.159   6.802 -29.648  1.00  0.00     0.074 C 
HETATM   13  C   UNL     1      -0.710   8.006 -29.285  1.00  0.00     0.020 C 
BRANCH  12  14
HETATM   14  C   UNL     1       0.598   6.043 -28.386  1.00  0.00     0.009 C 
HETATM   15  C   UNL     1       1.013   6.970 -27.251  1.00  0.00     0.006 C 
ENDBRANCH  12  14
ENDBRANCH   9  12
ENDBRANCH   4   8
ENDBRANCH   1   2
BRANCH   1  16
HETATM   16  N   UNL     1      -5.912   3.900 -34.234  1.00  0.00    -0.351 N 
HETATM   17  C   UNL     1      -6.399   2.983 -33.329  1.00  0.00     0.273 C 
HETATM   18  O   UNL     1      -6.412   3.183 -32.118  1.00  0.00    -0.266 OA
HETATM   19  H   UNL     1      -6.057   3.675 -35.215  1.00  0.00     0.163 HD
BRANCH  17  20
HETATM   20  C   UNL     1      -6.922   1.759 -33.956  1.00  0.00     0.157 A 
HETATM   21  N   UNL     1      -8.073   1.763 -34.664  1.00  0.00    -0.168 NA
HETATM   22  N   UNL     1      -8.213   0.484 -35.056  1.00  0.00    -0.277 N 
HETATM   23  H   UNL     1      -9.022   0.240 -35.613  1.00  0.00     0.189 HD
HETATM   24  C   UNL     1      -7.217  -0.351 -34.633  1.00  0.00     0.063 A 
HETATM   25  C   UNL     1      -6.349   0.454 -33.907  1.00  0.00     0.029 A 
HETATM   26  C   UNL     1      -7.013  -1.720 -34.821  1.00  0.00     0.032 A 
HETATM   27  C   UNL     1      -5.207  -0.133 -33.324  1.00  0.00     0.023 A 
HETATM   28  C   UNL     1      -4.974  -1.510 -33.489  1.00  0.00    -0.061 A 
HETATM   29  C   UNL     1      -5.874  -2.285 -34.232  1.00  0.00     0.009 A 
HETATM   30  C   UNL     1      -3.764  -2.132 -32.855  1.00  0.00     0.048 C 
ENDBRANCH  17  20
ENDBRANCH   1  16
TORSDOF 6
ENDMDL
MODEL 5
REMARK VINA RESULT:      -8.9      1.705      2.209
REMARK  6 active torsions:
REMARK  status: ('A' for Active; 'I' for Inactive)
REMARK    1  A    between atoms: C_2  and  C_3 
REMARK    2  A    between atoms: C_3  and  C_4 
REMARK       I    between atoms: C_4  and  N_5 
REMARK    3  A    between atoms: N_5  and  C_6 
REMARK    4  A    between atoms: C_8  and  C_9 
REMARK    5  A    between atoms: C_9  and  N_10 
REMARK       I    between atoms: N_10  and  C_11 
REMARK    6  A    between atoms: C_11  and  C_12 
ROOT
HETATM    1  C   UNL     1      -3.772   4.462 -32.613  1.00  0.00     0.161 C 
ENDROOT
BRANCH   1   2
HETATM    2  C   UNL     1      -2.608   5.370 -32.324  1.00  0.00    -0.038 A 
HETATM    3  C   UNL     1      -2.160   5.540 -31.002  1.00  0.00     0.038 A 
HETATM    4  C   UNL     1      -1.067   6.360 -30.714  1.00  0.00     0.035 A 
HETATM    5  C   UNL     1      -0.420   7.019 -31.767  1.00  0.00     0.029 A 
HETATM    6  C   UNL     1      -0.872   6.878 -33.081  1.00  0.00     0.003 A 
HETATM    7  C   UNL     1      -1.966   6.060 -33.358  1.00  0.00     0.009 A 
BRANCH   4   8
HETATM    8  N   UNL     1      -0.550   6.558 -29.416  1.00  0.00    -0.327 N 
HETATM    9  C   UNL     1      -1.102   7.310 -28.396  1.00  0.00     0.226 C 
HETATM   10  O   UNL     1      -2.138   7.966 -28.460  1.00  0.00    -0.273 OA
HETATM   11  H   UNL     1       0.349   6.131 -29.238  1.00  0.00     0.169 HD
BRANCH   9  12
HETATM   12  C   UNL     1      -0.311   7.266 -27.085  1.00  0.00     0.074 C 
HETATM   13  C   UNL     1      -0.694   6.017 -26.291  1.00  0.00     0.020 C 
BRANCH  12  14
HETATM   14  C   UNL     1       1.211   7.350 -27.273  1.00  0.00     0.009 C 
HETATM   15  C   UNL     1       1.696   8.764 -27.569  1.00  0.00     0.006 C 
ENDBRANCH  12  14
ENDBRANCH   9  12
ENDBRANCH   4   8
ENDBRANCH   1   2
BRANCH   1  16
HETATM   16  N   UNL     1      -3.404   3.078 -32.525  1.00  0.00    -0.351 N 
HETATM   17  C   UNL     1      -3.881   2.275 -31.513  1.00  0.00     0.273 C 
HETATM   18  O   UNL     1      -4.522   2.711 -30.561  1.00  0.00    -0.266 OA
HETATM   19  H   UNL     1      -2.988   2.594 -33.317  1.00  0.00     0.163 HD
BRANCH  17  20
HETATM   20  C   UNL     1      -3.571   0.849 -31.698  1.00  0.00     0.157 A 
HETATM   21  N   UNL     1      -2.532   0.263 -31.063  1.00  0.00    -0.168 NA
HETATM   22  N   UNL     1      -2.572  -1.011 -31.490  1.00  0.00    -0.277 N 
HETATM   23  H   UNL     1      -1.873  -1.656 -31.141  1.00  0.00     0.189 HD
HETATM   24  C   UNL     1      -3.578  -1.282 -32.376  1.00  0.00     0.063 A 
HETATM   25  C   UNL     1      -4.256  -0.080 -32.536  1.00  0.00     0.029 A 
HETATM   26  C   UNL     1      -3.938  -2.457 -33.040  1.00  0.00     0.032 A 
HETATM   27  C   UNL     1      -5.360  -0.036 -33.411  1.00  0.00     0.023 A 
HETATM   28  C   UNL     1      -5.746  -1.200 -34.100  1.00  0.00    -0.061 A 
HETATM   29  C   UNL     1      -5.036  -2.391 -33.907  1.00  0.00     0.009 A 
HETATM   30  C   UNL     1      -6.914  -1.143 -35.041  1.00  0.00     0.048 C 
ENDBRANCH  17  20
ENDBRANCH   1  16
TORSDOF 6
ENDMDL
MODEL 6
REMARK VINA RESULT:      -8.7      2.040      3.397
REMARK  6 active torsions:
REMARK  status: ('A' for Active; 'I' for Inactive)
REMARK    1  A    between atoms: C_2  and  C_3 
REMARK    2  A    between atoms: C_3  and  C_4 
REMARK       I    between atoms: C_4  and  N_5 
REMARK    3  A    between atoms: N_5  and  C_6 
REMARK    4  A    between atoms: C_8  and  C_9 
REMARK    5  A    between atoms: C_9  and  N_10 
REMARK       I    between atoms: N_10  and  C_11 
REMARK    6  A    between atoms: C_11  and  C_12 
ROOT
HETATM    1  C   UNL     1      -7.259   2.261 -32.192  1.00  0.00     0.161 C 
ENDROOT
BRANCH   1   2
HETATM    2  C   UNL     1      -6.513   3.446 -31.641  1.00  0.00    -0.038 A 
HETATM    3  C   UNL     1      -5.277   3.821 -32.200  1.00  0.00     0.038 A 
HETATM    4  C   UNL     1      -4.580   4.931 -31.720  1.00  0.00     0.035 A 
HETATM    5  C   UNL     1      -5.127   5.668 -30.662  1.00  0.00     0.029 A 
HETATM    6  C   UNL     1      -6.340   5.289 -30.082  1.00  0.00     0.003 A 
HETATM    7  C   UNL     1      -7.028   4.179 -30.567  1.00  0.00     0.009 A 
BRANCH   4   8
HETATM    8  N   UNL     1      -3.350   5.378 -32.247  1.00  0.00    -0.327 N 
HETATM    9  C   UNL     1      -2.103   4.804 -32.079  1.00  0.00     0.226 C 
HETATM   10  O   UNL     1      -1.851   3.807 -31.408  1.00  0.00    -0.273 OA
HETATM   11  H   UNL     1      -3.391   6.242 -32.770  1.00  0.00     0.169 HD
BRANCH   9  12
HETATM   12  C   UNL     1      -0.978   5.510 -32.841  1.00  0.00     0.074 C 
HETATM   13  C   UNL     1      -1.356   5.643 -34.316  1.00  0.00     0.020 C 
BRANCH  12  14
HETATM   14  C   UNL     1      -0.588   6.874 -32.251  1.00  0.00     0.009 C 
HETATM   15  C   UNL     1       0.459   6.766 -31.150  1.00  0.00     0.006 C 
ENDBRANCH  12  14
ENDBRANCH   9  12
ENDBRANCH   4   8
ENDBRANCH   1   2
BRANCH   1  16
HETATM   16  N   UNL     1      -6.465   1.065 -32.149  1.00  0.00    -0.351 N 
HETATM   17  C   UNL     1      -5.949   0.511 -33.299  1.00  0.00     0.273 C 
HETATM   18  O   UNL     1      -6.242   0.909 -34.423  1.00  0.00    -0.266 OA
HETATM   19  H   UNL     1      -6.064   0.732 -31.277  1.00  0.00     0.163 HD
BRANCH  17  20
HETATM   20  C   UNL     1      -4.996  -0.582 -33.048  1.00  0.00     0.157 A 
HETATM   21  N   UNL     1      -3.914  -0.409 -32.257  1.00  0.00    -0.168 NA
HETATM   22  N   UNL     1      -3.301  -1.605 -32.285  1.00  0.00    -0.277 N 
HETATM   23  H   UNL     1      -2.447  -1.719 -31.753  1.00  0.00     0.189 HD
HETATM   24  C   UNL     1      -3.924  -2.543 -33.060  1.00  0.00     0.063 A 
HETATM   25  C   UNL     1      -5.043  -1.905 -33.578  1.00  0.00     0.029 A 
HETATM   26  C   UNL     1      -3.601  -3.872 -33.348  1.00  0.00     0.032 A 
HETATM   27  C   UNL     1      -5.897  -2.625 -34.438  1.00  0.00     0.023 A 
HETATM   28  C   UNL     1      -5.599  -3.962 -34.752  1.00  0.00    -0.061 A 
HETATM   29  C   UNL     1      -4.461  -4.568 -34.206  1.00  0.00     0.009 A 
HETATM   30  C   UNL     1      -6.505  -4.719 -35.680  1.00  0.00     0.048 C 
ENDBRANCH  17  20
ENDBRANCH   1  16
TORSDOF 6
ENDMDL
MODEL 7
REMARK VINA RESULT:      -8.5      2.884      9.450
REMARK  6 active torsions:
REMARK  status: ('A' for Active; 'I' for Inactive)
REMARK    1  A    between atoms: C_2  and  C_3 
REMARK    2  A    between atoms: C_3  and  C_4 
REMARK       I    between atoms: C_4  and  N_5 
REMARK    3  A    between atoms: N_5  and  C_6 
REMARK    4  A    between atoms: C_8  and  C_9 
REMARK    5  A    between atoms: C_9  and  N_10 
REMARK       I    between atoms: N_10  and  C_11 
REMARK    6  A    between atoms: C_11  and  C_12 
ROOT
HETATM    1  C   UNL     1      -7.490   3.337 -32.996  1.00  0.00     0.161 C 
ENDROOT
BRANCH   1   2
HETATM    2  C   UNL     1      -7.061   2.041 -32.364  1.00  0.00    -0.038 A 
HETATM    3  C   UNL     1      -6.815   0.913 -33.169  1.00  0.00     0.038 A 
HETATM    4  C   UNL     1      -6.395  -0.293 -32.606  1.00  0.00     0.035 A 
HETATM    5  C   UNL     1      -6.225  -0.368 -31.218  1.00  0.00     0.029 A 
HETATM    6  C   UNL     1      -6.492   0.737 -30.406  1.00  0.00     0.003 A 
HETATM    7  C   UNL     1      -6.914   1.936 -30.977  1.00  0.00     0.009 A 
BRANCH   4   8
HETATM    8  N   UNL     1      -6.107  -1.454 -33.353  1.00  0.00    -0.327 N 
HETATM    9  C   UNL     1      -4.873  -1.873 -33.816  1.00  0.00     0.226 C 
HETATM   10  O   UNL     1      -3.808  -1.279 -33.675  1.00  0.00    -0.273 OA
HETATM   11  H   UNL     1      -6.909  -2.014 -33.611  1.00  0.00     0.169 HD
BRANCH   9  12
HETATM   12  C   UNL     1      -4.900  -3.219 -34.547  1.00  0.00     0.074 C 
HETATM   13  C   UNL     1      -3.914  -4.184 -33.890  1.00  0.00     0.020 C 
BRANCH  12  14
HETATM   14  C   UNL     1      -6.299  -3.846 -34.644  1.00  0.00     0.009 C 
HETATM   15  C   UNL     1      -6.421  -4.852 -35.781  1.00  0.00     0.006 C 
ENDBRANCH  12  14
ENDBRANCH   9  12
ENDBRANCH   4   8
ENDBRANCH   1   2
BRANCH   1  16
HETATM   16  N   UNL     1      -6.383   4.030 -33.594  1.00  0.00    -0.351 N 
HETATM   17  C   UNL     1      -5.640   4.941 -32.875  1.00  0.00     0.273 C 
HETATM   18  O   UNL     1      -5.953   5.318 -31.750  1.00  0.00    -0.266 OA
HETATM   19  H   UNL     1      -5.968   3.706 -34.463  1.00  0.00     0.163 HD
BRANCH  17  20
HETATM   20  C   UNL     1      -4.428   5.393 -33.576  1.00  0.00     0.157 A 
HETATM   21  N   UNL     1      -4.282   5.234 -34.910  1.00  0.00    -0.168 NA
HETATM   22  N   UNL     1      -3.067   5.752 -35.164  1.00  0.00    -0.277 N 
HETATM   23  H   UNL     1      -2.733   5.744 -36.120  1.00  0.00     0.189 HD
HETATM   24  C   UNL     1      -2.414   6.232 -34.063  1.00  0.00     0.063 A 
HETATM   25  C   UNL     1      -3.280   6.013 -33.000  1.00  0.00     0.029 A 
HETATM   26  C   UNL     1      -1.158   6.825 -33.915  1.00  0.00     0.032 A 
HETATM   27  C   UNL     1      -2.878   6.401 -31.706  1.00  0.00     0.023 A 
HETATM   28  C   UNL     1      -1.617   6.996 -31.521  1.00  0.00    -0.061 A 
HETATM   29  C   UNL     1      -0.775   7.201 -32.621  1.00  0.00     0.009 A 
HETATM   30  C   UNL     1      -1.189   7.394 -30.138  1.00  0.00     0.048 C 
ENDBRANCH  17  20
ENDBRANCH   1  16
TORSDOF 6
ENDMDL
MODEL 8
REMARK VINA RESULT:      -8.3      2.080     10.409
REMARK  6 active torsions:
REMARK  status: ('A' for Active; 'I' for Inactive)
REMARK    1  A    between atoms: C_2  and  C_3 
REMARK    2  A    between atoms: C_3  and  C_4 
REMARK       I    between atoms: C_4  and  N_5 
REMARK    3  A    between atoms: N_5  and  C_6 
REMARK    4  A    between atoms: C_8  and  C_9 
REMARK    5  A    between atoms: C_9  and  N_10 
REMARK       I    between atoms: N_10  and  C_11 
REMARK    6  A    between atoms: C_11  and  C_12 
ROOT
HETATM    1  C   UNL     1      -2.806   3.597 -31.876  1.00  0.00     0.161 C 
ENDROOT
BRANCH   1   2
HETATM    2  C   UNL     1      -3.837   2.535 -31.605  1.00  0.00    -0.038 A 
HETATM    3  C   UNL     1      -3.891   1.386 -32.414  1.00  0.00     0.038 A 
HETATM    4  C   UNL     1      -4.825   0.378 -32.166  1.00  0.00     0.035 A 
HETATM    5  C   UNL     1      -5.717   0.530 -31.098  1.00  0.00     0.029 A 
HETATM    6  C   UNL     1      -5.690   1.680 -30.304  1.00  0.00     0.003 A 
HETATM    7  C   UNL     1      -4.756   2.681 -30.560  1.00  0.00     0.009 A 
BRANCH   4   8
HETATM    8  N   UNL     1      -4.921  -0.811 -32.920  1.00  0.00    -0.327 N 
HETATM    9  C   UNL     1      -5.626  -1.010 -34.093  1.00  0.00     0.226 C 
HETATM   10  O   UNL     1      -6.322  -0.178 -34.668  1.00  0.00    -0.273 OA
HETATM   11  H   UNL     1      -4.451  -1.614 -32.524  1.00  0.00     0.169 HD
BRANCH   9  12
HETATM   12  C   UNL     1      -5.470  -2.412 -34.690  1.00  0.00     0.074 C 
HETATM   13  C   UNL     1      -4.343  -3.156 -33.974  1.00  0.00     0.020 C 
BRANCH  12  14
HETATM   14  C   UNL     1      -6.764  -3.239 -34.682  1.00  0.00     0.009 C 
HETATM   15  C   UNL     1      -6.604  -4.597 -35.353  1.00  0.00     0.006 C 
ENDBRANCH  12  14
ENDBRANCH   9  12
ENDBRANCH   4   8
ENDBRANCH   1   2
BRANCH   1  16
HETATM   16  N   UNL     1      -2.921   4.697 -30.960  1.00  0.00    -0.351 N 
HETATM   17  C   UNL     1      -2.092   5.793 -31.055  1.00  0.00     0.273 C 
HETATM   18  O   UNL     1      -1.131   5.840 -31.817  1.00  0.00    -0.266 OA
HETATM   19  H   UNL     1      -3.749   4.815 -30.383  1.00  0.00     0.163 HD
BRANCH  17  20
HETATM   20  C   UNL     1      -2.487   6.906 -30.176  1.00  0.00     0.157 A 
HETATM   21  N   UNL     1      -3.762   7.349 -30.126  1.00  0.00    -0.168 NA
HETATM   22  N   UNL     1      -3.717   8.357 -29.238  1.00  0.00    -0.277 N 
HETATM   23  H   UNL     1      -4.575   8.853 -29.032  1.00  0.00     0.189 HD
HETATM   24  C   UNL     1      -2.477   8.595 -28.713  1.00  0.00     0.063 A 
HETATM   25  C   UNL     1      -1.643   7.659 -29.308  1.00  0.00     0.029 A 
HETATM   26  C   UNL     1      -2.028   9.541 -27.787  1.00  0.00     0.032 A 
HETATM   27  C   UNL     1      -0.274   7.658 -28.969  1.00  0.00     0.023 A 
HETATM   28  C   UNL     1       0.212   8.599 -28.045  1.00  0.00    -0.061 A 
HETATM   29  C   UNL     1      -0.665   9.524 -27.466  1.00  0.00     0.009 A 
HETATM   30  C   UNL     1       1.673   8.601 -27.698  1.00  0.00     0.048 C 
ENDBRANCH  17  20
ENDBRANCH   1  16
TORSDOF 6
ENDMDL
MODEL 9
REMARK VINA RESULT:      -8.2      2.894      9.455
REMARK  6 active torsions:
REMARK  status: ('A' for Active; 'I' for Inactive)
REMARK    1  A    between atoms: C_2  and  C_3 
REMARK    2  A    between atoms: C_3  and  C_4 
REMARK       I    between atoms: C_4  and  N_5 
REMARK    3  A    between atoms: N_5  and  C_6 
REMARK    4  A    between atoms: C_8  and  C_9 
REMARK    5  A    between atoms: C_9  and  N_10 
REMARK       I    between atoms: N_10  and  C_11 
REMARK    6  A    between atoms: C_11  and  C_12 
ROOT
HETATM    1  C   UNL     1      -6.079   4.349 -29.553  1.00  0.00     0.161 C 
ENDROOT
BRANCH   1   2
HETATM    2  C   UNL     1      -6.978   3.377 -30.267  1.00  0.00    -0.038 A 
HETATM    3  C   UNL     1      -6.423   2.310 -30.997  1.00  0.00     0.038 A 
HETATM    4  C   UNL     1      -7.239   1.384 -31.648  1.00  0.00     0.035 A 
HETATM    5  C   UNL     1      -8.629   1.534 -31.569  1.00  0.00     0.029 A 
HETATM    6  C   UNL     1      -9.192   2.605 -30.869  1.00  0.00     0.003 A 
HETATM    7  C   UNL     1      -8.369   3.526 -30.224  1.00  0.00     0.009 A 
BRANCH   4   8
HETATM    8  N   UNL     1      -6.752   0.278 -32.376  1.00  0.00    -0.327 N 
HETATM    9  C   UNL     1      -6.486   0.213 -33.732  1.00  0.00     0.226 C 
HETATM   10  O   UNL     1      -6.660   1.116 -34.546  1.00  0.00    -0.273 OA
HETATM   11  H   UNL     1      -6.628  -0.572 -31.842  1.00  0.00     0.169 HD
BRANCH   9  12
HETATM   12  C   UNL     1      -5.906  -1.126 -34.195  1.00  0.00     0.074 C 
HETATM   13  C   UNL     1      -4.818  -1.582 -33.223  1.00  0.00     0.020 C 
BRANCH  12  14
HETATM   14  C   UNL     1      -6.960  -2.225 -34.393  1.00  0.00     0.009 C 
HETATM   15  C   UNL     1      -6.361  -3.543 -34.867  1.00  0.00     0.006 C 
ENDBRANCH  12  14
ENDBRANCH   9  12
ENDBRANCH   4   8
ENDBRANCH   1   2
BRANCH   1  16
HETATM   16  N   UNL     1      -4.766   4.384 -30.132  1.00  0.00    -0.351 N 
HETATM   17  C   UNL     1      -4.409   5.365 -31.031  1.00  0.00     0.273 C 
HETATM   18  O   UNL     1      -5.212   6.169 -31.496  1.00  0.00    -0.266 OA
HETATM   19  H   UNL     1      -4.000   3.852 -29.729  1.00  0.00     0.163 HD
BRANCH  17  20
HETATM   20  C   UNL     1      -2.974   5.369 -31.358  1.00  0.00     0.157 A 
HETATM   21  N   UNL     1      -2.467   4.570 -32.323  1.00  0.00    -0.168 NA
HETATM   22  N   UNL     1      -1.152   4.850 -32.312  1.00  0.00    -0.277 N 
HETATM   23  H   UNL     1      -0.553   4.361 -32.966  1.00  0.00     0.189 HD
HETATM   24  C   UNL     1      -0.778   5.783 -31.386  1.00  0.00     0.063 A 
HETATM   25  C   UNL     1      -1.952   6.147 -30.740  1.00  0.00     0.029 A 
HETATM   26  C   UNL     1       0.470   6.324 -31.065  1.00  0.00     0.032 A 
HETATM   27  C   UNL     1      -1.889   7.105 -29.707  1.00  0.00     0.023 A 
HETATM   28  C   UNL     1      -0.648   7.666 -29.355  1.00  0.00    -0.061 A 
HETATM   29  C   UNL     1       0.511   7.272 -30.035  1.00  0.00     0.009 A 
HETATM   30  C   UNL     1      -0.586   8.675 -28.246  1.00  0.00     0.048 C 
ENDBRANCH  17  20
ENDBRANCH   1  16
TORSDOF 6
ENDMDL
MODEL 10
REMARK VINA RESULT:      -8.1      2.648      3.226
REMARK  6 active torsions:
REMARK  status: ('A' for Active; 'I' for Inactive)
REMARK    1  A    between atoms: C_2  and  C_3 
REMARK    2  A    between atoms: C_3  and  C_4 
REMARK       I    between atoms: C_4  and  N_5 
REMARK    3  A    between atoms: N_5  and  C_6 
REMARK    4  A    between atoms: C_8  and  C_9 
REMARK    5  A    between atoms: C_9  and  N_10 
REMARK       I    between atoms: N_10  and  C_11 
REMARK    6  A    between atoms: C_11  and  C_12 
ROOT
HETATM    1  C   UNL     1      -3.070   3.068 -31.395  1.00  0.00     0.161 C 
ENDROOT
BRANCH   1   2
HETATM    2  C   UNL     1      -2.580   4.340 -32.031  1.00  0.00    -0.038 A 
HETATM    3  C   UNL     1      -2.493   5.519 -31.269  1.00  0.00     0.038 A 
HETATM    4  C   UNL     1      -2.019   6.705 -31.834  1.00  0.00     0.035 A 
HETATM    5  C   UNL     1      -1.635   6.706 -33.181  1.00  0.00     0.029 A 
HETATM    6  C   UNL     1      -1.743   5.548 -33.954  1.00  0.00     0.003 A 
HETATM    7  C   UNL     1      -2.219   4.369 -33.382  1.00  0.00     0.009 A 
BRANCH   4   8
HETATM    8  N   UNL     1      -1.882   7.917 -31.124  1.00  0.00    -0.327 N 
HETATM    9  C   UNL     1      -2.799   8.948 -31.034  1.00  0.00     0.226 C 
HETATM   10  O   UNL     1      -3.893   8.993 -31.590  1.00  0.00    -0.273 OA
HETATM   11  H   UNL     1      -0.990   8.054 -30.669  1.00  0.00     0.169 HD
BRANCH   9  12
HETATM   12  C   UNL     1      -2.359  10.101 -30.128  1.00  0.00     0.074 C 
HETATM   13  C   UNL     1      -3.569  10.961 -29.761  1.00  0.00     0.020 C 
BRANCH  12  14
HETATM   14  C   UNL     1      -1.605   9.650 -28.868  1.00  0.00     0.009 C 
HETATM   15  C   UNL     1      -2.010  10.429 -27.623  1.00  0.00     0.006 C 
ENDBRANCH  12  14
ENDBRANCH   9  12
ENDBRANCH   4   8
ENDBRANCH   1   2
BRANCH   1  16
HETATM   16  N   UNL     1      -3.820   2.264 -32.318  1.00  0.00    -0.351 N 
HETATM   17  C   UNL     1      -3.943   0.903 -32.143  1.00  0.00     0.273 C 
HETATM   18  O   UNL     1      -3.317   0.281 -31.290  1.00  0.00    -0.266 OA
HETATM   19  H   UNL     1      -4.470   2.688 -32.975  1.00  0.00     0.163 HD
BRANCH  17  20
HETATM   20  C   UNL     1      -4.911   0.278 -33.059  1.00  0.00     0.157 A 
HETATM   21  N   UNL     1      -5.961   0.969 -33.557  1.00  0.00    -0.168 NA
HETATM   22  N   UNL     1      -6.601   0.069 -34.323  1.00  0.00    -0.277 N 
HETATM   23  H   UNL     1      -7.439   0.365 -34.810  1.00  0.00     0.189 HD
HETATM   24  C   UNL     1      -6.027  -1.171 -34.343  1.00  0.00     0.063 A 
HETATM   25  C   UNL     1      -4.912  -1.070 -33.522  1.00  0.00     0.029 A 
HETATM   26  C   UNL     1      -6.390  -2.351 -34.998  1.00  0.00     0.032 A 
HETATM   27  C   UNL     1      -4.104  -2.210 -33.332  1.00  0.00     0.023 A 
HETATM   28  C   UNL     1      -4.444  -3.415 -33.972  1.00  0.00    -0.061 A 
HETATM   29  C   UNL     1      -5.576  -3.472 -34.794  1.00  0.00     0.009 A 
HETATM   30  C   UNL     1      -3.588  -4.629 -33.755  1.00  0.00     0.048 C 
ENDBRANCH  17  20
ENDBRANCH   1  16
TORSDOF 6
ENDMDL
