MODEL 1
REMARK VINA RESULT:      -8.3      0.000      0.000
REMARK  8 active torsions:
REMARK  status: ('A' for Active; 'I' for Inactive)
REMARK    1  A    between atoms: C_2  and  C_3 
REMARK    2  A    between atoms: C_3  and  N_4 
REMARK    3  A    between atoms: C_7  and  C_8 
REMARK       I    between atoms: C_8  and  N_9 
REMARK    4  A    between atoms: N_9  and  N_10 
REMARK       I    between atoms: N_10  and  C_11 
REMARK    5  A    between atoms: C_11  and  C_12 
REMARK    6  A    between atoms: C_12  and  O_13 
REMARK    7  A    between atoms: O_13  and  C_14 
REMARK    8  A    between atoms: C_23  and  C_24 
ROOT
HETATM    1  C   UNL     1      -1.652   4.793 -31.666  1.00  0.00     0.273 C 
HETATM    2  N   UNL     1      -2.611   3.907 -31.204  1.00  0.00    -0.263 N 
HETATM    3  O   UNL     1      -1.394   4.901 -32.863  1.00  0.00    -0.266 OA
HETATM    4  H   UNL     1      -3.021   4.028 -30.279  1.00  0.00     0.190 HD
ENDROOT
BRANCH   2   5
HETATM    5  N   UNL     1      -3.417   3.239 -32.141  1.00  0.00    -0.265 N 
HETATM    6  C   UNL     1      -3.572   1.874 -31.992  1.00  0.00     0.260 C 
HETATM    7  O   UNL     1      -2.940   1.228 -31.155  1.00  0.00    -0.269 OA
HETATM    8  H   UNL     1      -4.094   3.811 -32.645  1.00  0.00     0.190 HD
BRANCH   6   9
HETATM    9  C   UNL     1      -4.567   1.244 -32.953  1.00  0.00     0.280 C 
BRANCH   9  10
HETATM   10  O   UNL     1      -5.131   0.106 -32.310  1.00  0.00    -0.342 OA
BRANCH  10  11
HETATM   11  C   UNL     1      -5.326  -0.997 -33.095  1.00  0.00     0.069 A 
HETATM   12  C   UNL     1      -6.652  -1.237 -33.458  1.00  0.00     0.037 A 
HETATM   13  C   UNL     1      -6.985  -2.336 -34.254  1.00  0.00     0.009 A 
HETATM   14  C   UNL     1      -5.993  -3.223 -34.683  1.00  0.00    -0.062 A 
HETATM   15  C   UNL     1      -6.332  -4.393 -35.558  1.00  0.00     0.048 C 
HETATM   16  C   UNL     1      -4.664  -2.982 -34.314  1.00  0.00     0.009 A 
HETATM   17  C   UNL     1      -4.332  -1.878 -33.519  1.00  0.00     0.037 A 
ENDBRANCH  10  11
ENDBRANCH   9  10
ENDBRANCH   6   9
ENDBRANCH   2   5
BRANCH   1  18
HETATM   18  C   UNL     1      -0.982   5.524 -30.605  1.00  0.00     0.077 A 
HETATM   19  C   UNL     1       0.173   5.070 -29.920  1.00  0.00     0.158 A 
HETATM   20  N   UNL     1       0.588   5.906 -28.974  1.00  0.00    -0.183 NA
HETATM   21  N   UNL     1      -0.254   6.952 -29.081  1.00  0.00    -0.268 N 
HETATM   22  C   UNL     1      -1.267   6.744 -29.999  1.00  0.00     0.052 A 
BRANCH  21  23
HETATM   23  C   UNL     1      -0.042   8.121 -28.226  1.00  0.00     0.106 C 
HETATM   24  C   UNL     1      -0.705   7.900 -26.864  1.00  0.00     0.034 C 
BRANCH  23  25
HETATM   25  C   UNL     1       1.443   8.502 -28.047  1.00  0.00     0.022 C 
HETATM   26  C   UNL     1       1.840   8.690 -26.587  1.00  0.00     0.007 C 
ENDBRANCH  23  25
ENDBRANCH  21  23
BRANCH  22  27
HETATM   27  C   UNL     1      -2.449   7.700 -30.182  1.00  0.00     0.038 A 
HETATM   28  C   UNL     1      -2.236   9.148 -30.543  1.00  0.00     0.011 A 
HETATM   29  C   UNL     1      -2.803   8.212 -31.559  1.00  0.00     0.011 A 
ENDBRANCH  22  27
ENDBRANCH   1  18
TORSDOF 8
ENDMDL
MODEL 2
REMARK VINA RESULT:      -8.2      2.310     10.437
REMARK  8 active torsions:
REMARK  status: ('A' for Active; 'I' for Inactive)
REMARK    1  A    between atoms: C_2  and  C_3 
REMARK    2  A    between atoms: C_3  and  N_4 
REMARK    3  A    between atoms: C_7  and  C_8 
REMARK       I    between atoms: C_8  and  N_9 
REMARK    4  A    between atoms: N_9  and  N_10 
REMARK       I    between atoms: N_10  and  C_11 
REMARK    5  A    between atoms: C_11  and  C_12 
REMARK    6  A    between atoms: C_12  and  O_13 
REMARK    7  A    between atoms: O_13  and  C_14 
REMARK    8  A    between atoms: C_23  and  C_24 
ROOT
HETATM    1  C   UNL     1      -4.956   0.650 -32.026  1.00  0.00     0.273 C 
HETATM    2  N   UNL     1      -4.042   1.633 -32.369  1.00  0.00    -0.263 N 
HETATM    3  O   UNL     1      -5.956   0.900 -31.358  1.00  0.00    -0.266 OA
HETATM    4  H   UNL     1      -3.398   1.489 -33.145  1.00  0.00     0.190 HD
ENDROOT
BRANCH   2   5
HETATM    5  N   UNL     1      -4.357   2.971 -32.082  1.00  0.00    -0.265 N 
HETATM    6  C   UNL     1      -3.344   3.774 -31.592  1.00  0.00     0.260 C 
HETATM    7  O   UNL     1      -2.237   3.325 -31.292  1.00  0.00    -0.269 OA
HETATM    8  H   UNL     1      -5.173   3.356 -32.556  1.00  0.00     0.190 HD
BRANCH   6   9
HETATM    9  C   UNL     1      -3.719   5.239 -31.440  1.00  0.00     0.280 C 
BRANCH   9  10
HETATM   10  O   UNL     1      -2.687   6.016 -32.039  1.00  0.00    -0.342 OA
BRANCH  10  11
HETATM   11  C   UNL     1      -1.713   6.480 -31.198  1.00  0.00     0.069 A 
HETATM   12  C   UNL     1      -2.176   6.985 -29.981  1.00  0.00     0.037 A 
HETATM   13  C   UNL     1      -1.282   7.494 -29.036  1.00  0.00     0.009 A 
HETATM   14  C   UNL     1       0.090   7.523 -29.306  1.00  0.00    -0.062 A 
HETATM   15  C   UNL     1       1.063   8.045 -28.291  1.00  0.00     0.048 C 
HETATM   16  C   UNL     1       0.550   7.020 -30.529  1.00  0.00     0.009 A 
HETATM   17  C   UNL     1      -0.347   6.506 -31.473  1.00  0.00     0.037 A 
ENDBRANCH  10  11
ENDBRANCH   9  10
ENDBRANCH   6   9
ENDBRANCH   2   5
BRANCH   1  18
HETATM   18  C   UNL     1      -4.585  -0.673 -32.498  1.00  0.00     0.077 A 
HETATM   19  C   UNL     1      -3.558  -1.471 -31.934  1.00  0.00     0.158 A 
HETATM   20  N   UNL     1      -3.392  -2.634 -32.554  1.00  0.00    -0.183 NA
HETATM   21  N   UNL     1      -4.361  -2.638 -33.488  1.00  0.00    -0.268 N 
HETATM   22  C   UNL     1      -5.066  -1.449 -33.549  1.00  0.00     0.052 A 
BRANCH  21  23
HETATM   23  C   UNL     1      -4.531  -3.826 -34.327  1.00  0.00     0.106 C 
HETATM   24  C   UNL     1      -3.476  -4.875 -33.967  1.00  0.00     0.034 C 
BRANCH  23  25
HETATM   25  C   UNL     1      -5.946  -4.440 -34.259  1.00  0.00     0.022 C 
HETATM   26  C   UNL     1      -6.604  -4.577 -35.627  1.00  0.00     0.007 C 
ENDBRANCH  23  25
ENDBRANCH  21  23
BRANCH  22  27
HETATM   27  C   UNL     1      -6.096  -1.133 -34.636  1.00  0.00     0.038 A 
HETATM   28  C   UNL     1      -7.527  -0.809 -34.287  1.00  0.00     0.011 A 
HETATM   29  C   UNL     1      -6.629   0.273 -34.788  1.00  0.00     0.011 A 
ENDBRANCH  22  27
ENDBRANCH   1  18
TORSDOF 8
ENDMDL
MODEL 3
REMARK VINA RESULT:      -8.1      2.482      9.733
REMARK  8 active torsions:
REMARK  status: ('A' for Active; 'I' for Inactive)
REMARK    1  A    between atoms: C_2  and  C_3 
REMARK    2  A    between atoms: C_3  and  N_4 
REMARK    3  A    between atoms: C_7  and  C_8 
REMARK       I    between atoms: C_8  and  N_9 
REMARK    4  A    between atoms: N_9  and  N_10 
REMARK       I    between atoms: N_10  and  C_11 
REMARK    5  A    between atoms: C_11  and  C_12 
REMARK    6  A    between atoms: C_12  and  O_13 
REMARK    7  A    between atoms: O_13  and  C_14 
REMARK    8  A    between atoms: C_23  and  C_24 
ROOT
HETATM    1  C   UNL     1      -3.632   2.976 -32.295  1.00  0.00     0.273 C 
HETATM    2  N   UNL     1      -3.425   3.723 -33.443  1.00  0.00    -0.263 N 
HETATM    3  O   UNL     1      -2.785   2.902 -31.408  1.00  0.00    -0.266 OA
HETATM    4  H   UNL     1      -4.214   4.016 -34.016  1.00  0.00     0.190 HD
ENDROOT
BRANCH   2   5
HETATM    5  N   UNL     1      -2.286   4.542 -33.514  1.00  0.00    -0.265 N 
HETATM    6  C   UNL     1      -2.362   5.673 -34.306  1.00  0.00     0.260 C 
HETATM    7  O   UNL     1      -3.332   5.906 -35.028  1.00  0.00    -0.269 OA
HETATM    8  H   UNL     1      -1.621   4.462 -32.745  1.00  0.00     0.190 HD
BRANCH   6   9
HETATM    9  C   UNL     1      -1.147   6.584 -34.222  1.00  0.00     0.280 C 
BRANCH   9  10
HETATM   10  O   UNL     1      -1.521   7.737 -33.475  1.00  0.00    -0.342 OA
BRANCH  10  11
HETATM   11  C   UNL     1      -1.202   7.725 -32.145  1.00  0.00     0.069 A 
HETATM   12  C   UNL     1      -0.083   6.960 -31.813  1.00  0.00     0.037 A 
HETATM   13  C   UNL     1       0.345   6.862 -30.486  1.00  0.00     0.009 A 
HETATM   14  C   UNL     1      -0.358   7.516 -29.469  1.00  0.00    -0.062 A 
HETATM   15  C   UNL     1       0.103   7.440 -28.043  1.00  0.00     0.048 C 
HETATM   16  C   UNL     1      -1.482   8.279 -29.805  1.00  0.00     0.009 A 
HETATM   17  C   UNL     1      -1.906   8.379 -31.136  1.00  0.00     0.037 A 
ENDBRANCH  10  11
ENDBRANCH   9  10
ENDBRANCH   6   9
ENDBRANCH   2   5
BRANCH   1  18
HETATM   18  C   UNL     1      -4.908   2.281 -32.281  1.00  0.00     0.077 A 
HETATM   19  C   UNL     1      -6.130   2.851 -31.846  1.00  0.00     0.158 A 
HETATM   20  N   UNL     1      -7.156   2.009 -31.907  1.00  0.00    -0.183 NA
HETATM   21  N   UNL     1      -6.625   0.898 -32.452  1.00  0.00    -0.268 N 
HETATM   22  C   UNL     1      -5.256   0.980 -32.631  1.00  0.00     0.052 A 
BRANCH  21  23
HETATM   23  C   UNL     1      -7.503  -0.236 -32.744  1.00  0.00     0.106 C 
HETATM   24  C   UNL     1      -8.957   0.140 -32.454  1.00  0.00     0.034 C 
BRANCH  23  25
HETATM   25  C   UNL     1      -7.363  -0.779 -34.182  1.00  0.00     0.022 C 
HETATM   26  C   UNL     1      -7.656   0.272 -35.248  1.00  0.00     0.007 C 
ENDBRANCH  23  25
ENDBRANCH  21  23
BRANCH  22  27
HETATM   27  C   UNL     1      -4.389  -0.205 -33.066  1.00  0.00     0.038 A 
HETATM   28  C   UNL     1      -3.028  -0.443 -32.464  1.00  0.00     0.011 A 
HETATM   29  C   UNL     1      -4.155  -1.360 -32.120  1.00  0.00     0.011 A 
ENDBRANCH  22  27
ENDBRANCH   1  18
TORSDOF 8
ENDMDL
MODEL 4
REMARK VINA RESULT:      -8.0      1.467      2.225
REMARK  8 active torsions:
REMARK  status: ('A' for Active; 'I' for Inactive)
REMARK    1  A    between atoms: C_2  and  C_3 
REMARK    2  A    between atoms: C_3  and  N_4 
REMARK    3  A    between atoms: C_7  and  C_8 
REMARK       I    between atoms: C_8  and  N_9 
REMARK    4  A    between atoms: N_9  and  N_10 
REMARK       I    between atoms: N_10  and  C_11 
REMARK    5  A    between atoms: C_11  and  C_12 
REMARK    6  A    between atoms: C_12  and  O_13 
REMARK    7  A    between atoms: O_13  and  C_14 
REMARK    8  A    between atoms: C_23  and  C_24 
ROOT
HETATM    1  C   UNL     1      -3.921   5.636 -31.284  1.00  0.00     0.273 C 
HETATM    2  N   UNL     1      -3.948   4.314 -30.870  1.00  0.00    -0.263 N 
HETATM    3  O   UNL     1      -4.376   5.984 -32.371  1.00  0.00    -0.266 OA
HETATM    4  H   UNL     1      -3.849   4.081 -29.883  1.00  0.00     0.190 HD
ENDROOT
BRANCH   2   5
HETATM    5  N   UNL     1      -4.658   3.383 -31.645  1.00  0.00    -0.265 N 
HETATM    6  C   UNL     1      -4.107   2.124 -31.793  1.00  0.00     0.260 C 
HETATM    7  O   UNL     1      -2.981   1.846 -31.378  1.00  0.00    -0.269 OA
HETATM    8  H   UNL     1      -5.657   3.555 -31.757  1.00  0.00     0.190 HD
BRANCH   6   9
HETATM    9  C   UNL     1      -4.995   1.128 -32.522  1.00  0.00     0.280 C 
BRANCH   9  10
HETATM   10  O   UNL     1      -4.232  -0.053 -32.744  1.00  0.00    -0.342 OA
BRANCH  10  11
HETATM   11  C   UNL     1      -4.872  -1.073 -33.392  1.00  0.00     0.069 A 
HETATM   12  C   UNL     1      -4.093  -2.209 -33.621  1.00  0.00     0.037 A 
HETATM   13  C   UNL     1      -4.628  -3.319 -34.279  1.00  0.00     0.009 A 
HETATM   14  C   UNL     1      -5.950  -3.299 -34.735  1.00  0.00    -0.062 A 
HETATM   15  C   UNL     1      -6.545  -4.493 -35.421  1.00  0.00     0.048 C 
HETATM   16  C   UNL     1      -6.727  -2.158 -34.508  1.00  0.00     0.009 A 
HETATM   17  C   UNL     1      -6.190  -1.047 -33.845  1.00  0.00     0.037 A 
ENDBRANCH  10  11
ENDBRANCH   9  10
ENDBRANCH   6   9
ENDBRANCH   2   5
BRANCH   1  18
HETATM   18  C   UNL     1      -3.279   6.526 -30.332  1.00  0.00     0.077 A 
HETATM   19  C   UNL     1      -3.862   6.961 -29.116  1.00  0.00     0.158 A 
HETATM   20  N   UNL     1      -3.087   7.790 -28.425  1.00  0.00    -0.183 NA
HETATM   21  N   UNL     1      -1.955   7.849 -29.153  1.00  0.00    -0.268 N 
HETATM   22  C   UNL     1      -2.042   7.163 -30.352  1.00  0.00     0.052 A 
BRANCH  21  23
HETATM   23  C   UNL     1      -0.826   8.627 -28.643  1.00  0.00     0.106 C 
HETATM   24  C   UNL     1      -1.333   9.898 -27.958  1.00  0.00     0.034 C 
BRANCH  23  25
HETATM   25  C   UNL     1       0.099   7.835 -27.693  1.00  0.00     0.022 C 
HETATM   26  C   UNL     1       1.539   8.334 -27.708  1.00  0.00     0.007 C 
ENDBRANCH  23  25
ENDBRANCH  21  23
BRANCH  22  27
HETATM   27  C   UNL     1      -0.962   7.219 -31.436  1.00  0.00     0.038 A 
HETATM   28  C   UNL     1       0.455   6.793 -31.150  1.00  0.00     0.011 A 
HETATM   29  C   UNL     1      -0.408   5.940 -32.019  1.00  0.00     0.011 A 
ENDBRANCH  22  27
ENDBRANCH   1  18
TORSDOF 8
ENDMDL
MODEL 5
REMARK VINA RESULT:      -7.7      2.024      3.367
REMARK  8 active torsions:
REMARK  status: ('A' for Active; 'I' for Inactive)
REMARK    1  A    between atoms: C_2  and  C_3 
REMARK    2  A    between atoms: C_3  and  N_4 
REMARK    3  A    between atoms: C_7  and  C_8 
REMARK       I    between atoms: C_8  and  N_9 
REMARK    4  A    between atoms: N_9  and  N_10 
REMARK       I    between atoms: N_10  and  C_11 
REMARK    5  A    between atoms: C_11  and  C_12 
REMARK    6  A    between atoms: C_12  and  O_13 
REMARK    7  A    between atoms: O_13  and  C_14 
REMARK    8  A    between atoms: C_23  and  C_24 
ROOT
HETATM    1  C   UNL     1      -3.729   3.271 -32.095  1.00  0.00     0.273 C 
HETATM    2  N   UNL     1      -4.903   3.276 -32.830  1.00  0.00    -0.263 N 
HETATM    3  O   UNL     1      -3.115   2.232 -31.862  1.00  0.00    -0.266 OA
HETATM    4  H   UNL     1      -5.236   4.136 -33.262  1.00  0.00     0.190 HD
ENDROOT
BRANCH   2   5
HETATM    5  N   UNL     1      -5.307   2.086 -33.457  1.00  0.00    -0.265 N 
HETATM    6  C   UNL     1      -6.564   2.063 -34.031  1.00  0.00     0.260 C 
HETATM    7  O   UNL     1      -7.364   2.991 -33.902  1.00  0.00    -0.269 OA
HETATM    8  H   UNL     1      -4.564   1.454 -33.753  1.00  0.00     0.190 HD
BRANCH   6   9
HETATM    9  C   UNL     1      -6.877   0.797 -34.813  1.00  0.00     0.280 C 
BRANCH   9  10
HETATM   10  O   UNL     1      -7.120  -0.245 -33.874  1.00  0.00    -0.342 OA
BRANCH  10  11
HETATM   11  C   UNL     1      -6.342  -1.364 -33.997  1.00  0.00     0.069 A 
HETATM   12  C   UNL     1      -5.106  -1.298 -33.351  1.00  0.00     0.037 A 
HETATM   13  C   UNL     1      -4.217  -2.374 -33.405  1.00  0.00     0.009 A 
HETATM   14  C   UNL     1      -4.546  -3.526 -34.125  1.00  0.00    -0.062 A 
HETATM   15  C   UNL     1      -3.611  -4.699 -34.172  1.00  0.00     0.048 C 
HETATM   16  C   UNL     1      -5.784  -3.587 -34.776  1.00  0.00     0.009 A 
HETATM   17  C   UNL     1      -6.676  -2.509 -34.717  1.00  0.00     0.037 A 
ENDBRANCH  10  11
ENDBRANCH   9  10
ENDBRANCH   6   9
ENDBRANCH   2   5
BRANCH   1  18
HETATM   18  C   UNL     1      -3.343   4.586 -31.614  1.00  0.00     0.077 A 
HETATM   19  C   UNL     1      -4.017   5.299 -30.592  1.00  0.00     0.158 A 
HETATM   20  N   UNL     1      -3.487   6.492 -30.343  1.00  0.00    -0.183 NA
HETATM   21  N   UNL     1      -2.414   6.540 -31.155  1.00  0.00    -0.268 N 
HETATM   22  C   UNL     1      -2.319   5.447 -31.998  1.00  0.00     0.052 A 
BRANCH  21  23
HETATM   23  C   UNL     1      -1.530   7.704 -31.091  1.00  0.00     0.106 C 
HETATM   24  C   UNL     1      -2.352   8.991 -31.196  1.00  0.00     0.034 C 
BRANCH  23  25
HETATM   25  C   UNL     1      -0.633   7.739 -29.835  1.00  0.00     0.022 C 
HETATM   26  C   UNL     1       0.098   6.425 -29.586  1.00  0.00     0.007 C 
ENDBRANCH  23  25
ENDBRANCH  21  23
BRANCH  22  27
HETATM   27  C   UNL     1      -1.296   5.343 -33.133  1.00  0.00     0.038 A 
HETATM   28  C   UNL     1      -1.720   5.005 -34.539  1.00  0.00     0.011 A 
HETATM   29  C   UNL     1      -1.265   6.390 -34.221  1.00  0.00     0.011 A 
ENDBRANCH  22  27
ENDBRANCH   1  18
TORSDOF 8
ENDMDL
MODEL 6
REMARK VINA RESULT:      -7.7      2.191     10.281
REMARK  8 active torsions:
REMARK  status: ('A' for Active; 'I' for Inactive)
REMARK    1  A    between atoms: C_2  and  C_3 
REMARK    2  A    between atoms: C_3  and  N_4 
REMARK    3  A    between atoms: C_7  and  C_8 
REMARK       I    between atoms: C_8  and  N_9 
REMARK    4  A    between atoms: N_9  and  N_10 
REMARK       I    between atoms: N_10  and  C_11 
REMARK    5  A    between atoms: C_11  and  C_12 
REMARK    6  A    between atoms: C_12  and  O_13 
REMARK    7  A    between atoms: O_13  and  C_14 
REMARK    8  A    between atoms: C_23  and  C_24 
ROOT
HETATM    1  C   UNL     1      -5.418   2.731 -32.517  1.00  0.00     0.273 C 
HETATM    2  N   UNL     1      -4.230   3.281 -32.969  1.00  0.00    -0.263 N 
HETATM    3  O   UNL     1      -6.109   3.289 -31.668  1.00  0.00    -0.266 OA
HETATM    4  H   UNL     1      -3.826   2.979 -33.854  1.00  0.00     0.190 HD
ENDROOT
BRANCH   2   5
HETATM    5  N   UNL     1      -3.897   4.584 -32.564  1.00  0.00    -0.265 N 
HETATM    6  C   UNL     1      -2.724   4.752 -31.852  1.00  0.00     0.260 C 
HETATM    7  O   UNL     1      -2.046   3.797 -31.468  1.00  0.00    -0.269 OA
HETATM    8  H   UNL     1      -4.327   5.346 -33.089  1.00  0.00     0.190 HD
BRANCH   6   9
HETATM    9  C   UNL     1      -2.357   6.200 -31.573  1.00  0.00     0.280 C 
BRANCH   9  10
HETATM   10  O   UNL     1      -2.549   6.436 -30.182  1.00  0.00    -0.342 OA
BRANCH  10  11
HETATM   11  C   UNL     1      -1.470   6.922 -29.496  1.00  0.00     0.069 A 
HETATM   12  C   UNL     1      -1.624   8.215 -28.993  1.00  0.00     0.037 A 
HETATM   13  C   UNL     1      -0.592   8.828 -28.278  1.00  0.00     0.009 A 
HETATM   14  C   UNL     1       0.619   8.159 -28.073  1.00  0.00    -0.062 A 
HETATM   15  C   UNL     1       1.726   8.795 -27.286  1.00  0.00     0.048 C 
HETATM   16  C   UNL     1       0.771   6.864 -28.582  1.00  0.00     0.009 A 
HETATM   17  C   UNL     1      -0.266   6.250 -29.295  1.00  0.00     0.037 A 
ENDBRANCH  10  11
ENDBRANCH   9  10
ENDBRANCH   6   9
ENDBRANCH   2   5
BRANCH   1  18
HETATM   18  C   UNL     1      -5.720   1.441 -33.112  1.00  0.00     0.077 A 
HETATM   19  C   UNL     1      -6.529   1.254 -34.261  1.00  0.00     0.158 A 
HETATM   20  N   UNL     1      -6.676  -0.022 -34.601  1.00  0.00    -0.183 NA
HETATM   21  N   UNL     1      -5.903  -0.679 -33.716  1.00  0.00    -0.268 N 
HETATM   22  C   UNL     1      -5.359   0.147 -32.748  1.00  0.00     0.052 A 
BRANCH  21  23
HETATM   23  C   UNL     1      -5.760  -2.130 -33.842  1.00  0.00     0.106 C 
HETATM   24  C   UNL     1      -6.964  -2.711 -34.588  1.00  0.00     0.034 C 
BRANCH  23  25
HETATM   25  C   UNL     1      -4.444  -2.572 -34.517  1.00  0.00     0.022 C 
HETATM   26  C   UNL     1      -3.939  -3.920 -34.016  1.00  0.00     0.007 C 
ENDBRANCH  23  25
ENDBRANCH  21  23
BRANCH  22  27
HETATM   27  C   UNL     1      -4.590  -0.373 -31.531  1.00  0.00     0.038 A 
HETATM   28  C   UNL     1      -3.247  -1.040 -31.681  1.00  0.00     0.011 A 
HETATM   29  C   UNL     1      -3.328   0.324 -31.079  1.00  0.00     0.011 A 
ENDBRANCH  22  27
ENDBRANCH   1  18
TORSDOF 8
ENDMDL
MODEL 7
REMARK VINA RESULT:      -7.5      2.351     10.296
REMARK  8 active torsions:
REMARK  status: ('A' for Active; 'I' for Inactive)
REMARK    1  A    between atoms: C_2  and  C_3 
REMARK    2  A    between atoms: C_3  and  N_4 
REMARK    3  A    between atoms: C_7  and  C_8 
REMARK       I    between atoms: C_8  and  N_9 
REMARK    4  A    between atoms: N_9  and  N_10 
REMARK       I    between atoms: N_10  and  C_11 
REMARK    5  A    between atoms: C_11  and  C_12 
REMARK    6  A    between atoms: C_12  and  O_13 
REMARK    7  A    between atoms: O_13  and  C_14 
REMARK    8  A    between atoms: C_23  and  C_24 
ROOT
HETATM    1  C   UNL     1      -4.747   4.339 -31.425  1.00  0.00     0.273 C 
HETATM    2  N   UNL     1      -3.390   4.066 -31.368  1.00  0.00    -0.263 N 
HETATM    3  O   UNL     1      -5.257   5.231 -30.751  1.00  0.00    -0.266 OA
HETATM    4  H   UNL     1      -2.936   3.549 -32.120  1.00  0.00     0.190 HD
ENDROOT
BRANCH   2   5
HETATM    5  N   UNL     1      -2.560   4.938 -30.644  1.00  0.00    -0.265 N 
HETATM    6  C   UNL     1      -1.369   5.320 -31.232  1.00  0.00     0.260 C 
HETATM    7  O   UNL     1      -0.972   4.831 -32.291  1.00  0.00    -0.269 OA
HETATM    8  H   UNL     1      -3.011   5.495 -29.919  1.00  0.00     0.190 HD
BRANCH   6   9
HETATM    9  C   UNL     1      -0.592   6.372 -30.457  1.00  0.00     0.280 C 
BRANCH   9  10
HETATM   10  O   UNL     1      -0.988   6.287 -29.092  1.00  0.00    -0.342 OA
BRANCH  10  11
HETATM   11  C   UNL     1      -0.165   6.895 -28.184  1.00  0.00     0.069 A 
HETATM   12  C   UNL     1       0.675   7.876 -28.714  1.00  0.00     0.037 A 
HETATM   13  C   UNL     1       1.568   8.569 -27.892  1.00  0.00     0.009 A 
HETATM   14  C   UNL     1       1.643   8.274 -26.527  1.00  0.00    -0.062 A 
HETATM   15  C   UNL     1       2.579   9.026 -25.628  1.00  0.00     0.048 C 
HETATM   16  C   UNL     1       0.802   7.287 -26.000  1.00  0.00     0.009 A 
HETATM   17  C   UNL     1      -0.095   6.597 -26.825  1.00  0.00     0.037 A 
ENDBRANCH  10  11
ENDBRANCH   9  10
ENDBRANCH   6   9
ENDBRANCH   2   5
BRANCH   1  18
HETATM   18  C   UNL     1      -5.477   3.452 -32.314  1.00  0.00     0.077 A 
HETATM   19  C   UNL     1      -5.667   3.680 -33.700  1.00  0.00     0.158 A 
HETATM   20  N   UNL     1      -6.389   2.736 -34.296  1.00  0.00    -0.183 NA
HETATM   21  N   UNL     1      -6.618   1.843 -33.314  1.00  0.00    -0.268 N 
HETATM   22  C   UNL     1      -6.154   2.259 -32.079  1.00  0.00     0.052 A 
BRANCH  21  23
HETATM   23  C   UNL     1      -7.335   0.608 -33.635  1.00  0.00     0.106 C 
HETATM   24  C   UNL     1      -8.751   0.935 -34.114  1.00  0.00     0.034 C 
BRANCH  23  25
HETATM   25  C   UNL     1      -6.611  -0.284 -34.665  1.00  0.00     0.022 C 
HETATM   26  C   UNL     1      -5.512  -1.141 -34.046  1.00  0.00     0.007 C 
ENDBRANCH  23  25
ENDBRANCH  21  23
BRANCH  22  27
HETATM   27  C   UNL     1      -6.442   1.512 -30.774  1.00  0.00     0.038 A 
HETATM   28  C   UNL     1      -6.619   0.015 -30.752  1.00  0.00     0.011 A 
HETATM   29  C   UNL     1      -5.386   0.618 -30.165  1.00  0.00     0.011 A 
ENDBRANCH  22  27
ENDBRANCH   1  18
TORSDOF 8
ENDMDL
MODEL 8
REMARK VINA RESULT:      -7.5      2.537      9.414
REMARK  8 active torsions:
REMARK  status: ('A' for Active; 'I' for Inactive)
REMARK    1  A    between atoms: C_2  and  C_3 
REMARK    2  A    between atoms: C_3  and  N_4 
REMARK    3  A    between atoms: C_7  and  C_8 
REMARK       I    between atoms: C_8  and  N_9 
REMARK    4  A    between atoms: N_9  and  N_10 
REMARK       I    between atoms: N_10  and  C_11 
REMARK    5  A    between atoms: C_11  and  C_12 
REMARK    6  A    between atoms: C_12  and  O_13 
REMARK    7  A    between atoms: O_13  and  C_14 
REMARK    8  A    between atoms: C_23  and  C_24 
ROOT
HETATM    1  C   UNL     1      -3.275   3.410 -32.351  1.00  0.00     0.273 C 
HETATM    2  N   UNL     1      -2.707   3.748 -33.568  1.00  0.00    -0.263 N 
HETATM    3  O   UNL     1      -2.972   3.991 -31.311  1.00  0.00    -0.266 OA
HETATM    4  H   UNL     1      -3.161   3.481 -34.440  1.00  0.00     0.190 HD
ENDROOT
BRANCH   2   5
HETATM    5  N   UNL     1      -1.891   4.889 -33.634  1.00  0.00    -0.265 N 
HETATM    6  C   UNL     1      -2.455   6.050 -34.126  1.00  0.00     0.260 C 
HETATM    7  O   UNL     1      -3.588   6.077 -34.610  1.00  0.00    -0.269 OA
HETATM    8  H   UNL     1      -1.076   4.899 -33.021  1.00  0.00     0.190 HD
BRANCH   6   9
HETATM    9  C   UNL     1      -1.560   7.276 -34.034  1.00  0.00     0.280 C 
BRANCH   9  10
HETATM   10  O   UNL     1      -1.975   8.034 -32.903  1.00  0.00    -0.342 OA
BRANCH  10  11
HETATM   11  C   UNL     1      -1.289   7.812 -31.741  1.00  0.00     0.069 A 
HETATM   12  C   UNL     1      -1.832   8.420 -30.608  1.00  0.00     0.037 A 
HETATM   13  C   UNL     1      -1.223   8.275 -29.360  1.00  0.00     0.009 A 
HETATM   14  C   UNL     1      -0.046   7.531 -29.232  1.00  0.00    -0.062 A 
HETATM   15  C   UNL     1       0.606   7.345 -27.894  1.00  0.00     0.048 C 
HETATM   16  C   UNL     1       0.499   6.925 -30.370  1.00  0.00     0.009 A 
HETATM   17  C   UNL     1      -0.116   7.069 -31.620  1.00  0.00     0.037 A 
ENDBRANCH  10  11
ENDBRANCH   9  10
ENDBRANCH   6   9
ENDBRANCH   2   5
BRANCH   1  18
HETATM   18  C   UNL     1      -4.207   2.299 -32.437  1.00  0.00     0.077 A 
HETATM   19  C   UNL     1      -4.003   1.028 -31.843  1.00  0.00     0.158 A 
HETATM   20  N   UNL     1      -4.988   0.170 -32.081  1.00  0.00    -0.183 NA
HETATM   21  N   UNL     1      -5.883   0.897 -32.777  1.00  0.00    -0.268 N 
HETATM   22  C   UNL     1      -5.432   2.168 -33.084  1.00  0.00     0.052 A 
BRANCH  21  23
HETATM   23  C   UNL     1      -7.158   0.282 -33.150  1.00  0.00     0.106 C 
HETATM   24  C   UNL     1      -6.921  -1.144 -33.654  1.00  0.00     0.034 C 
BRANCH  23  25
HETATM   25  C   UNL     1      -8.208   0.286 -32.019  1.00  0.00     0.022 C 
HETATM   26  C   UNL     1      -9.642   0.300 -32.535  1.00  0.00     0.007 C 
ENDBRANCH  23  25
ENDBRANCH  21  23
BRANCH  22  27
HETATM   27  C   UNL     1      -6.182   3.128 -34.011  1.00  0.00     0.038 A 
HETATM   28  C   UNL     1      -7.606   3.535 -33.731  1.00  0.00     0.011 A 
HETATM   29  C   UNL     1      -6.508   4.529 -33.548  1.00  0.00     0.011 A 
ENDBRANCH  22  27
ENDBRANCH   1  18
TORSDOF 8
ENDMDL
MODEL 9
REMARK VINA RESULT:      -7.3      2.089      2.676
REMARK  8 active torsions:
REMARK  status: ('A' for Active; 'I' for Inactive)
REMARK    1  A    between atoms: C_2  and  C_3 
REMARK    2  A    between atoms: C_3  and  N_4 
REMARK    3  A    between atoms: C_7  and  C_8 
REMARK       I    between atoms: C_8  and  N_9 
REMARK    4  A    between atoms: N_9  and  N_10 
REMARK       I    between atoms: N_10  and  C_11 
REMARK    5  A    between atoms: C_11  and  C_12 
REMARK    6  A    between atoms: C_12  and  O_13 
REMARK    7  A    between atoms: O_13  and  C_14 
REMARK    8  A    between atoms: C_23  and  C_24 
ROOT
HETATM    1  C   UNL     1      -4.396   5.255 -31.769  1.00  0.00     0.273 C 
HETATM    2  N   UNL     1      -4.463   3.913 -31.431  1.00  0.00    -0.263 N 
HETATM    3  O   UNL     1      -5.021   5.715 -32.721  1.00  0.00    -0.266 OA
HETATM    4  H   UNL     1      -4.194   3.603 -30.498  1.00  0.00     0.190 HD
ENDROOT
BRANCH   2   5
HETATM    5  N   UNL     1      -5.395   3.100 -32.096  1.00  0.00    -0.265 N 
HETATM    6  C   UNL     1      -6.552   2.769 -31.416  1.00  0.00     0.260 C 
HETATM    7  O   UNL     1      -6.725   3.059 -30.231  1.00  0.00    -0.269 OA
HETATM    8  H   UNL     1      -5.341   3.087 -33.114  1.00  0.00     0.190 HD
BRANCH   6   9
HETATM    9  C   UNL     1      -7.575   2.008 -32.245  1.00  0.00     0.280 C 
BRANCH   9  10
HETATM   10  O   UNL     1      -7.588   0.660 -31.788  1.00  0.00    -0.342 OA
BRANCH  10  11
HETATM   11  C   UNL     1      -6.870  -0.237 -32.530  1.00  0.00     0.069 A 
HETATM   12  C   UNL     1      -7.539  -0.757 -33.639  1.00  0.00     0.037 A 
HETATM   13  C   UNL     1      -6.916  -1.687 -34.475  1.00  0.00     0.009 A 
HETATM   14  C   UNL     1      -5.617  -2.124 -34.200  1.00  0.00    -0.062 A 
HETATM   15  C   UNL     1      -4.927  -3.103 -35.103  1.00  0.00     0.048 C 
HETATM   16  C   UNL     1      -4.950  -1.604 -33.085  1.00  0.00     0.009 A 
HETATM   17  C   UNL     1      -5.574  -0.669 -32.250  1.00  0.00     0.037 A 
ENDBRANCH  10  11
ENDBRANCH   9  10
ENDBRANCH   6   9
ENDBRANCH   2   5
BRANCH   1  18
HETATM   18  C   UNL     1      -3.499   6.020 -30.920  1.00  0.00     0.077 A 
HETATM   19  C   UNL     1      -3.884   6.672 -29.722  1.00  0.00     0.158 A 
HETATM   20  N   UNL     1      -2.889   7.327 -29.133  1.00  0.00    -0.183 NA
HETATM   21  N   UNL     1      -1.823   7.048 -29.907  1.00  0.00    -0.268 N 
HETATM   22  C   UNL     1      -2.146   6.324 -31.041  1.00  0.00     0.052 A 
BRANCH  21  23
HETATM   23  C   UNL     1      -0.508   7.552 -29.508  1.00  0.00     0.106 C 
HETATM   24  C   UNL     1      -0.670   8.715 -28.527  1.00  0.00     0.034 C 
BRANCH  23  25
HETATM   25  C   UNL     1       0.420   6.471 -28.913  1.00  0.00     0.022 C 
HETATM   26  C   UNL     1       0.896   6.802 -27.503  1.00  0.00     0.007 C 
ENDBRANCH  23  25
ENDBRANCH  21  23
BRANCH  22  27
HETATM   27  C   UNL     1      -1.151   6.031 -32.167  1.00  0.00     0.038 A 
HETATM   28  C   UNL     1      -1.612   5.501 -33.500  1.00  0.00     0.011 A 
HETATM   29  C   UNL     1      -1.123   6.907 -33.398  1.00  0.00     0.011 A 
ENDBRANCH  22  27
ENDBRANCH   1  18
TORSDOF 8
ENDMDL
MODEL 10
REMARK VINA RESULT:      -7.2      2.072     10.121
REMARK  8 active torsions:
REMARK  status: ('A' for Active; 'I' for Inactive)
REMARK    1  A    between atoms: C_2  and  C_3 
REMARK    2  A    between atoms: C_3  and  N_4 
REMARK    3  A    between atoms: C_7  and  C_8 
REMARK       I    between atoms: C_8  and  N_9 
REMARK    4  A    between atoms: N_9  and  N_10 
REMARK       I    between atoms: N_10  and  C_11 
REMARK    5  A    between atoms: C_11  and  C_12 
REMARK    6  A    between atoms: C_12  and  O_13 
REMARK    7  A    between atoms: O_13  and  C_14 
REMARK    8  A    between atoms: C_23  and  C_24 
ROOT
HETATM    1  C   UNL     1      -4.534   3.249 -30.776  1.00  0.00     0.273 C 
HETATM    2  N   UNL     1      -3.261   3.648 -31.147  1.00  0.00    -0.263 N 
HETATM    3  O   UNL     1      -5.247   3.945 -30.056  1.00  0.00    -0.266 OA
HETATM    4  H   UNL     1      -2.805   3.228 -31.955  1.00  0.00     0.190 HD
ENDROOT
BRANCH   2   5
HETATM    5  N   UNL     1      -2.844   4.950 -30.824  1.00  0.00    -0.265 N 
HETATM    6  C   UNL     1      -1.499   5.241 -30.956  1.00  0.00     0.260 C 
HETATM    7  O   UNL     1      -0.663   4.376 -31.222  1.00  0.00    -0.269 OA
HETATM    8  H   UNL     1      -3.561   5.674 -30.849  1.00  0.00     0.190 HD
BRANCH   6   9
HETATM    9  C   UNL     1      -1.144   6.701 -30.728  1.00  0.00     0.280 C 
BRANCH   9  10
HETATM   10  O   UNL     1      -1.681   7.087 -29.466  1.00  0.00    -0.342 OA
BRANCH  10  11
HETATM   11  C   UNL     1      -0.773   7.329 -28.472  1.00  0.00     0.069 A 
HETATM   12  C   UNL     1       0.339   8.078 -28.858  1.00  0.00     0.037 A 
HETATM   13  C   UNL     1       1.342   8.390 -27.936  1.00  0.00     0.009 A 
HETATM   14  C   UNL     1       1.252   7.938 -26.616  1.00  0.00    -0.062 A 
HETATM   15  C   UNL     1       2.309   8.285 -25.610  1.00  0.00     0.048 C 
HETATM   16  C   UNL     1       0.137   7.183 -26.234  1.00  0.00     0.009 A 
HETATM   17  C   UNL     1      -0.869   6.875 -27.158  1.00  0.00     0.037 A 
ENDBRANCH  10  11
ENDBRANCH   9  10
ENDBRANCH   6   9
ENDBRANCH   2   5
BRANCH   1  18
HETATM   18  C   UNL     1      -4.901   1.939 -31.285  1.00  0.00     0.077 A 
HETATM   19  C   UNL     1      -4.269   0.726 -30.916  1.00  0.00     0.158 A 
HETATM   20  N   UNL     1      -4.768  -0.339 -31.534  1.00  0.00    -0.183 NA
HETATM   21  N   UNL     1      -5.783   0.163 -32.263  1.00  0.00    -0.268 N 
HETATM   22  C   UNL     1      -5.864   1.543 -32.209  1.00  0.00     0.052 A 
BRANCH  21  23
HETATM   23  C   UNL     1      -6.625  -0.756 -33.031  1.00  0.00     0.106 C 
HETATM   24  C   UNL     1      -8.083  -0.290 -32.986  1.00  0.00     0.034 C 
BRANCH  23  25
HETATM   25  C   UNL     1      -6.167  -0.950 -34.492  1.00  0.00     0.022 C 
HETATM   26  C   UNL     1      -5.876  -2.406 -34.839  1.00  0.00     0.007 C 
ENDBRANCH  23  25
ENDBRANCH  21  23
BRANCH  22  27
HETATM   27  C   UNL     1      -6.814   2.368 -33.081  1.00  0.00     0.038 A 
HETATM   28  C   UNL     1      -6.511   3.803 -33.426  1.00  0.00     0.011 A 
HETATM   29  C   UNL     1      -6.408   2.755 -34.484  1.00  0.00     0.011 A 
ENDBRANCH  22  27
ENDBRANCH   1  18
TORSDOF 8
ENDMDL
