MODEL 1
REMARK VINA RESULT:      -8.0      0.000      0.000
REMARK  8 active torsions:
REMARK  status: ('A' for Active; 'I' for Inactive)
REMARK    1  A    between atoms: N_4  and  C_5 
REMARK    2  A    between atoms: C_5  and  C_6 
REMARK    3  A    between atoms: C_6  and  C_7 
REMARK    4  A    between atoms: C_7  and  N_8 
REMARK       I    between atoms: N_8  and  C_9 
REMARK       I    between atoms: C_9  and  N_10 
REMARK    5  A    between atoms: N_10  and  N_11 
REMARK       I    between atoms: N_11  and  C_12 
REMARK    6  A    between atoms: C_12  and  C_13 
REMARK    7  A    between atoms: C_13  and  O_14 
REMARK    8  A    between atoms: O_14  and  C_15 
ROOT
HETATM    1  N   UNL     1      -5.767   3.824 -32.107  1.00  0.00    -0.341 N 
HETATM    2  C   UNL     1      -6.748   2.985 -31.636  1.00  0.00     0.334 C 
HETATM    3  N   UNL     1      -7.552   2.524 -32.661  1.00  0.00    -0.249 N 
HETATM    4  O   UNL     1      -6.864   2.651 -30.464  1.00  0.00    -0.246 OA
HETATM    5  H   UNL     1      -5.968   4.354 -32.942  1.00  0.00     0.164 HD
HETATM    6  H   UNL     1      -7.194   2.556 -33.609  1.00  0.00     0.192 HD
ENDROOT
BRANCH   1   7
HETATM    7  C   UNL     1      -4.660   4.266 -31.282  1.00  0.00     0.130 C 
BRANCH   7   8
HETATM    8  C   UNL     1      -3.314   3.596 -31.607  1.00  0.00     0.019 C 
HETATM    9  C   UNL     1      -3.492   2.233 -32.279  1.00  0.00     0.013 C 
BRANCH   8  10
HETATM   10  C   UNL     1      -2.485   4.506 -32.536  1.00  0.00     0.156 C 
BRANCH  10  11
HETATM   11  N   UNL     1      -1.370   5.150 -31.858  1.00  0.00    -0.274 N 
HETATM   12  N   UNL     1      -0.802   4.502 -30.822  1.00  0.00    -0.177 NA
HETATM   13  C   UNL     1       0.205   5.296 -30.446  1.00  0.00     0.053 A 
HETATM   14  C   UNL     1       1.106   4.894 -29.340  1.00  0.00     0.072 C 
HETATM   15  C   UNL     1       0.261   6.466 -31.231  1.00  0.00     0.055 A 
HETATM   16  C   UNL     1      -0.772   6.351 -32.141  1.00  0.00     0.028 A 
HETATM   17  C   UNL     1      -1.188   7.265 -33.230  1.00  0.00     0.070 C 
ENDBRANCH  10  11
ENDBRANCH   8  10
ENDBRANCH   7   8
ENDBRANCH   1   7
BRANCH   3  18
HETATM   18  N   UNL     1      -8.544   1.577 -32.393  1.00  0.00    -0.264 N 
HETATM   19  C   UNL     1      -8.889   0.533 -33.221  1.00  0.00     0.260 C 
HETATM   20  O   UNL     1      -9.726  -0.285 -32.826  1.00  0.00    -0.269 OA
HETATM   21  H   UNL     1      -8.876   1.509 -31.435  1.00  0.00     0.190 HD
BRANCH  19  22
HETATM   22  C   UNL     1      -8.257   0.427 -34.606  1.00  0.00     0.280 C 
BRANCH  22  23
HETATM   23  O   UNL     1      -6.842   0.521 -34.455  1.00  0.00    -0.342 OA
BRANCH  23  24
HETATM   24  C   UNL     1      -6.211  -0.686 -34.380  1.00  0.00     0.069 A 
HETATM   25  C   UNL     1      -5.035  -0.727 -33.629  1.00  0.00     0.038 A 
HETATM   26  C   UNL     1      -4.333  -1.924 -33.490  1.00  0.00     0.022 A 
HETATM   27  C   UNL     1      -4.827  -3.082 -34.086  1.00  0.00     0.011 A 
HETATM   28 BR   UNL     1      -3.874  -4.704 -33.909  1.00  0.00    -0.051 Br
HETATM   29  C   UNL     1      -6.020  -3.054 -34.810  1.00  0.00     0.022 A 
HETATM   30  C   UNL     1      -6.718  -1.851 -34.954  1.00  0.00     0.038 A 
ENDBRANCH  23  24
ENDBRANCH  22  23
ENDBRANCH  19  22
ENDBRANCH   3  18
TORSDOF 8
ENDMDL
MODEL 2
REMARK VINA RESULT:      -7.8      1.710      2.131
REMARK  8 active torsions:
REMARK  status: ('A' for Active; 'I' for Inactive)
REMARK    1  A    between atoms: N_4  and  C_5 
REMARK    2  A    between atoms: C_5  and  C_6 
REMARK    3  A    between atoms: C_6  and  C_7 
REMARK    4  A    between atoms: C_7  and  N_8 
REMARK       I    between atoms: N_8  and  C_9 
REMARK       I    between atoms: C_9  and  N_10 
REMARK    5  A    between atoms: N_10  and  N_11 
REMARK       I    between atoms: N_11  and  C_12 
REMARK    6  A    between atoms: C_12  and  C_13 
REMARK    7  A    between atoms: C_13  and  O_14 
REMARK    8  A    between atoms: O_14  and  C_15 
ROOT
HETATM    1  N   UNL     1      -5.910   3.963 -32.253  1.00  0.00    -0.341 N 
HETATM    2  C   UNL     1      -6.941   4.051 -33.157  1.00  0.00     0.334 C 
HETATM    3  N   UNL     1      -8.094   3.470 -32.664  1.00  0.00    -0.249 N 
HETATM    4  O   UNL     1      -6.861   4.617 -34.238  1.00  0.00    -0.246 OA
HETATM    5  H   UNL     1      -5.913   3.179 -31.617  1.00  0.00     0.164 HD
HETATM    6  H   UNL     1      -8.184   3.345 -31.662  1.00  0.00     0.192 HD
ENDROOT
BRANCH   1   7
HETATM    7  C   UNL     1      -4.663   4.682 -32.422  1.00  0.00     0.130 C 
BRANCH   7   8
HETATM    8  C   UNL     1      -3.406   3.877 -32.052  1.00  0.00     0.019 C 
HETATM    9  C   UNL     1      -3.573   2.381 -32.331  1.00  0.00     0.013 C 
BRANCH   8  10
HETATM   10  C   UNL     1      -2.194   4.401 -32.848  1.00  0.00     0.156 C 
BRANCH  10  11
HETATM   11  N   UNL     1      -1.237   5.122 -32.023  1.00  0.00    -0.274 N 
HETATM   12  N   UNL     1      -0.709   4.481 -30.962  1.00  0.00    -0.177 NA
HETATM   13  C   UNL     1       0.155   5.356 -30.441  1.00  0.00     0.053 A 
HETATM   14  C   UNL     1       0.977   4.992 -29.262  1.00  0.00     0.072 C 
HETATM   15  C   UNL     1       0.157   6.570 -31.159  1.00  0.00     0.055 A 
HETATM   16  C   UNL     1      -0.755   6.396 -32.182  1.00  0.00     0.028 A 
HETATM   17  C   UNL     1      -1.159   7.322 -33.266  1.00  0.00     0.070 C 
ENDBRANCH  10  11
ENDBRANCH   8  10
ENDBRANCH   7   8
ENDBRANCH   1   7
BRANCH   3  18
HETATM   18  N   UNL     1      -9.281   3.552 -33.397  1.00  0.00    -0.264 N 
HETATM   19  C   UNL     1      -9.802   2.545 -34.178  1.00  0.00     0.260 C 
HETATM   20  O   UNL     1     -10.906   2.716 -34.706  1.00  0.00    -0.269 OA
HETATM   21  H   UNL     1      -9.921   4.306 -33.164  1.00  0.00     0.190 HD
BRANCH  19  22
HETATM   22  C   UNL     1      -8.999   1.266 -34.396  1.00  0.00     0.280 C 
BRANCH  22  23
HETATM   23  O   UNL     1      -8.946   0.561 -33.157  1.00  0.00    -0.342 OA
BRANCH  23  24
HETATM   24  C   UNL     1      -7.717   0.044 -32.866  1.00  0.00     0.069 A 
HETATM   25  C   UNL     1      -7.038  -0.571 -33.919  1.00  0.00     0.038 A 
HETATM   26  C   UNL     1      -5.770  -1.115 -33.713  1.00  0.00     0.022 A 
HETATM   27  C   UNL     1      -5.179  -1.019 -32.455  1.00  0.00     0.011 A 
HETATM   28 BR   UNL     1      -3.466  -1.764 -32.167  1.00  0.00    -0.051 Br
HETATM   29  C   UNL     1      -5.841  -0.376 -31.408  1.00  0.00     0.022 A 
HETATM   30  C   UNL     1      -7.114   0.162 -31.615  1.00  0.00     0.038 A 
ENDBRANCH  23  24
ENDBRANCH  22  23
ENDBRANCH  19  22
ENDBRANCH   3  18
TORSDOF 8
ENDMDL
MODEL 3
REMARK VINA RESULT:      -7.8      3.209      7.716
REMARK  8 active torsions:
REMARK  status: ('A' for Active; 'I' for Inactive)
REMARK    1  A    between atoms: N_4  and  C_5 
REMARK    2  A    between atoms: C_5  and  C_6 
REMARK    3  A    between atoms: C_6  and  C_7 
REMARK    4  A    between atoms: C_7  and  N_8 
REMARK       I    between atoms: N_8  and  C_9 
REMARK       I    between atoms: C_9  and  N_10 
REMARK    5  A    between atoms: N_10  and  N_11 
REMARK       I    between atoms: N_11  and  C_12 
REMARK    6  A    between atoms: C_12  and  C_13 
REMARK    7  A    between atoms: C_13  and  O_14 
REMARK    8  A    between atoms: O_14  and  C_15 
ROOT
HETATM    1  N   UNL     1      -8.612   2.676 -30.947  1.00  0.00    -0.341 N 
HETATM    2  C   UNL     1      -7.389   3.167 -30.557  1.00  0.00     0.334 C 
HETATM    3  N   UNL     1      -6.354   2.493 -31.176  1.00  0.00    -0.249 N 
HETATM    4  O   UNL     1      -7.239   4.114 -29.797  1.00  0.00    -0.246 OA
HETATM    5  H   UNL     1      -8.659   1.704 -31.216  1.00  0.00     0.164 HD
HETATM    6  H   UNL     1      -6.551   1.981 -32.029  1.00  0.00     0.192 HD
ENDROOT
BRANCH   1   7
HETATM    7  C   UNL     1      -9.857   3.343 -30.624  1.00  0.00     0.130 C 
BRANCH   7   8
HETATM    8  C   UNL     1     -10.644   3.851 -31.844  1.00  0.00     0.019 C 
HETATM    9  C   UNL     1     -10.324   5.311 -32.174  1.00  0.00     0.013 C 
BRANCH   8  10
HETATM   10  C   UNL     1     -10.325   2.979 -33.075  1.00  0.00     0.156 C 
BRANCH  10  11
HETATM   11  N   UNL     1     -11.298   1.919 -33.292  1.00  0.00    -0.274 N 
HETATM   12  N   UNL     1     -12.553   2.273 -33.626  1.00  0.00    -0.177 NA
HETATM   13  C   UNL     1     -13.189   1.113 -33.808  1.00  0.00     0.053 A 
HETATM   14  C   UNL     1     -14.609   1.091 -34.234  1.00  0.00     0.072 C 
HETATM   15  C   UNL     1     -12.339   0.014 -33.563  1.00  0.00     0.055 A 
HETATM   16  C   UNL     1     -11.116   0.561 -33.228  1.00  0.00     0.028 A 
HETATM   17  C   UNL     1      -9.835  -0.104 -32.890  1.00  0.00     0.070 C 
ENDBRANCH  10  11
ENDBRANCH   8  10
ENDBRANCH   7   8
ENDBRANCH   1   7
BRANCH   3  18
HETATM   18  N   UNL     1      -5.036   2.917 -30.986  1.00  0.00    -0.264 N 
HETATM   19  C   UNL     1      -3.915   2.230 -31.392  1.00  0.00     0.260 C 
HETATM   20  O   UNL     1      -2.808   2.757 -31.239  1.00  0.00    -0.269 OA
HETATM   21  H   UNL     1      -4.892   3.893 -30.744  1.00  0.00     0.190 HD
BRANCH  19  22
HETATM   22  C   UNL     1      -4.060   0.832 -31.989  1.00  0.00     0.280 C 
BRANCH  22  23
HETATM   23  O   UNL     1      -4.891   0.929 -33.144  1.00  0.00    -0.342 OA
BRANCH  23  24
HETATM   24  C   UNL     1      -5.263  -0.277 -33.662  1.00  0.00     0.069 A 
HETATM   25  C   UNL     1      -4.337  -1.315 -33.545  1.00  0.00     0.038 A 
HETATM   26  C   UNL     1      -4.640  -2.585 -34.035  1.00  0.00     0.022 A 
HETATM   27  C   UNL     1      -5.883  -2.814 -34.621  1.00  0.00     0.011 A 
HETATM   28 BR   UNL     1      -6.296  -4.530 -35.297  1.00  0.00    -0.051 Br
HETATM   29  C   UNL     1      -6.826  -1.789 -34.710  1.00  0.00     0.022 A 
HETATM   30  C   UNL     1      -6.516  -0.516 -34.224  1.00  0.00     0.038 A 
ENDBRANCH  23  24
ENDBRANCH  22  23
ENDBRANCH  19  22
ENDBRANCH   3  18
TORSDOF 8
ENDMDL
MODEL 4
REMARK VINA RESULT:      -7.7      2.156      3.259
REMARK  8 active torsions:
REMARK  status: ('A' for Active; 'I' for Inactive)
REMARK    1  A    between atoms: N_4  and  C_5 
REMARK    2  A    between atoms: C_5  and  C_6 
REMARK    3  A    between atoms: C_6  and  C_7 
REMARK    4  A    between atoms: C_7  and  N_8 
REMARK       I    between atoms: N_8  and  C_9 
REMARK       I    between atoms: C_9  and  N_10 
REMARK    5  A    between atoms: N_10  and  N_11 
REMARK       I    between atoms: N_11  and  C_12 
REMARK    6  A    between atoms: C_12  and  C_13 
REMARK    7  A    between atoms: C_13  and  O_14 
REMARK    8  A    between atoms: O_14  and  C_15 
ROOT
HETATM    1  N   UNL     1      -7.328   1.953 -30.380  1.00  0.00    -0.341 N 
HETATM    2  C   UNL     1      -8.200   2.762 -31.069  1.00  0.00     0.334 C 
HETATM    3  N   UNL     1      -9.507   2.340 -30.914  1.00  0.00    -0.249 N 
HETATM    4  O   UNL     1      -7.866   3.757 -31.697  1.00  0.00    -0.246 OA
HETATM    5  H   UNL     1      -7.592   0.988 -30.249  1.00  0.00     0.164 HD
HETATM    6  H   UNL     1      -9.735   1.748 -30.124  1.00  0.00     0.192 HD
ENDROOT
BRANCH   1   7
HETATM    7  C   UNL     1      -5.933   2.298 -30.190  1.00  0.00     0.130 C 
BRANCH   7   8
HETATM    8  C   UNL     1      -4.941   1.351 -30.887  1.00  0.00     0.019 C 
HETATM    9  C   UNL     1      -5.429  -0.100 -30.889  1.00  0.00     0.013 C 
BRANCH   8  10
HETATM   10  C   UNL     1      -4.716   1.805 -32.343  1.00  0.00     0.156 C 
BRANCH  10  11
HETATM   11  N   UNL     1      -3.986   3.059 -32.444  1.00  0.00    -0.274 N 
HETATM   12  N   UNL     1      -2.867   3.199 -31.707  1.00  0.00    -0.177 NA
HETATM   13  C   UNL     1      -2.397   4.404 -32.042  1.00  0.00     0.053 A 
HETATM   14  C   UNL     1      -1.130   4.907 -31.459  1.00  0.00     0.072 C 
HETATM   15  C   UNL     1      -3.235   5.043 -32.979  1.00  0.00     0.055 A 
HETATM   16  C   UNL     1      -4.262   4.152 -33.225  1.00  0.00     0.028 A 
HETATM   17  C   UNL     1      -5.425   4.266 -34.137  1.00  0.00     0.070 C 
ENDBRANCH  10  11
ENDBRANCH   8  10
ENDBRANCH   7   8
ENDBRANCH   1   7
BRANCH   3  18
HETATM   18  N   UNL     1     -10.550   3.096 -31.456  1.00  0.00    -0.264 N 
HETATM   19  C   UNL     1     -11.271   2.763 -32.580  1.00  0.00     0.260 C 
HETATM   20  O   UNL     1     -12.227   3.475 -32.904  1.00  0.00    -0.269 OA
HETATM   21  H   UNL     1     -10.961   3.812 -30.864  1.00  0.00     0.190 HD
BRANCH  19  22
HETATM   22  C   UNL     1     -10.860   1.550 -33.410  1.00  0.00     0.280 C 
BRANCH  22  23
HETATM   23  O   UNL     1      -9.676   1.888 -34.130  1.00  0.00    -0.342 OA
BRANCH  23  24
HETATM   24  C   UNL     1      -8.736   0.899 -34.147  1.00  0.00     0.069 A 
HETATM   25  C   UNL     1      -7.642   1.097 -34.991  1.00  0.00     0.038 A 
HETATM   26  C   UNL     1      -6.628   0.142 -35.061  1.00  0.00     0.022 A 
HETATM   27  C   UNL     1      -6.705  -0.999 -34.264  1.00  0.00     0.011 A 
HETATM   28 BR   UNL     1      -5.339  -2.301 -34.362  1.00  0.00    -0.051 Br
HETATM   29  C   UNL     1      -7.779  -1.185 -33.394  1.00  0.00     0.022 A 
HETATM   30  C   UNL     1      -8.797  -0.230 -33.331  1.00  0.00     0.038 A 
ENDBRANCH  23  24
ENDBRANCH  22  23
ENDBRANCH  19  22
ENDBRANCH   3  18
TORSDOF 8
ENDMDL
MODEL 5
REMARK VINA RESULT:      -7.7      4.024      9.044
REMARK  8 active torsions:
REMARK  status: ('A' for Active; 'I' for Inactive)
REMARK    1  A    between atoms: N_4  and  C_5 
REMARK    2  A    between atoms: C_5  and  C_6 
REMARK    3  A    between atoms: C_6  and  C_7 
REMARK    4  A    between atoms: C_7  and  N_8 
REMARK       I    between atoms: N_8  and  C_9 
REMARK       I    between atoms: C_9  and  N_10 
REMARK    5  A    between atoms: N_10  and  N_11 
REMARK       I    between atoms: N_11  and  C_12 
REMARK    6  A    between atoms: C_12  and  C_13 
REMARK    7  A    between atoms: C_13  and  O_14 
REMARK    8  A    between atoms: O_14  and  C_15 
ROOT
HETATM    1  N   UNL     1      -6.467   2.667 -33.066  1.00  0.00    -0.341 N 
HETATM    2  C   UNL     1      -6.146   3.877 -33.633  1.00  0.00     0.334 C 
HETATM    3  N   UNL     1      -4.809   4.179 -33.454  1.00  0.00    -0.249 N 
HETATM    4  O   UNL     1      -6.932   4.573 -34.260  1.00  0.00    -0.246 OA
HETATM    5  H   UNL     1      -5.929   2.371 -32.264  1.00  0.00     0.164 HD
HETATM    6  H   UNL     1      -4.165   3.424 -33.246  1.00  0.00     0.192 HD
ENDROOT
BRANCH   1   7
HETATM    7  C   UNL     1      -7.738   2.012 -33.299  1.00  0.00     0.130 C 
BRANCH   7   8
HETATM    8  C   UNL     1      -7.627   0.591 -33.879  1.00  0.00     0.019 C 
HETATM    9  C   UNL     1      -6.952   0.577 -35.252  1.00  0.00     0.013 C 
BRANCH   8  10
HETATM   10  C   UNL     1      -6.823  -0.306 -32.918  1.00  0.00     0.156 C 
BRANCH  10  11
HETATM   11  N   UNL     1      -6.191  -1.435 -33.585  1.00  0.00    -0.274 N 
HETATM   12  N   UNL     1      -6.988  -2.387 -34.106  1.00  0.00    -0.177 NA
HETATM   13  C   UNL     1      -6.145  -3.246 -34.686  1.00  0.00     0.053 A 
HETATM   14  C   UNL     1      -6.660  -4.429 -35.416  1.00  0.00     0.072 C 
HETATM   15  C   UNL     1      -4.803  -2.850 -34.511  1.00  0.00     0.055 A 
HETATM   16  C   UNL     1      -4.856  -1.672 -33.792  1.00  0.00     0.028 A 
HETATM   17  C   UNL     1      -3.761  -0.786 -33.331  1.00  0.00     0.070 C 
ENDBRANCH  10  11
ENDBRANCH   8  10
ENDBRANCH   7   8
ENDBRANCH   1   7
BRANCH   3  18
HETATM   18  N   UNL     1      -4.269   5.321 -34.050  1.00  0.00    -0.264 N 
HETATM   19  C   UNL     1      -3.040   5.866 -33.754  1.00  0.00     0.260 C 
HETATM   20  O   UNL     1      -2.643   6.830 -34.416  1.00  0.00    -0.269 OA
HETATM   21  H   UNL     1      -4.696   5.641 -34.915  1.00  0.00     0.190 HD
BRANCH  19  22
HETATM   22  C   UNL     1      -2.216   5.291 -32.604  1.00  0.00     0.280 C 
BRANCH  22  23
HETATM   23  O   UNL     1      -2.797   5.736 -31.379  1.00  0.00    -0.342 OA
BRANCH  23  24
HETATM   24  C   UNL     1      -1.914   6.348 -30.538  1.00  0.00     0.069 A 
HETATM   25  C   UNL     1      -0.577   6.356 -30.940  1.00  0.00     0.038 A 
HETATM   26  C   UNL     1       0.391   6.971 -30.147  1.00  0.00     0.022 A 
HETATM   27  C   UNL     1       0.009   7.598 -28.962  1.00  0.00     0.011 A 
HETATM   28 BR   UNL     1       1.318   8.424 -27.878  1.00  0.00    -0.051 Br
HETATM   29  C   UNL     1      -1.330   7.622 -28.573  1.00  0.00     0.022 A 
HETATM   30  C   UNL     1      -2.297   6.999 -29.366  1.00  0.00     0.038 A 
ENDBRANCH  23  24
ENDBRANCH  22  23
ENDBRANCH  19  22
ENDBRANCH   3  18
TORSDOF 8
ENDMDL
MODEL 6
REMARK VINA RESULT:      -7.6      4.641      9.782
REMARK  8 active torsions:
REMARK  status: ('A' for Active; 'I' for Inactive)
REMARK    1  A    between atoms: N_4  and  C_5 
REMARK    2  A    between atoms: C_5  and  C_6 
REMARK    3  A    between atoms: C_6  and  C_7 
REMARK    4  A    between atoms: C_7  and  N_8 
REMARK       I    between atoms: N_8  and  C_9 
REMARK       I    between atoms: C_9  and  N_10 
REMARK    5  A    between atoms: N_10  and  N_11 
REMARK       I    between atoms: N_11  and  C_12 
REMARK    6  A    between atoms: C_12  and  C_13 
REMARK    7  A    between atoms: C_13  and  O_14 
REMARK    8  A    between atoms: O_14  and  C_15 
ROOT
HETATM    1  N   UNL     1      -3.257   3.001 -31.147  1.00  0.00    -0.341 N 
HETATM    2  C   UNL     1      -3.244   3.963 -32.128  1.00  0.00     0.334 C 
HETATM    3  N   UNL     1      -2.001   4.556 -32.236  1.00  0.00    -0.249 N 
HETATM    4  O   UNL     1      -4.198   4.224 -32.848  1.00  0.00    -0.246 OA
HETATM    5  H   UNL     1      -2.625   3.121 -30.368  1.00  0.00     0.164 HD
HETATM    6  H   UNL     1      -1.195   4.063 -31.869  1.00  0.00     0.192 HD
ENDROOT
BRANCH   1   7
HETATM    7  C   UNL     1      -4.361   2.078 -30.977  1.00  0.00     0.130 C 
BRANCH   7   8
HETATM    8  C   UNL     1      -4.166   0.716 -31.666  1.00  0.00     0.019 C 
HETATM    9  C   UNL     1      -2.902   0.000 -31.186  1.00  0.00     0.013 C 
BRANCH   8  10
HETATM   10  C   UNL     1      -5.385  -0.188 -31.396  1.00  0.00     0.156 C 
BRANCH  10  11
HETATM   11  N   UNL     1      -5.920  -0.801 -32.602  1.00  0.00    -0.274 N 
HETATM   12  N   UNL     1      -5.135  -1.666 -33.272  1.00  0.00    -0.177 NA
HETATM   13  C   UNL     1      -5.898  -2.096 -34.281  1.00  0.00     0.053 A 
HETATM   14  C   UNL     1      -5.386  -3.111 -35.232  1.00  0.00     0.072 C 
HETATM   15  C   UNL     1      -7.167  -1.481 -34.266  1.00  0.00     0.055 A 
HETATM   16  C   UNL     1      -7.159  -0.643 -33.168  1.00  0.00     0.028 A 
HETATM   17  C   UNL     1      -8.223   0.242 -32.637  1.00  0.00     0.070 C 
ENDBRANCH  10  11
ENDBRANCH   8  10
ENDBRANCH   7   8
ENDBRANCH   1   7
BRANCH   3  18
HETATM   18  N   UNL     1      -1.760   5.487 -33.250  1.00  0.00    -0.264 N 
HETATM   19  C   UNL     1      -1.646   6.847 -33.068  1.00  0.00     0.260 C 
HETATM   20  O   UNL     1      -1.346   7.551 -34.037  1.00  0.00    -0.269 OA
HETATM   21  H   UNL     1      -1.419   5.130 -34.138  1.00  0.00     0.190 HD
BRANCH  19  22
HETATM   22  C   UNL     1      -1.918   7.450 -31.693  1.00  0.00     0.280 C 
BRANCH  22  23
HETATM   23  O   UNL     1      -1.107   6.765 -30.741  1.00  0.00    -0.342 OA
BRANCH  23  24
HETATM   24  C   UNL     1      -0.719   7.537 -29.685  1.00  0.00     0.069 A 
HETATM   25  C   UNL     1       0.602   7.390 -29.261  1.00  0.00     0.038 A 
HETATM   26  C   UNL     1       1.086   8.150 -28.196  1.00  0.00     0.022 A 
HETATM   27  C   UNL     1       0.247   9.074 -27.576  1.00  0.00     0.011 A 
HETATM   28 BR   UNL     1       0.894  10.099 -26.127  1.00  0.00    -0.051 Br
HETATM   29  C   UNL     1      -1.065   9.249 -28.019  1.00  0.00     0.022 A 
HETATM   30  C   UNL     1      -1.549   8.481 -29.081  1.00  0.00     0.038 A 
ENDBRANCH  23  24
ENDBRANCH  22  23
ENDBRANCH  19  22
ENDBRANCH   3  18
TORSDOF 8
ENDMDL
MODEL 7
REMARK VINA RESULT:      -7.6      1.838      2.270
REMARK  8 active torsions:
REMARK  status: ('A' for Active; 'I' for Inactive)
REMARK    1  A    between atoms: N_4  and  C_5 
REMARK    2  A    between atoms: C_5  and  C_6 
REMARK    3  A    between atoms: C_6  and  C_7 
REMARK    4  A    between atoms: C_7  and  N_8 
REMARK       I    between atoms: N_8  and  C_9 
REMARK       I    between atoms: C_9  and  N_10 
REMARK    5  A    between atoms: N_10  and  N_11 
REMARK       I    between atoms: N_11  and  C_12 
REMARK    6  A    between atoms: C_12  and  C_13 
REMARK    7  A    between atoms: C_13  and  O_14 
REMARK    8  A    between atoms: O_14  and  C_15 
ROOT
HETATM    1  N   UNL     1      -4.851   4.634 -30.685  1.00  0.00    -0.341 N 
HETATM    2  C   UNL     1      -4.827   3.285 -30.428  1.00  0.00     0.334 C 
HETATM    3  N   UNL     1      -5.975   2.875 -29.778  1.00  0.00    -0.249 N 
HETATM    4  O   UNL     1      -3.925   2.534 -30.776  1.00  0.00    -0.246 OA
HETATM    5  H   UNL     1      -5.374   5.220 -30.051  1.00  0.00     0.164 HD
HETATM    6  H   UNL     1      -6.801   3.458 -29.838  1.00  0.00     0.192 HD
ENDROOT
BRANCH   1   7
HETATM    7  C   UNL     1      -3.882   5.280 -31.548  1.00  0.00     0.130 C 
BRANCH   7   8
HETATM    8  C   UNL     1      -3.714   4.617 -32.926  1.00  0.00     0.019 C 
HETATM    9  C   UNL     1      -4.377   5.426 -34.043  1.00  0.00     0.013 C 
BRANCH   8  10
HETATM   10  C   UNL     1      -2.215   4.453 -33.250  1.00  0.00     0.156 C 
BRANCH  10  11
HETATM   11  N   UNL     1      -1.350   5.181 -32.334  1.00  0.00    -0.274 N 
HETATM   12  N   UNL     1      -0.811   4.503 -31.302  1.00  0.00    -0.177 NA
HETATM   13  C   UNL     1      -0.040   5.400 -30.682  1.00  0.00     0.053 A 
HETATM   14  C   UNL     1       0.765   5.011 -29.499  1.00  0.00     0.072 C 
HETATM   15  C   UNL     1      -0.110   6.663 -31.308  1.00  0.00     0.055 A 
HETATM   16  C   UNL     1      -0.967   6.497 -32.378  1.00  0.00     0.028 A 
HETATM   17  C   UNL     1      -1.405   7.470 -33.408  1.00  0.00     0.070 C 
ENDBRANCH  10  11
ENDBRANCH   8  10
ENDBRANCH   7   8
ENDBRANCH   1   7
BRANCH   3  18
HETATM   18  N   UNL     1      -6.181   1.516 -29.522  1.00  0.00    -0.264 N 
HETATM   19  C   UNL     1      -6.653   0.599 -30.433  1.00  0.00     0.260 C 
HETATM   20  O   UNL     1      -6.707  -0.590 -30.104  1.00  0.00    -0.269 OA
HETATM   21  H   UNL     1      -5.742   1.128 -28.692  1.00  0.00     0.190 HD
BRANCH  19  22
HETATM   22  C   UNL     1      -7.123   1.072 -31.806  1.00  0.00     0.280 C 
BRANCH  22  23
HETATM   23  O   UNL     1      -6.048   0.893 -32.727  1.00  0.00    -0.342 OA
BRANCH  23  24
HETATM   24  C   UNL     1      -6.009  -0.345 -33.298  1.00  0.00     0.069 A 
HETATM   25  C   UNL     1      -7.204  -0.813 -33.848  1.00  0.00     0.038 A 
HETATM   26  C   UNL     1      -7.251  -2.063 -34.464  1.00  0.00     0.022 A 
HETATM   27  C   UNL     1      -6.091  -2.831 -34.546  1.00  0.00     0.011 A 
HETATM   28 BR   UNL     1      -6.152  -4.531 -35.370  1.00  0.00    -0.051 Br
HETATM   29  C   UNL     1      -4.887  -2.354 -34.028  1.00  0.00     0.022 A 
HETATM   30  C   UNL     1      -4.844  -1.103 -33.405  1.00  0.00     0.038 A 
ENDBRANCH  23  24
ENDBRANCH  22  23
ENDBRANCH  19  22
ENDBRANCH   3  18
TORSDOF 8
ENDMDL
MODEL 8
REMARK VINA RESULT:      -7.6      2.407      3.391
REMARK  8 active torsions:
REMARK  status: ('A' for Active; 'I' for Inactive)
REMARK    1  A    between atoms: N_4  and  C_5 
REMARK    2  A    between atoms: C_5  and  C_6 
REMARK    3  A    between atoms: C_6  and  C_7 
REMARK    4  A    between atoms: C_7  and  N_8 
REMARK       I    between atoms: N_8  and  C_9 
REMARK       I    between atoms: C_9  and  N_10 
REMARK    5  A    between atoms: N_10  and  N_11 
REMARK       I    between atoms: N_11  and  C_12 
REMARK    6  A    between atoms: C_12  and  C_13 
REMARK    7  A    between atoms: C_13  and  O_14 
REMARK    8  A    between atoms: O_14  and  C_15 
ROOT
HETATM    1  N   UNL     1      -2.337   4.163 -31.194  1.00  0.00    -0.341 N 
HETATM    2  C   UNL     1      -3.624   3.834 -31.547  1.00  0.00     0.334 C 
HETATM    3  N   UNL     1      -4.323   3.314 -30.474  1.00  0.00    -0.249 N 
HETATM    4  O   UNL     1      -4.103   4.025 -32.656  1.00  0.00    -0.246 OA
HETATM    5  H   UNL     1      -1.907   3.632 -30.451  1.00  0.00     0.164 HD
HETATM    6  H   UNL     1      -3.989   3.509 -29.537  1.00  0.00     0.192 HD
ENDROOT
BRANCH   1   7
HETATM    7  C   UNL     1      -1.464   4.929 -32.062  1.00  0.00     0.130 C 
BRANCH   7   8
HETATM    8  C   UNL     1      -0.988   6.266 -31.470  1.00  0.00     0.019 C 
HETATM    9  C   UNL     1      -1.022   7.400 -32.497  1.00  0.00     0.013 C 
BRANCH   8  10
HETATM   10  C   UNL     1      -1.874   6.653 -30.269  1.00  0.00     0.156 C 
BRANCH  10  11
HETATM   11  N   UNL     1      -1.166   7.434 -29.265  1.00  0.00    -0.274 N 
HETATM   12  N   UNL     1      -0.235   6.808 -28.521  1.00  0.00    -0.177 NA
HETATM   13  C   UNL     1       0.270   7.769 -27.742  1.00  0.00     0.053 A 
HETATM   14  C   UNL     1       1.371   7.470 -26.796  1.00  0.00     0.072 C 
HETATM   15  C   UNL     1      -0.362   9.008 -27.976  1.00  0.00     0.055 A 
HETATM   16  C   UNL     1      -1.293   8.767 -28.968  1.00  0.00     0.028 A 
HETATM   17  C   UNL     1      -2.236   9.695 -29.637  1.00  0.00     0.070 C 
ENDBRANCH  10  11
ENDBRANCH   8  10
ENDBRANCH   7   8
ENDBRANCH   1   7
BRANCH   3  18
HETATM   18  N   UNL     1      -5.681   3.016 -30.609  1.00  0.00    -0.264 N 
HETATM   19  C   UNL     1      -6.197   1.769 -30.882  1.00  0.00     0.260 C 
HETATM   20  O   UNL     1      -7.423   1.624 -30.890  1.00  0.00    -0.269 OA
HETATM   21  H   UNL     1      -6.345   3.700 -30.258  1.00  0.00     0.190 HD
BRANCH  19  22
HETATM   22  C   UNL     1      -5.251   0.613 -31.197  1.00  0.00     0.280 C 
BRANCH  22  23
HETATM   23  O   UNL     1      -4.962   0.646 -32.593  1.00  0.00    -0.342 OA
BRANCH  23  24
HETATM   24  C   UNL     1      -5.331  -0.485 -33.262  1.00  0.00     0.069 A 
HETATM   25  C   UNL     1      -4.349  -1.465 -33.413  1.00  0.00     0.038 A 
HETATM   26  C   UNL     1      -4.644  -2.658 -34.072  1.00  0.00     0.022 A 
HETATM   27  C   UNL     1      -5.932  -2.873 -34.558  1.00  0.00     0.011 A 
HETATM   28 BR   UNL     1      -6.334  -4.483 -35.462  1.00  0.00    -0.051 Br
HETATM   29  C   UNL     1      -6.926  -1.910 -34.380  1.00  0.00     0.022 A 
HETATM   30  C   UNL     1      -6.626  -0.713 -33.725  1.00  0.00     0.038 A 
ENDBRANCH  23  24
ENDBRANCH  22  23
ENDBRANCH  19  22
ENDBRANCH   3  18
TORSDOF 8
ENDMDL
MODEL 9
REMARK VINA RESULT:      -7.6      2.682      3.717
REMARK  8 active torsions:
REMARK  status: ('A' for Active; 'I' for Inactive)
REMARK    1  A    between atoms: N_4  and  C_5 
REMARK    2  A    between atoms: C_5  and  C_6 
REMARK    3  A    between atoms: C_6  and  C_7 
REMARK    4  A    between atoms: C_7  and  N_8 
REMARK       I    between atoms: N_8  and  C_9 
REMARK       I    between atoms: C_9  and  N_10 
REMARK    5  A    between atoms: N_10  and  N_11 
REMARK       I    between atoms: N_11  and  C_12 
REMARK    6  A    between atoms: C_12  and  C_13 
REMARK    7  A    between atoms: C_13  and  O_14 
REMARK    8  A    between atoms: O_14  and  C_15 
ROOT
HETATM    1  N   UNL     1      -2.304   4.154 -31.458  1.00  0.00    -0.341 N 
HETATM    2  C   UNL     1      -3.662   4.080 -31.263  1.00  0.00     0.334 C 
HETATM    3  N   UNL     1      -4.043   2.819 -30.846  1.00  0.00    -0.249 N 
HETATM    4  O   UNL     1      -4.429   5.024 -31.393  1.00  0.00    -0.246 OA
HETATM    5  H   UNL     1      -1.825   3.308 -31.728  1.00  0.00     0.164 HD
HETATM    6  H   UNL     1      -3.344   2.213 -30.432  1.00  0.00     0.192 HD
ENDROOT
BRANCH   1   7
HETATM    7  C   UNL     1      -1.617   5.412 -31.677  1.00  0.00     0.130 C 
BRANCH   7   8
HETATM    8  C   UNL     1      -0.733   5.869 -30.504  1.00  0.00     0.019 C 
HETATM    9  C   UNL     1       0.759   5.730 -30.814  1.00  0.00     0.013 C 
BRANCH   8  10
HETATM   10  C   UNL     1      -1.037   7.341 -30.161  1.00  0.00     0.156 C 
BRANCH  10  11
HETATM   11  N   UNL     1      -1.219   7.569 -28.735  1.00  0.00    -0.274 N 
HETATM   12  N   UNL     1      -2.448   7.380 -28.218  1.00  0.00    -0.177 NA
HETATM   13  C   UNL     1      -2.298   7.608 -26.910  1.00  0.00     0.053 A 
HETATM   14  C   UNL     1      -3.443   7.455 -25.983  1.00  0.00     0.072 C 
HETATM   15  C   UNL     1      -0.970   7.969 -26.599  1.00  0.00     0.055 A 
HETATM   16  C   UNL     1      -0.287   7.939 -27.799  1.00  0.00     0.028 A 
HETATM   17  C   UNL     1       1.141   8.205 -28.090  1.00  0.00     0.070 C 
ENDBRANCH  10  11
ENDBRANCH   8  10
ENDBRANCH   7   8
ENDBRANCH   1   7
BRANCH   3  18
HETATM   18  N   UNL     1      -5.374   2.575 -30.496  1.00  0.00    -0.264 N 
HETATM   19  C   UNL     1      -6.324   2.020 -31.324  1.00  0.00     0.260 C 
HETATM   20  O   UNL     1      -7.443   1.777 -30.862  1.00  0.00    -0.269 OA
HETATM   21  H   UNL     1      -5.604   2.588 -29.507  1.00  0.00     0.190 HD
BRANCH  19  22
HETATM   22  C   UNL     1      -5.984   1.747 -32.787  1.00  0.00     0.280 C 
BRANCH  22  23
HETATM   23  O   UNL     1      -4.926   0.791 -32.824  1.00  0.00    -0.342 OA
BRANCH  23  24
HETATM   24  C   UNL     1      -5.266  -0.387 -33.423  1.00  0.00     0.069 A 
HETATM   25  C   UNL     1      -4.312  -1.405 -33.377  1.00  0.00     0.038 A 
HETATM   26  C   UNL     1      -4.581  -2.646 -33.953  1.00  0.00     0.022 A 
HETATM   27  C   UNL     1      -5.818  -2.868 -34.555  1.00  0.00     0.011 A 
HETATM   28 BR   UNL     1      -6.185  -4.545 -35.347  1.00  0.00    -0.051 Br
HETATM   29  C   UNL     1      -6.788  -1.865 -34.574  1.00  0.00     0.022 A 
HETATM   30  C   UNL     1      -6.513  -0.620 -34.002  1.00  0.00     0.038 A 
ENDBRANCH  23  24
ENDBRANCH  22  23
ENDBRANCH  19  22
ENDBRANCH   3  18
TORSDOF 8
ENDMDL
MODEL 10
REMARK VINA RESULT:      -7.5     16.412     18.103
REMARK  8 active torsions:
REMARK  status: ('A' for Active; 'I' for Inactive)
REMARK    1  A    between atoms: N_4  and  C_5 
REMARK    2  A    between atoms: C_5  and  C_6 
REMARK    3  A    between atoms: C_6  and  C_7 
REMARK    4  A    between atoms: C_7  and  N_8 
REMARK       I    between atoms: N_8  and  C_9 
REMARK       I    between atoms: C_9  and  N_10 
REMARK    5  A    between atoms: N_10  and  N_11 
REMARK       I    between atoms: N_11  and  C_12 
REMARK    6  A    between atoms: C_12  and  C_13 
REMARK    7  A    between atoms: C_13  and  O_14 
REMARK    8  A    between atoms: O_14  and  C_15 
ROOT
HETATM    1  N   UNL     1      -2.781 -12.804 -37.730  1.00  0.00    -0.341 N 
HETATM    2  C   UNL     1      -3.408 -13.234 -36.585  1.00  0.00     0.334 C 
HETATM    3  N   UNL     1      -4.661 -12.666 -36.454  1.00  0.00    -0.249 N 
HETATM    4  O   UNL     1      -2.937 -14.054 -35.809  1.00  0.00    -0.246 OA
HETATM    5  H   UNL     1      -3.017 -11.885 -38.074  1.00  0.00     0.164 HD
HETATM    6  H   UNL     1      -5.112 -12.290 -37.280  1.00  0.00     0.192 HD
ENDROOT
BRANCH   1   7
HETATM    7  C   UNL     1      -1.560 -13.410 -38.222  1.00  0.00     0.130 C 
BRANCH   7   8
HETATM    8  C   UNL     1      -1.581 -13.764 -39.719  1.00  0.00     0.019 C 
HETATM    9  C   UNL     1      -0.225 -14.273 -40.214  1.00  0.00     0.013 C 
BRANCH   8  10
HETATM   10  C   UNL     1      -2.649 -14.842 -39.989  1.00  0.00     0.156 C 
BRANCH  10  11
HETATM   11  N   UNL     1      -3.753 -14.361 -40.806  1.00  0.00    -0.274 N 
HETATM   12  N   UNL     1      -4.668 -13.563 -40.224  1.00  0.00    -0.177 NA
HETATM   13  C   UNL     1      -5.509 -13.246 -41.212  1.00  0.00     0.053 A 
HETATM   14  C   UNL     1      -6.649 -12.330 -40.966  1.00  0.00     0.072 C 
HETATM   15  C   UNL     1      -5.140 -13.867 -42.424  1.00  0.00     0.055 A 
HETATM   16  C   UNL     1      -3.997 -14.587 -42.137  1.00  0.00     0.028 A 
HETATM   17  C   UNL     1      -3.150 -15.422 -43.021  1.00  0.00     0.070 C 
ENDBRANCH  10  11
ENDBRANCH   8  10
ENDBRANCH   7   8
ENDBRANCH   1   7
BRANCH   3  18
HETATM   18  N   UNL     1      -5.496 -13.059 -35.404  1.00  0.00    -0.264 N 
HETATM   19  C   UNL     1      -6.582 -13.896 -35.525  1.00  0.00     0.260 C 
HETATM   20  O   UNL     1      -7.186 -14.235 -34.502  1.00  0.00    -0.269 OA
HETATM   21  H   UNL     1      -5.155 -12.913 -34.459  1.00  0.00     0.190 HD
BRANCH  19  22
HETATM   22  C   UNL     1      -7.029 -14.359 -36.909  1.00  0.00     0.280 C 
BRANCH  22  23
HETATM   23  O   UNL     1      -7.845 -13.334 -37.475  1.00  0.00    -0.342 OA
BRANCH  23  24
HETATM   24  C   UNL     1      -8.678 -13.772 -38.463  1.00  0.00     0.069 A 
HETATM   25  C   UNL     1      -8.482 -15.082 -38.904  1.00  0.00     0.038 A 
HETATM   26  C   UNL     1      -9.297 -15.615 -39.903  1.00  0.00     0.022 A 
HETATM   27  C   UNL     1     -10.322 -14.838 -40.438  1.00  0.00     0.011 A 
HETATM   28 BR   UNL     1     -11.423 -15.552 -41.799  1.00  0.00    -0.051 Br
HETATM   29  C   UNL     1     -10.544 -13.540 -39.977  1.00  0.00     0.022 A 
HETATM   30  C   UNL     1      -9.721 -13.006 -38.981  1.00  0.00     0.038 A 
ENDBRANCH  23  24
ENDBRANCH  22  23
ENDBRANCH  19  22
ENDBRANCH   3  18
TORSDOF 8
ENDMDL
