MODEL 1
REMARK VINA RESULT:      -8.9      0.000      0.000
REMARK  8 active torsions:
REMARK  status: ('A' for Active; 'I' for Inactive)
REMARK    1  A    between atoms: C_2  and  C_3 
REMARK    2  A    between atoms: C_3  and  O_4 
REMARK    3  A    between atoms: O_4  and  C_5 
REMARK    4  A    between atoms: C_7  and  C_8 
REMARK       I    between atoms: C_8  and  N_9 
REMARK    5  A    between atoms: N_9  and  C_10 
REMARK    6  A    between atoms: N_11  and  C_12 
REMARK    7  A    between atoms: C_14  and  C_15 
REMARK    8  A    between atoms: C_24  and  O_25 
ROOT
HETATM    1  C   UNL     1      -7.775   5.127 -32.698  1.00  0.00     0.035 A 
HETATM    2  C   UNL     1      -8.845   4.331 -33.117  1.00  0.00     0.046 A 
HETATM    3  C   UNL     1      -9.947   4.080 -32.275  1.00  0.00     0.036 A 
HETATM    4  C   UNL     1      -9.925   4.645 -30.981  1.00  0.00     0.084 A 
HETATM    5  C   UNL     1      -8.837   5.401 -30.523  1.00  0.00    -0.026 A 
HETATM    6  C   UNL     1      -8.837   6.011 -29.151  1.00  0.00     0.051 C 
HETATM    7  C   UNL     1      -7.766   5.635 -31.395  1.00  0.00     0.039 A 
ENDROOT
BRANCH   1   8
HETATM    8  N   UNL     1      -6.643   5.398 -33.497  1.00  0.00    -0.333 N 
HETATM    9  C   UNL     1      -5.569   4.635 -33.795  1.00  0.00     0.179 C 
HETATM   10  S   UNL     1      -4.080   5.378 -33.989  1.00  0.00    -0.040 SA
HETATM   11  H   UNL     1      -6.520   6.379 -33.728  1.00  0.00     0.168 HD
BRANCH   9  12
HETATM   12  N   UNL     1      -5.637   3.293 -34.023  1.00  0.00    -0.299 N 
HETATM   13  C   UNL     1      -5.624   2.237 -33.117  1.00  0.00     0.257 C 
HETATM   14  O   UNL     1      -5.286   2.260 -31.942  1.00  0.00    -0.267 OA
HETATM   15  H   UNL     1      -6.055   3.085 -34.920  1.00  0.00     0.171 HD
BRANCH  13  16
HETATM   16  C   UNL     1      -6.032   0.939 -33.698  1.00  0.00     0.035 A 
HETATM   17  C   UNL     1      -5.254  -0.207 -33.501  1.00  0.00     0.053 A 
HETATM   18  C   UNL     1      -5.641  -1.394 -34.121  1.00  0.00     0.069 A 
HETATM   19  C   UNL     1      -6.775  -1.437 -34.933  1.00  0.00     0.037 A 
HETATM   20  C   UNL     1      -7.550  -0.292 -35.116  1.00  0.00     0.004 A 
HETATM   21  C   UNL     1      -7.175   0.903 -34.506  1.00  0.00     0.017 A 
BRANCH  18  22
HETATM   22  O   UNL     1      -4.876  -2.526 -34.066  1.00  0.00    -0.351 OA
BRANCH  22  23
HETATM   23  C   UNL     1      -5.407  -3.590 -34.864  1.00  0.00     0.175 C 
BRANCH  23  24
HETATM   24  C   UNL     1      -4.833  -4.893 -34.316  1.00  0.00     0.022 C 
HETATM   25  C   UNL     1      -3.552  -4.672 -33.532  1.00  0.00     0.007 C 
ENDBRANCH  23  24
ENDBRANCH  22  23
ENDBRANCH  18  22
ENDBRANCH  13  16
ENDBRANCH   9  12
ENDBRANCH   1   8
BRANCH   3  26
HETATM   26  C   UNL     1     -11.104   3.260 -32.707  1.00  0.00     0.112 A 
HETATM   27  S   UNL     1     -10.936   1.857 -33.691  1.00  0.00    -0.067 SA
HETATM   28  C   UNL     1     -12.633   1.587 -33.630  1.00  0.00     0.035 A 
HETATM   29  C   UNL     1     -13.223   2.591 -32.865  1.00  0.00     0.075 A 
HETATM   30  C   UNL     1     -13.391   0.561 -34.219  1.00  0.00     0.021 A 
HETATM   31  N   UNL     1     -12.345   3.526 -32.340  1.00  0.00    -0.239 NA
HETATM   32  C   UNL     1     -14.620   2.577 -32.683  1.00  0.00     0.033 A 
HETATM   33  C   UNL     1     -15.386   1.561 -33.266  1.00  0.00     0.002 A 
HETATM   34  C   UNL     1     -14.775   0.565 -34.022  1.00  0.00     0.002 A 
ENDBRANCH   3  26
BRANCH   4  35
HETATM   35  O   UNL     1     -10.966   4.479 -30.096  1.00  0.00    -0.359 OA
HETATM   36  H   UNL     1     -10.583   4.289 -29.213  1.00  0.00     0.218 HD
ENDBRANCH   4  35
TORSDOF 8
ENDMDL
MODEL 2
REMARK VINA RESULT:      -8.9      4.930      9.084
REMARK  8 active torsions:
REMARK  status: ('A' for Active; 'I' for Inactive)
REMARK    1  A    between atoms: C_2  and  C_3 
REMARK    2  A    between atoms: C_3  and  O_4 
REMARK    3  A    between atoms: O_4  and  C_5 
REMARK    4  A    between atoms: C_7  and  C_8 
REMARK       I    between atoms: C_8  and  N_9 
REMARK    5  A    between atoms: N_9  and  C_10 
REMARK    6  A    between atoms: N_11  and  C_12 
REMARK    7  A    between atoms: C_14  and  C_15 
REMARK    8  A    between atoms: C_24  and  O_25 
ROOT
HETATM    1  C   UNL     1      -4.362   5.224 -32.277  1.00  0.00     0.035 A 
HETATM    2  C   UNL     1      -3.729   5.958 -31.270  1.00  0.00     0.046 A 
HETATM    3  C   UNL     1      -2.425   6.466 -31.441  1.00  0.00     0.036 A 
HETATM    4  C   UNL     1      -1.769   6.188 -32.661  1.00  0.00     0.084 A 
HETATM    5  C   UNL     1      -2.366   5.409 -33.661  1.00  0.00    -0.026 A 
HETATM    6  C   UNL     1      -1.662   5.139 -34.960  1.00  0.00     0.051 C 
HETATM    7  C   UNL     1      -3.666   4.932 -33.455  1.00  0.00     0.039 A 
ENDROOT
BRANCH   1   8
HETATM    8  N   UNL     1      -5.660   4.684 -32.152  1.00  0.00    -0.333 N 
HETATM    9  C   UNL     1      -6.209   3.571 -32.686  1.00  0.00     0.179 C 
HETATM   10  S   UNL     1      -7.831   3.592 -33.104  1.00  0.00    -0.040 SA
HETATM   11  H   UNL     1      -6.343   5.323 -31.758  1.00  0.00     0.168 HD
BRANCH   9  12
HETATM   12  N   UNL     1      -5.535   2.396 -32.838  1.00  0.00    -0.299 N 
HETATM   13  C   UNL     1      -4.776   1.682 -31.917  1.00  0.00     0.257 C 
HETATM   14  O   UNL     1      -4.328   2.073 -30.849  1.00  0.00    -0.267 OA
HETATM   15  H   UNL     1      -5.897   1.854 -33.611  1.00  0.00     0.171 HD
BRANCH  13  16
HETATM   16  C   UNL     1      -4.458   0.301 -32.341  1.00  0.00     0.035 A 
HETATM   17  C   UNL     1      -5.076  -0.262 -33.463  1.00  0.00     0.053 A 
HETATM   18  C   UNL     1      -4.796  -1.588 -33.789  1.00  0.00     0.069 A 
HETATM   19  C   UNL     1      -3.925  -2.345 -33.004  1.00  0.00     0.037 A 
HETATM   20  C   UNL     1      -3.305  -1.774 -31.893  1.00  0.00     0.004 A 
HETATM   21  C   UNL     1      -3.578  -0.451 -31.553  1.00  0.00     0.017 A 
BRANCH  18  22
HETATM   22  O   UNL     1      -5.442  -2.239 -34.802  1.00  0.00    -0.351 OA
BRANCH  22  23
HETATM   23  C   UNL     1      -6.816  -2.506 -34.499  1.00  0.00     0.175 C 
BRANCH  23  24
HETATM   24  C   UNL     1      -6.991  -4.022 -34.496  1.00  0.00     0.022 C 
HETATM   25  C   UNL     1      -6.124  -4.703 -35.540  1.00  0.00     0.007 C 
ENDBRANCH  23  24
ENDBRANCH  22  23
ENDBRANCH  18  22
ENDBRANCH  13  16
ENDBRANCH   9  12
ENDBRANCH   1   8
BRANCH   3  26
HETATM   26  C   UNL     1      -1.743   7.267 -30.398  1.00  0.00     0.112 A 
HETATM   27  S   UNL     1      -2.512   8.567 -29.570  1.00  0.00    -0.067 SA
HETATM   28  C   UNL     1      -1.100   8.825 -28.623  1.00  0.00     0.035 A 
HETATM   29  C   UNL     1      -0.127   7.903 -29.003  1.00  0.00     0.075 A 
HETATM   30  C   UNL     1      -0.869   9.776 -27.615  1.00  0.00     0.021 A 
HETATM   31  N   UNL     1      -0.506   7.021 -30.002  1.00  0.00    -0.239 NA
HETATM   32  C   UNL     1       1.127   7.933 -28.360  1.00  0.00     0.033 A 
HETATM   33  C   UNL     1       1.370   8.877 -27.357  1.00  0.00     0.002 A 
HETATM   34  C   UNL     1       0.382   9.784 -26.989  1.00  0.00     0.002 A 
ENDBRANCH   3  26
BRANCH   4  35
HETATM   35  O   UNL     1      -0.505   6.662 -32.931  1.00  0.00    -0.359 OA
HETATM   36  H   UNL     1      -0.593   7.584 -33.258  1.00  0.00     0.218 HD
ENDBRANCH   4  35
TORSDOF 8
ENDMDL
MODEL 3
REMARK VINA RESULT:      -8.9      3.779      7.523
REMARK  8 active torsions:
REMARK  status: ('A' for Active; 'I' for Inactive)
REMARK    1  A    between atoms: C_2  and  C_3 
REMARK    2  A    between atoms: C_3  and  O_4 
REMARK    3  A    between atoms: O_4  and  C_5 
REMARK    4  A    between atoms: C_7  and  C_8 
REMARK       I    between atoms: C_8  and  N_9 
REMARK    5  A    between atoms: N_9  and  C_10 
REMARK    6  A    between atoms: N_11  and  C_12 
REMARK    7  A    between atoms: C_14  and  C_15 
REMARK    8  A    between atoms: C_24  and  O_25 
ROOT
HETATM    1  C   UNL     1      -7.795   3.250 -32.103  1.00  0.00     0.035 A 
HETATM    2  C   UNL     1      -7.135   2.042 -32.347  1.00  0.00     0.046 A 
HETATM    3  C   UNL     1      -7.564   1.164 -33.363  1.00  0.00     0.036 A 
HETATM    4  C   UNL     1      -8.699   1.537 -34.116  1.00  0.00     0.084 A 
HETATM    5  C   UNL     1      -9.405   2.719 -33.851  1.00  0.00    -0.026 A 
HETATM    6  C   UNL     1     -10.599   3.111 -34.674  1.00  0.00     0.051 C 
HETATM    7  C   UNL     1      -8.940   3.567 -32.840  1.00  0.00     0.039 A 
ENDROOT
BRANCH   1   8
HETATM    8  N   UNL     1      -7.414   4.158 -31.091  1.00  0.00    -0.333 N 
HETATM    9  C   UNL     1      -6.197   4.460 -30.589  1.00  0.00     0.179 C 
HETATM   10  S   UNL     1      -6.067   4.844 -28.963  1.00  0.00    -0.040 SA
HETATM   11  H   UNL     1      -8.183   4.495 -30.521  1.00  0.00     0.168 HD
BRANCH   9  12
HETATM   12  N   UNL     1      -5.068   4.546 -31.347  1.00  0.00    -0.299 N 
HETATM   13  C   UNL     1      -4.839   5.254 -32.523  1.00  0.00     0.257 C 
HETATM   14  O   UNL     1      -5.667   5.745 -33.276  1.00  0.00    -0.267 OA
HETATM   15  H   UNL     1      -4.239   4.317 -30.814  1.00  0.00     0.171 HD
BRANCH  13  16
HETATM   16  C   UNL     1      -3.411   5.365 -32.891  1.00  0.00     0.035 A 
HETATM   17  C   UNL     1      -2.410   4.980 -31.992  1.00  0.00     0.053 A 
HETATM   18  C   UNL     1      -1.077   5.162 -32.354  1.00  0.00     0.069 A 
HETATM   19  C   UNL     1      -0.744   5.729 -33.585  1.00  0.00     0.037 A 
HETATM   20  C   UNL     1      -1.747   6.101 -34.480  1.00  0.00     0.004 A 
HETATM   21  C   UNL     1      -3.085   5.929 -34.130  1.00  0.00     0.017 A 
BRANCH  18  22
HETATM   22  O   UNL     1      -0.048   4.913 -31.490  1.00  0.00    -0.351 OA
BRANCH  22  23
HETATM   23  C   UNL     1      -0.252   5.506 -30.203  1.00  0.00     0.175 C 
BRANCH  23  24
HETATM   24  C   UNL     1       0.296   6.929 -30.271  1.00  0.00     0.022 C 
HETATM   25  C   UNL     1       0.651   7.475 -28.900  1.00  0.00     0.007 C 
ENDBRANCH  23  24
ENDBRANCH  22  23
ENDBRANCH  18  22
ENDBRANCH  13  16
ENDBRANCH   9  12
ENDBRANCH   1   8
BRANCH   3  26
HETATM   26  C   UNL     1      -6.866  -0.111 -33.656  1.00  0.00     0.112 A 
HETATM   27  S   UNL     1      -5.174  -0.324 -33.414  1.00  0.00    -0.067 SA
HETATM   28  C   UNL     1      -5.287  -1.960 -33.930  1.00  0.00     0.035 A 
HETATM   29  C   UNL     1      -6.611  -2.239 -34.260  1.00  0.00     0.075 A 
HETATM   30  C   UNL     1      -4.275  -2.929 -34.037  1.00  0.00     0.021 A 
HETATM   31  N   UNL     1      -7.497  -1.187 -34.091  1.00  0.00    -0.239 NA
HETATM   32  C   UNL     1      -6.941  -3.531 -34.720  1.00  0.00     0.033 A 
HETATM   33  C   UNL     1      -5.942  -4.503 -34.833  1.00  0.00     0.002 A 
HETATM   34  C   UNL     1      -4.627  -4.204 -34.492  1.00  0.00     0.002 A 
ENDBRANCH   3  26
BRANCH   4  35
HETATM   35  O   UNL     1      -9.177   0.759 -35.146  1.00  0.00    -0.359 OA
HETATM   36  H   UNL     1      -9.607   1.354 -35.798  1.00  0.00     0.218 HD
ENDBRANCH   4  35
TORSDOF 8
ENDMDL
MODEL 4
REMARK VINA RESULT:      -8.6      2.615      6.385
REMARK  8 active torsions:
REMARK  status: ('A' for Active; 'I' for Inactive)
REMARK    1  A    between atoms: C_2  and  C_3 
REMARK    2  A    between atoms: C_3  and  O_4 
REMARK    3  A    between atoms: O_4  and  C_5 
REMARK    4  A    between atoms: C_7  and  C_8 
REMARK       I    between atoms: C_8  and  N_9 
REMARK    5  A    between atoms: N_9  and  C_10 
REMARK    6  A    between atoms: N_11  and  C_12 
REMARK    7  A    between atoms: C_14  and  C_15 
REMARK    8  A    between atoms: C_24  and  O_25 
ROOT
HETATM    1  C   UNL     1      -9.035   3.439 -31.468  1.00  0.00     0.035 A 
HETATM    2  C   UNL     1      -7.807   3.601 -32.116  1.00  0.00     0.046 A 
HETATM    3  C   UNL     1      -6.901   4.610 -31.731  1.00  0.00     0.036 A 
HETATM    4  C   UNL     1      -7.285   5.468 -30.677  1.00  0.00     0.084 A 
HETATM    5  C   UNL     1      -8.534   5.355 -30.050  1.00  0.00    -0.026 A 
HETATM    6  C   UNL     1      -8.919   6.263 -28.917  1.00  0.00     0.051 C 
HETATM    7  C   UNL     1      -9.400   4.333 -30.457  1.00  0.00     0.039 A 
ENDROOT
BRANCH   1   8
HETATM    8  N   UNL     1      -9.982   2.454 -31.822  1.00  0.00    -0.333 N 
HETATM    9  C   UNL     1      -9.876   1.379 -32.635  1.00  0.00     0.179 C 
HETATM   10  S   UNL     1     -11.211   0.913 -33.533  1.00  0.00    -0.040 SA
HETATM   11  H   UNL     1     -10.940   2.691 -31.586  1.00  0.00     0.168 HD
BRANCH   9  12
HETATM   12  N   UNL     1      -8.761   0.600 -32.713  1.00  0.00    -0.299 N 
HETATM   13  C   UNL     1      -7.918   0.361 -33.794  1.00  0.00     0.257 C 
HETATM   14  O   UNL     1      -8.133   0.585 -34.976  1.00  0.00    -0.267 OA
HETATM   15  H   UNL     1      -8.350   0.441 -31.803  1.00  0.00     0.171 HD
BRANCH  13  16
HETATM   16  C   UNL     1      -6.638  -0.282 -33.429  1.00  0.00     0.035 A 
HETATM   17  C   UNL     1      -6.008  -1.170 -34.309  1.00  0.00     0.053 A 
HETATM   18  C   UNL     1      -4.836  -1.803 -33.898  1.00  0.00     0.069 A 
HETATM   19  C   UNL     1      -4.307  -1.568 -32.628  1.00  0.00     0.037 A 
HETATM   20  C   UNL     1      -4.935  -0.674 -31.761  1.00  0.00     0.004 A 
HETATM   21  C   UNL     1      -6.109  -0.036 -32.156  1.00  0.00     0.017 A 
BRANCH  18  22
HETATM   22  O   UNL     1      -4.225  -2.763 -34.655  1.00  0.00    -0.351 OA
BRANCH  22  23
HETATM   23  C   UNL     1      -4.525  -4.091 -34.211  1.00  0.00     0.175 C 
BRANCH  23  24
HETATM   24  C   UNL     1      -5.428  -4.725 -35.266  1.00  0.00     0.022 C 
HETATM   25  C   UNL     1      -6.901  -4.541 -34.946  1.00  0.00     0.007 C 
ENDBRANCH  23  24
ENDBRANCH  22  23
ENDBRANCH  18  22
ENDBRANCH  13  16
ENDBRANCH   9  12
ENDBRANCH   1   8
BRANCH   3  26
HETATM   26  C   UNL     1      -5.584   4.785 -32.388  1.00  0.00     0.112 A 
HETATM   27  S   UNL     1      -5.390   4.800 -34.099  1.00  0.00    -0.067 SA
HETATM   28  C   UNL     1      -3.702   5.075 -33.925  1.00  0.00     0.035 A 
HETATM   29  C   UNL     1      -3.391   5.133 -32.568  1.00  0.00     0.075 A 
HETATM   30  C   UNL     1      -2.720   5.227 -34.919  1.00  0.00     0.021 A 
HETATM   31  N   UNL     1      -4.466   4.977 -31.708  1.00  0.00    -0.239 NA
HETATM   32  C   UNL     1      -2.051   5.344 -32.185  1.00  0.00     0.033 A 
HETATM   33  C   UNL     1      -1.064   5.495 -33.165  1.00  0.00     0.002 A 
HETATM   34  C   UNL     1      -1.398   5.440 -34.514  1.00  0.00     0.002 A 
ENDBRANCH   3  26
BRANCH   4  35
HETATM   35  O   UNL     1      -6.458   6.465 -30.212  1.00  0.00    -0.359 OA
HETATM   36  H   UNL     1      -6.971   7.009 -29.576  1.00  0.00     0.218 HD
ENDBRANCH   4  35
TORSDOF 8
ENDMDL
MODEL 5
REMARK VINA RESULT:      -8.5      2.720      7.611
REMARK  8 active torsions:
REMARK  status: ('A' for Active; 'I' for Inactive)
REMARK    1  A    between atoms: C_2  and  C_3 
REMARK    2  A    between atoms: C_3  and  O_4 
REMARK    3  A    between atoms: O_4  and  C_5 
REMARK    4  A    between atoms: C_7  and  C_8 
REMARK       I    between atoms: C_8  and  N_9 
REMARK    5  A    between atoms: N_9  and  C_10 
REMARK    6  A    between atoms: N_11  and  C_12 
REMARK    7  A    between atoms: C_14  and  C_15 
REMARK    8  A    between atoms: C_24  and  O_25 
ROOT
HETATM    1  C   UNL     1      -6.292   2.817 -30.860  1.00  0.00     0.035 A 
HETATM    2  C   UNL     1      -6.446   1.582 -31.496  1.00  0.00     0.046 A 
HETATM    3  C   UNL     1      -5.374   0.964 -32.170  1.00  0.00     0.036 A 
HETATM    4  C   UNL     1      -4.138   1.647 -32.201  1.00  0.00     0.084 A 
HETATM    5  C   UNL     1      -3.978   2.911 -31.615  1.00  0.00    -0.026 A 
HETATM    6  C   UNL     1      -2.651   3.615 -31.639  1.00  0.00     0.051 C 
HETATM    7  C   UNL     1      -5.065   3.485 -30.946  1.00  0.00     0.039 A 
ENDROOT
BRANCH   1   8
HETATM    8  N   UNL     1      -7.335   3.483 -30.182  1.00  0.00    -0.333 N 
HETATM    9  C   UNL     1      -8.317   4.288 -30.645  1.00  0.00     0.179 C 
HETATM   10  S   UNL     1      -8.839   5.557 -29.684  1.00  0.00    -0.040 SA
HETATM   11  H   UNL     1      -7.221   3.521 -29.174  1.00  0.00     0.168 HD
BRANCH   9  12
HETATM   12  N   UNL     1      -8.965   4.083 -31.825  1.00  0.00    -0.299 N 
HETATM   13  C   UNL     1      -9.718   2.992 -32.248  1.00  0.00     0.257 C 
HETATM   14  O   UNL     1      -9.750   1.870 -31.764  1.00  0.00    -0.267 OA
HETATM   15  H   UNL     1      -9.165   4.954 -32.299  1.00  0.00     0.171 HD
BRANCH  13  16
HETATM   16  C   UNL     1     -10.529   3.252 -33.457  1.00  0.00     0.035 A 
HETATM   17  C   UNL     1     -11.632   2.446 -33.764  1.00  0.00     0.053 A 
HETATM   18  C   UNL     1     -12.329   2.685 -34.947  1.00  0.00     0.069 A 
HETATM   19  C   UNL     1     -11.929   3.701 -35.816  1.00  0.00     0.037 A 
HETATM   20  C   UNL     1     -10.835   4.506 -35.498  1.00  0.00     0.004 A 
HETATM   21  C   UNL     1     -10.126   4.277 -34.321  1.00  0.00     0.017 A 
BRANCH  18  22
HETATM   22  O   UNL     1     -13.345   1.875 -35.368  1.00  0.00    -0.351 OA
BRANCH  22  23
HETATM   23  C   UNL     1     -13.537   0.740 -34.516  1.00  0.00     0.175 C 
BRANCH  23  24
HETATM   24  C   UNL     1     -15.001   0.742 -34.085  1.00  0.00     0.022 C 
HETATM   25  C   UNL     1     -15.265   1.716 -32.951  1.00  0.00     0.007 C 
ENDBRANCH  23  24
ENDBRANCH  22  23
ENDBRANCH  18  22
ENDBRANCH  13  16
ENDBRANCH   9  12
ENDBRANCH   1   8
BRANCH   3  26
HETATM   26  C   UNL     1      -5.508  -0.356 -32.831  1.00  0.00     0.112 A 
HETATM   27  S   UNL     1      -6.934  -0.839 -33.667  1.00  0.00    -0.067 SA
HETATM   28  C   UNL     1      -6.204  -2.338 -34.087  1.00  0.00     0.035 A 
HETATM   29  C   UNL     1      -4.916  -2.377 -33.555  1.00  0.00     0.075 A 
HETATM   30  C   UNL     1      -6.732  -3.405 -34.832  1.00  0.00     0.021 A 
HETATM   31  N   UNL     1      -4.531  -1.246 -32.855  1.00  0.00    -0.239 NA
HETATM   32  C   UNL     1      -4.126  -3.525 -33.769  1.00  0.00     0.033 A 
HETATM   33  C   UNL     1      -4.643  -4.596 -34.507  1.00  0.00     0.002 A 
HETATM   34  C   UNL     1      -5.929  -4.532 -35.033  1.00  0.00     0.002 A 
ENDBRANCH   3  26
BRANCH   4  35
HETATM   35  O   UNL     1      -3.026   1.113 -32.812  1.00  0.00    -0.359 OA
HETATM   36  H   UNL     1      -2.812   0.268 -32.362  1.00  0.00     0.218 HD
ENDBRANCH   4  35
TORSDOF 8
ENDMDL
MODEL 6
REMARK VINA RESULT:      -8.2      2.713      7.016
REMARK  8 active torsions:
REMARK  status: ('A' for Active; 'I' for Inactive)
REMARK    1  A    between atoms: C_2  and  C_3 
REMARK    2  A    between atoms: C_3  and  O_4 
REMARK    3  A    between atoms: O_4  and  C_5 
REMARK    4  A    between atoms: C_7  and  C_8 
REMARK       I    between atoms: C_8  and  N_9 
REMARK    5  A    between atoms: N_9  and  C_10 
REMARK    6  A    between atoms: N_11  and  C_12 
REMARK    7  A    between atoms: C_14  and  C_15 
REMARK    8  A    between atoms: C_24  and  O_25 
ROOT
HETATM    1  C   UNL     1     -10.792   3.356 -34.769  1.00  0.00     0.035 A 
HETATM    2  C   UNL     1      -9.589   2.727 -34.433  1.00  0.00     0.046 A 
HETATM    3  C   UNL     1      -9.570   1.468 -33.801  1.00  0.00     0.036 A 
HETATM    4  C   UNL     1     -10.812   0.869 -33.497  1.00  0.00     0.084 A 
HETATM    5  C   UNL     1     -12.029   1.507 -33.777  1.00  0.00    -0.026 A 
HETATM    6  C   UNL     1     -13.342   0.847 -33.465  1.00  0.00     0.051 C 
HETATM    7  C   UNL     1     -12.003   2.753 -34.415  1.00  0.00     0.039 A 
ENDROOT
BRANCH   1   8
HETATM    8  N   UNL     1     -10.866   4.621 -35.391  1.00  0.00    -0.333 N 
HETATM    9  C   UNL     1     -10.376   5.822 -35.012  1.00  0.00     0.179 C 
HETATM   10  S   UNL     1     -11.249   7.202 -35.382  1.00  0.00    -0.040 SA
HETATM   11  H   UNL     1     -11.550   4.680 -36.137  1.00  0.00     0.168 HD
BRANCH   9  12
HETATM   12  N   UNL     1      -9.167   5.985 -34.405  1.00  0.00    -0.299 N 
HETATM   13  C   UNL     1      -8.862   6.115 -33.053  1.00  0.00     0.257 C 
HETATM   14  O   UNL     1      -9.624   6.372 -32.133  1.00  0.00    -0.267 OA
HETATM   15  H   UNL     1      -8.407   5.662 -34.989  1.00  0.00     0.171 HD
BRANCH  13  16
HETATM   16  C   UNL     1      -7.424   5.958 -32.743  1.00  0.00     0.035 A 
HETATM   17  C   UNL     1      -6.558   5.351 -33.660  1.00  0.00     0.053 A 
HETATM   18  C   UNL     1      -5.224   5.165 -33.301  1.00  0.00     0.069 A 
HETATM   19  C   UNL     1      -4.763   5.564 -32.045  1.00  0.00     0.037 A 
HETATM   20  C   UNL     1      -5.630   6.177 -31.141  1.00  0.00     0.004 A 
HETATM   21  C   UNL     1      -6.967   6.367 -31.485  1.00  0.00     0.017 A 
BRANCH  18  22
HETATM   22  O   UNL     1      -4.346   4.485 -34.095  1.00  0.00    -0.351 OA
BRANCH  22  23
HETATM   23  C   UNL     1      -3.658   5.339 -35.017  1.00  0.00     0.175 C 
BRANCH  23  24
HETATM   24  C   UNL     1      -2.163   5.095 -34.827  1.00  0.00     0.022 C 
HETATM   25  C   UNL     1      -1.466   6.275 -34.176  1.00  0.00     0.007 C 
ENDBRANCH  23  24
ENDBRANCH  22  23
ENDBRANCH  18  22
ENDBRANCH  13  16
ENDBRANCH   9  12
ENDBRANCH   1   8
BRANCH   3  26
HETATM   26  C   UNL     1      -8.307   0.772 -33.458  1.00  0.00     0.112 A 
HETATM   27  S   UNL     1      -7.459   1.052 -31.985  1.00  0.00    -0.067 SA
HETATM   28  C   UNL     1      -6.274  -0.115 -32.423  1.00  0.00     0.035 A 
HETATM   29  C   UNL     1      -6.599  -0.642 -33.671  1.00  0.00     0.075 A 
HETATM   30  C   UNL     1      -5.137  -0.535 -31.713  1.00  0.00     0.021 A 
HETATM   31  N   UNL     1      -7.757  -0.138 -34.242  1.00  0.00    -0.239 NA
HETATM   32  C   UNL     1      -5.757  -1.619 -34.238  1.00  0.00     0.033 A 
HETATM   33  C   UNL     1      -4.620  -2.044 -33.542  1.00  0.00     0.002 A 
HETATM   34  C   UNL     1      -4.318  -1.509 -32.294  1.00  0.00     0.002 A 
ENDBRANCH   3  26
BRANCH   4  35
HETATM   35  O   UNL     1     -10.897  -0.371 -32.904  1.00  0.00    -0.359 OA
HETATM   36  H   UNL     1     -11.630  -0.861 -33.335  1.00  0.00     0.218 HD
ENDBRANCH   4  35
TORSDOF 8
ENDMDL
MODEL 7
REMARK VINA RESULT:      -8.1      2.876      6.909
REMARK  8 active torsions:
REMARK  status: ('A' for Active; 'I' for Inactive)
REMARK    1  A    between atoms: C_2  and  C_3 
REMARK    2  A    between atoms: C_3  and  O_4 
REMARK    3  A    between atoms: O_4  and  C_5 
REMARK    4  A    between atoms: C_7  and  C_8 
REMARK       I    between atoms: C_8  and  N_9 
REMARK    5  A    between atoms: N_9  and  C_10 
REMARK    6  A    between atoms: N_11  and  C_12 
REMARK    7  A    between atoms: C_14  and  C_15 
REMARK    8  A    between atoms: C_24  and  O_25 
ROOT
HETATM    1  C   UNL     1     -12.099   2.796 -35.015  1.00  0.00     0.035 A 
HETATM    2  C   UNL     1     -10.825   2.396 -34.603  1.00  0.00     0.046 A 
HETATM    3  C   UNL     1     -10.626   1.197 -33.889  1.00  0.00     0.036 A 
HETATM    4  C   UNL     1     -11.765   0.419 -33.585  1.00  0.00     0.084 A 
HETATM    5  C   UNL     1     -13.057   0.829 -33.944  1.00  0.00    -0.026 A 
HETATM    6  C   UNL     1     -14.256  -0.019 -33.630  1.00  0.00     0.051 C 
HETATM    7  C   UNL     1     -13.209   2.022 -34.660  1.00  0.00     0.039 A 
ENDROOT
BRANCH   1   8
HETATM    8  N   UNL     1     -12.354   3.992 -35.720  1.00  0.00    -0.333 N 
HETATM    9  C   UNL     1     -12.018   5.271 -35.440  1.00  0.00     0.179 C 
HETATM   10  S   UNL     1     -13.074   6.495 -35.877  1.00  0.00    -0.040 SA
HETATM   11  H   UNL     1     -13.057   3.907 -36.447  1.00  0.00     0.168 HD
BRANCH   9  12
HETATM   12  N   UNL     1     -10.828   5.633 -34.885  1.00  0.00    -0.299 N 
HETATM   13  C   UNL     1     -10.469   5.742 -33.545  1.00  0.00     0.257 C 
HETATM   14  O   UNL     1     -11.208   5.791 -32.572  1.00  0.00    -0.267 OA
HETATM   15  H   UNL     1     -10.058   5.500 -35.527  1.00  0.00     0.171 HD
BRANCH  13  16
HETATM   16  C   UNL     1      -9.012   5.853 -33.318  1.00  0.00     0.035 A 
HETATM   17  C   UNL     1      -8.131   4.915 -33.868  1.00  0.00     0.053 A 
HETATM   18  C   UNL     1      -6.772   5.020 -33.576  1.00  0.00     0.069 A 
HETATM   19  C   UNL     1      -6.299   6.034 -32.741  1.00  0.00     0.037 A 
HETATM   20  C   UNL     1      -7.182   6.971 -32.206  1.00  0.00     0.004 A 
HETATM   21  C   UNL     1      -8.544   6.877 -32.486  1.00  0.00     0.017 A 
BRANCH  18  22
HETATM   22  O   UNL     1      -5.866   4.082 -33.983  1.00  0.00    -0.351 OA
BRANCH  22  23
HETATM   23  C   UNL     1      -5.447   3.220 -32.919  1.00  0.00     0.175 C 
BRANCH  23  24
HETATM   24  C   UNL     1      -3.933   3.365 -32.792  1.00  0.00     0.022 C 
HETATM   25  C   UNL     1      -3.360   2.481 -31.699  1.00  0.00     0.007 C 
ENDBRANCH  23  24
ENDBRANCH  22  23
ENDBRANCH  18  22
ENDBRANCH  13  16
ENDBRANCH   9  12
ENDBRANCH   1   8
BRANCH   3  26
HETATM   26  C   UNL     1      -9.282   0.742 -33.463  1.00  0.00     0.112 A 
HETATM   27  S   UNL     1      -8.737   0.840 -31.832  1.00  0.00    -0.067 SA
HETATM   28  C   UNL     1      -7.242   0.111 -32.267  1.00  0.00     0.035 A 
HETATM   29  C   UNL     1      -7.251  -0.157 -33.634  1.00  0.00     0.075 A 
HETATM   30  C   UNL     1      -6.138  -0.201 -31.456  1.00  0.00     0.021 A 
HETATM   31  N   UNL     1      -8.414   0.196 -34.298  1.00  0.00    -0.239 NA
HETATM   32  C   UNL     1      -6.115  -0.753 -34.218  1.00  0.00     0.033 A 
HETATM   33  C   UNL     1      -5.008  -1.066 -33.422  1.00  0.00     0.002 A 
HETATM   34  C   UNL     1      -5.023  -0.795 -32.057  1.00  0.00     0.002 A 
ENDBRANCH   3  26
BRANCH   4  35
HETATM   35  O   UNL     1     -11.670  -0.780 -32.916  1.00  0.00    -0.359 OA
HETATM   36  H   UNL     1     -12.549  -1.215 -32.952  1.00  0.00     0.218 HD
ENDBRANCH   4  35
TORSDOF 8
ENDMDL
MODEL 8
REMARK VINA RESULT:      -8.0      1.922      2.642
REMARK  8 active torsions:
REMARK  status: ('A' for Active; 'I' for Inactive)
REMARK    1  A    between atoms: C_2  and  C_3 
REMARK    2  A    between atoms: C_3  and  O_4 
REMARK    3  A    between atoms: O_4  and  C_5 
REMARK    4  A    between atoms: C_7  and  C_8 
REMARK       I    between atoms: C_8  and  N_9 
REMARK    5  A    between atoms: N_9  and  C_10 
REMARK    6  A    between atoms: N_11  and  C_12 
REMARK    7  A    between atoms: C_14  and  C_15 
REMARK    8  A    between atoms: C_24  and  O_25 
ROOT
HETATM    1  C   UNL     1      -5.712   5.562 -33.213  1.00  0.00     0.035 A 
HETATM    2  C   UNL     1      -6.716   4.643 -33.530  1.00  0.00     0.046 A 
HETATM    3  C   UNL     1      -7.985   4.702 -32.919  1.00  0.00     0.036 A 
HETATM    4  C   UNL     1      -8.202   5.711 -31.956  1.00  0.00     0.084 A 
HETATM    5  C   UNL     1      -7.191   6.608 -31.585  1.00  0.00    -0.026 A 
HETATM    6  C   UNL     1      -7.444   7.689 -30.572  1.00  0.00     0.051 C 
HETATM    7  C   UNL     1      -5.948   6.522 -32.223  1.00  0.00     0.039 A 
ENDROOT
BRANCH   1   8
HETATM    8  N   UNL     1      -4.422   5.540 -33.786  1.00  0.00    -0.333 N 
HETATM    9  C   UNL     1      -3.344   4.775 -33.505  1.00  0.00     0.179 C 
HETATM   10  S   UNL     1      -1.817   5.447 -33.657  1.00  0.00    -0.040 SA
HETATM   11  H   UNL     1      -4.208   6.345 -34.364  1.00  0.00     0.168 HD
BRANCH   9  12
HETATM   12  N   UNL     1      -3.421   3.455 -33.174  1.00  0.00    -0.299 N 
HETATM   13  C   UNL     1      -3.987   2.852 -32.054  1.00  0.00     0.257 C 
HETATM   14  O   UNL     1      -4.306   3.380 -30.999  1.00  0.00    -0.267 OA
HETATM   15  H   UNL     1      -3.332   2.859 -33.986  1.00  0.00     0.171 HD
BRANCH  13  16
HETATM   16  C   UNL     1      -4.165   1.390 -32.184  1.00  0.00     0.035 A 
HETATM   17  C   UNL     1      -5.264   0.863 -32.871  1.00  0.00     0.053 A 
HETATM   18  C   UNL     1      -5.428  -0.521 -32.914  1.00  0.00     0.069 A 
HETATM   19  C   UNL     1      -4.521  -1.366 -32.272  1.00  0.00     0.037 A 
HETATM   20  C   UNL     1      -3.422  -0.833 -31.598  1.00  0.00     0.004 A 
HETATM   21  C   UNL     1      -3.247   0.549 -31.544  1.00  0.00     0.017 A 
BRANCH  18  22
HETATM   22  O   UNL     1      -6.531  -1.106 -33.470  1.00  0.00    -0.351 OA
BRANCH  22  23
HETATM   23  C   UNL     1      -6.223  -1.853 -34.652  1.00  0.00     0.175 C 
BRANCH  23  24
HETATM   24  C   UNL     1      -6.990  -3.169 -34.566  1.00  0.00     0.022 C 
HETATM   25  C   UNL     1      -6.163  -4.349 -35.042  1.00  0.00     0.007 C 
ENDBRANCH  23  24
ENDBRANCH  22  23
ENDBRANCH  18  22
ENDBRANCH  13  16
ENDBRANCH   9  12
ENDBRANCH   1   8
BRANCH   3  26
HETATM   26  C   UNL     1      -9.072   3.754 -33.258  1.00  0.00     0.112 A 
HETATM   27  S   UNL     1      -9.149   2.156 -32.619  1.00  0.00    -0.067 SA
HETATM   28  C   UNL     1     -10.623   1.870 -33.458  1.00  0.00     0.035 A 
HETATM   29  C   UNL     1     -10.962   3.014 -34.178  1.00  0.00     0.075 A 
HETATM   30  C   UNL     1     -11.424   0.717 -33.477  1.00  0.00     0.021 A 
HETATM   31  N   UNL     1     -10.081   4.076 -34.050  1.00  0.00    -0.239 NA
HETATM   32  C   UNL     1     -12.139   3.007 -34.953  1.00  0.00     0.033 A 
HETATM   33  C   UNL     1     -12.943   1.862 -34.983  1.00  0.00     0.002 A 
HETATM   34  C   UNL     1     -12.589   0.734 -34.251  1.00  0.00     0.002 A 
ENDBRANCH   3  26
BRANCH   4  35
HETATM   35  O   UNL     1      -9.415   5.865 -31.324  1.00  0.00    -0.359 OA
HETATM   36  H   UNL     1     -10.054   5.249 -31.744  1.00  0.00     0.218 HD
ENDBRANCH   4  35
TORSDOF 8
ENDMDL
MODEL 9
REMARK VINA RESULT:      -7.9      3.259      6.816
REMARK  8 active torsions:
REMARK  status: ('A' for Active; 'I' for Inactive)
REMARK    1  A    between atoms: C_2  and  C_3 
REMARK    2  A    between atoms: C_3  and  O_4 
REMARK    3  A    between atoms: O_4  and  C_5 
REMARK    4  A    between atoms: C_7  and  C_8 
REMARK       I    between atoms: C_8  and  N_9 
REMARK    5  A    between atoms: N_9  and  C_10 
REMARK    6  A    between atoms: N_11  and  C_12 
REMARK    7  A    between atoms: C_14  and  C_15 
REMARK    8  A    between atoms: C_24  and  O_25 
ROOT
HETATM    1  C   UNL     1      -5.853   4.189 -30.278  1.00  0.00     0.035 A 
HETATM    2  C   UNL     1      -5.903   2.944 -30.912  1.00  0.00     0.046 A 
HETATM    3  C   UNL     1      -4.847   2.494 -31.730  1.00  0.00     0.036 A 
HETATM    4  C   UNL     1      -3.742   3.354 -31.906  1.00  0.00     0.084 A 
HETATM    5  C   UNL     1      -3.696   4.628 -31.322  1.00  0.00    -0.026 A 
HETATM    6  C   UNL     1      -2.503   5.524 -31.503  1.00  0.00     0.051 C 
HETATM    7  C   UNL     1      -4.761   5.033 -30.509  1.00  0.00     0.039 A 
ENDROOT
BRANCH   1   8
HETATM    8  N   UNL     1      -6.887   4.692 -29.459  1.00  0.00    -0.333 N 
HETATM    9  C   UNL     1      -7.955   5.463 -29.759  1.00  0.00     0.179 C 
HETATM   10  S   UNL     1      -8.492   6.573 -28.626  1.00  0.00    -0.040 SA
HETATM   11  H   UNL     1      -6.701   4.627 -28.464  1.00  0.00     0.168 HD
BRANCH   9  12
HETATM   12  N   UNL     1      -8.674   5.340 -30.910  1.00  0.00    -0.299 N 
HETATM   13  C   UNL     1      -8.347   5.722 -32.208  1.00  0.00     0.257 C 
HETATM   14  O   UNL     1      -7.460   6.484 -32.564  1.00  0.00    -0.267 OA
HETATM   15  H   UNL     1      -9.375   4.614 -30.839  1.00  0.00     0.171 HD
BRANCH  13  16
HETATM   16  C   UNL     1      -9.230   5.148 -33.245  1.00  0.00     0.035 A 
HETATM   17  C   UNL     1      -9.495   3.774 -33.277  1.00  0.00     0.053 A 
HETATM   18  C   UNL     1     -10.281   3.266 -34.311  1.00  0.00     0.069 A 
HETATM   19  C   UNL     1     -10.785   4.110 -35.303  1.00  0.00     0.037 A 
HETATM   20  C   UNL     1     -10.525   5.479 -35.257  1.00  0.00     0.004 A 
HETATM   21  C   UNL     1      -9.738   6.001 -34.233  1.00  0.00     0.017 A 
BRANCH  18  22
HETATM   22  O   UNL     1     -10.493   1.926 -34.472  1.00  0.00    -0.351 OA
BRANCH  22  23
HETATM   23  C   UNL     1      -9.348   1.140 -34.123  1.00  0.00     0.175 C 
BRANCH  23  24
HETATM   24  C   UNL     1      -9.765   0.221 -32.979  1.00  0.00     0.022 C 
HETATM   25  C   UNL     1      -8.972   0.484 -31.712  1.00  0.00     0.007 C 
ENDBRANCH  23  24
ENDBRANCH  22  23
ENDBRANCH  18  22
ENDBRANCH  13  16
ENDBRANCH   9  12
ENDBRANCH   1   8
BRANCH   3  26
HETATM   26  C   UNL     1      -4.869   1.168 -32.393  1.00  0.00     0.112 A 
HETATM   27  S   UNL     1      -3.713  -0.062 -32.053  1.00  0.00    -0.067 SA
HETATM   28  C   UNL     1      -4.496  -1.129 -33.150  1.00  0.00     0.035 A 
HETATM   29  C   UNL     1      -5.591  -0.475 -33.712  1.00  0.00     0.075 A 
HETATM   30  C   UNL     1      -4.167  -2.452 -33.491  1.00  0.00     0.021 A 
HETATM   31  N   UNL     1      -5.796   0.821 -33.268  1.00  0.00    -0.239 NA
HETATM   32  C   UNL     1      -6.384  -1.161 -34.654  1.00  0.00     0.033 A 
HETATM   33  C   UNL     1      -6.064  -2.477 -35.004  1.00  0.00     0.002 A 
HETATM   34  C   UNL     1      -4.971  -3.113 -34.426  1.00  0.00     0.002 A 
ENDBRANCH   3  26
BRANCH   4  35
HETATM   35  O   UNL     1      -2.651   2.993 -32.665  1.00  0.00    -0.359 OA
HETATM   36  H   UNL     1      -1.868   3.465 -32.310  1.00  0.00     0.218 HD
ENDBRANCH   4  35
TORSDOF 8
ENDMDL
MODEL 10
REMARK VINA RESULT:      -7.9      2.267      3.528
REMARK  8 active torsions:
REMARK  status: ('A' for Active; 'I' for Inactive)
REMARK    1  A    between atoms: C_2  and  C_3 
REMARK    2  A    between atoms: C_3  and  O_4 
REMARK    3  A    between atoms: O_4  and  C_5 
REMARK    4  A    between atoms: C_7  and  C_8 
REMARK       I    between atoms: C_8  and  N_9 
REMARK    5  A    between atoms: N_9  and  C_10 
REMARK    6  A    between atoms: N_11  and  C_12 
REMARK    7  A    between atoms: C_14  and  C_15 
REMARK    8  A    between atoms: C_24  and  O_25 
ROOT
HETATM    1  C   UNL     1      -7.040   3.449 -33.573  1.00  0.00     0.035 A 
HETATM    2  C   UNL     1      -8.306   3.972 -33.294  1.00  0.00     0.046 A 
HETATM    3  C   UNL     1      -9.481   3.258 -33.604  1.00  0.00     0.036 A 
HETATM    4  C   UNL     1      -9.336   1.999 -34.228  1.00  0.00     0.084 A 
HETATM    5  C   UNL     1      -8.078   1.480 -34.563  1.00  0.00    -0.026 A 
HETATM    6  C   UNL     1      -7.940   0.130 -35.208  1.00  0.00     0.051 C 
HETATM    7  C   UNL     1      -6.936   2.218 -34.229  1.00  0.00     0.039 A 
ENDROOT
BRANCH   1   8
HETATM    8  N   UNL     1      -5.834   4.128 -33.294  1.00  0.00    -0.333 N 
HETATM    9  C   UNL     1      -4.780   3.776 -32.526  1.00  0.00     0.179 C 
HETATM   10  S   UNL     1      -3.952   4.972 -31.695  1.00  0.00    -0.040 SA
HETATM   11  H   UNL     1      -5.838   5.109 -33.552  1.00  0.00     0.168 HD
BRANCH   9  12
HETATM   12  N   UNL     1      -4.298   2.504 -32.444  1.00  0.00    -0.299 N 
HETATM   13  C   UNL     1      -4.636   1.481 -31.563  1.00  0.00     0.257 C 
HETATM   14  O   UNL     1      -5.245   1.571 -30.507  1.00  0.00    -0.267 OA
HETATM   15  H   UNL     1      -3.886   2.202 -33.317  1.00  0.00     0.171 HD
BRANCH  13  16
HETATM   16  C   UNL     1      -4.142   0.148 -31.970  1.00  0.00     0.035 A 
HETATM   17  C   UNL     1      -4.813  -0.594 -32.949  1.00  0.00     0.053 A 
HETATM   18  C   UNL     1      -4.351  -1.873 -33.256  1.00  0.00     0.069 A 
HETATM   19  C   UNL     1      -3.247  -2.409 -32.592  1.00  0.00     0.037 A 
HETATM   20  C   UNL     1      -2.577  -1.660 -31.625  1.00  0.00     0.004 A 
HETATM   21  C   UNL     1      -3.030  -0.381 -31.305  1.00  0.00     0.017 A 
BRANCH  18  22
HETATM   22  O   UNL     1      -5.015  -2.699 -34.119  1.00  0.00    -0.351 OA
BRANCH  22  23
HETATM   23  C   UNL     1      -4.439  -4.008 -34.183  1.00  0.00     0.175 C 
BRANCH  23  24
HETATM   24  C   UNL     1      -5.449  -4.910 -34.889  1.00  0.00     0.022 C 
HETATM   25  C   UNL     1      -6.822  -4.270 -34.985  1.00  0.00     0.007 C 
ENDBRANCH  23  24
ENDBRANCH  22  23
ENDBRANCH  18  22
ENDBRANCH  13  16
ENDBRANCH   9  12
ENDBRANCH   1   8
BRANCH   3  26
HETATM   26  C   UNL     1     -10.832   3.782 -33.297  1.00  0.00     0.112 A 
HETATM   27  S   UNL     1     -11.361   5.344 -33.792  1.00  0.00    -0.067 SA
HETATM   28  C   UNL     1     -12.906   5.066 -33.091  1.00  0.00     0.035 A 
HETATM   29  C   UNL     1     -12.919   3.797 -32.517  1.00  0.00     0.075 A 
HETATM   30  C   UNL     1     -14.028   5.910 -33.050  1.00  0.00     0.021 A 
HETATM   31  N   UNL     1     -11.742   3.076 -32.648  1.00  0.00    -0.239 NA
HETATM   32  C   UNL     1     -14.091   3.353 -31.872  1.00  0.00     0.033 A 
HETATM   33  C   UNL     1     -15.214   4.186 -31.823  1.00  0.00     0.002 A 
HETATM   34  C   UNL     1     -15.181   5.447 -32.408  1.00  0.00     0.002 A 
ENDBRANCH   3  26
BRANCH   4  35
HETATM   35  O   UNL     1     -10.422   1.215 -34.545  1.00  0.00    -0.359 OA
HETATM   36  H   UNL     1     -10.143   0.276 -34.487  1.00  0.00     0.218 HD
ENDBRANCH   4  35
TORSDOF 8
ENDMDL
