MODEL 1
REMARK VINA RESULT:      -9.5      0.000      0.000
REMARK  4 active torsions:
REMARK  status: ('A' for Active; 'I' for Inactive)
REMARK    1  A    between atoms: C_7  and  C_8 
REMARK    2  A    between atoms: N_9  and  N_10 
REMARK       I    between atoms: N_10  and  C_11 
REMARK    3  A    between atoms: C_11  and  C_12 
REMARK    4  A    between atoms: C_16  and  C_17 
ROOT
HETATM    1  N   UNL     1      -2.805   3.305 -31.231  1.00  0.00    -0.242 N 
HETATM    2  C   UNL     1      -2.042   4.375 -31.676  1.00  0.00     0.289 C 
HETATM    3  O   UNL     1      -1.696   4.543 -32.842  1.00  0.00    -0.264 OA
HETATM    4  H   UNL     1      -3.018   3.201 -30.248  1.00  0.00     0.192 HD
ENDROOT
BRANCH   1   5
HETATM    5  N   UNL     1      -3.209   2.340 -32.111  1.00  0.00    -0.183 NA
HETATM    6  C   UNL     1      -3.989   1.426 -31.632  1.00  0.00     0.153 C 
BRANCH   6   7
HETATM    7  C   UNL     1      -4.469   0.352 -32.482  1.00  0.00     0.018 A 
HETATM    8  C   UNL     1      -3.951  -0.933 -32.584  1.00  0.00     0.018 A 
HETATM    9  C   UNL     1      -2.802  -1.585 -31.895  1.00  0.00     0.069 C 
HETATM   10  N   UNL     1      -4.706  -1.618 -33.502  1.00  0.00    -0.358 N 
HETATM   11  H   UNL     1      -4.555  -2.579 -33.776  1.00  0.00     0.166 HD
HETATM   12  C   UNL     1      -5.706  -0.819 -34.001  1.00  0.00     0.043 A 
HETATM   13  C   UNL     1      -5.586   0.425 -33.382  1.00  0.00     0.004 A 
HETATM   14  C   UNL     1      -6.697  -1.106 -34.948  1.00  0.00     0.030 A 
HETATM   15  C   UNL     1      -6.510   1.434 -33.730  1.00  0.00     0.014 A 
HETATM   16  C   UNL     1      -7.508   1.164 -34.673  1.00  0.00     0.001 A 
HETATM   17  C   UNL     1      -7.598  -0.088 -35.273  1.00  0.00     0.002 A 
ENDBRANCH   6   7
ENDBRANCH   1   5
BRANCH   2  18
HETATM   18  C   UNL     1      -1.651   5.303 -30.643  1.00  0.00     0.121 A 
HETATM   19  N   UNL     1      -2.539   6.211 -30.137  1.00  0.00    -0.272 N 
HETATM   20  H   UNL     1      -3.513   6.322 -30.409  1.00  0.00     0.189 HD
HETATM   21  N   UNL     1      -2.028   7.011 -29.190  1.00  0.00    -0.174 NA
HETATM   22  C   UNL     1      -0.746   6.628 -29.078  1.00  0.00     0.091 A 
HETATM   23  C   UNL     1      -0.481   5.535 -29.949  1.00  0.00     0.071 A 
BRANCH  22  24
HETATM   24  C   UNL     1       0.153   7.275 -28.119  1.00  0.00     0.016 A 
HETATM   25  C   UNL     1       0.193   6.962 -26.750  1.00  0.00     0.046 A 
HETATM   26 CL   UNL     1      -0.774   5.719 -26.030  1.00  0.00    -0.083 Cl
HETATM   27  C   UNL     1       1.073   7.639 -25.893  1.00  0.00     0.025 A 
HETATM   28  C   UNL     1       1.926   8.625 -26.389  1.00  0.00     0.002 A 
HETATM   29  C   UNL     1       1.908   8.936 -27.744  1.00  0.00     0.001 A 
HETATM   30  C   UNL     1       1.032   8.266 -28.600  1.00  0.00     0.015 A 
ENDBRANCH  22  24
ENDBRANCH   2  18
TORSDOF 4
ENDMDL
MODEL 2
REMARK VINA RESULT:      -9.2      1.458      2.397
REMARK  4 active torsions:
REMARK  status: ('A' for Active; 'I' for Inactive)
REMARK    1  A    between atoms: C_7  and  C_8 
REMARK    2  A    between atoms: N_9  and  N_10 
REMARK       I    between atoms: N_10  and  C_11 
REMARK    3  A    between atoms: C_11  and  C_12 
REMARK    4  A    between atoms: C_16  and  C_17 
ROOT
HETATM    1  N   UNL     1      -2.702   3.894 -31.290  1.00  0.00    -0.242 N 
HETATM    2  C   UNL     1      -1.654   4.732 -31.644  1.00  0.00     0.289 C 
HETATM    3  O   UNL     1      -1.318   4.971 -32.801  1.00  0.00    -0.264 OA
HETATM    4  H   UNL     1      -2.899   3.704 -30.317  1.00  0.00     0.192 HD
ENDROOT
BRANCH   1   5
HETATM    5  N   UNL     1      -3.428   3.259 -32.259  1.00  0.00    -0.183 NA
HETATM    6  C   UNL     1      -4.284   2.383 -31.843  1.00  0.00     0.153 C 
BRANCH   6   7
HETATM    7  C   UNL     1      -5.100   1.647 -32.791  1.00  0.00     0.018 A 
HETATM    8  C   UNL     1      -6.153   2.141 -33.551  1.00  0.00     0.018 A 
HETATM    9  C   UNL     1      -6.749   3.503 -33.634  1.00  0.00     0.069 C 
HETATM   10  N   UNL     1      -6.642   1.107 -34.310  1.00  0.00    -0.358 N 
HETATM   11  H   UNL     1      -7.413   1.180 -34.960  1.00  0.00     0.166 HD
HETATM   12  C   UNL     1      -5.939  -0.047 -34.070  1.00  0.00     0.043 A 
HETATM   13  C   UNL     1      -4.962   0.256 -33.121  1.00  0.00     0.004 A 
HETATM   14  C   UNL     1      -6.095  -1.326 -34.619  1.00  0.00     0.030 A 
HETATM   15  C   UNL     1      -4.097  -0.778 -32.702  1.00  0.00     0.014 A 
HETATM   16  C   UNL     1      -4.238  -2.061 -33.241  1.00  0.00     0.001 A 
HETATM   17  C   UNL     1      -5.224  -2.329 -34.186  1.00  0.00     0.002 A 
ENDBRANCH   6   7
ENDBRANCH   1   5
BRANCH   2  18
HETATM   18  C   UNL     1      -0.947   5.312 -30.529  1.00  0.00     0.121 A 
HETATM   19  N   UNL     1       0.072   4.641 -29.913  1.00  0.00    -0.272 N 
HETATM   20  H   UNL     1       0.427   3.721 -30.159  1.00  0.00     0.189 HD
HETATM   21  N   UNL     1       0.627   5.305 -28.888  1.00  0.00    -0.174 NA
HETATM   22  C   UNL     1      -0.065   6.454 -28.813  1.00  0.00     0.091 A 
HETATM   23  C   UNL     1      -1.039   6.510 -29.849  1.00  0.00     0.071 A 
BRANCH  22  24
HETATM   24  C   UNL     1       0.259   7.464 -27.803  1.00  0.00     0.016 A 
HETATM   25  C   UNL     1      -0.479   7.654 -26.623  1.00  0.00     0.046 A 
HETATM   26 CL   UNL     1      -1.833   6.670 -26.178  1.00  0.00    -0.083 Cl
HETATM   27  C   UNL     1      -0.113   8.655 -25.711  1.00  0.00     0.025 A 
HETATM   28  C   UNL     1       0.992   9.470 -25.960  1.00  0.00     0.002 A 
HETATM   29  C   UNL     1       1.741   9.284 -27.116  1.00  0.00     0.001 A 
HETATM   30  C   UNL     1       1.378   8.290 -28.028  1.00  0.00     0.015 A 
ENDBRANCH  22  24
ENDBRANCH   2  18
TORSDOF 4
ENDMDL
MODEL 3
REMARK VINA RESULT:      -9.0      2.176      3.461
REMARK  4 active torsions:
REMARK  status: ('A' for Active; 'I' for Inactive)
REMARK    1  A    between atoms: C_7  and  C_8 
REMARK    2  A    between atoms: N_9  and  N_10 
REMARK       I    between atoms: N_10  and  C_11 
REMARK    3  A    between atoms: C_11  and  C_12 
REMARK    4  A    between atoms: C_16  and  C_17 
ROOT
HETATM    1  N   UNL     1      -4.126   2.051 -32.206  1.00  0.00    -0.242 N 
HETATM    2  C   UNL     1      -4.144   3.339 -32.719  1.00  0.00     0.289 C 
HETATM    3  O   UNL     1      -4.942   3.739 -33.562  1.00  0.00    -0.264 OA
HETATM    4  H   UNL     1      -3.413   1.771 -31.545  1.00  0.00     0.192 HD
ENDROOT
BRANCH   1   5
HETATM    5  N   UNL     1      -5.029   1.125 -32.650  1.00  0.00    -0.183 NA
HETATM    6  C   UNL     1      -4.568   0.224 -33.456  1.00  0.00     0.153 C 
BRANCH   6   7
HETATM    7  C   UNL     1      -5.446  -0.801 -33.990  1.00  0.00     0.018 A 
HETATM    8  C   UNL     1      -6.718  -0.624 -34.518  1.00  0.00     0.018 A 
HETATM    9  C   UNL     1      -7.544   0.602 -34.697  1.00  0.00     0.069 C 
HETATM   10  N   UNL     1      -7.187  -1.855 -34.905  1.00  0.00    -0.358 N 
HETATM   11  H   UNL     1      -8.090  -2.025 -35.324  1.00  0.00     0.166 HD
HETATM   12  C   UNL     1      -6.256  -2.831 -34.646  1.00  0.00     0.043 A 
HETATM   13  C   UNL     1      -5.151  -2.204 -34.073  1.00  0.00     0.004 A 
HETATM   14  C   UNL     1      -6.314  -4.211 -34.878  1.00  0.00     0.030 A 
HETATM   15  C   UNL     1      -4.044  -3.004 -33.712  1.00  0.00     0.014 A 
HETATM   16  C   UNL     1      -4.085  -4.384 -33.937  1.00  0.00     0.001 A 
HETATM   17  C   UNL     1      -5.205  -4.977 -34.511  1.00  0.00     0.002 A 
ENDBRANCH   6   7
ENDBRANCH   1   5
BRANCH   2  18
HETATM   18  C   UNL     1      -3.119   4.207 -32.195  1.00  0.00     0.121 A 
HETATM   19  N   UNL     1      -1.969   4.446 -32.895  1.00  0.00    -0.272 N 
HETATM   20  H   UNL     1      -1.726   4.069 -33.807  1.00  0.00     0.189 HD
HETATM   21  N   UNL     1      -1.108   5.267 -32.275  1.00  0.00    -0.174 NA
HETATM   22  C   UNL     1      -1.706   5.569 -31.111  1.00  0.00     0.091 A 
HETATM   23  C   UNL     1      -2.985   4.951 -31.039  1.00  0.00     0.071 A 
BRANCH  22  24
HETATM   24  C   UNL     1      -1.066   6.467 -30.146  1.00  0.00     0.016 A 
HETATM   25  C   UNL     1       0.095   6.141 -29.425  1.00  0.00     0.046 A 
HETATM   26 CL   UNL     1       0.959   4.654 -29.635  1.00  0.00    -0.083 Cl
HETATM   27  C   UNL     1       0.639   7.051 -28.507  1.00  0.00     0.025 A 
HETATM   28  C   UNL     1       0.040   8.294 -28.302  1.00  0.00     0.002 A 
HETATM   29  C   UNL     1      -1.101   8.637 -29.019  1.00  0.00     0.001 A 
HETATM   30  C   UNL     1      -1.647   7.733 -29.933  1.00  0.00     0.015 A 
ENDBRANCH  22  24
ENDBRANCH   2  18
TORSDOF 4
ENDMDL
MODEL 4
REMARK VINA RESULT:      -8.8      1.548      1.690
REMARK  4 active torsions:
REMARK  status: ('A' for Active; 'I' for Inactive)
REMARK    1  A    between atoms: C_7  and  C_8 
REMARK    2  A    between atoms: N_9  and  N_10 
REMARK       I    between atoms: N_10  and  C_11 
REMARK    3  A    between atoms: C_11  and  C_12 
REMARK    4  A    between atoms: C_16  and  C_17 
ROOT
HETATM    1  N   UNL     1      -2.815   3.393 -31.896  1.00  0.00    -0.242 N 
HETATM    2  C   UNL     1      -2.165   4.403 -32.590  1.00  0.00     0.289 C 
HETATM    3  O   UNL     1      -2.180   4.527 -33.811  1.00  0.00    -0.264 OA
HETATM    4  H   UNL     1      -2.726   3.321 -30.892  1.00  0.00     0.192 HD
ENDROOT
BRANCH   1   5
HETATM    5  N   UNL     1      -3.518   2.439 -32.578  1.00  0.00    -0.183 NA
HETATM    6  C   UNL     1      -3.607   1.282 -32.005  1.00  0.00     0.153 C 
BRANCH   6   7
HETATM    7  C   UNL     1      -4.327   0.198 -32.648  1.00  0.00     0.018 A 
HETATM    8  C   UNL     1      -4.029  -1.157 -32.589  1.00  0.00     0.018 A 
HETATM    9  C   UNL     1      -2.940  -1.893 -31.888  1.00  0.00     0.069 C 
HETATM   10  N   UNL     1      -4.965  -1.825 -33.339  1.00  0.00    -0.358 N 
HETATM   11  H   UNL     1      -4.992  -2.826 -33.473  1.00  0.00     0.166 HD
HETATM   12  C   UNL     1      -5.866  -0.945 -33.885  1.00  0.00     0.043 A 
HETATM   13  C   UNL     1      -5.496   0.334 -33.471  1.00  0.00     0.004 A 
HETATM   14  C   UNL     1      -6.973  -1.188 -34.708  1.00  0.00     0.030 A 
HETATM   15  C   UNL     1      -6.277   1.427 -33.905  1.00  0.00     0.014 A 
HETATM   16  C   UNL     1      -7.387   1.203 -34.727  1.00  0.00     0.001 A 
HETATM   17  C   UNL     1      -7.728  -0.087 -35.122  1.00  0.00     0.002 A 
ENDBRANCH   6   7
ENDBRANCH   1   5
BRANCH   2  18
HETATM   18  C   UNL     1      -1.431   5.325 -31.758  1.00  0.00     0.121 A 
HETATM   19  N   UNL     1      -0.343   5.998 -32.240  1.00  0.00    -0.272 N 
HETATM   20  H   UNL     1       0.040   5.936 -33.179  1.00  0.00     0.189 HD
HETATM   21  N   UNL     1       0.240   6.812 -31.347  1.00  0.00    -0.174 NA
HETATM   22  C   UNL     1      -0.480   6.657 -30.225  1.00  0.00     0.091 A 
HETATM   23  C   UNL     1      -1.559   5.757 -30.453  1.00  0.00     0.071 A 
BRANCH  22  24
HETATM   24  C   UNL     1      -0.150   7.401 -29.008  1.00  0.00     0.016 A 
HETATM   25  C   UNL     1      -0.747   8.622 -28.651  1.00  0.00     0.046 A 
HETATM   26 CL   UNL     1      -2.004   9.373 -29.577  1.00  0.00    -0.083 Cl
HETATM   27  C   UNL     1      -0.364   9.282 -27.474  1.00  0.00     0.025 A 
HETATM   28  C   UNL     1       0.608   8.732 -26.639  1.00  0.00     0.002 A 
HETATM   29  C   UNL     1       1.197   7.518 -26.970  1.00  0.00     0.001 A 
HETATM   30  C   UNL     1       0.821   6.859 -28.143  1.00  0.00     0.015 A 
ENDBRANCH  22  24
ENDBRANCH   2  18
TORSDOF 4
ENDMDL
MODEL 5
REMARK VINA RESULT:      -8.6      8.368     11.206
REMARK  4 active torsions:
REMARK  status: ('A' for Active; 'I' for Inactive)
REMARK    1  A    between atoms: C_7  and  C_8 
REMARK    2  A    between atoms: N_9  and  N_10 
REMARK       I    between atoms: N_10  and  C_11 
REMARK    3  A    between atoms: C_11  and  C_12 
REMARK    4  A    between atoms: C_16  and  C_17 
ROOT
HETATM    1  N   UNL     1     -10.175   1.442 -32.932  1.00  0.00    -0.242 N 
HETATM    2  C   UNL     1      -8.946   1.854 -33.426  1.00  0.00     0.289 C 
HETATM    3  O   UNL     1      -8.564   3.021 -33.453  1.00  0.00    -0.264 OA
HETATM    4  H   UNL     1     -10.447   0.470 -32.980  1.00  0.00     0.192 HD
ENDROOT
BRANCH   1   5
HETATM    5  N   UNL     1     -11.061   2.364 -32.447  1.00  0.00    -0.183 NA
HETATM    6  C   UNL     1     -12.014   2.712 -33.250  1.00  0.00     0.153 C 
BRANCH   6   7
HETATM    7  C   UNL     1     -13.003   3.690 -32.834  1.00  0.00     0.018 A 
HETATM    8  C   UNL     1     -12.807   5.051 -32.641  1.00  0.00     0.018 A 
HETATM    9  C   UNL     1     -11.591   5.898 -32.789  1.00  0.00     0.069 C 
HETATM   10  N   UNL     1     -14.005   5.596 -32.251  1.00  0.00    -0.358 N 
HETATM   11  H   UNL     1     -14.157   6.572 -32.040  1.00  0.00     0.166 HD
HETATM   12  C   UNL     1     -14.979   4.630 -32.185  1.00  0.00     0.043 A 
HETATM   13  C   UNL     1     -14.384   3.421 -32.546  1.00  0.00     0.004 A 
HETATM   14  C   UNL     1     -16.331   4.739 -31.836  1.00  0.00     0.030 A 
HETATM   15  C   UNL     1     -15.188   2.260 -32.558  1.00  0.00     0.014 A 
HETATM   16  C   UNL     1     -16.541   2.351 -32.213  1.00  0.00     0.001 A 
HETATM   17  C   UNL     1     -17.102   3.574 -31.857  1.00  0.00     0.002 A 
ENDBRANCH   6   7
ENDBRANCH   1   5
BRANCH   2  18
HETATM   18  C   UNL     1      -8.120   0.789 -33.940  1.00  0.00     0.121 A 
HETATM   19  N   UNL     1      -7.648   0.818 -35.223  1.00  0.00    -0.272 N 
HETATM   20  H   UNL     1      -7.809   1.548 -35.911  1.00  0.00     0.189 HD
HETATM   21  N   UNL     1      -6.901  -0.245 -35.558  1.00  0.00    -0.174 NA
HETATM   22  C   UNL     1      -6.893  -1.015 -34.458  1.00  0.00     0.091 A 
HETATM   23  C   UNL     1      -7.619  -0.383 -33.409  1.00  0.00     0.071 A 
BRANCH  22  24
HETATM   24  C   UNL     1      -6.161  -2.283 -34.431  1.00  0.00     0.016 A 
HETATM   25  C   UNL     1      -4.812  -2.399 -34.056  1.00  0.00     0.046 A 
HETATM   26 CL   UNL     1      -3.856  -1.060 -33.514  1.00  0.00    -0.083 Cl
HETATM   27  C   UNL     1      -4.177  -3.649 -34.071  1.00  0.00     0.025 A 
HETATM   28  C   UNL     1      -4.877  -4.795 -34.449  1.00  0.00     0.002 A 
HETATM   29  C   UNL     1      -6.217  -4.698 -34.808  1.00  0.00     0.001 A 
HETATM   30  C   UNL     1      -6.852  -3.455 -34.797  1.00  0.00     0.015 A 
ENDBRANCH  22  24
ENDBRANCH   2  18
TORSDOF 4
ENDMDL
MODEL 6
REMARK VINA RESULT:      -8.5      7.067     10.465
REMARK  4 active torsions:
REMARK  status: ('A' for Active; 'I' for Inactive)
REMARK    1  A    between atoms: C_7  and  C_8 
REMARK    2  A    between atoms: N_9  and  N_10 
REMARK       I    between atoms: N_10  and  C_11 
REMARK    3  A    between atoms: C_11  and  C_12 
REMARK    4  A    between atoms: C_16  and  C_17 
ROOT
HETATM    1  N   UNL     1      -8.572   1.235 -33.491  1.00  0.00    -0.242 N 
HETATM    2  C   UNL     1      -9.891   0.838 -33.331  1.00  0.00     0.289 C 
HETATM    3  O   UNL     1     -10.238  -0.247 -32.872  1.00  0.00    -0.264 OA
HETATM    4  H   UNL     1      -8.352   2.126 -33.917  1.00  0.00     0.192 HD
ENDROOT
BRANCH   1   5
HETATM    5  N   UNL     1      -7.555   0.389 -33.143  1.00  0.00    -0.183 NA
HETATM    6  C   UNL     1      -6.811  -0.033 -34.113  1.00  0.00     0.153 C 
BRANCH   6   7
HETATM    7  C   UNL     1      -5.709  -0.940 -33.851  1.00  0.00     0.018 A 
HETATM    8  C   UNL     1      -4.506  -0.640 -33.225  1.00  0.00     0.018 A 
HETATM    9  C   UNL     1      -3.990   0.635 -32.653  1.00  0.00     0.069 C 
HETATM   10  N   UNL     1      -3.755  -1.788 -33.186  1.00  0.00    -0.358 N 
HETATM   11  H   UNL     1      -2.831  -1.862 -32.785  1.00  0.00     0.166 HD
HETATM   12  C   UNL     1      -4.433  -2.831 -33.768  1.00  0.00     0.043 A 
HETATM   13  C   UNL     1      -5.664  -2.334 -34.196  1.00  0.00     0.004 A 
HETATM   14  C   UNL     1      -4.049  -4.166 -33.943  1.00  0.00     0.030 A 
HETATM   15  C   UNL     1      -6.557  -3.223 -34.833  1.00  0.00     0.014 A 
HETATM   16  C   UNL     1      -6.189  -4.561 -35.016  1.00  0.00     0.001 A 
HETATM   17  C   UNL     1      -4.952  -5.023 -34.577  1.00  0.00     0.002 A 
ENDBRANCH   6   7
ENDBRANCH   1   5
BRANCH   2  18
HETATM   18  C   UNL     1     -10.866   1.806 -33.769  1.00  0.00     0.121 A 
HETATM   19  N   UNL     1     -11.536   1.650 -34.950  1.00  0.00    -0.272 N 
HETATM   20  H   UNL     1     -11.435   0.880 -35.606  1.00  0.00     0.189 HD
HETATM   21  N   UNL     1     -12.404   2.635 -35.224  1.00  0.00    -0.174 NA
HETATM   22  C   UNL     1     -12.290   3.486 -34.192  1.00  0.00     0.091 A 
HETATM   23  C   UNL     1     -11.359   2.982 -33.240  1.00  0.00     0.071 A 
BRANCH  22  24
HETATM   24  C   UNL     1     -13.100   4.705 -34.126  1.00  0.00     0.016 A 
HETATM   25  C   UNL     1     -13.955   5.019 -33.056  1.00  0.00     0.046 A 
HETATM   26 CL   UNL     1     -14.111   4.031 -31.641  1.00  0.00    -0.083 Cl
HETATM   27  C   UNL     1     -14.710   6.200 -33.074  1.00  0.00     0.025 A 
HETATM   28  C   UNL     1     -14.617   7.083 -34.150  1.00  0.00     0.002 A 
HETATM   29  C   UNL     1     -13.764   6.793 -35.209  1.00  0.00     0.001 A 
HETATM   30  C   UNL     1     -13.012   5.616 -35.196  1.00  0.00     0.015 A 
ENDBRANCH  22  24
ENDBRANCH   2  18
TORSDOF 4
ENDMDL
MODEL 7
REMARK VINA RESULT:      -8.5      8.610     11.274
REMARK  4 active torsions:
REMARK  status: ('A' for Active; 'I' for Inactive)
REMARK    1  A    between atoms: C_7  and  C_8 
REMARK    2  A    between atoms: N_9  and  N_10 
REMARK       I    between atoms: N_10  and  C_11 
REMARK    3  A    between atoms: C_11  and  C_12 
REMARK    4  A    between atoms: C_16  and  C_17 
ROOT
HETATM    1  N   UNL     1      -9.894   2.383 -34.381  1.00  0.00    -0.242 N 
HETATM    2  C   UNL     1      -9.283   1.607 -33.407  1.00  0.00     0.289 C 
HETATM    3  O   UNL     1      -9.457   1.745 -32.199  1.00  0.00    -0.264 OA
HETATM    4  H   UNL     1      -9.674   2.247 -35.358  1.00  0.00     0.192 HD
ENDROOT
BRANCH   1   5
HETATM    5  N   UNL     1     -10.742   3.393 -34.018  1.00  0.00    -0.183 NA
HETATM    6  C   UNL     1     -11.997   3.193 -34.258  1.00  0.00     0.153 C 
BRANCH   6   7
HETATM    7  C   UNL     1     -12.980   4.205 -33.917  1.00  0.00     0.018 A 
HETATM    8  C   UNL     1     -13.952   4.131 -32.928  1.00  0.00     0.018 A 
HETATM    9  C   UNL     1     -14.281   3.052 -31.955  1.00  0.00     0.069 C 
HETATM   10  N   UNL     1     -14.663   5.305 -32.949  1.00  0.00    -0.358 N 
HETATM   11  H   UNL     1     -15.433   5.527 -32.335  1.00  0.00     0.166 HD
HETATM   12  C   UNL     1     -14.181   6.146 -33.923  1.00  0.00     0.043 A 
HETATM   13  C   UNL     1     -13.124   5.487 -34.549  1.00  0.00     0.004 A 
HETATM   14  C   UNL     1     -14.602   7.430 -34.289  1.00  0.00     0.030 A 
HETATM   15  C   UNL     1     -12.453   6.151 -35.599  1.00  0.00     0.014 A 
HETATM   16  C   UNL     1     -12.860   7.435 -35.978  1.00  0.00     0.001 A 
HETATM   17  C   UNL     1     -13.919   8.064 -35.331  1.00  0.00     0.002 A 
ENDBRANCH   6   7
ENDBRANCH   1   5
BRANCH   2  18
HETATM   18  C   UNL     1      -8.386   0.600 -33.919  1.00  0.00     0.121 A 
HETATM   19  N   UNL     1      -7.909   0.664 -35.199  1.00  0.00    -0.272 N 
HETATM   20  H   UNL     1      -8.114   1.384 -35.886  1.00  0.00     0.189 HD
HETATM   21  N   UNL     1      -7.093  -0.347 -35.532  1.00  0.00    -0.174 NA
HETATM   22  C   UNL     1      -7.041  -1.118 -34.434  1.00  0.00     0.091 A 
HETATM   23  C   UNL     1      -7.812  -0.538 -33.388  1.00  0.00     0.071 A 
BRANCH  22  24
HETATM   24  C   UNL     1      -6.227  -2.336 -34.406  1.00  0.00     0.016 A 
HETATM   25  C   UNL     1      -4.890  -2.373 -33.974  1.00  0.00     0.046 A 
HETATM   26 CL   UNL     1      -4.051  -0.990 -33.357  1.00  0.00    -0.083 Cl
HETATM   27  C   UNL     1      -4.173  -3.578 -33.992  1.00  0.00     0.025 A 
HETATM   28  C   UNL     1      -4.778  -4.756 -34.429  1.00  0.00     0.002 A 
HETATM   29  C   UNL     1      -6.105  -4.738 -34.845  1.00  0.00     0.001 A 
HETATM   30  C   UNL     1      -6.822  -3.540 -34.832  1.00  0.00     0.015 A 
ENDBRANCH  22  24
ENDBRANCH   2  18
TORSDOF 4
ENDMDL
MODEL 8
REMARK VINA RESULT:      -8.1      7.278     11.764
REMARK  4 active torsions:
REMARK  status: ('A' for Active; 'I' for Inactive)
REMARK    1  A    between atoms: C_7  and  C_8 
REMARK    2  A    between atoms: N_9  and  N_10 
REMARK       I    between atoms: N_10  and  C_11 
REMARK    3  A    between atoms: C_11  and  C_12 
REMARK    4  A    between atoms: C_16  and  C_17 
ROOT
HETATM    1  N   UNL     1     -10.512   1.197 -32.592  1.00  0.00    -0.242 N 
HETATM    2  C   UNL     1     -11.261   1.922 -33.507  1.00  0.00     0.289 C 
HETATM    3  O   UNL     1     -10.819   2.386 -34.554  1.00  0.00    -0.264 OA
HETATM    4  H   UNL     1     -10.927   0.880 -31.726  1.00  0.00     0.192 HD
ENDROOT
BRANCH   1   5
HETATM    5  N   UNL     1      -9.183   0.973 -32.821  1.00  0.00    -0.183 NA
HETATM    6  C   UNL     1      -8.544   0.345 -31.887  1.00  0.00     0.153 C 
BRANCH   6   7
HETATM    7  C   UNL     1      -7.127   0.063 -32.029  1.00  0.00     0.018 A 
HETATM    8  C   UNL     1      -6.084   0.620 -31.300  1.00  0.00     0.018 A 
HETATM    9  C   UNL     1      -6.082   1.627 -30.203  1.00  0.00     0.069 C 
HETATM   10  N   UNL     1      -4.913   0.072 -31.760  1.00  0.00    -0.358 N 
HETATM   11  H   UNL     1      -3.992   0.295 -31.409  1.00  0.00     0.166 HD
HETATM   12  C   UNL     1      -5.160  -0.828 -32.767  1.00  0.00     0.043 A 
HETATM   13  C   UNL     1      -6.541  -0.859 -32.961  1.00  0.00     0.004 A 
HETATM   14  C   UNL     1      -4.269  -1.610 -33.512  1.00  0.00     0.030 A 
HETATM   15  C   UNL     1      -7.055  -1.720 -33.955  1.00  0.00     0.014 A 
HETATM   16  C   UNL     1      -6.179  -2.509 -34.708  1.00  0.00     0.001 A 
HETATM   17  C   UNL     1      -4.806  -2.453 -34.489  1.00  0.00     0.002 A 
ENDBRANCH   6   7
ENDBRANCH   1   5
BRANCH   2  18
HETATM   18  C   UNL     1     -12.640   2.118 -33.131  1.00  0.00     0.121 A 
HETATM   19  N   UNL     1     -13.523   1.074 -33.118  1.00  0.00    -0.272 N 
HETATM   20  H   UNL     1     -13.320   0.106 -33.349  1.00  0.00     0.189 HD
HETATM   21  N   UNL     1     -14.770   1.414 -32.756  1.00  0.00    -0.174 NA
HETATM   22  C   UNL     1     -14.711   2.737 -32.537  1.00  0.00     0.091 A 
HETATM   23  C   UNL     1     -13.382   3.210 -32.729  1.00  0.00     0.071 A 
BRANCH  22  24
HETATM   24  C   UNL     1     -15.897   3.484 -32.108  1.00  0.00     0.016 A 
HETATM   25  C   UNL     1     -15.859   4.806 -31.634  1.00  0.00     0.046 A 
HETATM   26 CL   UNL     1     -14.408   5.748 -31.556  1.00  0.00    -0.083 Cl
HETATM   27  C   UNL     1     -17.038   5.447 -31.228  1.00  0.00     0.025 A 
HETATM   28  C   UNL     1     -18.264   4.786 -31.297  1.00  0.00     0.002 A 
HETATM   29  C   UNL     1     -18.319   3.482 -31.779  1.00  0.00     0.001 A 
HETATM   30  C   UNL     1     -17.147   2.839 -32.182  1.00  0.00     0.015 A 
ENDBRANCH  22  24
ENDBRANCH   2  18
TORSDOF 4
ENDMDL
MODEL 9
REMARK VINA RESULT:      -8.0      1.683      2.744
REMARK  4 active torsions:
REMARK  status: ('A' for Active; 'I' for Inactive)
REMARK    1  A    between atoms: C_7  and  C_8 
REMARK    2  A    between atoms: N_9  and  N_10 
REMARK       I    between atoms: N_10  and  C_11 
REMARK    3  A    between atoms: C_11  and  C_12 
REMARK    4  A    between atoms: C_16  and  C_17 
ROOT
HETATM    1  N   UNL     1      -3.482   3.116 -31.723  1.00  0.00    -0.242 N 
HETATM    2  C   UNL     1      -3.426   4.461 -32.055  1.00  0.00     0.289 C 
HETATM    3  O   UNL     1      -3.783   4.926 -33.135  1.00  0.00    -0.264 OA
HETATM    4  H   UNL     1      -3.131   2.792 -30.832  1.00  0.00     0.192 HD
ENDROOT
BRANCH   1   5
HETATM    5  N   UNL     1      -3.945   2.206 -32.633  1.00  0.00    -0.183 NA
HETATM    6  C   UNL     1      -5.077   1.647 -32.351  1.00  0.00     0.153 C 
BRANCH   6   7
HETATM    7  C   UNL     1      -5.653   0.661 -33.248  1.00  0.00     0.018 A 
HETATM    8  C   UNL     1      -6.770   0.817 -34.058  1.00  0.00     0.018 A 
HETATM    9  C   UNL     1      -7.684   1.975 -34.258  1.00  0.00     0.069 C 
HETATM   10  N   UNL     1      -6.961  -0.360 -34.738  1.00  0.00    -0.358 N 
HETATM   11  H   UNL     1      -7.704  -0.532 -35.401  1.00  0.00     0.166 HD
HETATM   12  C   UNL     1      -5.999  -1.279 -34.397  1.00  0.00     0.043 A 
HETATM   13  C   UNL     1      -5.161  -0.670 -33.464  1.00  0.00     0.004 A 
HETATM   14  C   UNL     1      -5.813  -2.593 -34.845  1.00  0.00     0.030 A 
HETATM   15  C   UNL     1      -4.079  -1.419 -32.952  1.00  0.00     0.014 A 
HETATM   16  C   UNL     1      -3.878  -2.733 -33.389  1.00  0.00     0.001 A 
HETATM   17  C   UNL     1      -4.734  -3.310 -34.321  1.00  0.00     0.002 A 
ENDBRANCH   6   7
ENDBRANCH   1   5
BRANCH   2  18
HETATM   18  C   UNL     1      -2.887   5.312 -31.022  1.00  0.00     0.121 A 
HETATM   19  N   UNL     1      -3.708   6.000 -30.175  1.00  0.00    -0.272 N 
HETATM   20  H   UNL     1      -4.725   5.987 -30.172  1.00  0.00     0.189 HD
HETATM   21  N   UNL     1      -3.061   6.754 -29.274  1.00  0.00    -0.174 NA
HETATM   22  C   UNL     1      -1.760   6.569 -29.548  1.00  0.00     0.091 A 
HETATM   23  C   UNL     1      -1.609   5.643 -30.617  1.00  0.00     0.071 A 
BRANCH  22  24
HETATM   24  C   UNL     1      -0.720   7.233 -28.757  1.00  0.00     0.016 A 
HETATM   25  C   UNL     1      -0.639   8.625 -28.583  1.00  0.00     0.046 A 
HETATM   26 CL   UNL     1      -1.801   9.734 -29.232  1.00  0.00    -0.083 Cl
HETATM   27  C   UNL     1       0.397   9.186 -27.823  1.00  0.00     0.025 A 
HETATM   28  C   UNL     1       1.355   8.370 -27.222  1.00  0.00     0.002 A 
HETATM   29  C   UNL     1       1.280   6.990 -27.372  1.00  0.00     0.001 A 
HETATM   30  C   UNL     1       0.251   6.428 -28.131  1.00  0.00     0.015 A 
ENDBRANCH  22  24
ENDBRANCH   2  18
TORSDOF 4
ENDMDL
MODEL 10
REMARK VINA RESULT:      -8.0      3.069     10.376
REMARK  4 active torsions:
REMARK  status: ('A' for Active; 'I' for Inactive)
REMARK    1  A    between atoms: C_7  and  C_8 
REMARK    2  A    between atoms: N_9  and  N_10 
REMARK       I    between atoms: N_10  and  C_11 
REMARK    3  A    between atoms: C_11  and  C_12 
REMARK    4  A    between atoms: C_16  and  C_17 
ROOT
HETATM    1  N   UNL     1      -4.107   3.341 -31.739  1.00  0.00    -0.242 N 
HETATM    2  C   UNL     1      -5.081   2.447 -31.320  1.00  0.00     0.289 C 
HETATM    3  O   UNL     1      -5.702   2.542 -30.265  1.00  0.00    -0.264 OA
HETATM    4  H   UNL     1      -3.600   3.181 -32.599  1.00  0.00     0.192 HD
ENDROOT
BRANCH   1   5
HETATM    5  N   UNL     1      -3.771   4.406 -30.950  1.00  0.00    -0.183 NA
HETATM    6  C   UNL     1      -3.205   5.402 -31.552  1.00  0.00     0.153 C 
BRANCH   6   7
HETATM    7  C   UNL     1      -2.803   6.579 -30.804  1.00  0.00     0.018 A 
HETATM    8  C   UNL     1      -3.516   7.762 -30.656  1.00  0.00     0.018 A 
HETATM    9  C   UNL     1      -4.844   8.179 -31.184  1.00  0.00     0.069 C 
HETATM   10  N   UNL     1      -2.769   8.605 -29.872  1.00  0.00    -0.358 N 
HETATM   11  H   UNL     1      -3.044   9.538 -29.599  1.00  0.00     0.166 HD
HETATM   12  C   UNL     1      -1.589   8.007 -29.502  1.00  0.00     0.043 A 
HETATM   13  C   UNL     1      -1.578   6.733 -30.070  1.00  0.00     0.004 A 
HETATM   14  C   UNL     1      -0.542   8.498 -28.713  1.00  0.00     0.030 A 
HETATM   15  C   UNL     1      -0.457   5.908 -29.834  1.00  0.00     0.014 A 
HETATM   16  C   UNL     1       0.598   6.383 -29.047  1.00  0.00     0.001 A 
HETATM   17  C   UNL     1       0.555   7.659 -28.496  1.00  0.00     0.002 A 
ENDBRANCH   6   7
ENDBRANCH   1   5
BRANCH   2  18
HETATM   18  C   UNL     1      -5.316   1.349 -32.226  1.00  0.00     0.121 A 
HETATM   19  N   UNL     1      -5.932   1.547 -33.430  1.00  0.00    -0.272 N 
HETATM   20  H   UNL     1      -6.265   2.432 -33.802  1.00  0.00     0.189 HD
HETATM   21  N   UNL     1      -6.088   0.431 -34.157  1.00  0.00    -0.174 NA
HETATM   22  C   UNL     1      -5.570  -0.546 -33.396  1.00  0.00     0.091 A 
HETATM   23  C   UNL     1      -5.044  -0.004 -32.190  1.00  0.00     0.071 A 
BRANCH  22  24
HETATM   24  C   UNL     1      -5.549  -1.935 -33.862  1.00  0.00     0.016 A 
HETATM   25  C   UNL     1      -4.516  -2.842 -33.572  1.00  0.00     0.046 A 
HETATM   26 CL   UNL     1      -3.161  -2.451 -32.566  1.00  0.00    -0.083 Cl
HETATM   27  C   UNL     1      -4.562  -4.152 -34.069  1.00  0.00     0.025 A 
HETATM   28  C   UNL     1      -5.636  -4.575 -34.851  1.00  0.00     0.002 A 
HETATM   29  C   UNL     1      -6.673  -3.694 -35.135  1.00  0.00     0.001 A 
HETATM   30  C   UNL     1      -6.630  -2.387 -34.644  1.00  0.00     0.015 A 
ENDBRANCH  22  24
ENDBRANCH   2  18
TORSDOF 4
ENDMDL
