MODEL 1
REMARK VINA RESULT:      -8.5      0.000      0.000
REMARK  7 active torsions:
REMARK  status: ('A' for Active; 'I' for Inactive)
REMARK    1  A    between atoms: N_2  and  C_4 
REMARK    2  A    between atoms: N_2  and  C_10 
REMARK    3  A    between atoms: C_10  and  C_11 
REMARK    4  A    between atoms: C_12  and  N_13 
REMARK       I    between atoms: N_13  and  C_14 
REMARK       I    between atoms: C_14  and  N_15 
REMARK    5  A    between atoms: N_15  and  C_16 
REMARK    6  A    between atoms: C_16  and  C_17 
REMARK    7  A    between atoms: C_17  and  C_18 
ROOT
HETATM    1  C   UNL     1      -6.495  -2.140 -34.126  1.00  0.00    -0.006 A 
HETATM    2  C   UNL     1      -5.144  -1.832 -33.858  1.00  0.00     0.044 A 
HETATM    3  C   UNL     1      -4.180  -2.854 -34.025  1.00  0.00     0.030 A 
HETATM    4  C   UNL     1      -4.513  -4.129 -34.479  1.00  0.00     0.002 A 
HETATM    5  C   UNL     1      -5.829  -4.424 -34.778  1.00  0.00     0.001 A 
HETATM    6  C   UNL     1      -6.804  -3.445 -34.601  1.00  0.00     0.011 A 
ENDROOT
BRANCH   2   7
HETATM    7  N   UNL     1      -4.567  -0.608 -33.437  1.00  0.00    -0.308 N 
HETATM    8  C   UNL     1      -4.783   0.163 -32.331  1.00  0.00     0.320 C 
HETATM    9  N   UNL     1      -4.119   1.363 -32.399  1.00  0.00    -0.343 N 
HETATM   10  O   UNL     1      -5.533  -0.106 -31.402  1.00  0.00    -0.247 OA
HETATM   11  H   UNL     1      -3.342   1.475 -33.035  1.00  0.00     0.164 HD
HETATM   12  H   UNL     1      -4.030  -0.127 -34.146  1.00  0.00     0.170 HD
BRANCH   9  13
HETATM   13  C   UNL     1      -4.286   2.384 -31.374  1.00  0.00     0.130 C 
BRANCH  13  14
HETATM   14  C   UNL     1      -3.230   3.488 -31.481  1.00  0.00     0.079 C 
BRANCH  14  15
HETATM   15  C   UNL     1      -3.227   4.150 -32.840  1.00  0.00     0.042 A 
HETATM   16  N   UNL     1      -4.463   4.449 -33.368  1.00  0.00    -0.248 NA
HETATM   17  C   UNL     1      -4.485   5.018 -34.527  1.00  0.00     0.210 A 
HETATM   18  N   UNL     1      -3.372   5.342 -35.242  1.00  0.00    -0.318 N 
HETATM   19  C   UNL     1      -2.120   5.096 -34.767  1.00  0.00     0.248 A 
HETATM   20  H   UNL     1      -3.438   5.798 -36.141  1.00  0.00     0.169 HD
HETATM   21  O   UNL     1      -1.097   5.420 -35.356  1.00  0.00    -0.268 OA
HETATM   22  C   UNL     1      -2.071   4.425 -33.463  1.00  0.00     0.101 A 
ENDBRANCH  14  15
ENDBRANCH  13  14
ENDBRANCH   9  13
ENDBRANCH   2   7
BRANCH   1  23
HETATM   23  C   UNL     1      -7.704  -1.256 -33.899  1.00  0.00     0.275 C 
BRANCH  23  24
HETATM   24  N   UNL     1      -7.628   0.208 -34.311  1.00  0.00    -0.067 N 
HETATM   25  C   UNL     1      -7.116   0.386 -35.716  1.00  0.00     0.270 C 
HETATM   26  H   UNL     1      -6.868   0.553 -33.689  1.00  0.00     0.280 HD
BRANCH  24  27
HETATM   27  C   UNL     1      -8.876   1.043 -34.026  1.00  0.00     0.188 C 
HETATM   28  C   UNL     1      -9.677   0.568 -32.799  1.00  0.00     0.033 C 
HETATM   29  C   UNL     1      -9.001   0.866 -31.462  1.00  0.00     0.002 C 
HETATM   30  C   UNL     1      -8.669   2.346 -31.328  1.00  0.00     0.000 C 
HETATM   31  C   UNL     1      -7.842   2.848 -32.505  1.00  0.00     0.002 C 
HETATM   32  C   UNL     1      -8.514   2.532 -33.843  1.00  0.00     0.033 C 
ENDBRANCH  24  27
ENDBRANCH  23  24
ENDBRANCH   1  23
TORSDOF 7
ENDMDL
MODEL 2
REMARK VINA RESULT:      -8.1      3.593      7.047
REMARK  7 active torsions:
REMARK  status: ('A' for Active; 'I' for Inactive)
REMARK    1  A    between atoms: N_2  and  C_4 
REMARK    2  A    between atoms: N_2  and  C_10 
REMARK    3  A    between atoms: C_10  and  C_11 
REMARK    4  A    between atoms: C_12  and  N_13 
REMARK       I    between atoms: N_13  and  C_14 
REMARK       I    between atoms: C_14  and  N_15 
REMARK    5  A    between atoms: N_15  and  C_16 
REMARK    6  A    between atoms: C_16  and  C_17 
REMARK    7  A    between atoms: C_17  and  C_18 
ROOT
HETATM    1  C   UNL     1      -5.245  -0.805 -33.580  1.00  0.00    -0.006 A 
HETATM    2  C   UNL     1      -6.379  -0.990 -34.399  1.00  0.00     0.044 A 
HETATM    3  C   UNL     1      -6.523  -2.227 -35.072  1.00  0.00     0.030 A 
HETATM    4  C   UNL     1      -5.612  -3.270 -34.919  1.00  0.00     0.002 A 
HETATM    5  C   UNL     1      -4.520  -3.107 -34.089  1.00  0.00     0.001 A 
HETATM    6  C   UNL     1      -4.339  -1.892 -33.433  1.00  0.00     0.011 A 
ENDROOT
BRANCH   2   7
HETATM    7  N   UNL     1      -7.451  -0.102 -34.667  1.00  0.00    -0.308 N 
HETATM    8  C   UNL     1      -8.489   0.326 -33.890  1.00  0.00     0.320 C 
HETATM    9  N   UNL     1      -9.399   1.066 -34.605  1.00  0.00    -0.343 N 
HETATM   10  O   UNL     1      -8.672   0.043 -32.714  1.00  0.00    -0.247 OA
HETATM   11  H   UNL     1      -9.132   1.481 -35.487  1.00  0.00     0.164 HD
HETATM   12  H   UNL     1      -7.578   0.126 -35.644  1.00  0.00     0.170 HD
BRANCH   9  13
HETATM   13  C   UNL     1     -10.636   1.540 -34.000  1.00  0.00     0.130 C 
BRANCH  13  14
HETATM   14  C   UNL     1     -11.808   1.511 -34.985  1.00  0.00     0.079 C 
BRANCH  14  15
HETATM   15  C   UNL     1     -13.145   1.637 -34.291  1.00  0.00     0.042 A 
HETATM   16  N   UNL     1     -14.156   0.842 -34.784  1.00  0.00    -0.248 NA
HETATM   17  C   UNL     1     -15.307   0.930 -34.204  1.00  0.00     0.210 A 
HETATM   18  N   UNL     1     -15.572   1.745 -33.145  1.00  0.00    -0.318 N 
HETATM   19  C   UNL     1     -14.611   2.537 -32.596  1.00  0.00     0.248 A 
HETATM   20  H   UNL     1     -16.486   1.772 -32.717  1.00  0.00     0.169 HD
HETATM   21  O   UNL     1     -14.796   3.243 -31.613  1.00  0.00    -0.268 OA
HETATM   22  C   UNL     1     -13.301   2.474 -33.255  1.00  0.00     0.101 A 
ENDBRANCH  14  15
ENDBRANCH  13  14
ENDBRANCH   9  13
ENDBRANCH   2   7
BRANCH   1  23
HETATM   23  C   UNL     1      -4.818   0.464 -32.872  1.00  0.00     0.275 C 
BRANCH  23  24
HETATM   24  N   UNL     1      -5.780   1.109 -31.882  1.00  0.00    -0.067 N 
HETATM   25  C   UNL     1      -5.873   0.346 -30.588  1.00  0.00     0.270 C 
HETATM   26  H   UNL     1      -6.691   0.960 -32.362  1.00  0.00     0.280 HD
BRANCH  24  27
HETATM   27  C   UNL     1      -5.606   2.613 -31.672  1.00  0.00     0.188 C 
HETATM   28  C   UNL     1      -5.378   3.402 -32.975  1.00  0.00     0.033 C 
HETATM   29  C   UNL     1      -6.622   3.527 -33.852  1.00  0.00     0.002 C 
HETATM   30  C   UNL     1      -7.787   4.125 -33.076  1.00  0.00     0.000 C 
HETATM   31  C   UNL     1      -8.072   3.349 -31.796  1.00  0.00     0.002 C 
HETATM   32  C   UNL     1      -6.819   3.211 -30.929  1.00  0.00     0.033 C 
ENDBRANCH  24  27
ENDBRANCH  23  24
ENDBRANCH   1  23
TORSDOF 7
ENDMDL
MODEL 3
REMARK VINA RESULT:      -7.9      4.295      7.862
REMARK  7 active torsions:
REMARK  status: ('A' for Active; 'I' for Inactive)
REMARK    1  A    between atoms: N_2  and  C_4 
REMARK    2  A    between atoms: N_2  and  C_10 
REMARK    3  A    between atoms: C_10  and  C_11 
REMARK    4  A    between atoms: C_12  and  N_13 
REMARK       I    between atoms: N_13  and  C_14 
REMARK       I    between atoms: C_14  and  N_15 
REMARK    5  A    between atoms: N_15  and  C_16 
REMARK    6  A    between atoms: C_16  and  C_17 
REMARK    7  A    between atoms: C_17  and  C_18 
ROOT
HETATM    1  C   UNL     1      -6.245  -0.419 -32.315  1.00  0.00    -0.006 A 
HETATM    2  C   UNL     1      -7.315  -0.726 -33.183  1.00  0.00     0.044 A 
HETATM    3  C   UNL     1      -7.031  -1.457 -34.360  1.00  0.00     0.030 A 
HETATM    4  C   UNL     1      -5.751  -1.914 -34.667  1.00  0.00     0.002 A 
HETATM    5  C   UNL     1      -4.707  -1.647 -33.802  1.00  0.00     0.001 A 
HETATM    6  C   UNL     1      -4.951  -0.909 -32.647  1.00  0.00     0.011 A 
ENDROOT
BRANCH   2   7
HETATM    7  N   UNL     1      -8.692  -0.414 -33.059  1.00  0.00    -0.308 N 
HETATM    8  C   UNL     1      -9.450   0.579 -33.611  1.00  0.00     0.320 C 
HETATM    9  N   UNL     1     -10.720   0.611 -33.089  1.00  0.00    -0.343 N 
HETATM   10  O   UNL     1      -9.064   1.414 -34.417  1.00  0.00    -0.247 OA
HETATM   11  H   UNL     1     -11.092  -0.200 -32.615  1.00  0.00     0.164 HD
HETATM   12  H   UNL     1      -9.169  -0.892 -32.306  1.00  0.00     0.170 HD
BRANCH   9  13
HETATM   13  C   UNL     1     -11.669   1.651 -33.461  1.00  0.00     0.130 C 
BRANCH  13  14
HETATM   14  C   UNL     1     -13.088   1.102 -33.637  1.00  0.00     0.079 C 
BRANCH  14  15
HETATM   15  C   UNL     1     -14.139   2.042 -33.091  1.00  0.00     0.042 A 
HETATM   16  N   UNL     1     -13.713   3.318 -32.800  1.00  0.00    -0.248 NA
HETATM   17  C   UNL     1     -14.595   4.140 -32.336  1.00  0.00     0.210 A 
HETATM   18  N   UNL     1     -15.904   3.822 -32.129  1.00  0.00    -0.318 N 
HETATM   19  C   UNL     1     -16.393   2.586 -32.419  1.00  0.00     0.248 A 
HETATM   20  H   UNL     1     -16.560   4.503 -31.773  1.00  0.00     0.169 HD
HETATM   21  O   UNL     1     -17.572   2.280 -32.296  1.00  0.00    -0.268 OA
HETATM   22  C   UNL     1     -15.403   1.627 -32.923  1.00  0.00     0.101 A 
ENDBRANCH  14  15
ENDBRANCH  13  14
ENDBRANCH   9  13
ENDBRANCH   2   7
BRANCH   1  23
HETATM   23  C   UNL     1      -6.285   0.452 -31.077  1.00  0.00     0.275 C 
BRANCH  23  24
HETATM   24  N   UNL     1      -6.369   1.963 -31.246  1.00  0.00    -0.067 N 
HETATM   25  C   UNL     1      -7.721   2.511 -30.877  1.00  0.00     0.270 C 
HETATM   26  H   UNL     1      -6.303   2.052 -32.281  1.00  0.00     0.280 HD
BRANCH  24  27
HETATM   27  C   UNL     1      -5.218   2.764 -30.637  1.00  0.00     0.188 C 
HETATM   28  C   UNL     1      -3.822   2.245 -31.027  1.00  0.00     0.033 C 
HETATM   29  C   UNL     1      -3.436   2.529 -32.478  1.00  0.00     0.002 C 
HETATM   30  C   UNL     1      -3.551   4.013 -32.800  1.00  0.00     0.000 C 
HETATM   31  C   UNL     1      -4.933   4.559 -32.464  1.00  0.00     0.002 C 
HETATM   32  C   UNL     1      -5.323   4.257 -31.015  1.00  0.00     0.033 C 
ENDBRANCH  24  27
ENDBRANCH  23  24
ENDBRANCH   1  23
TORSDOF 7
ENDMDL
MODEL 4
REMARK VINA RESULT:      -7.9      4.005      8.861
REMARK  7 active torsions:
REMARK  status: ('A' for Active; 'I' for Inactive)
REMARK    1  A    between atoms: N_2  and  C_4 
REMARK    2  A    between atoms: N_2  and  C_10 
REMARK    3  A    between atoms: C_10  and  C_11 
REMARK    4  A    between atoms: C_12  and  N_13 
REMARK       I    between atoms: N_13  and  C_14 
REMARK       I    between atoms: C_14  and  N_15 
REMARK    5  A    between atoms: N_15  and  C_16 
REMARK    6  A    between atoms: C_16  and  C_17 
REMARK    7  A    between atoms: C_17  and  C_18 
ROOT
HETATM    1  C   UNL     1      -1.740   6.051 -31.562  1.00  0.00    -0.006 A 
HETATM    2  C   UNL     1      -2.262   4.849 -32.085  1.00  0.00     0.044 A 
HETATM    3  C   UNL     1      -2.141   4.618 -33.476  1.00  0.00     0.030 A 
HETATM    4  C   UNL     1      -1.494   5.510 -34.328  1.00  0.00     0.002 A 
HETATM    5  C   UNL     1      -0.949   6.670 -33.814  1.00  0.00     0.001 A 
HETATM    6  C   UNL     1      -1.073   6.937 -32.453  1.00  0.00     0.011 A 
ENDROOT
BRANCH   2   7
HETATM    7  N   UNL     1      -2.912   3.782 -31.415  1.00  0.00    -0.308 N 
HETATM    8  C   UNL     1      -4.233   3.455 -31.298  1.00  0.00     0.320 C 
HETATM    9  N   UNL     1      -4.434   2.424 -30.414  1.00  0.00    -0.343 N 
HETATM   10  O   UNL     1      -5.167   4.035 -31.835  1.00  0.00    -0.247 OA
HETATM   11  H   UNL     1      -3.667   1.816 -30.164  1.00  0.00     0.164 HD
HETATM   12  H   UNL     1      -2.327   3.270 -30.768  1.00  0.00     0.170 HD
BRANCH   9  13
HETATM   13  C   UNL     1      -5.774   1.977 -30.060  1.00  0.00     0.130 C 
BRANCH  13  14
HETATM   14  C   UNL     1      -5.900   0.451 -30.089  1.00  0.00     0.079 C 
BRANCH  14  15
HETATM   15  C   UNL     1      -5.240  -0.157 -31.306  1.00  0.00     0.042 A 
HETATM   16  N   UNL     1      -3.889  -0.401 -31.200  1.00  0.00    -0.248 NA
HETATM   17  C   UNL     1      -3.305  -0.924 -32.227  1.00  0.00     0.210 A 
HETATM   18  N   UNL     1      -3.941  -1.250 -33.387  1.00  0.00    -0.318 N 
HETATM   19  C   UNL     1      -5.279  -1.057 -33.547  1.00  0.00     0.248 A 
HETATM   20  H   UNL     1      -3.443  -1.668 -34.160  1.00  0.00     0.169 HD
HETATM   21  O   UNL     1      -5.894  -1.385 -34.553  1.00  0.00    -0.268 OA
HETATM   22  C   UNL     1      -5.959  -0.439 -32.403  1.00  0.00     0.101 A 
ENDBRANCH  14  15
ENDBRANCH  13  14
ENDBRANCH   9  13
ENDBRANCH   2   7
BRANCH   1  23
HETATM   23  C   UNL     1      -1.865   6.568 -30.144  1.00  0.00     0.275 C 
BRANCH  23  24
HETATM   24  N   UNL     1      -0.683   6.403 -29.198  1.00  0.00    -0.067 N 
HETATM   25  C   UNL     1       0.232   5.279 -29.607  1.00  0.00     0.270 C 
HETATM   26  H   UNL     1      -1.161   6.075 -28.334  1.00  0.00     0.280 HD
BRANCH  24  27
HETATM   27  C   UNL     1       0.074   7.686 -28.851  1.00  0.00     0.188 C 
HETATM   28  C   UNL     1      -0.840   8.859 -28.450  1.00  0.00     0.033 C 
HETATM   29  C   UNL     1      -1.486   8.703 -27.076  1.00  0.00     0.002 C 
HETATM   30  C   UNL     1      -0.439   8.464 -25.996  1.00  0.00     0.000 C 
HETATM   31  C   UNL     1       0.463   7.284 -26.336  1.00  0.00     0.002 C 
HETATM   32  C   UNL     1       1.095   7.436 -27.721  1.00  0.00     0.033 C 
ENDBRANCH  24  27
ENDBRANCH  23  24
ENDBRANCH   1  23
TORSDOF 7
ENDMDL
MODEL 5
REMARK VINA RESULT:      -7.7      3.873      8.675
REMARK  7 active torsions:
REMARK  status: ('A' for Active; 'I' for Inactive)
REMARK    1  A    between atoms: N_2  and  C_4 
REMARK    2  A    between atoms: N_2  and  C_10 
REMARK    3  A    between atoms: C_10  and  C_11 
REMARK    4  A    between atoms: C_12  and  N_13 
REMARK       I    between atoms: N_13  and  C_14 
REMARK       I    between atoms: C_14  and  N_15 
REMARK    5  A    between atoms: N_15  and  C_16 
REMARK    6  A    between atoms: C_16  and  C_17 
REMARK    7  A    between atoms: C_17  and  C_18 
ROOT
HETATM    1  C   UNL     1      -1.257   5.467 -31.745  1.00  0.00    -0.006 A 
HETATM    2  C   UNL     1      -2.184   4.602 -32.365  1.00  0.00     0.044 A 
HETATM    3  C   UNL     1      -2.498   4.825 -33.727  1.00  0.00     0.030 A 
HETATM    4  C   UNL     1      -1.899   5.834 -34.477  1.00  0.00     0.002 A 
HETATM    5  C   UNL     1      -0.963   6.660 -33.885  1.00  0.00     0.001 A 
HETATM    6  C   UNL     1      -0.651   6.480 -32.539  1.00  0.00     0.011 A 
ENDROOT
BRANCH   2   7
HETATM    7  N   UNL     1      -2.878   3.491 -31.825  1.00  0.00    -0.308 N 
HETATM    8  C   UNL     1      -4.141   3.368 -31.321  1.00  0.00     0.320 C 
HETATM    9  N   UNL     1      -4.353   2.138 -30.748  1.00  0.00    -0.343 N 
HETATM   10  O   UNL     1      -4.991   4.248 -31.289  1.00  0.00    -0.247 OA
HETATM   11  H   UNL     1      -3.749   1.362 -30.980  1.00  0.00     0.164 HD
HETATM   12  H   UNL     1      -2.297   2.691 -31.611  1.00  0.00     0.170 HD
BRANCH   9  13
HETATM   13  C   UNL     1      -5.598   1.824 -30.060  1.00  0.00     0.130 C 
BRANCH  13  14
HETATM   14  C   UNL     1      -6.135   0.442 -30.443  1.00  0.00     0.079 C 
BRANCH  14  15
HETATM   15  C   UNL     1      -6.192   0.242 -31.940  1.00  0.00     0.042 A 
HETATM   16  N   UNL     1      -6.687   1.299 -32.671  1.00  0.00    -0.248 NA
HETATM   17  C   UNL     1      -6.742   1.151 -33.953  1.00  0.00     0.210 A 
HETATM   18  N   UNL     1      -6.336   0.031 -34.613  1.00  0.00    -0.318 N 
HETATM   19  C   UNL     1      -5.815  -1.039 -33.953  1.00  0.00     0.248 A 
HETATM   20  H   UNL     1      -6.388  -0.034 -35.620  1.00  0.00     0.169 HD
HETATM   21  O   UNL     1      -5.392  -2.040 -34.514  1.00  0.00    -0.268 OA
HETATM   22  C   UNL     1      -5.768  -0.905 -32.492  1.00  0.00     0.101 A 
ENDBRANCH  14  15
ENDBRANCH  13  14
ENDBRANCH   9  13
ENDBRANCH   2   7
BRANCH   1  23
HETATM   23  C   UNL     1      -0.866   5.502 -30.283  1.00  0.00     0.275 C 
BRANCH  23  24
HETATM   24  N   UNL     1      -1.370   6.650 -29.418  1.00  0.00    -0.067 N 
HETATM   25  C   UNL     1      -2.861   6.835 -29.516  1.00  0.00     0.270 C 
HETATM   26  H   UNL     1      -0.953   7.468 -29.907  1.00  0.00     0.280 HD
BRANCH  24  27
HETATM   27  C   UNL     1      -0.865   6.664 -27.975  1.00  0.00     0.188 C 
HETATM   28  C   UNL     1       0.666   6.768 -27.851  1.00  0.00     0.033 C 
HETATM   29  C   UNL     1       1.227   8.143 -28.208  1.00  0.00     0.002 C 
HETATM   30  C   UNL     1       0.561   9.241 -27.390  1.00  0.00     0.000 C 
HETATM   31  C   UNL     1      -0.957   9.198 -27.516  1.00  0.00     0.002 C 
HETATM   32  C   UNL     1      -1.513   7.814 -27.174  1.00  0.00     0.033 C 
ENDBRANCH  24  27
ENDBRANCH  23  24
ENDBRANCH   1  23
TORSDOF 7
ENDMDL
MODEL 6
REMARK VINA RESULT:      -7.7      3.509      7.829
REMARK  7 active torsions:
REMARK  status: ('A' for Active; 'I' for Inactive)
REMARK    1  A    between atoms: N_2  and  C_4 
REMARK    2  A    between atoms: N_2  and  C_10 
REMARK    3  A    between atoms: C_10  and  C_11 
REMARK    4  A    between atoms: C_12  and  N_13 
REMARK       I    between atoms: N_13  and  C_14 
REMARK       I    between atoms: C_14  and  N_15 
REMARK    5  A    between atoms: N_15  and  C_16 
REMARK    6  A    between atoms: C_16  and  C_17 
REMARK    7  A    between atoms: C_17  and  C_18 
ROOT
HETATM    1  C   UNL     1      -4.382   3.253 -32.782  1.00  0.00    -0.006 A 
HETATM    2  C   UNL     1      -5.223   4.018 -33.618  1.00  0.00     0.044 A 
HETATM    3  C   UNL     1      -4.691   5.187 -34.211  1.00  0.00     0.030 A 
HETATM    4  C   UNL     1      -3.367   5.581 -34.029  1.00  0.00     0.002 A 
HETATM    5  C   UNL     1      -2.530   4.816 -33.241  1.00  0.00     0.001 A 
HETATM    6  C   UNL     1      -3.032   3.672 -32.626  1.00  0.00     0.011 A 
ENDROOT
BRANCH   2   7
HETATM    7  N   UNL     1      -6.574   3.792 -33.985  1.00  0.00    -0.308 N 
HETATM    8  C   UNL     1      -7.724   3.780 -33.249  1.00  0.00     0.320 C 
HETATM    9  N   UNL     1      -8.803   3.354 -33.982  1.00  0.00    -0.343 N 
HETATM   10  O   UNL     1      -7.815   4.032 -32.055  1.00  0.00    -0.247 OA
HETATM   11  H   UNL     1      -8.768   3.374 -34.991  1.00  0.00     0.164 HD
HETATM   12  H   UNL     1      -6.703   3.405 -34.911  1.00  0.00     0.170 HD
BRANCH   9  13
HETATM   13  C   UNL     1     -10.112   3.168 -33.370  1.00  0.00     0.130 C 
BRANCH  13  14
HETATM   14  C   UNL     1     -10.792   1.880 -33.843  1.00  0.00     0.079 C 
BRANCH  14  15
HETATM   15  C   UNL     1     -12.292   1.920 -33.657  1.00  0.00     0.042 A 
HETATM   16  N   UNL     1     -12.763   2.862 -32.770  1.00  0.00    -0.248 NA
HETATM   17  C   UNL     1     -14.043   2.917 -32.598  1.00  0.00     0.210 A 
HETATM   18  N   UNL     1     -14.937   2.114 -33.239  1.00  0.00    -0.318 N 
HETATM   19  C   UNL     1     -14.538   1.180 -34.145  1.00  0.00     0.248 A 
HETATM   20  H   UNL     1     -15.931   2.202 -33.079  1.00  0.00     0.169 HD
HETATM   21  O   UNL     1     -15.315   0.478 -34.779  1.00  0.00    -0.268 OA
HETATM   22  C   UNL     1     -13.087   1.081 -34.338  1.00  0.00     0.101 A 
ENDBRANCH  14  15
ENDBRANCH  13  14
ENDBRANCH   9  13
ENDBRANCH   2   7
BRANCH   1  23
HETATM   23  C   UNL     1      -4.763   2.047 -31.948  1.00  0.00     0.275 C 
BRANCH  23  24
HETATM   24  N   UNL     1      -4.612   0.659 -32.557  1.00  0.00    -0.067 N 
HETATM   25  C   UNL     1      -3.258   0.057 -32.293  1.00  0.00     0.270 C 
HETATM   26  H   UNL     1      -4.627   0.883 -33.573  1.00  0.00     0.280 HD
BRANCH  24  27
HETATM   27  C   UNL     1      -5.758  -0.315 -32.279  1.00  0.00     0.188 C 
HETATM   28  C   UNL     1      -7.134   0.191 -32.750  1.00  0.00     0.033 C 
HETATM   29  C   UNL     1      -7.312   0.187 -34.266  1.00  0.00     0.002 C 
HETATM   30  C   UNL     1      -7.034  -1.190 -34.852  1.00  0.00     0.000 C 
HETATM   31  C   UNL     1      -5.663  -1.712 -34.442  1.00  0.00     0.002 C 
HETATM   32  C   UNL     1      -5.481  -1.690 -32.923  1.00  0.00     0.033 C 
ENDBRANCH  24  27
ENDBRANCH  23  24
ENDBRANCH   1  23
TORSDOF 7
ENDMDL
MODEL 7
REMARK VINA RESULT:      -7.7      3.439      6.770
REMARK  7 active torsions:
REMARK  status: ('A' for Active; 'I' for Inactive)
REMARK    1  A    between atoms: N_2  and  C_4 
REMARK    2  A    between atoms: N_2  and  C_10 
REMARK    3  A    between atoms: C_10  and  C_11 
REMARK    4  A    between atoms: C_12  and  N_13 
REMARK       I    between atoms: N_13  and  C_14 
REMARK       I    between atoms: C_14  and  N_15 
REMARK    5  A    between atoms: N_15  and  C_16 
REMARK    6  A    between atoms: C_16  and  C_17 
REMARK    7  A    between atoms: C_17  and  C_18 
ROOT
HETATM    1  C   UNL     1      -6.983   0.416 -32.977  1.00  0.00    -0.006 A 
HETATM    2  C   UNL     1      -7.718   0.289 -34.175  1.00  0.00     0.044 A 
HETATM    3  C   UNL     1      -7.353  -0.737 -35.078  1.00  0.00     0.030 A 
HETATM    4  C   UNL     1      -6.328  -1.641 -34.807  1.00  0.00     0.002 A 
HETATM    5  C   UNL     1      -5.630  -1.545 -33.619  1.00  0.00     0.001 A 
HETATM    6  C   UNL     1      -5.951  -0.530 -32.721  1.00  0.00     0.011 A 
ENDROOT
BRANCH   2   7
HETATM    7  N   UNL     1      -8.819   1.052 -34.640  1.00  0.00    -0.308 N 
HETATM    8  C   UNL     1     -10.095   1.181 -34.173  1.00  0.00     0.320 C 
HETATM    9  N   UNL     1     -10.889   1.905 -35.029  1.00  0.00    -0.343 N 
HETATM   10  O   UNL     1     -10.545   0.665 -33.159  1.00  0.00    -0.247 OA
HETATM   11  H   UNL     1     -10.467   2.507 -35.721  1.00  0.00     0.164 HD
HETATM   12  H   UNL     1      -8.706   1.435 -35.569  1.00  0.00     0.170 HD
BRANCH   9  13
HETATM   13  C   UNL     1     -12.313   2.082 -34.778  1.00  0.00     0.130 C 
BRANCH  13  14
HETATM   14  C   UNL     1     -12.650   3.516 -34.359  1.00  0.00     0.079 C 
BRANCH  14  15
HETATM   15  C   UNL     1     -12.562   3.713 -32.863  1.00  0.00     0.042 A 
HETATM   16  N   UNL     1     -13.738   3.555 -32.164  1.00  0.00    -0.248 NA
HETATM   17  C   UNL     1     -13.686   3.715 -30.883  1.00  0.00     0.210 A 
HETATM   18  N   UNL     1     -12.550   4.018 -30.194  1.00  0.00    -0.318 N 
HETATM   19  C   UNL     1     -11.351   4.162 -30.822  1.00  0.00     0.248 A 
HETATM   20  H   UNL     1     -12.556   4.123 -29.190  1.00  0.00     0.169 HD
HETATM   21  O   UNL     1     -10.301   4.381 -30.233  1.00  0.00    -0.268 OA
HETATM   22  C   UNL     1     -11.391   4.011 -32.281  1.00  0.00     0.101 A 
ENDBRANCH  14  15
ENDBRANCH  13  14
ENDBRANCH   9  13
ENDBRANCH   2   7
BRANCH   1  23
HETATM   23  C   UNL     1      -7.107   1.504 -31.931  1.00  0.00     0.275 C 
BRANCH  23  24
HETATM   24  N   UNL     1      -6.586   2.896 -32.258  1.00  0.00    -0.067 N 
HETATM   25  C   UNL     1      -7.694   3.879 -32.527  1.00  0.00     0.270 C 
HETATM   26  H   UNL     1      -6.130   2.729 -33.179  1.00  0.00     0.280 HD
BRANCH  24  27
HETATM   27  C   UNL     1      -5.522   3.447 -31.308  1.00  0.00     0.188 C 
HETATM   28  C   UNL     1      -4.365   2.469 -31.032  1.00  0.00     0.033 C 
HETATM   29  C   UNL     1      -3.414   2.283 -32.212  1.00  0.00     0.002 C 
HETATM   30  C   UNL     1      -2.865   3.618 -32.695  1.00  0.00     0.000 C 
HETATM   31  C   UNL     1      -3.980   4.605 -33.017  1.00  0.00     0.002 C 
HETATM   32  C   UNL     1      -4.941   4.775 -31.839  1.00  0.00     0.033 C 
ENDBRANCH  24  27
ENDBRANCH  23  24
ENDBRANCH   1  23
TORSDOF 7
ENDMDL
MODEL 8
REMARK VINA RESULT:      -7.6      3.787      8.726
REMARK  7 active torsions:
REMARK  status: ('A' for Active; 'I' for Inactive)
REMARK    1  A    between atoms: N_2  and  C_4 
REMARK    2  A    between atoms: N_2  and  C_10 
REMARK    3  A    between atoms: C_10  and  C_11 
REMARK    4  A    between atoms: C_12  and  N_13 
REMARK       I    between atoms: N_13  and  C_14 
REMARK       I    between atoms: C_14  and  N_15 
REMARK    5  A    between atoms: N_15  and  C_16 
REMARK    6  A    between atoms: C_16  and  C_17 
REMARK    7  A    between atoms: C_17  and  C_18 
ROOT
HETATM    1  C   UNL     1      -1.895   5.781 -31.824  1.00  0.00    -0.006 A 
HETATM    2  C   UNL     1      -2.279   4.585 -32.468  1.00  0.00     0.044 A 
HETATM    3  C   UNL     1      -2.114   4.498 -33.870  1.00  0.00     0.030 A 
HETATM    4  C   UNL     1      -1.554   5.530 -34.622  1.00  0.00     0.002 A 
HETATM    5  C   UNL     1      -1.144   6.688 -33.991  1.00  0.00     0.001 A 
HETATM    6  C   UNL     1      -1.315   6.811 -32.615  1.00  0.00     0.011 A 
ENDROOT
BRANCH   2   7
HETATM    7  N   UNL     1      -2.820   3.398 -31.913  1.00  0.00    -0.308 N 
HETATM    8  C   UNL     1      -4.079   2.870 -31.953  1.00  0.00     0.320 C 
HETATM    9  N   UNL     1      -4.207   1.774 -31.136  1.00  0.00    -0.343 N 
HETATM   10  O   UNL     1      -5.032   3.331 -32.567  1.00  0.00    -0.247 OA
HETATM   11  H   UNL     1      -3.385   1.275 -30.828  1.00  0.00     0.164 HD
HETATM   12  H   UNL     1      -2.232   2.944 -31.227  1.00  0.00     0.170 HD
BRANCH   9  13
HETATM   13  C   UNL     1      -5.491   1.112 -30.948  1.00  0.00     0.130 C 
BRANCH  13  14
HETATM   14  C   UNL     1      -5.663  -0.089 -31.882  1.00  0.00     0.079 C 
BRANCH  14  15
HETATM   15  C   UNL     1      -6.680   0.169 -32.969  1.00  0.00     0.042 A 
HETATM   16  N   UNL     1      -6.180   0.285 -34.247  1.00  0.00    -0.248 NA
HETATM   17  C   UNL     1      -7.032   0.502 -35.193  1.00  0.00     0.210 A 
HETATM   18  N   UNL     1      -8.377   0.613 -35.003  1.00  0.00    -0.318 N 
HETATM   19  C   UNL     1      -8.937   0.484 -33.770  1.00  0.00     0.248 A 
HETATM   20  H   UNL     1      -9.005   0.773 -35.777  1.00  0.00     0.169 HD
HETATM   21  O   UNL     1     -10.143   0.525 -33.567  1.00  0.00    -0.268 OA
HETATM   22  C   UNL     1      -7.986   0.263 -32.675  1.00  0.00     0.101 A 
ENDBRANCH  14  15
ENDBRANCH  13  14
ENDBRANCH   9  13
ENDBRANCH   2   7
BRANCH   1  23
HETATM   23  C   UNL     1      -2.094   6.147 -30.368  1.00  0.00     0.275 C 
BRANCH  23  24
HETATM   24  N   UNL     1      -0.880   6.175 -29.449  1.00  0.00    -0.067 N 
HETATM   25  C   UNL     1       0.173   5.179 -29.852  1.00  0.00     0.270 C 
HETATM   26  H   UNL     1      -1.290   5.809 -28.565  1.00  0.00     0.280 HD
BRANCH  24  27
HETATM   27  C   UNL     1      -0.303   7.560 -29.153  1.00  0.00     0.188 C 
HETATM   28  C   UNL     1      -1.327   8.550 -28.567  1.00  0.00     0.033 C 
HETATM   29  C   UNL     1      -1.722   8.253 -27.122  1.00  0.00     0.002 C 
HETATM   30  C   UNL     1      -0.499   8.172 -26.220  1.00  0.00     0.000 C 
HETATM   31  C   UNL     1       0.525   7.172 -26.744  1.00  0.00     0.002 C 
HETATM   32  C   UNL     1       0.905   7.463 -28.198  1.00  0.00     0.033 C 
ENDBRANCH  24  27
ENDBRANCH  23  24
ENDBRANCH   1  23
TORSDOF 7
ENDMDL
MODEL 9
REMARK VINA RESULT:      -7.6      2.922      6.823
REMARK  7 active torsions:
REMARK  status: ('A' for Active; 'I' for Inactive)
REMARK    1  A    between atoms: N_2  and  C_4 
REMARK    2  A    between atoms: N_2  and  C_10 
REMARK    3  A    between atoms: C_10  and  C_11 
REMARK    4  A    between atoms: C_12  and  N_13 
REMARK       I    between atoms: N_13  and  C_14 
REMARK       I    between atoms: C_14  and  N_15 
REMARK    5  A    between atoms: N_15  and  C_16 
REMARK    6  A    between atoms: C_16  and  C_17 
REMARK    7  A    between atoms: C_17  and  C_18 
ROOT
HETATM    1  C   UNL     1     -10.449   2.730 -32.627  1.00  0.00    -0.006 A 
HETATM    2  C   UNL     1     -10.040   1.416 -32.941  1.00  0.00     0.044 A 
HETATM    3  C   UNL     1     -11.005   0.524 -33.464  1.00  0.00     0.030 A 
HETATM    4  C   UNL     1     -12.321   0.908 -33.714  1.00  0.00     0.002 A 
HETATM    5  C   UNL     1     -12.716   2.203 -33.443  1.00  0.00     0.001 A 
HETATM    6  C   UNL     1     -11.795   3.098 -32.905  1.00  0.00     0.011 A 
ENDROOT
BRANCH   2   7
HETATM    7  N   UNL     1      -8.760   0.819 -32.820  1.00  0.00    -0.308 N 
HETATM    8  C   UNL     1      -7.740   0.670 -33.715  1.00  0.00     0.320 C 
HETATM    9  N   UNL     1      -6.732  -0.122 -33.224  1.00  0.00    -0.343 N 
HETATM   10  O   UNL     1      -7.719   1.104 -34.859  1.00  0.00    -0.247 OA
HETATM   11  H   UNL     1      -6.650  -0.276 -32.228  1.00  0.00     0.164 HD
HETATM   12  H   UNL     1      -8.634   0.253 -31.991  1.00  0.00     0.170 HD
BRANCH   9  13
HETATM   13  C   UNL     1      -5.590  -0.496 -34.046  1.00  0.00     0.130 C 
BRANCH  13  14
HETATM   14  C   UNL     1      -4.552  -1.303 -33.260  1.00  0.00     0.079 C 
BRANCH  14  15
HETATM   15  C   UNL     1      -4.536  -2.761 -33.657  1.00  0.00     0.042 A 
HETATM   16  N   UNL     1      -3.530  -3.524 -33.108  1.00  0.00    -0.248 NA
HETATM   17  C   UNL     1      -3.499  -4.774 -33.431  1.00  0.00     0.210 A 
HETATM   18  N   UNL     1      -4.395  -5.374 -34.264  1.00  0.00    -0.318 N 
HETATM   19  C   UNL     1      -5.426  -4.682 -34.820  1.00  0.00     0.248 A 
HETATM   20  H   UNL     1      -4.336  -6.359 -34.478  1.00  0.00     0.169 HD
HETATM   21  O   UNL     1      -6.281  -5.196 -35.529  1.00  0.00    -0.268 OA
HETATM   22  C   UNL     1      -5.467  -3.253 -34.489  1.00  0.00     0.101 A 
ENDBRANCH  14  15
ENDBRANCH  13  14
ENDBRANCH   9  13
ENDBRANCH   2   7
BRANCH   1  23
HETATM   23  C   UNL     1      -9.634   3.810 -31.946  1.00  0.00     0.275 C 
BRANCH  23  24
HETATM   24  N   UNL     1      -8.217   4.076 -32.436  1.00  0.00    -0.067 N 
HETATM   25  C   UNL     1      -8.187   4.908 -33.690  1.00  0.00     0.270 C 
HETATM   26  H   UNL     1      -7.922   3.121 -32.725  1.00  0.00     0.280 HD
BRANCH  24  27
HETATM   27  C   UNL     1      -7.230   4.566 -31.376  1.00  0.00     0.188 C 
HETATM   28  C   UNL     1      -7.337   3.823 -30.032  1.00  0.00     0.033 C 
HETATM   29  C   UNL     1      -6.803   2.393 -30.069  1.00  0.00     0.002 C 
HETATM   30  C   UNL     1      -5.368   2.351 -30.575  1.00  0.00     0.000 C 
HETATM   31  C   UNL     1      -5.225   3.044 -31.924  1.00  0.00     0.002 C 
HETATM   32  C   UNL     1      -5.777   4.470 -31.888  1.00  0.00     0.033 C 
ENDBRANCH  24  27
ENDBRANCH  23  24
ENDBRANCH   1  23
TORSDOF 7
ENDMDL
MODEL 10
REMARK VINA RESULT:      -7.6      2.223      4.729
REMARK  7 active torsions:
REMARK  status: ('A' for Active; 'I' for Inactive)
REMARK    1  A    between atoms: N_2  and  C_4 
REMARK    2  A    between atoms: N_2  and  C_10 
REMARK    3  A    between atoms: C_10  and  C_11 
REMARK    4  A    between atoms: C_12  and  N_13 
REMARK       I    between atoms: N_13  and  C_14 
REMARK       I    between atoms: C_14  and  N_15 
REMARK    5  A    between atoms: N_15  and  C_16 
REMARK    6  A    between atoms: C_16  and  C_17 
REMARK    7  A    between atoms: C_17  and  C_18 
ROOT
HETATM    1  C   UNL     1      -8.559   0.642 -32.868  1.00  0.00    -0.006 A 
HETATM    2  C   UNL     1      -8.454   1.716 -33.778  1.00  0.00     0.044 A 
HETATM    3  C   UNL     1      -9.626   2.145 -34.443  1.00  0.00     0.030 A 
HETATM    4  C   UNL     1     -10.874   1.574 -34.201  1.00  0.00     0.002 A 
HETATM    5  C   UNL     1     -10.988   0.548 -33.284  1.00  0.00     0.001 A 
HETATM    6  C   UNL     1      -9.847   0.088 -32.631  1.00  0.00     0.011 A 
ENDROOT
BRANCH   2   7
HETATM    7  N   UNL     1      -7.314   2.475 -34.147  1.00  0.00    -0.308 N 
HETATM    8  C   UNL     1      -6.500   3.299 -33.423  1.00  0.00     0.320 C 
HETATM    9  N   UNL     1      -5.603   3.967 -34.218  1.00  0.00    -0.343 N 
HETATM   10  O   UNL     1      -6.577   3.509 -32.220  1.00  0.00    -0.247 OA
HETATM   11  H   UNL     1      -5.395   3.624 -35.145  1.00  0.00     0.164 HD
HETATM   12  H   UNL     1      -7.172   2.567 -35.143  1.00  0.00     0.170 HD
BRANCH   9  13
HETATM   13  C   UNL     1      -4.704   4.974 -33.670  1.00  0.00     0.130 C 
BRANCH  13  14
HETATM   14  C   UNL     1      -3.577   4.350 -32.841  1.00  0.00     0.079 C 
BRANCH  14  15
HETATM   15  C   UNL     1      -2.483   5.343 -32.519  1.00  0.00     0.042 A 
HETATM   16  N   UNL     1      -1.295   4.806 -32.075  1.00  0.00    -0.248 NA
HETATM   17  C   UNL     1      -0.345   5.636 -31.797  1.00  0.00     0.210 A 
HETATM   18  N   UNL     1      -0.446   6.988 -31.925  1.00  0.00    -0.318 N 
HETATM   19  C   UNL     1      -1.584   7.580 -32.382  1.00  0.00     0.248 A 
HETATM   20  H   UNL     1       0.330   7.597 -31.706  1.00  0.00     0.169 HD
HETATM   21  O   UNL     1      -1.694   8.785 -32.560  1.00  0.00    -0.268 OA
HETATM   22  C   UNL     1      -2.687   6.659 -32.679  1.00  0.00     0.101 A 
ENDBRANCH  14  15
ENDBRANCH  13  14
ENDBRANCH   9  13
ENDBRANCH   2   7
BRANCH   1  23
HETATM   23  C   UNL     1      -7.432  -0.064 -32.143  1.00  0.00     0.275 C 
BRANCH  23  24
HETATM   24  N   UNL     1      -6.509  -0.977 -32.939  1.00  0.00    -0.067 N 
HETATM   25  C   UNL     1      -7.231  -1.718 -34.032  1.00  0.00     0.270 C 
HETATM   26  H   UNL     1      -6.270  -1.695 -32.224  1.00  0.00     0.280 HD
BRANCH  24  27
HETATM   27  C   UNL     1      -5.200  -0.346 -33.416  1.00  0.00     0.188 C 
HETATM   28  C   UNL     1      -4.542   0.583 -32.379  1.00  0.00     0.033 C 
HETATM   29  C   UNL     1      -3.918  -0.152 -31.195  1.00  0.00     0.002 C 
HETATM   30  C   UNL     1      -2.922  -1.205 -31.660  1.00  0.00     0.000 C 
HETATM   31  C   UNL     1      -3.546  -2.171 -32.660  1.00  0.00     0.002 C 
HETATM   32  C   UNL     1      -4.185  -1.429 -33.836  1.00  0.00     0.033 C 
ENDBRANCH  24  27
ENDBRANCH  23  24
ENDBRANCH   1  23
TORSDOF 7
ENDMDL
