MODEL 1
REMARK VINA RESULT:      -9.5      0.000      0.000
REMARK  6 active torsions:
REMARK  status: ('A' for Active; 'I' for Inactive)
REMARK    1  A    between atoms: C_2  and  C_3 
REMARK    2  A    between atoms: C_3  and  N_4 
REMARK       I    between atoms: N_4  and  C_5 
REMARK    3  A    between atoms: C_5  and  C_6 
REMARK    4  A    between atoms: C_8  and  C_9 
REMARK    5  A    between atoms: C_9  and  N_10 
REMARK       I    between atoms: N_10  and  C_11 
REMARK    6  A    between atoms: C_11  and  C_12 
ROOT
HETATM    1  C   UNL     1      -4.209   3.114 -32.683  1.00  0.00     0.161 C 
ENDROOT
BRANCH   1   2
HETATM    2  C   UNL     1      -3.056   4.078 -32.697  1.00  0.00    -0.040 A 
HETATM    3  C   UNL     1      -2.247   4.224 -31.562  1.00  0.00     0.026 A 
HETATM    4  C   UNL     1      -1.110   5.036 -31.608  1.00  0.00     0.032 A 
HETATM    5  C   UNL     1      -0.787   5.742 -32.770  1.00  0.00     0.017 A 
HETATM    6  C   UNL     1      -1.609   5.629 -33.892  1.00  0.00     0.002 A 
HETATM    7  C   UNL     1      -2.732   4.798 -33.857  1.00  0.00     0.009 A 
BRANCH   4   8
HETATM    8  C   UNL     1      -0.239   5.084 -30.412  1.00  0.00     0.252 C 
HETATM    9  N   UNL     1      -0.666   5.948 -29.426  1.00  0.00    -0.353 N 
HETATM   10  H   UNL     1      -1.466   6.533 -29.629  1.00  0.00     0.163 HD
HETATM   11  O   UNL     1       0.803   4.445 -30.393  1.00  0.00    -0.268 OA
BRANCH   9  12
HETATM   12  C   UNL     1       0.133   6.302 -28.258  1.00  0.00     0.080 C 
HETATM   13  C   UNL     1       0.864   7.629 -28.455  1.00  0.00     0.032 C 
BRANCH  12  14
HETATM   14  C   UNL     1      -0.675   6.302 -26.947  1.00  0.00     0.020 C 
HETATM   15  C   UNL     1      -1.121   7.695 -26.523  1.00  0.00     0.007 C 
ENDBRANCH  12  14
ENDBRANCH   9  12
ENDBRANCH   4   8
ENDBRANCH   1   2
BRANCH   1  16
HETATM   16  N   UNL     1      -3.837   1.799 -32.244  1.00  0.00    -0.351 N 
HETATM   17  C   UNL     1      -4.578   0.711 -32.661  1.00  0.00     0.273 C 
HETATM   18  O   UNL     1      -5.663   0.824 -33.224  1.00  0.00    -0.266 OA
HETATM   19  H   UNL     1      -2.889   1.595 -31.941  1.00  0.00     0.163 HD
BRANCH  17  20
HETATM   20  C   UNL     1      -3.934  -0.587 -32.408  1.00  0.00     0.157 A 
HETATM   21  N   UNL     1      -2.916  -0.721 -31.529  1.00  0.00    -0.168 NA
HETATM   22  N   UNL     1      -2.607  -2.030 -31.598  1.00  0.00    -0.277 N 
HETATM   23  H   UNL     1      -1.859  -2.378 -31.009  1.00  0.00     0.189 HD
HETATM   24  C   UNL     1      -3.356  -2.745 -32.492  1.00  0.00     0.063 A 
HETATM   25  C   UNL     1      -4.242  -1.828 -33.040  1.00  0.00     0.029 A 
HETATM   26  C   UNL     1      -3.326  -4.091 -32.863  1.00  0.00     0.032 A 
HETATM   27  C   UNL     1      -5.156  -2.267 -34.018  1.00  0.00     0.023 A 
HETATM   28  C   UNL     1      -5.153  -3.615 -34.416  1.00  0.00    -0.061 A 
HETATM   29  C   UNL     1      -4.241  -4.506 -33.841  1.00  0.00     0.009 A 
HETATM   30  C   UNL     1      -6.109  -4.067 -35.482  1.00  0.00     0.048 C 
ENDBRANCH  17  20
ENDBRANCH   1  16
TORSDOF 6
ENDMDL
MODEL 2
REMARK VINA RESULT:      -9.0      2.778      3.460
REMARK  6 active torsions:
REMARK  status: ('A' for Active; 'I' for Inactive)
REMARK    1  A    between atoms: C_2  and  C_3 
REMARK    2  A    between atoms: C_3  and  N_4 
REMARK       I    between atoms: N_4  and  C_5 
REMARK    3  A    between atoms: C_5  and  C_6 
REMARK    4  A    between atoms: C_8  and  C_9 
REMARK    5  A    between atoms: C_9  and  N_10 
REMARK       I    between atoms: N_10  and  C_11 
REMARK    6  A    between atoms: C_11  and  C_12 
ROOT
HETATM    1  C   UNL     1      -5.539   5.130 -33.791  1.00  0.00     0.161 C 
ENDROOT
BRANCH   1   2
HETATM    2  C   UNL     1      -4.100   5.550 -33.911  1.00  0.00    -0.040 A 
HETATM    3  C   UNL     1      -3.568   6.499 -33.028  1.00  0.00     0.026 A 
HETATM    4  C   UNL     1      -2.206   6.811 -33.066  1.00  0.00     0.032 A 
HETATM    5  C   UNL     1      -1.366   6.211 -34.010  1.00  0.00     0.017 A 
HETATM    6  C   UNL     1      -1.897   5.293 -34.915  1.00  0.00     0.002 A 
HETATM    7  C   UNL     1      -3.253   4.960 -34.863  1.00  0.00     0.009 A 
BRANCH   4   8
HETATM    8  C   UNL     1      -1.677   7.751 -32.053  1.00  0.00     0.252 C 
HETATM    9  N   UNL     1      -1.121   7.148 -30.945  1.00  0.00    -0.353 N 
HETATM   10  H   UNL     1      -1.199   6.141 -30.870  1.00  0.00     0.163 HD
HETATM   11  O   UNL     1      -1.823   8.955 -32.207  1.00  0.00    -0.268 OA
BRANCH   9  12
HETATM   12  C   UNL     1      -0.723   7.871 -29.743  1.00  0.00     0.080 C 
HETATM   13  C   UNL     1      -1.880   8.001 -28.753  1.00  0.00     0.032 C 
BRANCH  12  14
HETATM   14  C   UNL     1       0.526   7.280 -29.063  1.00  0.00     0.020 C 
HETATM   15  C   UNL     1       1.207   8.257 -28.114  1.00  0.00     0.007 C 
ENDBRANCH  12  14
ENDBRANCH   9  12
ENDBRANCH   4   8
ENDBRANCH   1   2
BRANCH   1  16
HETATM   16  N   UNL     1      -5.773   3.792 -34.254  1.00  0.00    -0.351 N 
HETATM   17  C   UNL     1      -6.282   2.852 -33.380  1.00  0.00     0.273 C 
HETATM   18  O   UNL     1      -6.357   3.044 -32.170  1.00  0.00    -0.266 OA
HETATM   19  H   UNL     1      -5.909   3.594 -35.241  1.00  0.00     0.163 HD
BRANCH  17  20
HETATM   20  C   UNL     1      -6.763   1.624 -34.032  1.00  0.00     0.157 A 
HETATM   21  N   UNL     1      -7.878   1.610 -34.796  1.00  0.00    -0.168 NA
HETATM   22  N   UNL     1      -7.978   0.325 -35.186  1.00  0.00    -0.277 N 
HETATM   23  H   UNL     1      -8.753   0.065 -35.787  1.00  0.00     0.189 HD
HETATM   24  C   UNL     1      -7.001  -0.497 -34.696  1.00  0.00     0.063 A 
HETATM   25  C   UNL     1      -6.181   0.325 -33.936  1.00  0.00     0.029 A 
HETATM   26  C   UNL     1      -6.775  -1.867 -34.848  1.00  0.00     0.032 A 
HETATM   27  C   UNL     1      -5.068  -0.240 -33.283  1.00  0.00     0.023 A 
HETATM   28  C   UNL     1      -4.812  -1.616 -33.413  1.00  0.00    -0.061 A 
HETATM   29  C   UNL     1      -5.665  -2.411 -34.186  1.00  0.00     0.009 A 
HETATM   30  C   UNL     1      -3.643  -2.216 -32.687  1.00  0.00     0.048 C 
ENDBRANCH  17  20
ENDBRANCH   1  16
TORSDOF 6
ENDMDL
MODEL 3
REMARK VINA RESULT:      -9.0      1.627      2.253
REMARK  6 active torsions:
REMARK  status: ('A' for Active; 'I' for Inactive)
REMARK    1  A    between atoms: C_2  and  C_3 
REMARK    2  A    between atoms: C_3  and  N_4 
REMARK       I    between atoms: N_4  and  C_5 
REMARK    3  A    between atoms: C_5  and  C_6 
REMARK    4  A    between atoms: C_8  and  C_9 
REMARK    5  A    between atoms: C_9  and  N_10 
REMARK       I    between atoms: N_10  and  C_11 
REMARK    6  A    between atoms: C_11  and  C_12 
ROOT
HETATM    1  C   UNL     1      -3.486   2.803 -31.403  1.00  0.00     0.161 C 
ENDROOT
BRANCH   1   2
HETATM    2  C   UNL     1      -2.695   3.904 -32.053  1.00  0.00    -0.040 A 
HETATM    3  C   UNL     1      -1.908   4.760 -31.272  1.00  0.00     0.026 A 
HETATM    4  C   UNL     1      -1.087   5.714 -31.881  1.00  0.00     0.032 A 
HETATM    5  C   UNL     1      -1.071   5.853 -33.272  1.00  0.00     0.017 A 
HETATM    6  C   UNL     1      -1.881   5.028 -34.053  1.00  0.00     0.002 A 
HETATM    7  C   UNL     1      -2.682   4.056 -33.448  1.00  0.00     0.009 A 
BRANCH   4   8
HETATM    8  C   UNL     1      -0.207   6.531 -31.016  1.00  0.00     0.252 C 
HETATM    9  N   UNL     1      -0.657   6.687 -29.723  1.00  0.00    -0.353 N 
HETATM   10  H   UNL     1      -1.573   6.320 -29.498  1.00  0.00     0.163 HD
HETATM   11  O   UNL     1       0.787   7.063 -31.490  1.00  0.00    -0.268 OA
BRANCH   9  12
HETATM   12  C   UNL     1      -0.059   7.607 -28.762  1.00  0.00     0.080 C 
HETATM   13  C   UNL     1      -1.098   8.562 -28.174  1.00  0.00     0.032 C 
BRANCH  12  14
HETATM   14  C   UNL     1       0.733   6.895 -27.651  1.00  0.00     0.020 C 
HETATM   15  C   UNL     1       1.511   7.857 -26.764  1.00  0.00     0.007 C 
ENDBRANCH  12  14
ENDBRANCH   9  12
ENDBRANCH   4   8
ENDBRANCH   1   2
BRANCH   1  16
HETATM   16  N   UNL     1      -4.105   1.922 -32.352  1.00  0.00    -0.351 N 
HETATM   17  C   UNL     1      -4.458   0.645 -31.961  1.00  0.00     0.273 C 
HETATM   18  O   UNL     1      -4.087   0.151 -30.900  1.00  0.00    -0.266 OA
HETATM   19  H   UNL     1      -4.598   2.285 -33.163  1.00  0.00     0.163 HD
BRANCH  17  20
HETATM   20  C   UNL     1      -5.348  -0.048 -32.905  1.00  0.00     0.157 A 
HETATM   21  N   UNL     1      -6.495   0.512 -33.348  1.00  0.00    -0.168 NA
HETATM   22  N   UNL     1      -7.012  -0.427 -34.165  1.00  0.00    -0.277 N 
HETATM   23  H   UNL     1      -7.890  -0.227 -34.631  1.00  0.00     0.189 HD
HETATM   24  C   UNL     1      -6.271  -1.573 -34.254  1.00  0.00     0.063 A 
HETATM   25  C   UNL     1      -5.167  -1.357 -33.441  1.00  0.00     0.029 A 
HETATM   26  C   UNL     1      -6.475  -2.761 -34.960  1.00  0.00     0.032 A 
HETATM   27  C   UNL     1      -4.203  -2.378 -33.316  1.00  0.00     0.023 A 
HETATM   28  C   UNL     1      -4.379  -3.586 -34.012  1.00  0.00    -0.061 A 
HETATM   29  C   UNL     1      -5.508  -3.765 -34.818  1.00  0.00     0.009 A 
HETATM   30  C   UNL     1      -3.365  -4.681 -33.848  1.00  0.00     0.048 C 
ENDBRANCH  17  20
ENDBRANCH   1  16
TORSDOF 6
ENDMDL
MODEL 4
REMARK VINA RESULT:      -8.9      1.952      9.906
REMARK  6 active torsions:
REMARK  status: ('A' for Active; 'I' for Inactive)
REMARK    1  A    between atoms: C_2  and  C_3 
REMARK    2  A    between atoms: C_3  and  N_4 
REMARK       I    between atoms: N_4  and  C_5 
REMARK    3  A    between atoms: C_5  and  C_6 
REMARK    4  A    between atoms: C_8  and  C_9 
REMARK    5  A    between atoms: C_9  and  N_10 
REMARK       I    between atoms: N_10  and  C_11 
REMARK    6  A    between atoms: C_11  and  C_12 
ROOT
HETATM    1  C   UNL     1      -4.068   4.128 -31.835  1.00  0.00     0.161 C 
ENDROOT
BRANCH   1   2
HETATM    2  C   UNL     1      -4.811   2.841 -31.612  1.00  0.00    -0.040 A 
HETATM    3  C   UNL     1      -5.100   1.998 -32.693  1.00  0.00     0.026 A 
HETATM    4  C   UNL     1      -5.693   0.750 -32.474  1.00  0.00     0.032 A 
HETATM    5  C   UNL     1      -6.042   0.346 -31.183  1.00  0.00     0.017 A 
HETATM    6  C   UNL     1      -5.791   1.197 -30.106  1.00  0.00     0.002 A 
HETATM    7  C   UNL     1      -5.175   2.433 -30.318  1.00  0.00     0.009 A 
BRANCH   4   8
HETATM    8  C   UNL     1      -5.892  -0.140 -33.640  1.00  0.00     0.252 C 
HETATM    9  N   UNL     1      -5.527  -1.452 -33.429  1.00  0.00    -0.353 N 
HETATM   10  H   UNL     1      -5.078  -1.679 -32.551  1.00  0.00     0.163 HD
HETATM   11  O   UNL     1      -6.279   0.327 -34.702  1.00  0.00    -0.268 OA
BRANCH   9  12
HETATM   12  C   UNL     1      -5.451  -2.452 -34.488  1.00  0.00     0.080 C 
HETATM   13  C   UNL     1      -4.294  -3.425 -34.263  1.00  0.00     0.032 C 
BRANCH  12  14
HETATM   14  C   UNL     1      -6.775  -3.206 -34.709  1.00  0.00     0.020 C 
HETATM   15  C   UNL     1      -6.581  -4.581 -35.334  1.00  0.00     0.007 C 
ENDBRANCH  12  14
ENDBRANCH   9  12
ENDBRANCH   4   8
ENDBRANCH   1   2
BRANCH   1  16
HETATM   16  N   UNL     1      -2.837   4.200 -31.100  1.00  0.00    -0.351 N 
HETATM   17  C   UNL     1      -1.906   5.165 -31.431  1.00  0.00     0.273 C 
HETATM   18  O   UNL     1      -1.984   5.839 -32.455  1.00  0.00    -0.266 OA
HETATM   19  H   UNL     1      -2.763   3.822 -30.160  1.00  0.00     0.163 HD
BRANCH  17  20
HETATM   20  C   UNL     1      -0.841   5.341 -30.431  1.00  0.00     0.157 A 
HETATM   21  N   UNL     1       0.070   4.375 -30.181  1.00  0.00    -0.168 NA
HETATM   22  N   UNL     1       0.842   4.910 -29.216  1.00  0.00    -0.277 N 
HETATM   23  H   UNL     1       1.617   4.360 -28.861  1.00  0.00     0.189 HD
HETATM   24  C   UNL     1       0.463   6.160 -28.812  1.00  0.00     0.063 A 
HETATM   25  C   UNL     1      -0.639   6.477 -29.594  1.00  0.00     0.029 A 
HETATM   26  C   UNL     1       0.981   7.022 -27.841  1.00  0.00     0.032 A 
HETATM   27  C   UNL     1      -1.271   7.722 -29.406  1.00  0.00     0.023 A 
HETATM   28  C   UNL     1      -0.777   8.612 -28.436  1.00  0.00    -0.061 A 
HETATM   29  C   UNL     1       0.334   8.253 -27.666  1.00  0.00     0.009 A 
HETATM   30  C   UNL     1      -1.477   9.923 -28.219  1.00  0.00     0.048 C 
ENDBRANCH  17  20
ENDBRANCH   1  16
TORSDOF 6
ENDMDL
MODEL 5
REMARK VINA RESULT:      -8.7      4.423      9.979
REMARK  6 active torsions:
REMARK  status: ('A' for Active; 'I' for Inactive)
REMARK    1  A    between atoms: C_2  and  C_3 
REMARK    2  A    between atoms: C_3  and  N_4 
REMARK       I    between atoms: N_4  and  C_5 
REMARK    3  A    between atoms: C_5  and  C_6 
REMARK    4  A    between atoms: C_8  and  C_9 
REMARK    5  A    between atoms: C_9  and  N_10 
REMARK       I    between atoms: N_10  and  C_11 
REMARK    6  A    between atoms: C_11  and  C_12 
ROOT
HETATM    1  C   UNL     1      -5.546   1.669 -30.680  1.00  0.00     0.161 C 
ENDROOT
BRANCH   1   2
HETATM    2  C   UNL     1      -6.549   0.935 -31.525  1.00  0.00    -0.040 A 
HETATM    3  C   UNL     1      -7.847   1.441 -31.677  1.00  0.00     0.026 A 
HETATM    4  C   UNL     1      -8.747   0.821 -32.548  1.00  0.00     0.032 A 
HETATM    5  C   UNL     1      -8.380  -0.333 -33.246  1.00  0.00     0.017 A 
HETATM    6  C   UNL     1      -7.101  -0.863 -33.071  1.00  0.00     0.002 A 
HETATM    7  C   UNL     1      -6.190  -0.230 -32.221  1.00  0.00     0.009 A 
BRANCH   4   8
HETATM    8  C   UNL     1     -10.074   1.448 -32.742  1.00  0.00     0.252 C 
HETATM    9  N   UNL     1     -11.016   0.629 -33.326  1.00  0.00    -0.353 N 
HETATM   10  H   UNL     1     -10.711  -0.280 -33.652  1.00  0.00     0.163 HD
HETATM   11  O   UNL     1     -10.236   2.626 -32.459  1.00  0.00    -0.268 OA
BRANCH   9  12
HETATM   12  C   UNL     1     -12.319   1.094 -33.789  1.00  0.00     0.080 C 
HETATM   13  C   UNL     1     -12.235   1.704 -35.188  1.00  0.00     0.032 C 
BRANCH  12  14
HETATM   14  C   UNL     1     -13.411   0.012 -33.720  1.00  0.00     0.020 C 
HETATM   15  C   UNL     1     -14.775   0.511 -34.179  1.00  0.00     0.007 C 
ENDBRANCH  12  14
ENDBRANCH   9  12
ENDBRANCH   4   8
ENDBRANCH   1   2
BRANCH   1  16
HETATM   16  N   UNL     1      -5.092   2.890 -31.282  1.00  0.00    -0.351 N 
HETATM   17  C   UNL     1      -3.822   2.948 -31.821  1.00  0.00     0.273 C 
HETATM   18  O   UNL     1      -2.982   2.073 -31.633  1.00  0.00    -0.266 OA
HETATM   19  H   UNL     1      -5.751   3.580 -31.634  1.00  0.00     0.163 HD
BRANCH  17  20
HETATM   20  C   UNL     1      -3.582   4.125 -32.670  1.00  0.00     0.157 A 
HETATM   21  N   UNL     1      -4.367   4.413 -33.731  1.00  0.00    -0.168 NA
HETATM   22  N   UNL     1      -3.818   5.534 -34.237  1.00  0.00    -0.277 N 
HETATM   23  H   UNL     1      -4.248   5.952 -35.055  1.00  0.00     0.189 HD
HETATM   24  C   UNL     1      -2.706   5.973 -33.573  1.00  0.00     0.063 A 
HETATM   25  C   UNL     1      -2.524   5.072 -32.533  1.00  0.00     0.029 A 
HETATM   26  C   UNL     1      -1.857   7.060 -33.796  1.00  0.00     0.032 A 
HETATM   27  C   UNL     1      -1.435   5.254 -31.658  1.00  0.00     0.023 A 
HETATM   28  C   UNL     1      -0.560   6.337 -31.854  1.00  0.00    -0.061 A 
HETATM   29  C   UNL     1      -0.777   7.220 -32.918  1.00  0.00     0.009 A 
HETATM   30  C   UNL     1       0.617   6.505 -30.937  1.00  0.00     0.048 C 
ENDBRANCH  17  20
ENDBRANCH   1  16
TORSDOF 6
ENDMDL
MODEL 6
REMARK VINA RESULT:      -8.6      4.052      9.308
REMARK  6 active torsions:
REMARK  status: ('A' for Active; 'I' for Inactive)
REMARK    1  A    between atoms: C_2  and  C_3 
REMARK    2  A    between atoms: C_3  and  N_4 
REMARK       I    between atoms: N_4  and  C_5 
REMARK    3  A    between atoms: C_5  and  C_6 
REMARK    4  A    between atoms: C_8  and  C_9 
REMARK    5  A    between atoms: C_9  and  N_10 
REMARK       I    between atoms: N_10  and  C_11 
REMARK    6  A    between atoms: C_11  and  C_12 
ROOT
HETATM    1  C   UNL     1      -5.379  -0.521 -31.502  1.00  0.00     0.161 C 
ENDROOT
BRANCH   1   2
HETATM    2  C   UNL     1      -6.249  -0.536 -32.729  1.00  0.00    -0.040 A 
HETATM    3  C   UNL     1      -7.565  -0.061 -32.664  1.00  0.00     0.026 A 
HETATM    4  C   UNL     1      -8.340   0.028 -33.825  1.00  0.00     0.032 A 
HETATM    5  C   UNL     1      -7.827  -0.394 -35.055  1.00  0.00     0.017 A 
HETATM    6  C   UNL     1      -6.529  -0.902 -35.119  1.00  0.00     0.002 A 
HETATM    7  C   UNL     1      -5.744  -0.968 -33.965  1.00  0.00     0.009 A 
BRANCH   4   8
HETATM    8  C   UNL     1      -9.691   0.622 -33.717  1.00  0.00     0.252 C 
HETATM    9  N   UNL     1      -9.988   1.552 -34.689  1.00  0.00    -0.353 N 
HETATM   10  H   UNL     1      -9.248   1.817 -35.327  1.00  0.00     0.163 HD
HETATM   11  O   UNL     1     -10.410   0.328 -32.772  1.00  0.00    -0.268 OA
BRANCH   9  12
HETATM   12  C   UNL     1     -11.173   2.402 -34.663  1.00  0.00     0.080 C 
HETATM   13  C   UNL     1     -10.865   3.816 -35.153  1.00  0.00     0.032 C 
BRANCH  12  14
HETATM   14  C   UNL     1     -12.370   1.800 -35.421  1.00  0.00     0.020 C 
HETATM   15  C   UNL     1     -13.342   1.061 -34.511  1.00  0.00     0.007 C 
ENDBRANCH  12  14
ENDBRANCH   9  12
ENDBRANCH   4   8
ENDBRANCH   1   2
BRANCH   1  16
HETATM   16  N   UNL     1      -5.092   0.806 -31.036  1.00  0.00    -0.351 N 
HETATM   17  C   UNL     1      -4.065   1.521 -31.620  1.00  0.00     0.273 C 
HETATM   18  O   UNL     1      -3.250   1.009 -32.382  1.00  0.00    -0.266 OA
HETATM   19  H   UNL     1      -5.797   1.359 -30.557  1.00  0.00     0.163 HD
BRANCH  17  20
HETATM   20  C   UNL     1      -4.062   2.953 -31.281  1.00  0.00     0.157 A 
HETATM   21  N   UNL     1      -4.763   3.441 -30.234  1.00  0.00    -0.168 NA
HETATM   22  N   UNL     1      -4.512   4.764 -30.273  1.00  0.00    -0.277 N 
HETATM   23  H   UNL     1      -4.935   5.353 -29.565  1.00  0.00     0.189 HD
HETATM   24  C   UNL     1      -3.704   5.159 -31.304  1.00  0.00     0.063 A 
HETATM   25  C   UNL     1      -3.386   3.993 -31.985  1.00  0.00     0.029 A 
HETATM   26  C   UNL     1      -3.241   6.419 -31.692  1.00  0.00     0.032 A 
HETATM   27  C   UNL     1      -2.558   4.074 -33.123  1.00  0.00     0.023 A 
HETATM   28  C   UNL     1      -2.075   5.325 -33.542  1.00  0.00    -0.061 A 
HETATM   29  C   UNL     1      -2.423   6.478 -32.829  1.00  0.00     0.009 A 
HETATM   30  C   UNL     1      -1.221   5.407 -34.774  1.00  0.00     0.048 C 
ENDBRANCH  17  20
ENDBRANCH   1  16
TORSDOF 6
ENDMDL
MODEL 7
REMARK VINA RESULT:      -8.6      2.138      2.640
REMARK  6 active torsions:
REMARK  status: ('A' for Active; 'I' for Inactive)
REMARK    1  A    between atoms: C_2  and  C_3 
REMARK    2  A    between atoms: C_3  and  N_4 
REMARK       I    between atoms: N_4  and  C_5 
REMARK    3  A    between atoms: C_5  and  C_6 
REMARK    4  A    between atoms: C_8  and  C_9 
REMARK    5  A    between atoms: C_9  and  N_10 
REMARK       I    between atoms: N_10  and  C_11 
REMARK    6  A    between atoms: C_11  and  C_12 
ROOT
HETATM    1  C   UNL     1      -4.256   3.568 -31.871  1.00  0.00     0.161 C 
ENDROOT
BRANCH   1   2
HETATM    2  C   UNL     1      -3.342   4.560 -32.535  1.00  0.00    -0.040 A 
HETATM    3  C   UNL     1      -3.074   5.790 -31.921  1.00  0.00     0.026 A 
HETATM    4  C   UNL     1      -2.141   6.668 -32.481  1.00  0.00     0.032 A 
HETATM    5  C   UNL     1      -1.494   6.348 -33.678  1.00  0.00     0.017 A 
HETATM    6  C   UNL     1      -1.784   5.141 -34.313  1.00  0.00     0.002 A 
HETATM    7  C   UNL     1      -2.697   4.250 -33.743  1.00  0.00     0.009 A 
BRANCH   4   8
HETATM    8  C   UNL     1      -1.827   7.913 -31.745  1.00  0.00     0.252 C 
HETATM    9  N   UNL     1      -1.678   7.754 -30.384  1.00  0.00    -0.353 N 
HETATM   10  H   UNL     1      -1.880   6.843 -29.993  1.00  0.00     0.163 HD
HETATM   11  O   UNL     1      -1.793   8.980 -32.342  1.00  0.00    -0.268 OA
BRANCH   9  12
HETATM   12  C   UNL     1      -1.564   8.865 -29.446  1.00  0.00     0.080 C 
HETATM   13  C   UNL     1      -2.934   9.332 -28.956  1.00  0.00     0.032 C 
BRANCH  12  14
HETATM   14  C   UNL     1      -0.623   8.569 -28.264  1.00  0.00     0.020 C 
HETATM   15  C   UNL     1       0.679   7.905 -28.691  1.00  0.00     0.007 C 
ENDBRANCH  12  14
ENDBRANCH   9  12
ENDBRANCH   4   8
ENDBRANCH   1   2
BRANCH   1  16
HETATM   16  N   UNL     1      -4.187   2.260 -32.458  1.00  0.00    -0.351 N 
HETATM   17  C   UNL     1      -3.451   1.274 -31.832  1.00  0.00     0.273 C 
HETATM   18  O   UNL     1      -2.684   1.509 -30.903  1.00  0.00    -0.266 OA
HETATM   19  H   UNL     1      -4.905   1.933 -33.099  1.00  0.00     0.163 HD
BRANCH  17  20
HETATM   20  C   UNL     1      -3.700  -0.081 -32.348  1.00  0.00     0.157 A 
HETATM   21  N   UNL     1      -2.868  -1.111 -32.080  1.00  0.00    -0.168 NA
HETATM   22  N   UNL     1      -3.428  -2.149 -32.730  1.00  0.00    -0.277 N 
HETATM   23  H   UNL     1      -2.975  -3.054 -32.671  1.00  0.00     0.189 HD
HETATM   24  C   UNL     1      -4.566  -1.838 -33.423  1.00  0.00     0.063 A 
HETATM   25  C   UNL     1      -4.777  -0.486 -33.190  1.00  0.00     0.029 A 
HETATM   26  C   UNL     1      -5.408  -2.613 -34.226  1.00  0.00     0.032 A 
HETATM   27  C   UNL     1      -5.888   0.142 -33.787  1.00  0.00     0.023 A 
HETATM   28  C   UNL     1      -6.755  -0.608 -34.600  1.00  0.00    -0.061 A 
HETATM   29  C   UNL     1      -6.505  -1.967 -34.813  1.00  0.00     0.009 A 
HETATM   30  C   UNL     1      -7.918   0.077 -35.258  1.00  0.00     0.048 C 
ENDBRANCH  17  20
ENDBRANCH   1  16
TORSDOF 6
ENDMDL
MODEL 8
REMARK VINA RESULT:      -8.5      3.599      7.405
REMARK  6 active torsions:
REMARK  status: ('A' for Active; 'I' for Inactive)
REMARK    1  A    between atoms: C_2  and  C_3 
REMARK    2  A    between atoms: C_3  and  N_4 
REMARK       I    between atoms: N_4  and  C_5 
REMARK    3  A    between atoms: C_5  and  C_6 
REMARK    4  A    between atoms: C_8  and  C_9 
REMARK    5  A    between atoms: C_9  and  N_10 
REMARK       I    between atoms: N_10  and  C_11 
REMARK    6  A    between atoms: C_11  and  C_12 
ROOT
HETATM    1  C   UNL     1      -7.848  -0.364 -35.228  1.00  0.00     0.161 C 
ENDROOT
BRANCH   1   2
HETATM    2  C   UNL     1      -6.567  -0.880 -34.634  1.00  0.00    -0.040 A 
HETATM    3  C   UNL     1      -5.838  -0.088 -33.737  1.00  0.00     0.026 A 
HETATM    4  C   UNL     1      -4.706  -0.605 -33.100  1.00  0.00     0.032 A 
HETATM    5  C   UNL     1      -4.264  -1.901 -33.379  1.00  0.00     0.017 A 
HETATM    6  C   UNL     1      -4.965  -2.682 -34.300  1.00  0.00     0.002 A 
HETATM    7  C   UNL     1      -6.111  -2.177 -34.919  1.00  0.00     0.009 A 
BRANCH   4   8
HETATM    8  C   UNL     1      -4.026   0.239 -32.093  1.00  0.00     0.252 C 
HETATM    9  N   UNL     1      -4.627   1.459 -31.867  1.00  0.00    -0.353 N 
HETATM   10  H   UNL     1      -5.409   1.714 -32.456  1.00  0.00     0.163 HD
HETATM   11  O   UNL     1      -2.975  -0.137 -31.594  1.00  0.00    -0.268 OA
BRANCH   9  12
HETATM   12  C   UNL     1      -4.025   2.524 -31.072  1.00  0.00     0.080 C 
HETATM   13  C   UNL     1      -2.995   3.316 -31.877  1.00  0.00     0.032 C 
BRANCH  12  14
HETATM   14  C   UNL     1      -5.062   3.459 -30.424  1.00  0.00     0.020 C 
HETATM   15  C   UNL     1      -6.384   2.766 -30.123  1.00  0.00     0.007 C 
ENDBRANCH  12  14
ENDBRANCH   9  12
ENDBRANCH   4   8
ENDBRANCH   1   2
BRANCH   1  16
HETATM   16  N   UNL     1      -8.196   0.947 -34.758  1.00  0.00    -0.351 N 
HETATM   17  C   UNL     1      -9.079   1.077 -33.705  1.00  0.00     0.273 C 
HETATM   18  O   UNL     1      -9.743   0.137 -33.277  1.00  0.00    -0.266 OA
HETATM   19  H   UNL     1      -7.585   1.743 -34.921  1.00  0.00     0.163 HD
BRANCH  17  20
HETATM   20  C   UNL     1      -9.122   2.425 -33.119  1.00  0.00     0.157 A 
HETATM   21  N   UNL     1     -10.182   2.861 -32.403  1.00  0.00    -0.168 NA
HETATM   22  N   UNL     1      -9.841   4.119 -32.064  1.00  0.00    -0.277 N 
HETATM   23  H   UNL     1     -10.493   4.659 -31.506  1.00  0.00     0.189 HD
HETATM   24  C   UNL     1      -8.627   4.527 -32.543  1.00  0.00     0.063 A 
HETATM   25  C   UNL     1      -8.123   3.437 -33.238  1.00  0.00     0.029 A 
HETATM   26  C   UNL     1      -7.943   5.741 -32.432  1.00  0.00     0.032 A 
HETATM   27  C   UNL     1      -6.867   3.551 -33.865  1.00  0.00     0.023 A 
HETATM   28  C   UNL     1      -6.153   4.758 -33.774  1.00  0.00    -0.061 A 
HETATM   29  C   UNL     1      -6.698   5.835 -33.067  1.00  0.00     0.009 A 
HETATM   30  C   UNL     1      -4.829   4.882 -34.473  1.00  0.00     0.048 C 
ENDBRANCH  17  20
ENDBRANCH   1  16
TORSDOF 6
ENDMDL
MODEL 9
REMARK VINA RESULT:      -8.5      2.058      2.911
REMARK  6 active torsions:
REMARK  status: ('A' for Active; 'I' for Inactive)
REMARK    1  A    between atoms: C_2  and  C_3 
REMARK    2  A    between atoms: C_3  and  N_4 
REMARK       I    between atoms: N_4  and  C_5 
REMARK    3  A    between atoms: C_5  and  C_6 
REMARK    4  A    between atoms: C_8  and  C_9 
REMARK    5  A    between atoms: C_9  and  N_10 
REMARK       I    between atoms: N_10  and  C_11 
REMARK    6  A    between atoms: C_11  and  C_12 
ROOT
HETATM    1  C   UNL     1      -3.149   4.679 -32.040  1.00  0.00     0.161 C 
ENDROOT
BRANCH   1   2
HETATM    2  C   UNL     1      -1.987   5.475 -31.514  1.00  0.00    -0.040 A 
HETATM    3  C   UNL     1      -2.199   6.494 -30.576  1.00  0.00     0.026 A 
HETATM    4  C   UNL     1      -1.112   7.161 -30.003  1.00  0.00     0.032 A 
HETATM    5  C   UNL     1       0.195   6.850 -30.387  1.00  0.00     0.017 A 
HETATM    6  C   UNL     1       0.411   5.861 -31.347  1.00  0.00     0.002 A 
HETATM    7  C   UNL     1      -0.672   5.175 -31.902  1.00  0.00     0.009 A 
BRANCH   4   8
HETATM    8  C   UNL     1      -1.387   8.166 -28.951  1.00  0.00     0.252 C 
HETATM    9  N   UNL     1      -0.489   8.163 -27.906  1.00  0.00    -0.353 N 
HETATM   10  H   UNL     1       0.214   7.435 -27.893  1.00  0.00     0.163 HD
HETATM   11  O   UNL     1      -2.391   8.860 -29.022  1.00  0.00    -0.268 OA
BRANCH   9  12
HETATM   12  C   UNL     1      -0.675   8.923 -26.675  1.00  0.00     0.080 C 
HETATM   13  C   UNL     1      -1.655   8.232 -25.728  1.00  0.00     0.032 C 
BRANCH  12  14
HETATM   14  C   UNL     1       0.647   9.256 -25.961  1.00  0.00     0.020 C 
HETATM   15  C   UNL     1       1.867   8.676 -26.663  1.00  0.00     0.007 C 
ENDBRANCH  12  14
ENDBRANCH   9  12
ENDBRANCH   4   8
ENDBRANCH   1   2
BRANCH   1  16
HETATM   16  N   UNL     1      -2.911   3.264 -32.028  1.00  0.00    -0.351 N 
HETATM   17  C   UNL     1      -3.752   2.442 -31.303  1.00  0.00     0.273 C 
HETATM   18  O   UNL     1      -4.574   2.876 -30.502  1.00  0.00    -0.266 OA
HETATM   19  H   UNL     1      -2.390   2.812 -32.774  1.00  0.00     0.163 HD
BRANCH  17  20
HETATM   20  C   UNL     1      -3.602   1.011 -31.608  1.00  0.00     0.157 A 
HETATM   21  N   UNL     1      -2.644   0.254 -31.029  1.00  0.00    -0.168 NA
HETATM   22  N   UNL     1      -2.832  -0.965 -31.572  1.00  0.00    -0.277 N 
HETATM   23  H   UNL     1      -2.221  -1.719 -31.280  1.00  0.00     0.189 HD
HETATM   24  C   UNL     1      -3.846  -1.029 -32.487  1.00  0.00     0.063 A 
HETATM   25  C   UNL     1      -4.378   0.252 -32.533  1.00  0.00     0.029 A 
HETATM   26  C   UNL     1      -4.328  -2.082 -33.270  1.00  0.00     0.032 A 
HETATM   27  C   UNL     1      -5.453   0.512 -33.406  1.00  0.00     0.023 A 
HETATM   28  C   UNL     1      -5.962  -0.525 -34.208  1.00  0.00    -0.061 A 
HETATM   29  C   UNL     1      -5.394  -1.801 -34.135  1.00  0.00     0.009 A 
HETATM   30  C   UNL     1      -7.085  -0.231 -35.159  1.00  0.00     0.048 C 
ENDBRANCH  17  20
ENDBRANCH   1  16
TORSDOF 6
ENDMDL
MODEL 10
REMARK VINA RESULT:      -8.3      4.688      8.002
REMARK  6 active torsions:
REMARK  status: ('A' for Active; 'I' for Inactive)
REMARK    1  A    between atoms: C_2  and  C_3 
REMARK    2  A    between atoms: C_3  and  N_4 
REMARK       I    between atoms: N_4  and  C_5 
REMARK    3  A    between atoms: C_5  and  C_6 
REMARK    4  A    between atoms: C_8  and  C_9 
REMARK    5  A    between atoms: C_9  and  N_10 
REMARK       I    between atoms: N_10  and  C_11 
REMARK    6  A    between atoms: C_11  and  C_12 
ROOT
HETATM    1  C   UNL     1      -5.956   3.241 -30.250  1.00  0.00     0.161 C 
ENDROOT
BRANCH   1   2
HETATM    2  C   UNL     1      -7.406   3.478 -30.566  1.00  0.00    -0.040 A 
HETATM    3  C   UNL     1      -8.057   2.686 -31.522  1.00  0.00     0.026 A 
HETATM    4  C   UNL     1      -9.430   2.830 -31.739  1.00  0.00     0.032 A 
HETATM    5  C   UNL     1     -10.163   3.792 -31.038  1.00  0.00     0.017 A 
HETATM    6  C   UNL     1      -9.514   4.609 -30.112  1.00  0.00     0.002 A 
HETATM    7  C   UNL     1      -8.146   4.449 -29.873  1.00  0.00     0.009 A 
BRANCH   4   8
HETATM    8  C   UNL     1     -10.086   1.908 -32.692  1.00  0.00     0.252 C 
HETATM    9  N   UNL     1     -11.379   2.248 -33.024  1.00  0.00    -0.353 N 
HETATM   10  H   UNL     1     -11.800   3.028 -32.534  1.00  0.00     0.163 HD
HETATM   11  O   UNL     1      -9.502   0.897 -33.059  1.00  0.00    -0.268 OA
BRANCH   9  12
HETATM   12  C   UNL     1     -12.276   1.384 -33.783  1.00  0.00     0.080 C 
HETATM   13  C   UNL     1     -13.703   1.433 -33.238  1.00  0.00     0.032 C 
BRANCH  12  14
HETATM   14  C   UNL     1     -12.250   1.661 -35.297  1.00  0.00     0.020 C 
HETATM   15  C   UNL     1     -12.315   3.145 -35.633  1.00  0.00     0.007 C 
ENDBRANCH  12  14
ENDBRANCH   9  12
ENDBRANCH   4   8
ENDBRANCH   1   2
BRANCH   1  16
HETATM   16  N   UNL     1      -5.450   2.023 -30.817  1.00  0.00    -0.351 N 
HETATM   17  C   UNL     1      -4.143   1.975 -31.260  1.00  0.00     0.273 C 
HETATM   18  O   UNL     1      -3.446   2.979 -31.382  1.00  0.00    -0.266 OA
HETATM   19  H   UNL     1      -5.874   1.126 -30.600  1.00  0.00     0.163 HD
BRANCH  17  20
HETATM   20  C   UNL     1      -3.650   0.616 -31.531  1.00  0.00     0.157 A 
HETATM   21  N   UNL     1      -2.497   0.154 -30.999  1.00  0.00    -0.168 NA
HETATM   22  N   UNL     1      -2.399  -1.096 -31.490  1.00  0.00    -0.277 N 
HETATM   23  H   UNL     1      -1.599  -1.657 -31.219  1.00  0.00     0.189 HD
HETATM   24  C   UNL     1      -3.416  -1.459 -32.330  1.00  0.00     0.063 A 
HETATM   25  C   UNL     1      -4.260  -0.358 -32.377  1.00  0.00     0.029 A 
HETATM   26  C   UNL     1      -3.659  -2.635 -33.044  1.00  0.00     0.032 A 
HETATM   27  C   UNL     1      -5.416  -0.420 -33.179  1.00  0.00     0.023 A 
HETATM   28  C   UNL     1      -5.690  -1.588 -33.912  1.00  0.00    -0.061 A 
HETATM   29  C   UNL     1      -4.811  -2.675 -33.841  1.00  0.00     0.009 A 
HETATM   30  C   UNL     1      -6.907  -1.634 -34.791  1.00  0.00     0.048 C 
ENDBRANCH  17  20
ENDBRANCH   1  16
TORSDOF 6
ENDMDL
