MODEL 1
REMARK VINA RESULT:      -7.7      0.000      0.000
REMARK  3 active torsions:
REMARK  status: ('A' for Active; 'I' for Inactive)
REMARK    1  A    between atoms: C_2  and  C_3 
REMARK    2  A    between atoms: C_3  and  C_4 
REMARK    3  A    between atoms: C_24  and  N_25 
ROOT
HETATM    1  C   UNL     1      -5.301  -0.396 -33.079  1.00  0.00     0.067 A 
HETATM    2  N   UNL     1      -4.235  -0.938 -33.695  1.00  0.00    -0.177 NA
HETATM    3  N   UNL     1      -3.220  -0.102 -33.413  1.00  0.00    -0.256 N 
HETATM    4  H   UNL     1      -2.295  -0.317 -33.768  1.00  0.00     0.191 HD
HETATM    5  C   UNL     1      -3.603   0.942 -32.639  1.00  0.00     0.176 A 
HETATM    6  C   UNL     1      -4.951   0.809 -32.414  1.00  0.00     0.049 A 
HETATM    7  C   UNL     1      -5.642   1.818 -31.561  1.00  0.00     0.145 A 
HETATM    8  C   UNL     1      -6.341   1.140 -30.349  1.00  0.00     0.246 A 
HETATM    9  O   UNL     1      -5.820   0.548 -29.418  1.00  0.00    -0.271 OA
HETATM   10  N   UNL     1      -7.710   1.344 -30.498  1.00  0.00    -0.325 N 
HETATM   11  C   UNL     1      -7.996   2.059 -31.652  1.00  0.00     0.043 A 
HETATM   12  C   UNL     1      -6.818   2.370 -32.349  1.00  0.00     0.003 A 
HETATM   13  C   UNL     1      -9.249   2.434 -32.085  1.00  0.00     0.030 A 
HETATM   14  C   UNL     1      -9.324   3.157 -33.273  1.00  0.00     0.003 A 
HETATM   15  C   UNL     1      -8.158   3.488 -33.986  1.00  0.00     0.007 A 
HETATM   16  C   UNL     1      -6.882   3.108 -33.532  1.00  0.00    -0.051 A 
HETATM   17  C   UNL     1      -5.669   3.472 -34.335  1.00  0.00     0.049 C 
HETATM   18  C   UNL     1      -4.667   2.875 -31.043  1.00  0.00     0.095 A 
HETATM   19  C   UNL     1      -5.194   3.896 -30.197  1.00  0.00     0.101 C 
HETATM   20  N   UNL     1      -5.621   4.717 -29.497  1.00  0.00    -0.191 NA
HETATM   21  C   UNL     1      -3.343   2.864 -31.357  1.00  0.00     0.141 A 
HETATM   22  O   UNL     1      -2.781   1.882 -32.189  1.00  0.00    -0.279 OA
HETATM   23  H   UNL     1      -8.387   1.014 -29.826  1.00  0.00     0.169 HD
ENDROOT
BRANCH  21  24
HETATM   24  N   UNL     1      -2.411   3.782 -30.923  1.00  0.00    -0.282 NA
HETATM   25  H   UNL     1      -2.627   4.754 -31.135  1.00  0.00     0.126 HD
HETATM   26  H   UNL     1      -2.169   3.640 -29.946  1.00  0.00     0.126 HD
ENDBRANCH  21  24
BRANCH   1  27
HETATM   27  C   UNL     1      -6.610  -1.118 -33.134  1.00  0.00     0.061 C 
BRANCH  27  28
HETATM   28  C   UNL     1      -7.173  -1.304 -34.545  1.00  0.00     0.002 C 
HETATM   29  C   UNL     1      -7.513   0.004 -35.245  1.00  0.00     0.005 C 
ENDBRANCH  27  28
ENDBRANCH   1  27
TORSDOF 3
ENDMDL
MODEL 2
REMARK VINA RESULT:      -7.6      2.831      5.491
REMARK  3 active torsions:
REMARK  status: ('A' for Active; 'I' for Inactive)
REMARK    1  A    between atoms: C_2  and  C_3 
REMARK    2  A    between atoms: C_3  and  C_4 
REMARK    3  A    between atoms: C_24  and  N_25 
ROOT
HETATM    1  C   UNL     1      -6.718   4.210 -32.734  1.00  0.00     0.067 A 
HETATM    2  N   UNL     1      -6.761   5.353 -33.441  1.00  0.00    -0.177 NA
HETATM    3  N   UNL     1      -7.855   5.232 -34.214  1.00  0.00    -0.256 N 
HETATM    4  H   UNL     1      -8.103   5.993 -34.836  1.00  0.00     0.191 HD
HETATM    5  C   UNL     1      -8.506   4.060 -34.018  1.00  0.00     0.176 A 
HETATM    6  C   UNL     1      -7.793   3.350 -33.083  1.00  0.00     0.049 A 
HETATM    7  C   UNL     1      -8.300   2.016 -32.651  1.00  0.00     0.145 A 
HETATM    8  C   UNL     1      -8.527   1.974 -31.114  1.00  0.00     0.246 A 
HETATM    9  O   UNL     1      -9.333   2.615 -30.458  1.00  0.00    -0.271 OA
HETATM   10  N   UNL     1      -7.639   1.038 -30.593  1.00  0.00    -0.325 N 
HETATM   11  C   UNL     1      -6.857   0.468 -31.588  1.00  0.00     0.043 A 
HETATM   12  C   UNL     1      -7.180   1.007 -32.843  1.00  0.00     0.003 A 
HETATM   13  C   UNL     1      -5.889  -0.496 -31.407  1.00  0.00     0.030 A 
HETATM   14  C   UNL     1      -5.216  -0.944 -32.541  1.00  0.00     0.003 A 
HETATM   15  C   UNL     1      -5.527  -0.427 -33.811  1.00  0.00     0.007 A 
HETATM   16  C   UNL     1      -6.521   0.552 -33.987  1.00  0.00    -0.051 A 
HETATM   17  C   UNL     1      -6.807   1.083 -35.360  1.00  0.00     0.049 C 
HETATM   18  C   UNL     1      -9.608   1.659 -33.355  1.00  0.00     0.095 A 
HETATM   19  C   UNL     1     -10.215   0.412 -33.022  1.00  0.00     0.101 C 
HETATM   20  N   UNL     1     -10.715  -0.596 -32.740  1.00  0.00    -0.191 NA
HETATM   21  C   UNL     1     -10.197   2.484 -34.264  1.00  0.00     0.141 A 
HETATM   22  O   UNL     1      -9.634   3.718 -34.626  1.00  0.00    -0.279 OA
HETATM   23  H   UNL     1      -7.600   0.810 -29.610  1.00  0.00     0.169 HD
ENDROOT
BRANCH  21  24
HETATM   24  N   UNL     1     -11.374   2.226 -34.932  1.00  0.00    -0.282 NA
HETATM   25  H   UNL     1     -11.901   1.424 -34.594  1.00  0.00     0.126 HD
HETATM   26  H   UNL     1     -11.950   3.061 -35.018  1.00  0.00     0.126 HD
ENDBRANCH  21  24
BRANCH   1  27
HETATM   27  C   UNL     1      -5.641   4.035 -31.710  1.00  0.00     0.061 C 
BRANCH  27  28
HETATM   28  C   UNL     1      -4.356   3.399 -32.242  1.00  0.00     0.002 C 
HETATM   29  C   UNL     1      -3.693   2.445 -31.259  1.00  0.00     0.005 C 
ENDBRANCH  27  28
ENDBRANCH   1  27
TORSDOF 3
ENDMDL
MODEL 3
REMARK VINA RESULT:      -7.5      1.814      3.327
REMARK  3 active torsions:
REMARK  status: ('A' for Active; 'I' for Inactive)
REMARK    1  A    between atoms: C_2  and  C_3 
REMARK    2  A    between atoms: C_3  and  C_4 
REMARK    3  A    between atoms: C_24  and  N_25 
ROOT
HETATM    1  C   UNL     1      -3.519   1.820 -31.532  1.00  0.00     0.067 A 
HETATM    2  N   UNL     1      -2.510   2.700 -31.410  1.00  0.00    -0.177 NA
HETATM    3  N   UNL     1      -3.112   3.866 -31.114  1.00  0.00    -0.256 N 
HETATM    4  H   UNL     1      -2.539   4.688 -30.960  1.00  0.00     0.191 HD
HETATM    5  C   UNL     1      -4.460   3.754 -31.041  1.00  0.00     0.176 A 
HETATM    6  C   UNL     1      -4.777   2.449 -31.328  1.00  0.00     0.049 A 
HETATM    7  C   UNL     1      -6.207   2.030 -31.295  1.00  0.00     0.145 A 
HETATM    8  C   UNL     1      -6.425   0.862 -30.293  1.00  0.00     0.246 A 
HETATM    9  O   UNL     1      -6.288   0.880 -29.080  1.00  0.00    -0.271 OA
HETATM   10  N   UNL     1      -6.834  -0.243 -31.032  1.00  0.00    -0.325 N 
HETATM   11  C   UNL     1      -6.904   0.048 -32.387  1.00  0.00     0.043 A 
HETATM   12  C   UNL     1      -6.534   1.380 -32.629  1.00  0.00     0.003 A 
HETATM   13  C   UNL     1      -7.284  -0.823 -33.386  1.00  0.00     0.030 A 
HETATM   14  C   UNL     1      -7.295  -0.332 -34.689  1.00  0.00     0.003 A 
HETATM   15  C   UNL     1      -6.936   1.001 -34.958  1.00  0.00     0.007 A 
HETATM   16  C   UNL     1      -6.557   1.884 -33.931  1.00  0.00    -0.051 A 
HETATM   17  C   UNL     1      -6.169   3.293 -34.268  1.00  0.00     0.049 C 
HETATM   18  C   UNL     1      -7.122   3.191 -30.909  1.00  0.00     0.095 A 
HETATM   19  C   UNL     1      -8.521   2.925 -30.824  1.00  0.00     0.101 C 
HETATM   20  N   UNL     1      -9.657   2.704 -30.739  1.00  0.00    -0.191 NA
HETATM   21  C   UNL     1      -6.647   4.439 -30.647  1.00  0.00     0.141 A 
HETATM   22  O   UNL     1      -5.279   4.749 -30.724  1.00  0.00    -0.279 OA
HETATM   23  H   UNL     1      -7.060  -1.132 -30.608  1.00  0.00     0.169 HD
ENDROOT
BRANCH  21  24
HETATM   24  N   UNL     1      -7.413   5.528 -30.292  1.00  0.00    -0.282 NA
HETATM   25  H   UNL     1      -6.898   6.314 -29.899  1.00  0.00     0.126 HD
HETATM   26  H   UNL     1      -8.038   5.810 -31.043  1.00  0.00     0.126 HD
ENDBRANCH  21  24
BRANCH   1  27
HETATM   27  C   UNL     1      -3.196   0.384 -31.801  1.00  0.00     0.061 C 
BRANCH  27  28
HETATM   28  C   UNL     1      -3.339  -0.036 -33.264  1.00  0.00     0.002 C 
HETATM   29  C   UNL     1      -3.825  -1.468 -33.445  1.00  0.00     0.005 C 
ENDBRANCH  27  28
ENDBRANCH   1  27
TORSDOF 3
ENDMDL
MODEL 4
REMARK VINA RESULT:      -7.4      2.262      4.539
REMARK  3 active torsions:
REMARK  status: ('A' for Active; 'I' for Inactive)
REMARK    1  A    between atoms: C_2  and  C_3 
REMARK    2  A    between atoms: C_3  and  C_4 
REMARK    3  A    between atoms: C_24  and  N_25 
ROOT
HETATM    1  C   UNL     1      -8.725   3.260 -31.363  1.00  0.00     0.067 A 
HETATM    2  N   UNL     1      -9.366   3.868 -30.349  1.00  0.00    -0.177 NA
HETATM    3  N   UNL     1      -8.408   4.564 -29.712  1.00  0.00    -0.256 N 
HETATM    4  H   UNL     1      -8.663   5.123 -28.906  1.00  0.00     0.191 HD
HETATM    5  C   UNL     1      -7.190   4.423 -30.287  1.00  0.00     0.176 A 
HETATM    6  C   UNL     1      -7.338   3.566 -31.350  1.00  0.00     0.049 A 
HETATM    7  C   UNL     1      -6.148   3.246 -32.190  1.00  0.00     0.145 A 
HETATM    8  C   UNL     1      -6.399   3.614 -33.679  1.00  0.00     0.246 A 
HETATM    9  O   UNL     1      -6.577   4.723 -34.158  1.00  0.00    -0.271 OA
HETATM   10  N   UNL     1      -6.370   2.428 -34.406  1.00  0.00    -0.325 N 
HETATM   11  C   UNL     1      -6.140   1.333 -33.585  1.00  0.00     0.043 A 
HETATM   12  C   UNL     1      -6.008   1.734 -32.246  1.00  0.00     0.003 A 
HETATM   13  C   UNL     1      -6.044   0.019 -33.991  1.00  0.00     0.030 A 
HETATM   14  C   UNL     1      -5.802  -0.936 -33.007  1.00  0.00     0.003 A 
HETATM   15  C   UNL     1      -5.658  -0.559 -31.660  1.00  0.00     0.007 A 
HETATM   16  C   UNL     1      -5.750   0.785 -31.256  1.00  0.00    -0.051 A 
HETATM   17  C   UNL     1      -5.604   1.136 -29.805  1.00  0.00     0.049 C 
HETATM   18  C   UNL     1      -4.903   3.985 -31.700  1.00  0.00     0.095 A 
HETATM   19  C   UNL     1      -3.691   3.782 -32.426  1.00  0.00     0.101 C 
HETATM   20  N   UNL     1      -2.710   3.629 -33.026  1.00  0.00    -0.191 NA
HETATM   21  C   UNL     1      -4.922   4.813 -30.621  1.00  0.00     0.141 A 
HETATM   22  O   UNL     1      -6.090   5.039 -29.874  1.00  0.00    -0.279 OA
HETATM   23  H   UNL     1      -6.490   2.397 -35.408  1.00  0.00     0.169 HD
ENDROOT
BRANCH  21  24
HETATM   24  N   UNL     1      -3.840   5.511 -30.129  1.00  0.00    -0.282 NA
HETATM   25  H   UNL     1      -3.976   6.515 -30.034  1.00  0.00     0.126 HD
HETATM   26  H   UNL     1      -3.472   5.086 -29.281  1.00  0.00     0.126 HD
ENDBRANCH  21  24
BRANCH   1  27
HETATM   27  C   UNL     1      -9.518   2.439 -32.329  1.00  0.00     0.061 C 
BRANCH  27  28
HETATM   28  C   UNL     1      -9.519   0.937 -32.036  1.00  0.00     0.002 C 
HETATM   29  C   UNL     1      -9.632   0.071 -33.283  1.00  0.00     0.005 C 
ENDBRANCH  27  28
ENDBRANCH   1  27
TORSDOF 3
ENDMDL
MODEL 5
REMARK VINA RESULT:      -7.2      2.461      4.682
REMARK  3 active torsions:
REMARK  status: ('A' for Active; 'I' for Inactive)
REMARK    1  A    between atoms: C_2  and  C_3 
REMARK    2  A    between atoms: C_3  and  C_4 
REMARK    3  A    between atoms: C_24  and  N_25 
ROOT
HETATM    1  C   UNL     1      -8.146   1.164 -34.023  1.00  0.00     0.067 A 
HETATM    2  N   UNL     1      -9.375   0.631 -34.147  1.00  0.00    -0.177 NA
HETATM    3  N   UNL     1     -10.104   1.237 -33.194  1.00  0.00    -0.256 N 
HETATM    4  H   UNL     1     -11.086   1.000 -33.103  1.00  0.00     0.191 HD
HETATM    5  C   UNL     1      -9.385   2.133 -32.476  1.00  0.00     0.176 A 
HETATM    6  C   UNL     1      -8.100   2.106 -32.960  1.00  0.00     0.049 A 
HETATM    7  C   UNL     1      -7.086   3.021 -32.365  1.00  0.00     0.145 A 
HETATM    8  C   UNL     1      -6.459   3.942 -33.449  1.00  0.00     0.246 A 
HETATM    9  O   UNL     1      -7.012   4.806 -34.110  1.00  0.00    -0.271 OA
HETATM   10  N   UNL     1      -5.108   3.618 -33.532  1.00  0.00    -0.325 N 
HETATM   11  C   UNL     1      -4.773   2.601 -32.649  1.00  0.00     0.043 A 
HETATM   12  C   UNL     1      -5.899   2.181 -31.924  1.00  0.00     0.003 A 
HETATM   13  C   UNL     1      -3.519   2.056 -32.478  1.00  0.00     0.030 A 
HETATM   14  C   UNL     1      -3.389   1.042 -31.531  1.00  0.00     0.003 A 
HETATM   15  C   UNL     1      -4.499   0.609 -30.786  1.00  0.00     0.007 A 
HETATM   16  C   UNL     1      -5.775   1.177 -30.963  1.00  0.00    -0.051 A 
HETATM   17  C   UNL     1      -6.932   0.671 -30.155  1.00  0.00     0.049 C 
HETATM   18  C   UNL     1      -7.695   3.893 -31.267  1.00  0.00     0.095 A 
HETATM   19  C   UNL     1      -6.835   4.830 -30.621  1.00  0.00     0.101 C 
HETATM   20  N   UNL     1      -6.139   5.604 -30.106  1.00  0.00    -0.191 NA
HETATM   21  C   UNL     1      -9.003   3.802 -30.903  1.00  0.00     0.141 A 
HETATM   22  O   UNL     1      -9.884   2.891 -31.508  1.00  0.00    -0.279 OA
HETATM   23  H   UNL     1      -4.470   4.091 -34.156  1.00  0.00     0.169 HD
ENDROOT
BRANCH  21  24
HETATM   24  N   UNL     1      -9.615   4.556 -29.926  1.00  0.00    -0.282 NA
HETATM   25  H   UNL     1      -9.218   5.482 -29.777  1.00  0.00     0.126 HD
HETATM   26  H   UNL     1     -10.625   4.581 -30.047  1.00  0.00     0.126 HD
ENDBRANCH  21  24
BRANCH   1  27
HETATM   27  C   UNL     1      -7.080   0.752 -34.988  1.00  0.00     0.061 C 
BRANCH  27  28
HETATM   28  C   UNL     1      -6.712  -0.732 -34.934  1.00  0.00     0.002 C 
HETATM   29  C   UNL     1      -5.648  -1.061 -33.897  1.00  0.00     0.005 C 
ENDBRANCH  27  28
ENDBRANCH   1  27
TORSDOF 3
ENDMDL
MODEL 6
REMARK VINA RESULT:      -7.0      1.913      4.258
REMARK  3 active torsions:
REMARK  status: ('A' for Active; 'I' for Inactive)
REMARK    1  A    between atoms: C_2  and  C_3 
REMARK    2  A    between atoms: C_3  and  C_4 
REMARK    3  A    between atoms: C_24  and  N_25 
ROOT
HETATM    1  C   UNL     1      -8.800   1.434 -31.841  1.00  0.00     0.067 A 
HETATM    2  N   UNL     1      -9.705   0.840 -32.639  1.00  0.00    -0.177 NA
HETATM    3  N   UNL     1      -8.992  -0.045 -33.358  1.00  0.00    -0.256 N 
HETATM    4  H   UNL     1      -9.473  -0.631 -34.031  1.00  0.00     0.191 HD
HETATM    5  C   UNL     1      -7.675  -0.035 -33.041  1.00  0.00     0.176 A 
HETATM    6  C   UNL     1      -7.495   0.927 -32.077  1.00  0.00     0.049 A 
HETATM    7  C   UNL     1      -6.130   1.141 -31.518  1.00  0.00     0.145 A 
HETATM    8  C   UNL     1      -6.121   0.950 -29.975  1.00  0.00     0.246 A 
HETATM    9  O   UNL     1      -6.338  -0.073 -29.346  1.00  0.00    -0.271 OA
HETATM   10  N   UNL     1      -5.794   2.179 -29.411  1.00  0.00    -0.325 N 
HETATM   11  C   UNL     1      -5.597   3.150 -30.383  1.00  0.00     0.043 A 
HETATM   12  C   UNL     1      -5.790   2.614 -31.667  1.00  0.00     0.003 A 
HETATM   13  C   UNL     1      -5.254   4.465 -30.158  1.00  0.00     0.030 A 
HETATM   14  C   UNL     1      -5.096   5.282 -31.275  1.00  0.00     0.003 A 
HETATM   15  C   UNL     1      -5.275   4.769 -32.572  1.00  0.00     0.007 A 
HETATM   16  C   UNL     1      -5.618   3.422 -32.792  1.00  0.00    -0.051 A 
HETATM   17  C   UNL     1      -5.813   2.924 -34.193  1.00  0.00     0.049 C 
HETATM   18  C   UNL     1      -5.114   0.185 -32.142  1.00  0.00     0.095 A 
HETATM   19  C   UNL     1      -3.765   0.270 -31.685  1.00  0.00     0.101 C 
HETATM   20  N   UNL     1      -2.671   0.330 -31.301  1.00  0.00    -0.191 NA
HETATM   21  C   UNL     1      -5.455  -0.725 -33.094  1.00  0.00     0.141 A 
HETATM   22  O   UNL     1      -6.769  -0.842 -33.578  1.00  0.00    -0.279 OA
HETATM   23  H   UNL     1      -5.705   2.316 -28.415  1.00  0.00     0.169 HD
ENDROOT
BRANCH  21  24
HETATM   24  N   UNL     1      -4.593  -1.616 -33.695  1.00  0.00    -0.282 NA
HETATM   25  H   UNL     1      -5.008  -2.208 -34.412  1.00  0.00     0.126 HD
HETATM   26  H   UNL     1      -3.741  -1.160 -34.013  1.00  0.00     0.126 HD
ENDBRANCH  21  24
BRANCH   1  27
HETATM   27  C   UNL     1      -9.272   2.447 -30.846  1.00  0.00     0.061 C 
BRANCH  27  28
HETATM   28  C   UNL     1      -9.172   3.898 -31.321  1.00  0.00     0.002 C 
HETATM   29  C   UNL     1      -8.928   4.895 -30.196  1.00  0.00     0.005 C 
ENDBRANCH  27  28
ENDBRANCH   1  27
TORSDOF 3
ENDMDL
MODEL 7
REMARK VINA RESULT:      -6.9     16.001     17.809
REMARK  3 active torsions:
REMARK  status: ('A' for Active; 'I' for Inactive)
REMARK    1  A    between atoms: C_2  and  C_3 
REMARK    2  A    between atoms: C_3  and  C_4 
REMARK    3  A    between atoms: C_24  and  N_25 
ROOT
HETATM    1  C   UNL     1      -5.749 -12.771 -39.063  1.00  0.00     0.067 A 
HETATM    2  N   UNL     1      -6.942 -12.526 -38.493  1.00  0.00    -0.177 NA
HETATM    3  N   UNL     1      -6.815 -12.981 -37.233  1.00  0.00    -0.256 N 
HETATM    4  H   UNL     1      -7.600 -12.889 -36.598  1.00  0.00     0.191 HD
HETATM    5  C   UNL     1      -5.588 -13.497 -36.986  1.00  0.00     0.176 A 
HETATM    6  C   UNL     1      -4.865 -13.406 -38.150  1.00  0.00     0.049 A 
HETATM    7  C   UNL     1      -3.453 -13.883 -38.161  1.00  0.00     0.145 A 
HETATM    8  C   UNL     1      -2.482 -12.748 -38.590  1.00  0.00     0.246 A 
HETATM    9  O   UNL     1      -2.241 -11.705 -38.002  1.00  0.00    -0.271 OA
HETATM   10  N   UNL     1      -1.898 -13.139 -39.791  1.00  0.00    -0.325 N 
HETATM   11  C   UNL     1      -2.366 -14.378 -40.206  1.00  0.00     0.043 A 
HETATM   12  C   UNL     1      -3.306 -14.884 -39.294  1.00  0.00     0.003 A 
HETATM   13  C   UNL     1      -1.983 -15.050 -41.346  1.00  0.00     0.030 A 
HETATM   14  C   UNL     1      -2.569 -16.291 -41.581  1.00  0.00     0.003 A 
HETATM   15  C   UNL     1      -3.507 -16.825 -40.680  1.00  0.00     0.007 A 
HETATM   16  C   UNL     1      -3.887 -16.134 -39.515  1.00  0.00    -0.051 A 
HETATM   17  C   UNL     1      -4.902 -16.738 -38.591  1.00  0.00     0.049 C 
HETATM   18  C   UNL     1      -3.028 -14.406 -36.789  1.00  0.00     0.095 A 
HETATM   19  C   UNL     1      -1.690 -14.880 -36.652  1.00  0.00     0.101 C 
HETATM   20  N   UNL     1      -0.596 -15.252 -36.538  1.00  0.00    -0.191 NA
HETATM   21  C   UNL     1      -3.871 -14.425 -35.721  1.00  0.00     0.141 A 
HETATM   22  O   UNL     1      -5.198 -13.972 -35.810  1.00  0.00    -0.279 OA
HETATM   23  H   UNL     1      -1.210 -12.577 -40.272  1.00  0.00     0.169 HD
ENDROOT
BRANCH  21  24
HETATM   24  N   UNL     1      -3.554 -14.878 -34.459  1.00  0.00    -0.282 NA
HETATM   25  H   UNL     1      -3.505 -14.161 -33.738  1.00  0.00     0.126 HD
HETATM   26  H   UNL     1      -4.134 -15.667 -34.185  1.00  0.00     0.126 HD
ENDBRANCH  21  24
BRANCH   1  27
HETATM   27  C   UNL     1      -5.517 -12.325 -40.471  1.00  0.00     0.061 C 
BRANCH  27  28
HETATM   28  C   UNL     1      -6.252 -13.151 -41.528  1.00  0.00     0.002 C 
HETATM   29  C   UNL     1      -5.325 -13.948 -42.435  1.00  0.00     0.005 C 
ENDBRANCH  27  28
ENDBRANCH   1  27
TORSDOF 3
ENDMDL
MODEL 8
REMARK VINA RESULT:      -6.8      2.453      4.341
REMARK  3 active torsions:
REMARK  status: ('A' for Active; 'I' for Inactive)
REMARK    1  A    between atoms: C_2  and  C_3 
REMARK    2  A    between atoms: C_3  and  C_4 
REMARK    3  A    between atoms: C_24  and  N_25 
ROOT
HETATM    1  C   UNL     1      -4.031   3.573 -32.614  1.00  0.00     0.067 A 
HETATM    2  N   UNL     1      -3.287   4.362 -33.411  1.00  0.00    -0.177 NA
HETATM    3  N   UNL     1      -4.184   5.108 -34.080  1.00  0.00    -0.256 N 
HETATM    4  H   UNL     1      -3.850   5.799 -34.743  1.00  0.00     0.191 HD
HETATM    5  C   UNL     1      -5.462   4.825 -33.732  1.00  0.00     0.176 A 
HETATM    6  C   UNL     1      -5.418   3.817 -32.800  1.00  0.00     0.049 A 
HETATM    7  C   UNL     1      -6.695   3.318 -32.216  1.00  0.00     0.145 A 
HETATM    8  C   UNL     1      -6.694   3.455 -30.668  1.00  0.00     0.246 A 
HETATM    9  O   UNL     1      -6.665   4.481 -30.006  1.00  0.00    -0.271 OA
HETATM   10  N   UNL     1      -6.752   2.169 -30.141  1.00  0.00    -0.325 N 
HETATM   11  C   UNL     1      -6.783   1.209 -31.143  1.00  0.00     0.043 A 
HETATM   12  C   UNL     1      -6.740   1.812 -32.411  1.00  0.00     0.003 A 
HETATM   13  C   UNL     1      -6.850  -0.155 -30.959  1.00  0.00     0.030 A 
HETATM   14  C   UNL     1      -6.878  -0.952 -32.101  1.00  0.00     0.003 A 
HETATM   15  C   UNL     1      -6.845  -0.373 -33.382  1.00  0.00     0.007 A 
HETATM   16  C   UNL     1      -6.783   1.021 -33.560  1.00  0.00    -0.051 A 
HETATM   17  C   UNL     1      -6.734   1.592 -34.946  1.00  0.00     0.049 C 
HETATM   18  C   UNL     1      -7.900   4.071 -32.780  1.00  0.00     0.095 A 
HETATM   19  C   UNL     1      -9.190   3.704 -32.293  1.00  0.00     0.101 C 
HETATM   20  N   UNL     1     -10.237   3.415 -31.886  1.00  0.00    -0.191 NA
HETATM   21  C   UNL     1      -7.775   5.060 -33.706  1.00  0.00     0.141 A 
HETATM   22  O   UNL     1      -6.527   5.452 -34.217  1.00  0.00    -0.279 OA
HETATM   23  H   UNL     1      -6.782   1.985 -29.149  1.00  0.00     0.169 HD
ENDROOT
BRANCH  21  24
HETATM   24  N   UNL     1      -8.816   5.779 -34.253  1.00  0.00    -0.282 NA
HETATM   25  H   UNL     1      -9.665   5.811 -33.692  1.00  0.00     0.126 HD
HETATM   26  H   UNL     1      -8.517   6.702 -34.558  1.00  0.00     0.126 HD
ENDBRANCH  21  24
BRANCH   1  27
HETATM   27  C   UNL     1      -3.337   2.644 -31.669  1.00  0.00     0.061 C 
BRANCH  27  28
HETATM   28  C   UNL     1      -3.267   1.191 -32.143  1.00  0.00     0.002 C 
HETATM   29  C   UNL     1      -3.190   0.180 -31.008  1.00  0.00     0.005 C 
ENDBRANCH  27  28
ENDBRANCH   1  27
TORSDOF 3
ENDMDL
MODEL 9
REMARK VINA RESULT:      -6.8     15.438     17.419
REMARK  3 active torsions:
REMARK  status: ('A' for Active; 'I' for Inactive)
REMARK    1  A    between atoms: C_2  and  C_3 
REMARK    2  A    between atoms: C_3  and  C_4 
REMARK    3  A    between atoms: C_24  and  N_25 
ROOT
HETATM    1  C   UNL     1      -3.829 -14.355 -35.794  1.00  0.00     0.067 A 
HETATM    2  N   UNL     1      -2.977 -15.164 -35.137  1.00  0.00    -0.177 NA
HETATM    3  N   UNL     1      -2.303 -15.805 -36.108  1.00  0.00    -0.256 N 
HETATM    4  H   UNL     1      -1.583 -16.470 -35.848  1.00  0.00     0.191 HD
HETATM    5  C   UNL     1      -2.692 -15.429 -37.350  1.00  0.00     0.176 A 
HETATM    6  C   UNL     1      -3.698 -14.507 -37.200  1.00  0.00     0.049 A 
HETATM    7  C   UNL     1      -4.305 -13.897 -38.417  1.00  0.00     0.145 A 
HETATM    8  C   UNL     1      -4.178 -12.348 -38.390  1.00  0.00     0.246 A 
HETATM    9  O   UNL     1      -3.158 -11.679 -38.430  1.00  0.00    -0.271 OA
HETATM   10  N   UNL     1      -5.468 -11.831 -38.330  1.00  0.00    -0.325 N 
HETATM   11  C   UNL     1      -6.421 -12.840 -38.306  1.00  0.00     0.043 A 
HETATM   12  C   UNL     1      -5.809 -14.103 -38.343  1.00  0.00     0.003 A 
HETATM   13  C   UNL     1      -7.787 -12.665 -38.256  1.00  0.00     0.030 A 
HETATM   14  C   UNL     1      -8.576 -13.812 -38.246  1.00  0.00     0.003 A 
HETATM   15  C   UNL     1      -7.989 -15.089 -38.291  1.00  0.00     0.007 A 
HETATM   16  C   UNL     1      -6.593 -15.257 -38.349  1.00  0.00    -0.051 A 
HETATM   17  C   UNL     1      -6.012 -16.639 -38.381  1.00  0.00     0.049 C 
HETATM   18  C   UNL     1      -3.651 -14.426 -39.693  1.00  0.00     0.095 A 
HETATM   19  C   UNL     1      -4.126 -13.912 -40.937  1.00  0.00     0.101 C 
HETATM   20  N   UNL     1      -4.502 -13.483 -41.947  1.00  0.00    -0.191 NA
HETATM   21  C   UNL     1      -2.649 -15.347 -39.673  1.00  0.00     0.141 A 
HETATM   22  O   UNL     1      -2.153 -15.884 -38.474  1.00  0.00    -0.279 OA
HETATM   23  H   UNL     1      -5.659 -10.840 -38.320  1.00  0.00     0.169 HD
ENDROOT
BRANCH  21  24
HETATM   24  N   UNL     1      -2.015 -15.863 -40.782  1.00  0.00    -0.282 NA
HETATM   25  H   UNL     1      -2.614 -16.371 -41.430  1.00  0.00     0.126 HD
HETATM   26  H   UNL     1      -1.442 -15.163 -41.249  1.00  0.00     0.126 HD
ENDBRANCH  21  24
BRANCH   1  27
HETATM   27  C   UNL     1      -4.703 -13.435 -35.003  1.00  0.00     0.061 C 
BRANCH  27  28
HETATM   28  C   UNL     1      -5.919 -14.107 -34.363  1.00  0.00     0.002 C 
HETATM   29  C   UNL     1      -7.243 -13.446 -34.721  1.00  0.00     0.005 C 
ENDBRANCH  27  28
ENDBRANCH   1  27
TORSDOF 3
ENDMDL
MODEL 10
REMARK VINA RESULT:      -6.7     15.557     18.010
REMARK  3 active torsions:
REMARK  status: ('A' for Active; 'I' for Inactive)
REMARK    1  A    between atoms: C_2  and  C_3 
REMARK    2  A    between atoms: C_3  and  C_4 
REMARK    3  A    between atoms: C_24  and  N_25 
ROOT
HETATM    1  C   UNL     1      -2.966 -13.958 -41.094  1.00  0.00     0.067 A 
HETATM    2  N   UNL     1      -3.723 -13.864 -42.202  1.00  0.00    -0.177 NA
HETATM    3  N   UNL     1      -4.949 -13.548 -41.748  1.00  0.00    -0.256 N 
HETATM    4  H   UNL     1      -5.699 -13.410 -42.417  1.00  0.00     0.191 HD
HETATM    5  C   UNL     1      -4.994 -13.434 -40.399  1.00  0.00     0.176 A 
HETATM    6  C   UNL     1      -3.736 -13.715 -39.925  1.00  0.00     0.049 A 
HETATM    7  C   UNL     1      -3.485 -13.640 -38.458  1.00  0.00     0.145 A 
HETATM    8  C   UNL     1      -2.345 -12.634 -38.135  1.00  0.00     0.246 A 
HETATM    9  O   UNL     1      -2.340 -11.426 -38.309  1.00  0.00    -0.271 OA
HETATM   10  N   UNL     1      -1.299 -13.364 -37.579  1.00  0.00    -0.325 N 
HETATM   11  C   UNL     1      -1.604 -14.715 -37.502  1.00  0.00     0.043 A 
HETATM   12  C   UNL     1      -2.886 -14.965 -38.018  1.00  0.00     0.003 A 
HETATM   13  C   UNL     1      -0.789 -15.704 -36.995  1.00  0.00     0.030 A 
HETATM   14  C   UNL     1      -1.285 -17.005 -37.003  1.00  0.00     0.003 A 
HETATM   15  C   UNL     1      -2.569 -17.282 -37.506  1.00  0.00     0.007 A 
HETATM   16  C   UNL     1      -3.397 -16.264 -38.015  1.00  0.00    -0.051 A 
HETATM   17  C   UNL     1      -4.753 -16.610 -38.554  1.00  0.00     0.049 C 
HETATM   18  C   UNL     1      -4.743 -13.225 -37.695  1.00  0.00     0.095 A 
HETATM   19  C   UNL     1      -4.640 -13.097 -36.278  1.00  0.00     0.101 C 
HETATM   20  N   UNL     1      -4.552 -12.980 -35.127  1.00  0.00    -0.191 NA
HETATM   21  C   UNL     1      -5.926 -12.974 -38.320  1.00  0.00     0.141 A 
HETATM   22  O   UNL     1      -6.075 -13.091 -39.711  1.00  0.00    -0.279 OA
HETATM   23  H   UNL     1      -0.440 -12.935 -37.264  1.00  0.00     0.169 HD
ENDROOT
BRANCH  21  24
HETATM   24  N   UNL     1      -7.094 -12.594 -37.696  1.00  0.00    -0.282 NA
HETATM   25  H   UNL     1      -7.810 -12.208 -38.309  1.00  0.00     0.126 HD
HETATM   26  H   UNL     1      -7.455 -13.327 -37.091  1.00  0.00     0.126 HD
ENDBRANCH  21  24
BRANCH   1  27
HETATM   27  C   UNL     1      -1.505 -14.239 -41.241  1.00  0.00     0.061 C 
BRANCH  27  28
HETATM   28  C   UNL     1      -1.108 -15.693 -40.975  1.00  0.00     0.002 C 
HETATM   29  C   UNL     1      -2.101 -16.708 -41.522  1.00  0.00     0.005 C 
ENDBRANCH  27  28
ENDBRANCH   1  27
TORSDOF 3
ENDMDL
