MODEL 1
REMARK VINA RESULT:      -8.3      0.000      0.000
REMARK  5 active torsions:
REMARK  status: ('A' for Active; 'I' for Inactive)
REMARK    1  A    between atoms: C_2  and  N_3 
REMARK       I    between atoms: N_3  and  C_4 
REMARK    2  A    between atoms: C_4  and  C_5 
REMARK    3  A    between atoms: C_8  and  N_9 
REMARK       I    between atoms: N_9  and  C_10 
REMARK       I    between atoms: C_10  and  N_11 
REMARK    4  A    between atoms: N_11  and  C_12 
REMARK    5  A    between atoms: C_17  and  C_18 
ROOT
HETATM    1  N   UNL     1      -9.624   1.889 -33.657  1.00  0.00    -0.309 N 
HETATM    2  C   UNL     1      -8.638   1.167 -32.998  1.00  0.00     0.325 C 
HETATM    3  N   UNL     1      -7.440   1.264 -33.691  1.00  0.00    -0.308 N 
HETATM    4  O   UNL     1      -8.817   0.506 -31.985  1.00  0.00    -0.247 OA
HETATM    5  H   UNL     1      -9.302   2.634 -34.257  1.00  0.00     0.170 HD
HETATM    6  H   UNL     1      -7.534   1.578 -34.643  1.00  0.00     0.170 HD
ENDROOT
BRANCH   1   7
HETATM    7  C   UNL     1     -11.018   1.777 -33.484  1.00  0.00     0.036 A 
HETATM    8  C   UNL     1     -11.747   0.628 -33.801  1.00  0.00     0.030 A 
HETATM    9  C   UNL     1     -13.142   0.615 -33.693  1.00  0.00     0.019 A 
HETATM   10  C   UNL     1     -13.828   1.762 -33.282  1.00  0.00     0.032 A 
HETATM   11  C   UNL     1     -13.101   2.901 -32.925  1.00  0.00     0.019 A 
HETATM   12  C   UNL     1     -11.706   2.910 -33.029  1.00  0.00     0.030 A 
BRANCH  10  13
HETATM   13  C   UNL     1     -15.316   1.817 -33.222  1.00  0.00     0.251 C 
HETATM   14  N   UNL     1     -15.856   2.717 -32.324  1.00  0.00    -0.357 N 
HETATM   15  H   UNL     1     -15.250   3.173 -31.657  1.00  0.00     0.162 HD
HETATM   16  O   UNL     1     -15.987   1.055 -33.908  1.00  0.00    -0.268 OA
BRANCH  14  17
HETATM   17  C   UNL     1     -17.281   2.772 -32.071  1.00  0.00     0.118 C 
HETATM   18  C   UNL     1     -17.732   4.185 -31.750  1.00  0.00     0.026 C 
ENDBRANCH  14  17
ENDBRANCH  10  13
ENDBRANCH   1   7
BRANCH   3  19
HETATM   19  C   UNL     1      -6.205   0.656 -33.351  1.00  0.00     0.043 A 
HETATM   20  C   UNL     1      -5.217   1.437 -32.714  1.00  0.00    -0.035 A 
HETATM   21  C   UNL     1      -5.426   2.890 -32.376  1.00  0.00     0.050 C 
HETATM   22  C   UNL     1      -3.977   0.855 -32.406  1.00  0.00     0.010 A 
HETATM   23  C   UNL     1      -3.721  -0.482 -32.709  1.00  0.00     0.016 A 
HETATM   24  C   UNL     1      -4.699  -1.276 -33.314  1.00  0.00     0.019 A 
HETATM   25  C   UNL     1      -5.938  -0.693 -33.626  1.00  0.00     0.046 A 
BRANCH  24  26
HETATM   26  C   UNL     1      -4.404  -2.675 -33.611  1.00  0.00     0.179 A 
HETATM   27  O   UNL     1      -3.450  -3.289 -32.839  1.00  0.00    -0.302 OA
HETATM   28  C   UNL     1      -3.384  -4.557 -33.332  1.00  0.00     0.163 A 
HETATM   29  C   UNL     1      -4.282  -4.658 -34.363  1.00  0.00     0.144 A 
HETATM   30  N   UNL     1      -4.924  -3.459 -34.541  1.00  0.00    -0.234 NA
ENDBRANCH  24  26
ENDBRANCH   3  19
TORSDOF 5
ENDMDL
MODEL 2
REMARK VINA RESULT:      -8.2      1.607      2.008
REMARK  5 active torsions:
REMARK  status: ('A' for Active; 'I' for Inactive)
REMARK    1  A    between atoms: C_2  and  N_3 
REMARK       I    between atoms: N_3  and  C_4 
REMARK    2  A    between atoms: C_4  and  C_5 
REMARK    3  A    between atoms: C_8  and  N_9 
REMARK       I    between atoms: N_9  and  C_10 
REMARK       I    between atoms: C_10  and  N_11 
REMARK    4  A    between atoms: N_11  and  C_12 
REMARK    5  A    between atoms: C_17  and  C_18 
ROOT
HETATM    1  N   UNL     1     -11.442   1.785 -34.296  1.00  0.00    -0.309 N 
HETATM    2  C   UNL     1     -10.309   1.294 -33.658  1.00  0.00     0.325 C 
HETATM    3  N   UNL     1      -9.309   1.058 -34.591  1.00  0.00    -0.308 N 
HETATM    4  O   UNL     1     -10.229   1.061 -32.461  1.00  0.00    -0.247 OA
HETATM    5  H   UNL     1     -11.288   2.238 -35.184  1.00  0.00     0.170 HD
HETATM    6  H   UNL     1      -9.630   1.008 -35.543  1.00  0.00     0.170 HD
ENDROOT
BRANCH   1   7
HETATM    7  C   UNL     1     -12.754   1.829 -33.783  1.00  0.00     0.036 A 
HETATM    8  C   UNL     1     -13.736   0.884 -34.089  1.00  0.00     0.030 A 
HETATM    9  C   UNL     1     -15.046   1.038 -33.622  1.00  0.00     0.019 A 
HETATM   10  C   UNL     1     -15.393   2.153 -32.853  1.00  0.00     0.032 A 
HETATM   11  C   UNL     1     -14.404   3.080 -32.509  1.00  0.00     0.019 A 
HETATM   12  C   UNL     1     -13.095   2.921 -32.975  1.00  0.00     0.030 A 
BRANCH  10  13
HETATM   13  C   UNL     1     -16.789   2.396 -32.394  1.00  0.00     0.251 C 
HETATM   14  N   UNL     1     -17.671   2.863 -33.348  1.00  0.00    -0.357 N 
HETATM   15  H   UNL     1     -17.315   3.160 -34.246  1.00  0.00     0.162 HD
HETATM   16  O   UNL     1     -17.088   2.228 -31.217  1.00  0.00    -0.268 OA
BRANCH  14  17
HETATM   17  C   UNL     1     -19.018   3.267 -33.002  1.00  0.00     0.118 C 
HETATM   18  C   UNL     1     -19.491   4.418 -33.872  1.00  0.00     0.026 C 
ENDBRANCH  14  17
ENDBRANCH  10  13
ENDBRANCH   1   7
BRANCH   3  19
HETATM   19  C   UNL     1      -8.013   0.542 -34.340  1.00  0.00     0.043 A 
HETATM   20  C   UNL     1      -7.004   1.425 -33.896  1.00  0.00    -0.035 A 
HETATM   21  C   UNL     1      -7.255   2.894 -33.675  1.00  0.00     0.050 C 
HETATM   22  C   UNL     1      -5.708   0.932 -33.680  1.00  0.00     0.010 A 
HETATM   23  C   UNL     1      -5.414  -0.416 -33.884  1.00  0.00     0.016 A 
HETATM   24  C   UNL     1      -6.408  -1.309 -34.295  1.00  0.00     0.019 A 
HETATM   25  C   UNL     1      -7.704  -0.815 -34.515  1.00  0.00     0.046 A 
BRANCH  24  26
HETATM   26  C   UNL     1      -6.071  -2.716 -34.491  1.00  0.00     0.179 A 
HETATM   27  O   UNL     1      -4.780  -3.093 -34.219  1.00  0.00    -0.302 OA
HETATM   28  C   UNL     1      -4.755  -4.427 -34.487  1.00  0.00     0.163 A 
HETATM   29  C   UNL     1      -6.007  -4.799 -34.903  1.00  0.00     0.144 A 
HETATM   30  N   UNL     1      -6.839  -3.708 -34.910  1.00  0.00    -0.234 NA
ENDBRANCH  24  26
ENDBRANCH   3  19
TORSDOF 5
ENDMDL
MODEL 3
REMARK VINA RESULT:      -8.2      8.346     13.141
REMARK  5 active torsions:
REMARK  status: ('A' for Active; 'I' for Inactive)
REMARK    1  A    between atoms: C_2  and  N_3 
REMARK       I    between atoms: N_3  and  C_4 
REMARK    2  A    between atoms: C_4  and  C_5 
REMARK    3  A    between atoms: C_8  and  N_9 
REMARK       I    between atoms: N_9  and  C_10 
REMARK       I    between atoms: C_10  and  N_11 
REMARK    4  A    between atoms: N_11  and  C_12 
REMARK    5  A    between atoms: C_17  and  C_18 
ROOT
HETATM    1  N   UNL     1      -0.476   5.709 -29.628  1.00  0.00    -0.309 N 
HETATM    2  C   UNL     1      -1.595   5.914 -30.425  1.00  0.00     0.325 C 
HETATM    3  N   UNL     1      -1.585   5.023 -31.489  1.00  0.00    -0.308 N 
HETATM    4  O   UNL     1      -2.434   6.783 -30.238  1.00  0.00    -0.247 OA
HETATM    5  H   UNL     1      -0.058   4.791 -29.678  1.00  0.00     0.170 HD
HETATM    6  H   UNL     1      -0.691   4.595 -31.666  1.00  0.00     0.170 HD
ENDROOT
BRANCH   1   7
HETATM    7  C   UNL     1       0.060   6.594 -28.671  1.00  0.00     0.036 A 
HETATM    8  C   UNL     1       0.810   7.726 -29.000  1.00  0.00     0.030 A 
HETATM    9  C   UNL     1       1.393   8.512 -28.000  1.00  0.00     0.019 A 
HETATM   10  C   UNL     1       1.245   8.163 -26.654  1.00  0.00     0.032 A 
HETATM   11  C   UNL     1       0.462   7.055 -26.318  1.00  0.00     0.019 A 
HETATM   12  C   UNL     1      -0.124   6.274 -27.320  1.00  0.00     0.030 A 
BRANCH  10  13
HETATM   13  C   UNL     1       1.907   8.928 -25.560  1.00  0.00     0.251 C 
HETATM   14  N   UNL     1       2.656   8.187 -24.666  1.00  0.00    -0.357 N 
HETATM   15  H   UNL     1       2.602   7.179 -24.695  1.00  0.00     0.162 HD
HETATM   16  O   UNL     1       1.730  10.137 -25.460  1.00  0.00    -0.268 OA
BRANCH  14  17
HETATM   17  C   UNL     1       3.236   8.788 -23.484  1.00  0.00     0.118 C 
HETATM   18  C   UNL     1       4.650   9.274 -23.746  1.00  0.00     0.026 C 
ENDBRANCH  14  17
ENDBRANCH  10  13
ENDBRANCH   1   7
BRANCH   3  19
HETATM   19  C   UNL     1      -2.543   4.926 -32.529  1.00  0.00     0.043 A 
HETATM   20  C   UNL     1      -2.295   5.598 -33.746  1.00  0.00    -0.035 A 
HETATM   21  C   UNL     1      -1.050   6.411 -33.983  1.00  0.00     0.050 C 
HETATM   22  C   UNL     1      -3.254   5.538 -34.769  1.00  0.00     0.010 A 
HETATM   23  C   UNL     1      -4.434   4.814 -34.600  1.00  0.00     0.016 A 
HETATM   24  C   UNL     1      -4.681   4.120 -33.412  1.00  0.00     0.019 A 
HETATM   25  C   UNL     1      -3.723   4.182 -32.387  1.00  0.00     0.046 A 
BRANCH  24  26
HETATM   26  C   UNL     1      -5.922   3.363 -33.269  1.00  0.00     0.179 A 
HETATM   27  O   UNL     1      -5.901   2.284 -32.420  1.00  0.00    -0.302 OA
HETATM   28  C   UNL     1      -7.164   1.780 -32.486  1.00  0.00     0.163 A 
HETATM   29  C   UNL     1      -7.886   2.558 -33.354  1.00  0.00     0.144 A 
HETATM   30  N   UNL     1      -7.091   3.559 -33.854  1.00  0.00    -0.234 NA
ENDBRANCH  24  26
ENDBRANCH   3  19
TORSDOF 5
ENDMDL
MODEL 4
REMARK VINA RESULT:      -8.1      1.043      1.468
REMARK  5 active torsions:
REMARK  status: ('A' for Active; 'I' for Inactive)
REMARK    1  A    between atoms: C_2  and  N_3 
REMARK       I    between atoms: N_3  and  C_4 
REMARK    2  A    between atoms: C_4  and  C_5 
REMARK    3  A    between atoms: C_8  and  N_9 
REMARK       I    between atoms: N_9  and  C_10 
REMARK       I    between atoms: C_10  and  N_11 
REMARK    4  A    between atoms: N_11  and  C_12 
REMARK    5  A    between atoms: C_17  and  C_18 
ROOT
HETATM    1  N   UNL     1      -9.832   2.320 -33.753  1.00  0.00    -0.309 N 
HETATM    2  C   UNL     1      -8.975   1.352 -33.247  1.00  0.00     0.325 C 
HETATM    3  N   UNL     1      -7.744   1.434 -33.883  1.00  0.00    -0.308 N 
HETATM    4  O   UNL     1      -9.280   0.521 -32.403  1.00  0.00    -0.247 OA
HETATM    5  H   UNL     1      -9.393   3.126 -34.173  1.00  0.00     0.170 HD
HETATM    6  H   UNL     1      -7.754   1.952 -34.746  1.00  0.00     0.170 HD
ENDROOT
BRANCH   1   7
HETATM    7  C   UNL     1     -11.236   2.359 -33.632  1.00  0.00     0.036 A 
HETATM    8  C   UNL     1     -11.915   3.228 -32.774  1.00  0.00     0.030 A 
HETATM    9  C   UNL     1     -13.305   3.151 -32.633  1.00  0.00     0.019 A 
HETATM   10  C   UNL     1     -14.033   2.190 -33.340  1.00  0.00     0.032 A 
HETATM   11  C   UNL     1     -13.364   1.346 -34.232  1.00  0.00     0.019 A 
HETATM   12  C   UNL     1     -11.974   1.428 -34.374  1.00  0.00     0.030 A 
BRANCH  10  13
HETATM   13  C   UNL     1     -15.503   2.024 -33.168  1.00  0.00     0.251 C 
HETATM   14  N   UNL     1     -16.110   2.873 -32.263  1.00  0.00    -0.357 N 
HETATM   15  H   UNL     1     -15.535   3.445 -31.661  1.00  0.00     0.162 HD
HETATM   16  O   UNL     1     -16.097   1.139 -33.773  1.00  0.00    -0.268 OA
BRANCH  14  17
HETATM   17  C   UNL     1     -17.504   2.725 -31.902  1.00  0.00     0.118 C 
HETATM   18  C   UNL     1     -18.393   3.615 -32.752  1.00  0.00     0.026 C 
ENDBRANCH  14  17
ENDBRANCH  10  13
ENDBRANCH   1   7
BRANCH   3  19
HETATM   19  C   UNL     1      -6.612   0.612 -33.660  1.00  0.00     0.043 A 
HETATM   20  C   UNL     1      -5.485   1.167 -33.015  1.00  0.00    -0.035 A 
HETATM   21  C   UNL     1      -5.442   2.599 -32.550  1.00  0.00     0.050 C 
HETATM   22  C   UNL     1      -4.345   0.372 -32.822  1.00  0.00     0.010 A 
HETATM   23  C   UNL     1      -4.321  -0.957 -33.246  1.00  0.00     0.016 A 
HETATM   24  C   UNL     1      -5.438  -1.530 -33.860  1.00  0.00     0.019 A 
HETATM   25  C   UNL     1      -6.578  -0.733 -34.057  1.00  0.00     0.046 A 
BRANCH  24  26
HETATM   26  C   UNL     1      -5.386  -2.926 -34.285  1.00  0.00     0.179 A 
HETATM   27  O   UNL     1      -6.524  -3.452 -34.845  1.00  0.00    -0.302 OA
HETATM   28  C   UNL     1      -6.191  -4.739 -35.136  1.00  0.00     0.163 A 
HETATM   29  C   UNL     1      -4.891  -4.939 -34.748  1.00  0.00     0.144 A 
HETATM   30  N   UNL     1      -4.385  -3.786 -34.202  1.00  0.00    -0.234 NA
ENDBRANCH  24  26
ENDBRANCH   3  19
TORSDOF 5
ENDMDL
MODEL 5
REMARK VINA RESULT:      -8.0      5.850      9.727
REMARK  5 active torsions:
REMARK  status: ('A' for Active; 'I' for Inactive)
REMARK    1  A    between atoms: C_2  and  N_3 
REMARK       I    between atoms: N_3  and  C_4 
REMARK    2  A    between atoms: C_4  and  C_5 
REMARK    3  A    between atoms: C_8  and  N_9 
REMARK       I    between atoms: N_9  and  C_10 
REMARK       I    between atoms: C_10  and  N_11 
REMARK    4  A    between atoms: N_11  and  C_12 
REMARK    5  A    between atoms: C_17  and  C_18 
ROOT
HETATM    1  N   UNL     1      -4.668   3.297 -31.862  1.00  0.00    -0.309 N 
HETATM    2  C   UNL     1      -3.356   3.637 -31.555  1.00  0.00     0.325 C 
HETATM    3  N   UNL     1      -3.206   5.017 -31.591  1.00  0.00    -0.308 N 
HETATM    4  O   UNL     1      -2.461   2.834 -31.336  1.00  0.00    -0.247 OA
HETATM    5  H   UNL     1      -5.361   4.012 -31.694  1.00  0.00     0.170 HD
HETATM    6  H   UNL     1      -3.941   5.503 -32.078  1.00  0.00     0.170 HD
ENDROOT
BRANCH   1   7
HETATM    7  C   UNL     1      -5.148   2.033 -32.259  1.00  0.00     0.036 A 
HETATM    8  C   UNL     1      -4.943   0.863 -31.525  1.00  0.00     0.030 A 
HETATM    9  C   UNL     1      -5.365  -0.375 -32.022  1.00  0.00     0.019 A 
HETATM   10  C   UNL     1      -5.984  -0.458 -33.273  1.00  0.00     0.032 A 
HETATM   11  C   UNL     1      -6.227   0.715 -33.994  1.00  0.00     0.019 A 
HETATM   12  C   UNL     1      -5.808   1.952 -33.492  1.00  0.00     0.030 A 
BRANCH  10  13
HETATM   13  C   UNL     1      -6.385  -1.761 -33.874  1.00  0.00     0.251 C 
HETATM   14  N   UNL     1      -5.354  -2.596 -34.261  1.00  0.00    -0.357 N 
HETATM   15  H   UNL     1      -4.408  -2.242 -34.265  1.00  0.00     0.162 HD
HETATM   16  O   UNL     1      -7.570  -2.020 -34.048  1.00  0.00    -0.268 OA
BRANCH  14  17
HETATM   17  C   UNL     1      -5.606  -3.827 -34.980  1.00  0.00     0.118 C 
HETATM   18  C   UNL     1      -4.886  -5.000 -34.339  1.00  0.00     0.026 C 
ENDBRANCH  14  17
ENDBRANCH  10  13
ENDBRANCH   1   7
BRANCH   3  19
HETATM   19  C   UNL     1      -2.019   5.752 -31.352  1.00  0.00     0.043 A 
HETATM   20  C   UNL     1      -1.277   6.224 -32.458  1.00  0.00    -0.035 A 
HETATM   21  C   UNL     1      -1.704   5.979 -33.881  1.00  0.00     0.050 C 
HETATM   22  C   UNL     1      -0.081   6.921 -32.233  1.00  0.00     0.010 A 
HETATM   23  C   UNL     1       0.372   7.163 -30.936  1.00  0.00     0.016 A 
HETATM   24  C   UNL     1      -0.365   6.728 -29.830  1.00  0.00     0.019 A 
HETATM   25  C   UNL     1      -1.561   6.027 -30.056  1.00  0.00     0.046 A 
BRANCH  24  26
HETATM   26  C   UNL     1       0.130   7.005 -28.485  1.00  0.00     0.179 A 
HETATM   27  O   UNL     1       1.136   7.931 -28.368  1.00  0.00    -0.302 OA
HETATM   28  C   UNL     1       1.393   7.982 -27.032  1.00  0.00     0.163 A 
HETATM   29  C   UNL     1       0.550   7.101 -26.405  1.00  0.00     0.144 A 
HETATM   30  N   UNL     1      -0.247   6.477 -27.332  1.00  0.00    -0.234 NA
ENDBRANCH  24  26
ENDBRANCH   3  19
TORSDOF 5
ENDMDL
MODEL 6
REMARK VINA RESULT:      -8.0     12.004     15.553
REMARK  5 active torsions:
REMARK  status: ('A' for Active; 'I' for Inactive)
REMARK    1  A    between atoms: C_2  and  N_3 
REMARK       I    between atoms: N_3  and  C_4 
REMARK    2  A    between atoms: C_4  and  C_5 
REMARK    3  A    between atoms: C_8  and  N_9 
REMARK       I    between atoms: N_9  and  C_10 
REMARK       I    between atoms: C_10  and  N_11 
REMARK    4  A    between atoms: N_11  and  C_12 
REMARK    5  A    between atoms: C_17  and  C_18 
ROOT
HETATM    1  N   UNL     1       0.583   7.226 -27.859  1.00  0.00    -0.309 N 
HETATM    2  C   UNL     1       1.282   8.237 -27.212  1.00  0.00     0.325 C 
HETATM    3  N   UNL     1       1.232   8.041 -25.839  1.00  0.00    -0.308 N 
HETATM    4  O   UNL     1       1.818   9.183 -27.772  1.00  0.00    -0.247 OA
HETATM    5  H   UNL     1       0.483   6.361 -27.349  1.00  0.00     0.170 HD
HETATM    6  H   UNL     1       0.510   7.409 -25.535  1.00  0.00     0.170 HD
ENDROOT
BRANCH   1   7
HETATM    7  C   UNL     1       0.112   7.234 -29.187  1.00  0.00     0.036 A 
HETATM    8  C   UNL     1      -0.970   8.006 -29.619  1.00  0.00     0.030 A 
HETATM    9  C   UNL     1      -1.447   7.896 -30.930  1.00  0.00     0.019 A 
HETATM   10  C   UNL     1      -0.855   6.998 -31.822  1.00  0.00     0.032 A 
HETATM   11  C   UNL     1       0.254   6.253 -31.408  1.00  0.00     0.019 A 
HETATM   12  C   UNL     1       0.731   6.368 -30.097  1.00  0.00     0.030 A 
BRANCH  10  13
HETATM   13  C   UNL     1      -1.374   6.795 -33.204  1.00  0.00     0.251 C 
HETATM   14  N   UNL     1      -1.663   5.492 -33.561  1.00  0.00    -0.357 N 
HETATM   15  H   UNL     1      -1.376   4.739 -32.952  1.00  0.00     0.162 HD
HETATM   16  O   UNL     1      -1.475   7.748 -33.969  1.00  0.00    -0.268 OA
BRANCH  14  17
HETATM   17  C   UNL     1      -2.043   5.144 -34.914  1.00  0.00     0.118 C 
HETATM   18  C   UNL     1      -3.542   5.271 -35.118  1.00  0.00     0.026 C 
ENDBRANCH  14  17
ENDBRANCH  10  13
ENDBRANCH   1   7
BRANCH   3  19
HETATM   19  C   UNL     1       1.808   8.863 -24.839  1.00  0.00     0.043 A 
HETATM   20  C   UNL     1       0.977   9.764 -24.137  1.00  0.00    -0.035 A 
HETATM   21  C   UNL     1      -0.500   9.881 -24.408  1.00  0.00     0.050 C 
HETATM   22  C   UNL     1       1.544  10.608 -23.170  1.00  0.00     0.010 A 
HETATM   23  C   UNL     1       2.909  10.555 -22.887  1.00  0.00     0.016 A 
HETATM   24  C   UNL     1       3.740   9.649 -23.553  1.00  0.00     0.019 A 
HETATM   25  C   UNL     1       3.173   8.807 -24.523  1.00  0.00     0.046 A 
BRANCH  24  26
HETATM   26  C   UNL     1       5.164   9.611 -23.229  1.00  0.00     0.179 A 
HETATM   27  O   UNL     1       5.786   8.389 -23.293  1.00  0.00    -0.302 OA
HETATM   28  C   UNL     1       7.076   8.651 -22.947  1.00  0.00     0.163 A 
HETATM   29  C   UNL     1       7.182   9.994 -22.690  1.00  0.00     0.144 A 
HETATM   30  N   UNL     1       5.963  10.599 -22.865  1.00  0.00    -0.234 NA
ENDBRANCH  24  26
ENDBRANCH   3  19
TORSDOF 5
ENDMDL
MODEL 7
REMARK VINA RESULT:      -8.0      6.808     10.503
REMARK  5 active torsions:
REMARK  status: ('A' for Active; 'I' for Inactive)
REMARK    1  A    between atoms: C_2  and  N_3 
REMARK       I    between atoms: N_3  and  C_4 
REMARK    2  A    between atoms: C_4  and  C_5 
REMARK    3  A    between atoms: C_8  and  N_9 
REMARK       I    between atoms: N_9  and  C_10 
REMARK       I    between atoms: C_10  and  N_11 
REMARK    4  A    between atoms: N_11  and  C_12 
REMARK    5  A    between atoms: C_17  and  C_18 
ROOT
HETATM    1  N   UNL     1      -3.963   2.577 -30.940  1.00  0.00    -0.309 N 
HETATM    2  C   UNL     1      -3.142   3.669 -31.188  1.00  0.00     0.325 C 
HETATM    3  N   UNL     1      -3.649   4.795 -30.553  1.00  0.00    -0.308 N 
HETATM    4  O   UNL     1      -2.149   3.647 -31.902  1.00  0.00    -0.247 OA
HETATM    5  H   UNL     1      -4.528   2.629 -30.105  1.00  0.00     0.170 HD
HETATM    6  H   UNL     1      -4.612   4.716 -30.273  1.00  0.00     0.170 HD
ENDROOT
BRANCH   1   7
HETATM    7  C   UNL     1      -4.000   1.362 -31.652  1.00  0.00     0.036 A 
HETATM    8  C   UNL     1      -4.902   1.099 -32.686  1.00  0.00     0.030 A 
HETATM    9  C   UNL     1      -4.948  -0.163 -33.290  1.00  0.00     0.019 A 
HETATM   10  C   UNL     1      -4.100  -1.184 -32.853  1.00  0.00     0.032 A 
HETATM   11  C   UNL     1      -3.167  -0.915 -31.847  1.00  0.00     0.019 A 
HETATM   12  C   UNL     1      -3.121   0.349 -31.248  1.00  0.00     0.030 A 
BRANCH  10  13
HETATM   13  C   UNL     1      -4.163  -2.562 -33.416  1.00  0.00     0.251 C 
HETATM   14  N   UNL     1      -5.027  -2.748 -34.477  1.00  0.00    -0.357 N 
HETATM   15  H   UNL     1      -5.674  -2.010 -34.721  1.00  0.00     0.162 HD
HETATM   16  O   UNL     1      -3.509  -3.466 -32.907  1.00  0.00    -0.268 OA
BRANCH  14  17
HETATM   17  C   UNL     1      -5.284  -4.063 -35.025  1.00  0.00     0.118 C 
HETATM   18  C   UNL     1      -6.772  -4.356 -35.090  1.00  0.00     0.026 C 
ENDBRANCH  14  17
ENDBRANCH  10  13
ENDBRANCH   1   7
BRANCH   3  19
HETATM   19  C   UNL     1      -3.109   6.104 -30.578  1.00  0.00     0.043 A 
HETATM   20  C   UNL     1      -3.626   7.035 -31.506  1.00  0.00    -0.035 A 
HETATM   21  C   UNL     1      -4.733   6.691 -32.467  1.00  0.00     0.050 C 
HETATM   22  C   UNL     1      -3.073   8.324 -31.564  1.00  0.00     0.010 A 
HETATM   23  C   UNL     1      -2.034   8.695 -30.709  1.00  0.00     0.016 A 
HETATM   24  C   UNL     1      -1.531   7.794 -29.766  1.00  0.00     0.019 A 
HETATM   25  C   UNL     1      -2.082   6.503 -29.710  1.00  0.00     0.046 A 
BRANCH  24  26
HETATM   26  C   UNL     1      -0.450   8.214 -28.879  1.00  0.00     0.179 A 
HETATM   27  O   UNL     1      -0.746   9.175 -27.944  1.00  0.00    -0.302 OA
HETATM   28  C   UNL     1       0.424   9.367 -27.276  1.00  0.00     0.163 A 
HETATM   29  C   UNL     1       1.365   8.532 -27.822  1.00  0.00     0.144 A 
HETATM   30  N   UNL     1       0.808   7.806 -28.844  1.00  0.00    -0.234 NA
ENDBRANCH  24  26
ENDBRANCH   3  19
TORSDOF 5
ENDMDL
MODEL 8
REMARK VINA RESULT:      -7.9      5.186      9.827
REMARK  5 active torsions:
REMARK  status: ('A' for Active; 'I' for Inactive)
REMARK    1  A    between atoms: C_2  and  N_3 
REMARK       I    between atoms: N_3  and  C_4 
REMARK    2  A    between atoms: C_4  and  C_5 
REMARK    3  A    between atoms: C_8  and  N_9 
REMARK       I    between atoms: N_9  and  C_10 
REMARK       I    between atoms: C_10  and  N_11 
REMARK    4  A    between atoms: N_11  and  C_12 
REMARK    5  A    between atoms: C_17  and  C_18 
ROOT
HETATM    1  N   UNL     1      -3.706   4.046 -32.526  1.00  0.00    -0.309 N 
HETATM    2  C   UNL     1      -4.415   2.891 -32.224  1.00  0.00     0.325 C 
HETATM    3  N   UNL     1      -5.202   2.525 -33.308  1.00  0.00    -0.308 N 
HETATM    4  O   UNL     1      -4.385   2.316 -31.146  1.00  0.00    -0.247 OA
HETATM    5  H   UNL     1      -3.552   4.228 -33.507  1.00  0.00     0.170 HD
HETATM    6  H   UNL     1      -5.345   3.256 -33.985  1.00  0.00     0.170 HD
ENDROOT
BRANCH   1   7
HETATM    7  C   UNL     1      -3.075   4.918 -31.616  1.00  0.00     0.036 A 
HETATM    8  C   UNL     1      -3.761   5.862 -30.848  1.00  0.00     0.030 A 
HETATM    9  C   UNL     1      -3.065   6.762 -30.033  1.00  0.00     0.019 A 
HETATM   10  C   UNL     1      -1.668   6.738 -29.990  1.00  0.00     0.032 A 
HETATM   11  C   UNL     1      -0.979   5.769 -30.725  1.00  0.00     0.019 A 
HETATM   12  C   UNL     1      -1.678   4.868 -31.535  1.00  0.00     0.030 A 
BRANCH  10  13
HETATM   13  C   UNL     1      -0.882   7.722 -29.193  1.00  0.00     0.251 C 
HETATM   14  N   UNL     1       0.432   7.384 -28.933  1.00  0.00    -0.357 N 
HETATM   15  H   UNL     1       0.753   6.451 -29.149  1.00  0.00     0.162 HD
HETATM   16  O   UNL     1      -1.421   8.737 -28.766  1.00  0.00    -0.268 OA
BRANCH  14  17
HETATM   17  C   UNL     1       1.261   8.186 -28.058  1.00  0.00     0.118 C 
HETATM   18  C   UNL     1       1.463   7.509 -26.714  1.00  0.00     0.026 C 
ENDBRANCH  14  17
ENDBRANCH  10  13
ENDBRANCH   1   7
BRANCH   3  19
HETATM   19  C   UNL     1      -6.080   1.416 -33.388  1.00  0.00     0.043 A 
HETATM   20  C   UNL     1      -7.443   1.603 -33.071  1.00  0.00    -0.035 A 
HETATM   21  C   UNL     1      -8.000   2.939 -32.655  1.00  0.00     0.050 C 
HETATM   22  C   UNL     1      -8.314   0.504 -33.111  1.00  0.00     0.010 A 
HETATM   23  C   UNL     1      -7.851  -0.761 -33.474  1.00  0.00     0.016 A 
HETATM   24  C   UNL     1      -6.510  -0.958 -33.818  1.00  0.00     0.019 A 
HETATM   25  C   UNL     1      -5.638   0.142 -33.774  1.00  0.00     0.046 A 
BRANCH  24  26
HETATM   26  C   UNL     1      -6.057  -2.292 -34.202  1.00  0.00     0.179 A 
HETATM   27  O   UNL     1      -7.017  -3.184 -34.612  1.00  0.00    -0.302 OA
HETATM   28  C   UNL     1      -6.322  -4.318 -34.898  1.00  0.00     0.163 A 
HETATM   29  C   UNL     1      -4.995  -4.075 -34.655  1.00  0.00     0.144 A 
HETATM   30  N   UNL     1      -4.832  -2.788 -34.207  1.00  0.00    -0.234 NA
ENDBRANCH  24  26
ENDBRANCH   3  19
TORSDOF 5
ENDMDL
MODEL 9
REMARK VINA RESULT:      -7.8      5.110      7.573
REMARK  5 active torsions:
REMARK  status: ('A' for Active; 'I' for Inactive)
REMARK    1  A    between atoms: C_2  and  N_3 
REMARK       I    between atoms: N_3  and  C_4 
REMARK    2  A    between atoms: C_4  and  C_5 
REMARK    3  A    between atoms: C_8  and  N_9 
REMARK       I    between atoms: N_9  and  C_10 
REMARK       I    between atoms: C_10  and  N_11 
REMARK    4  A    between atoms: N_11  and  C_12 
REMARK    5  A    between atoms: C_17  and  C_18 
ROOT
HETATM    1  N   UNL     1      -4.860   2.398 -33.089  1.00  0.00    -0.309 N 
HETATM    2  C   UNL     1      -4.361   3.683 -32.920  1.00  0.00     0.325 C 
HETATM    3  N   UNL     1      -3.000   3.628 -32.652  1.00  0.00    -0.308 N 
HETATM    4  O   UNL     1      -5.033   4.703 -32.955  1.00  0.00    -0.247 OA
HETATM    5  H   UNL     1      -4.191   1.695 -33.366  1.00  0.00     0.170 HD
HETATM    6  H   UNL     1      -2.670   2.724 -32.358  1.00  0.00     0.170 HD
ENDROOT
BRANCH   1   7
HETATM    7  C   UNL     1      -6.211   1.998 -33.038  1.00  0.00     0.036 A 
HETATM    8  C   UNL     1      -6.947   1.911 -31.853  1.00  0.00     0.030 A 
HETATM    9  C   UNL     1      -8.256   1.417 -31.860  1.00  0.00     0.019 A 
HETATM   10  C   UNL     1      -8.840   0.987 -33.055  1.00  0.00     0.032 A 
HETATM   11  C   UNL     1      -8.122   1.109 -34.249  1.00  0.00     0.019 A 
HETATM   12  C   UNL     1      -6.815   1.608 -34.240  1.00  0.00     0.030 A 
BRANCH  10  13
HETATM   13  C   UNL     1     -10.203   0.387 -33.101  1.00  0.00     0.251 C 
HETATM   14  N   UNL     1     -11.188   1.157 -33.687  1.00  0.00    -0.357 N 
HETATM   15  H   UNL     1     -10.991   2.122 -33.913  1.00  0.00     0.162 HD
HETATM   16  O   UNL     1     -10.410  -0.708 -32.590  1.00  0.00    -0.268 OA
BRANCH  14  17
HETATM   17  C   UNL     1     -12.577   0.750 -33.672  1.00  0.00     0.118 C 
HETATM   18  C   UNL     1     -13.389   1.512 -34.704  1.00  0.00     0.026 C 
ENDBRANCH  14  17
ENDBRANCH  10  13
ENDBRANCH   1   7
BRANCH   3  19
HETATM   19  C   UNL     1      -2.134   4.722 -32.404  1.00  0.00     0.043 A 
HETATM   20  C   UNL     1      -1.670   5.483 -33.500  1.00  0.00    -0.035 A 
HETATM   21  C   UNL     1      -2.064   5.179 -34.921  1.00  0.00     0.050 C 
HETATM   22  C   UNL     1      -0.783   6.546 -33.269  1.00  0.00     0.010 A 
HETATM   23  C   UNL     1      -0.370   6.864 -31.975  1.00  0.00     0.016 A 
HETATM   24  C   UNL     1      -0.843   6.138 -30.877  1.00  0.00     0.019 A 
HETATM   25  C   UNL     1      -1.728   5.072 -31.108  1.00  0.00     0.046 A 
BRANCH  24  26
HETATM   26  C   UNL     1      -0.400   6.500 -29.533  1.00  0.00     0.179 A 
HETATM   27  O   UNL     1      -0.670   7.778 -29.110  1.00  0.00    -0.302 OA
HETATM   28  C   UNL     1      -0.152   7.832 -27.853  1.00  0.00     0.163 A 
HETATM   29  C   UNL     1       0.401   6.610 -27.570  1.00  0.00     0.144 A 
HETATM   30  N   UNL     1       0.246   5.768 -28.642  1.00  0.00    -0.234 NA
ENDBRANCH  24  26
ENDBRANCH   3  19
TORSDOF 5
ENDMDL
MODEL 10
REMARK VINA RESULT:      -7.7     14.753     17.183
REMARK  5 active torsions:
REMARK  status: ('A' for Active; 'I' for Inactive)
REMARK    1  A    between atoms: C_2  and  N_3 
REMARK       I    between atoms: N_3  and  C_4 
REMARK    2  A    between atoms: C_4  and  C_5 
REMARK    3  A    between atoms: C_8  and  N_9 
REMARK       I    between atoms: N_9  and  C_10 
REMARK       I    between atoms: C_10  and  N_11 
REMARK    4  A    between atoms: N_11  and  C_12 
REMARK    5  A    between atoms: C_17  and  C_18 
ROOT
HETATM    1  N   UNL     1      -4.658 -13.882 -34.671  1.00  0.00    -0.309 N 
HETATM    2  C   UNL     1      -5.217 -14.089 -35.925  1.00  0.00     0.325 C 
HETATM    3  N   UNL     1      -5.200 -12.906 -36.651  1.00  0.00    -0.308 N 
HETATM    4  O   UNL     1      -5.697 -15.147 -36.309  1.00  0.00    -0.247 OA
HETATM    5  H   UNL     1      -4.019 -13.105 -34.594  1.00  0.00     0.170 HD
HETATM    6  H   UNL     1      -5.060 -12.079 -36.095  1.00  0.00     0.170 HD
ENDROOT
BRANCH   1   7
HETATM    7  C   UNL     1      -4.789 -14.706 -33.535  1.00  0.00     0.036 A 
HETATM    8  C   UNL     1      -4.203 -15.970 -33.425  1.00  0.00     0.030 A 
HETATM    9  C   UNL     1      -4.449 -16.776 -32.309  1.00  0.00     0.019 A 
HETATM   10  C   UNL     1      -5.300 -16.332 -31.292  1.00  0.00     0.032 A 
HETATM   11  C   UNL     1      -5.856 -15.052 -31.378  1.00  0.00     0.019 A 
HETATM   12  C   UNL     1      -5.605 -14.246 -32.494  1.00  0.00     0.030 A 
BRANCH  10  13
HETATM   13  C   UNL     1      -5.648 -17.184 -30.121  1.00  0.00     0.251 C 
HETATM   14  N   UNL     1      -6.822 -16.867 -29.464  1.00  0.00    -0.357 N 
HETATM   15  H   UNL     1      -7.301 -16.009 -29.697  1.00  0.00     0.162 HD
HETATM   16  O   UNL     1      -4.885 -18.073 -29.758  1.00  0.00    -0.268 OA
BRANCH  14  17
HETATM   17  C   UNL     1      -7.204 -17.528 -28.234  1.00  0.00     0.118 C 
HETATM   18  C   UNL     1      -8.661 -17.270 -27.896  1.00  0.00     0.026 C 
ENDBRANCH  14  17
ENDBRANCH  10  13
ENDBRANCH   1   7
BRANCH   3  19
HETATM   19  C   UNL     1      -5.692 -12.703 -37.964  1.00  0.00     0.043 A 
HETATM   20  C   UNL     1      -4.785 -12.335 -38.981  1.00  0.00    -0.035 A 
HETATM   21  C   UNL     1      -3.311 -12.155 -38.725  1.00  0.00     0.050 C 
HETATM   22  C   UNL     1      -5.268 -12.096 -40.277  1.00  0.00     0.010 A 
HETATM   23  C   UNL     1      -6.625 -12.232 -40.569  1.00  0.00     0.016 A 
HETATM   24  C   UNL     1      -7.532 -12.623 -39.580  1.00  0.00     0.019 A 
HETATM   25  C   UNL     1      -7.049 -12.859 -38.283  1.00  0.00     0.046 A 
BRANCH  24  26
HETATM   26  C   UNL     1      -8.945 -12.765 -39.919  1.00  0.00     0.179 A 
HETATM   27  O   UNL     1      -9.664 -11.609 -40.098  1.00  0.00    -0.302 OA
HETATM   28  C   UNL     1     -10.921 -12.038 -40.396  1.00  0.00     0.163 A 
HETATM   29  C   UNL     1     -10.915 -13.409 -40.385  1.00  0.00     0.144 A 
HETATM   30  N   UNL     1      -9.659 -13.867 -40.076  1.00  0.00    -0.234 NA
ENDBRANCH  24  26
ENDBRANCH   3  19
TORSDOF 5
ENDMDL
