MODEL 1
REMARK VINA RESULT:      -8.7      0.000      0.000
REMARK  6 active torsions:
REMARK  status: ('A' for Active; 'I' for Inactive)
REMARK    1  A    between atoms: C_2  and  N_3 
REMARK    2  A    between atoms: C_2  and  C_24 
REMARK       I    between atoms: N_3  and  C_4 
REMARK    3  A    between atoms: C_4  and  C_5 
REMARK    4  A    between atoms: C_5  and  N_6 
REMARK    5  A    between atoms: C_10  and  N_11 
REMARK       I    between atoms: N_11  and  C_12 
REMARK       I    between atoms: C_12  and  N_13 
REMARK    6  A    between atoms: N_13  and  C_14 
ROOT
HETATM    1  N   UNL     1      -3.736   4.571 -32.804  1.00  0.00    -0.063 N 
HETATM    2  H   UNL     1      -3.729   5.262 -32.039  1.00  0.00     0.280 HD
HETATM    3  C   UNL     1      -5.174   4.439 -33.247  1.00  0.00     0.237 C 
HETATM    4  C   UNL     1      -5.989   3.609 -32.277  1.00  0.00     0.053 C 
HETATM    5  C   UNL     1      -5.372   2.250 -31.969  1.00  0.00     0.089 C 
HETATM    6  C   UNL     1      -3.930   2.407 -31.496  1.00  0.00     0.053 C 
HETATM    7  C   UNL     1      -3.052   3.310 -32.345  1.00  0.00     0.237 C 
ENDROOT
BRANCH   1   8
HETATM    8  C   UNL     1      -2.895   5.207 -33.930  1.00  0.00     0.337 C 
BRANCH   8   9
HETATM    9  C   UNL     1      -2.159   6.464 -33.467  1.00  0.00     0.244 C 
HETATM   10  N   UNL     1      -1.903   6.525 -32.123  1.00  0.00    -0.351 N 
HETATM   11  H   UNL     1      -2.305   5.850 -31.481  1.00  0.00     0.163 HD
HETATM   12  O   UNL     1      -1.782   7.299 -34.287  1.00  0.00    -0.272 OA
BRANCH  10  13
HETATM   13  C   UNL     1      -1.197   7.639 -31.505  1.00  0.00     0.120 C 
HETATM   14  C   UNL     1      -2.151   8.775 -31.146  1.00  0.00     0.038 C 
BRANCH  13  15
HETATM   15  C   UNL     1      -0.457   7.115 -30.299  1.00  0.00     0.005 A 
HETATM   16  S   UNL     1      -0.068   5.446 -30.136  1.00  0.00    -0.104 SA
HETATM   17  C   UNL     1       0.693   5.697 -28.628  1.00  0.00     0.050 A 
HETATM   18  C   UNL     1       0.657   7.018 -28.246  1.00  0.00     0.008 A 
HETATM   19  C   UNL     1      -0.006   7.836 -29.208  1.00  0.00     0.017 A 
ENDBRANCH  13  15
ENDBRANCH  10  13
ENDBRANCH   8   9
ENDBRANCH   1   8
BRANCH   5  20
HETATM   20  N   UNL     1      -5.609   1.257 -33.019  1.00  0.00    -0.338 N 
HETATM   21  C   UNL     1      -5.657  -0.108 -32.869  1.00  0.00     0.321 C 
HETATM   22  N   UNL     1      -5.569  -0.759 -34.074  1.00  0.00    -0.309 N 
HETATM   23  O   UNL     1      -5.680  -0.639 -31.766  1.00  0.00    -0.247 OA
HETATM   24  H   UNL     1      -5.266  -0.204 -34.862  1.00  0.00     0.170 HD
HETATM   25  H   UNL     1      -5.905   1.609 -33.922  1.00  0.00     0.164 HD
BRANCH  22  26
HETATM   26  C   UNL     1      -5.525  -2.159 -34.258  1.00  0.00     0.036 A 
HETATM   27  C   UNL     1      -4.370  -2.925 -34.074  1.00  0.00     0.029 A 
HETATM   28  C   UNL     1      -4.388  -4.303 -34.305  1.00  0.00     0.002 A 
HETATM   29  C   UNL     1      -5.562  -4.926 -34.719  1.00  0.00     0.000 A 
HETATM   30  C   UNL     1      -6.722  -4.175 -34.887  1.00  0.00     0.002 A 
HETATM   31  C   UNL     1      -6.707  -2.800 -34.646  1.00  0.00     0.029 A 
ENDBRANCH  22  26
ENDBRANCH   5  20
TORSDOF 6
ENDMDL
MODEL 2
REMARK VINA RESULT:      -8.3      2.500     10.282
REMARK  6 active torsions:
REMARK  status: ('A' for Active; 'I' for Inactive)
REMARK    1  A    between atoms: C_2  and  N_3 
REMARK    2  A    between atoms: C_2  and  C_24 
REMARK       I    between atoms: N_3  and  C_4 
REMARK    3  A    between atoms: C_4  and  C_5 
REMARK    4  A    between atoms: C_5  and  N_6 
REMARK    5  A    between atoms: C_10  and  N_11 
REMARK       I    between atoms: N_11  and  C_12 
REMARK       I    between atoms: C_12  and  N_13 
REMARK    6  A    between atoms: N_13  and  C_14 
ROOT
HETATM    1  N   UNL     1      -4.884   2.560 -32.063  1.00  0.00    -0.063 N 
HETATM    2  H   UNL     1      -5.144   2.331 -33.034  1.00  0.00     0.280 HD
HETATM    3  C   UNL     1      -5.551   3.876 -31.742  1.00  0.00     0.237 C 
HETATM    4  C   UNL     1      -4.829   5.046 -32.380  1.00  0.00     0.053 C 
HETATM    5  C   UNL     1      -3.338   5.084 -32.068  1.00  0.00     0.089 C 
HETATM    6  C   UNL     1      -2.677   3.756 -32.426  1.00  0.00     0.053 C 
HETATM    7  C   UNL     1      -3.385   2.510 -31.922  1.00  0.00     0.237 C 
ENDROOT
BRANCH   1   8
HETATM    8  C   UNL     1      -5.499   1.436 -31.205  1.00  0.00     0.337 C 
BRANCH   8   9
HETATM    9  C   UNL     1      -6.564   0.643 -31.961  1.00  0.00     0.244 C 
HETATM   10  N   UNL     1      -6.126   0.019 -33.099  1.00  0.00    -0.351 N 
HETATM   11  H   UNL     1      -5.200   0.200 -33.473  1.00  0.00     0.163 HD
HETATM   12  O   UNL     1      -7.702   0.542 -31.506  1.00  0.00    -0.272 OA
BRANCH  10  13
HETATM   13  C   UNL     1      -6.996  -0.793 -33.938  1.00  0.00     0.120 C 
HETATM   14  C   UNL     1      -7.391  -0.055 -35.214  1.00  0.00     0.038 C 
BRANCH  13  15
HETATM   15  C   UNL     1      -6.286  -2.093 -34.229  1.00  0.00     0.005 A 
HETATM   16  S   UNL     1      -4.603  -2.288 -33.926  1.00  0.00    -0.104 SA
HETATM   17  C   UNL     1      -4.617  -3.902 -34.483  1.00  0.00     0.050 A 
HETATM   18  C   UNL     1      -5.870  -4.295 -34.895  1.00  0.00     0.008 A 
HETATM   19  C   UNL     1      -6.832  -3.253 -34.749  1.00  0.00     0.017 A 
ENDBRANCH  13  15
ENDBRANCH  10  13
ENDBRANCH   8   9
ENDBRANCH   1   8
BRANCH   5  20
HETATM   20  N   UNL     1      -3.040   5.624 -30.740  1.00  0.00    -0.338 N 
HETATM   21  C   UNL     1      -2.004   6.461 -30.401  1.00  0.00     0.321 C 
HETATM   22  N   UNL     1      -1.813   6.515 -29.043  1.00  0.00    -0.309 N 
HETATM   23  O   UNL     1      -1.303   6.999 -31.248  1.00  0.00    -0.247 OA
HETATM   24  H   UNL     1      -2.274   5.802 -28.496  1.00  0.00     0.170 HD
HETATM   25  H   UNL     1      -3.740   5.481 -30.021  1.00  0.00     0.164 HD
BRANCH  22  26
HETATM   26  C   UNL     1      -0.792   7.232 -28.379  1.00  0.00     0.036 A 
HETATM   27  C   UNL     1      -0.829   8.613 -28.171  1.00  0.00     0.029 A 
HETATM   28  C   UNL     1       0.231   9.264 -27.535  1.00  0.00     0.002 A 
HETATM   29  C   UNL     1       1.337   8.538 -27.100  1.00  0.00     0.000 A 
HETATM   30  C   UNL     1       1.375   7.159 -27.285  1.00  0.00     0.002 A 
HETATM   31  C   UNL     1       0.310   6.506 -27.911  1.00  0.00     0.029 A 
ENDBRANCH  22  26
ENDBRANCH   5  20
TORSDOF 6
ENDMDL
MODEL 3
REMARK VINA RESULT:      -8.0      1.906      2.170
REMARK  6 active torsions:
REMARK  status: ('A' for Active; 'I' for Inactive)
REMARK    1  A    between atoms: C_2  and  N_3 
REMARK    2  A    between atoms: C_2  and  C_24 
REMARK       I    between atoms: N_3  and  C_4 
REMARK    3  A    between atoms: C_4  and  C_5 
REMARK    4  A    between atoms: C_5  and  N_6 
REMARK    5  A    between atoms: C_10  and  N_11 
REMARK       I    between atoms: N_11  and  C_12 
REMARK       I    between atoms: C_12  and  N_13 
REMARK    6  A    between atoms: N_13  and  C_14 
ROOT
HETATM    1  N   UNL     1      -3.683   4.365 -31.785  1.00  0.00    -0.063 N 
HETATM    2  H   UNL     1      -3.916   5.063 -31.063  1.00  0.00     0.280 HD
HETATM    3  C   UNL     1      -4.765   4.460 -32.835  1.00  0.00     0.237 C 
HETATM    4  C   UNL     1      -6.050   3.796 -32.382  1.00  0.00     0.053 C 
HETATM    5  C   UNL     1      -5.859   2.362 -31.903  1.00  0.00     0.089 C 
HETATM    6  C   UNL     1      -4.784   2.293 -30.823  1.00  0.00     0.053 C 
HETATM    7  C   UNL     1      -3.487   3.020 -31.136  1.00  0.00     0.237 C 
ENDROOT
BRANCH   1   8
HETATM    8  C   UNL     1      -2.337   4.830 -32.375  1.00  0.00     0.337 C 
BRANCH   8   9
HETATM    9  C   UNL     1      -1.296   5.118 -31.294  1.00  0.00     0.244 C 
HETATM   10  N   UNL     1      -1.676   6.037 -30.352  1.00  0.00    -0.351 N 
HETATM   11  H   UNL     1      -2.527   6.580 -30.462  1.00  0.00     0.163 HD
HETATM   12  O   UNL     1      -0.236   4.496 -31.271  1.00  0.00    -0.272 OA
BRANCH  10  13
HETATM   13  C   UNL     1      -0.822   6.425 -29.239  1.00  0.00     0.120 C 
HETATM   14  C   UNL     1       0.335   7.307 -29.702  1.00  0.00     0.038 C 
BRANCH  13  15
HETATM   15  C   UNL     1      -1.681   7.111 -28.205  1.00  0.00     0.005 A 
HETATM   16  S   UNL     1      -3.357   7.393 -28.471  1.00  0.00    -0.104 SA
HETATM   17  C   UNL     1      -3.546   8.142 -26.947  1.00  0.00     0.050 A 
HETATM   18  C   UNL     1      -2.365   8.182 -26.243  1.00  0.00     0.008 A 
HETATM   19  C   UNL     1      -1.290   7.589 -26.967  1.00  0.00     0.017 A 
ENDBRANCH  13  15
ENDBRANCH  10  13
ENDBRANCH   8   9
ENDBRANCH   1   8
BRANCH   5  20
HETATM   20  N   UNL     1      -5.747   1.398 -32.999  1.00  0.00    -0.338 N 
HETATM   21  C   UNL     1      -5.978   0.045 -32.936  1.00  0.00     0.321 C 
HETATM   22  N   UNL     1      -5.474  -0.612 -34.030  1.00  0.00    -0.309 N 
HETATM   23  O   UNL     1      -6.492  -0.480 -31.956  1.00  0.00    -0.247 OA
HETATM   24  H   UNL     1      -4.830  -0.092 -34.609  1.00  0.00     0.170 HD
HETATM   25  H   UNL     1      -5.620   1.777 -33.930  1.00  0.00     0.164 HD
BRANCH  22  26
HETATM   26  C   UNL     1      -5.491  -2.010 -34.237  1.00  0.00     0.036 A 
HETATM   27  C   UNL     1      -4.376  -2.831 -34.050  1.00  0.00     0.029 A 
HETATM   28  C   UNL     1      -4.453  -4.203 -34.305  1.00  0.00     0.002 A 
HETATM   29  C   UNL     1      -5.648  -4.765 -34.746  1.00  0.00     0.000 A 
HETATM   30  C   UNL     1      -6.770  -3.959 -34.917  1.00  0.00     0.002 A 
HETATM   31  C   UNL     1      -6.696  -2.590 -34.652  1.00  0.00     0.029 A 
ENDBRANCH  22  26
ENDBRANCH   5  20
TORSDOF 6
ENDMDL
MODEL 4
REMARK VINA RESULT:      -8.0      2.037      3.188
REMARK  6 active torsions:
REMARK  status: ('A' for Active; 'I' for Inactive)
REMARK    1  A    between atoms: C_2  and  N_3 
REMARK    2  A    between atoms: C_2  and  C_24 
REMARK       I    between atoms: N_3  and  C_4 
REMARK    3  A    between atoms: C_4  and  C_5 
REMARK    4  A    between atoms: C_5  and  N_6 
REMARK    5  A    between atoms: C_10  and  N_11 
REMARK       I    between atoms: N_11  and  C_12 
REMARK       I    between atoms: C_12  and  N_13 
REMARK    6  A    between atoms: N_13  and  C_14 
ROOT
HETATM    1  N   UNL     1      -6.838   3.401 -31.088  1.00  0.00    -0.063 N 
HETATM    2  H   UNL     1      -7.546   4.095 -30.804  1.00  0.00     0.280 HD
HETATM    3  C   UNL     1      -6.435   3.757 -32.500  1.00  0.00     0.237 C 
HETATM    4  C   UNL     1      -7.484   3.335 -33.509  1.00  0.00     0.053 C 
HETATM    5  C   UNL     1      -7.885   1.869 -33.394  1.00  0.00     0.089 C 
HETATM    6  C   UNL     1      -8.316   1.538 -31.968  1.00  0.00     0.053 C 
HETATM    7  C   UNL     1      -7.381   2.013 -30.870  1.00  0.00     0.237 C 
ENDROOT
BRANCH   1   8
HETATM    8  C   UNL     1      -5.649   3.623 -30.131  1.00  0.00     0.337 C 
BRANCH   8   9
HETATM    9  C   UNL     1      -4.305   3.322 -30.792  1.00  0.00     0.244 C 
HETATM   10  N   UNL     1      -3.531   4.419 -31.060  1.00  0.00    -0.351 N 
HETATM   11  H   UNL     1      -3.898   5.359 -30.955  1.00  0.00     0.163 HD
HETATM   12  O   UNL     1      -3.956   2.159 -30.986  1.00  0.00    -0.272 OA
BRANCH  10  13
HETATM   13  C   UNL     1      -2.213   4.324 -31.673  1.00  0.00     0.120 C 
HETATM   14  C   UNL     1      -2.300   4.351 -33.196  1.00  0.00     0.038 C 
BRANCH  13  15
HETATM   15  C   UNL     1      -1.362   5.446 -31.131  1.00  0.00     0.005 A 
HETATM   16  S   UNL     1      -2.046   6.736 -30.220  1.00  0.00    -0.104 SA
HETATM   17  C   UNL     1      -0.528   7.493 -30.019  1.00  0.00     0.050 A 
HETATM   18  C   UNL     1       0.484   6.789 -30.628  1.00  0.00     0.008 A 
HETATM   19  C   UNL     1       0.005   5.610 -31.270  1.00  0.00     0.017 A 
ENDBRANCH  13  15
ENDBRANCH  10  13
ENDBRANCH   8   9
ENDBRANCH   1   8
BRANCH   5  20
HETATM   20  N   UNL     1      -6.922   0.957 -34.013  1.00  0.00    -0.338 N 
HETATM   21  C   UNL     1      -6.962  -0.417 -34.005  1.00  0.00     0.321 C 
HETATM   22  N   UNL     1      -5.762  -0.966 -34.380  1.00  0.00    -0.309 N 
HETATM   23  O   UNL     1      -7.944  -1.034 -33.613  1.00  0.00    -0.247 OA
HETATM   24  H   UNL     1      -4.968  -0.342 -34.395  1.00  0.00     0.170 HD
HETATM   25  H   UNL     1      -6.229   1.371 -34.626  1.00  0.00     0.164 HD
BRANCH  22  26
HETATM   26  C   UNL     1      -5.457  -2.345 -34.413  1.00  0.00     0.036 A 
HETATM   27  C   UNL     1      -6.278  -3.303 -35.015  1.00  0.00     0.029 A 
HETATM   28  C   UNL     1      -5.933  -4.657 -34.983  1.00  0.00     0.002 A 
HETATM   29  C   UNL     1      -4.761  -5.063 -34.350  1.00  0.00     0.000 A 
HETATM   30  C   UNL     1      -3.927  -4.116 -33.764  1.00  0.00     0.002 A 
HETATM   31  C   UNL     1      -4.267  -2.761 -33.805  1.00  0.00     0.029 A 
ENDBRANCH  22  26
ENDBRANCH   5  20
TORSDOF 6
ENDMDL
MODEL 5
REMARK VINA RESULT:      -7.9      2.512      9.647
REMARK  6 active torsions:
REMARK  status: ('A' for Active; 'I' for Inactive)
REMARK    1  A    between atoms: C_2  and  N_3 
REMARK    2  A    between atoms: C_2  and  C_24 
REMARK       I    between atoms: N_3  and  C_4 
REMARK    3  A    between atoms: C_4  and  C_5 
REMARK    4  A    between atoms: C_5  and  N_6 
REMARK    5  A    between atoms: C_10  and  N_11 
REMARK       I    between atoms: N_11  and  C_12 
REMARK       I    between atoms: C_12  and  N_13 
REMARK    6  A    between atoms: N_13  and  C_14 
ROOT
HETATM    1  N   UNL     1      -4.938   3.986 -33.439  1.00  0.00    -0.063 N 
HETATM    2  H   UNL     1      -4.993   3.346 -34.245  1.00  0.00     0.280 HD
HETATM    3  C   UNL     1      -4.397   5.293 -33.967  1.00  0.00     0.237 C 
HETATM    4  C   UNL     1      -2.905   5.226 -34.218  1.00  0.00     0.053 C 
HETATM    5  C   UNL     1      -2.106   4.736 -33.016  1.00  0.00     0.089 C 
HETATM    6  C   UNL     1      -2.649   3.401 -32.516  1.00  0.00     0.053 C 
HETATM    7  C   UNL     1      -4.155   3.329 -32.332  1.00  0.00     0.237 C 
ENDROOT
BRANCH   1   8
HETATM    8  C   UNL     1      -6.396   4.171 -32.971  1.00  0.00     0.337 C 
BRANCH   8   9
HETATM    9  C   UNL     1      -7.011   2.871 -32.455  1.00  0.00     0.244 C 
HETATM   10  N   UNL     1      -7.191   1.898 -33.402  1.00  0.00    -0.351 N 
HETATM   11  H   UNL     1      -7.055   2.094 -34.389  1.00  0.00     0.163 HD
HETATM   12  O   UNL     1      -7.247   2.728 -31.257  1.00  0.00    -0.272 OA
BRANCH  10  13
HETATM   13  C   UNL     1      -7.749   0.589 -33.092  1.00  0.00     0.120 C 
HETATM   14  C   UNL     1      -9.127   0.405 -33.721  1.00  0.00     0.038 C 
BRANCH  13  15
HETATM   15  C   UNL     1      -6.768  -0.461 -33.554  1.00  0.00     0.005 A 
HETATM   16  S   UNL     1      -5.135  -0.469 -33.012  1.00  0.00    -0.104 SA
HETATM   17  C   UNL     1      -4.760  -1.857 -33.932  1.00  0.00     0.050 A 
HETATM   18  C   UNL     1      -5.846  -2.313 -34.643  1.00  0.00     0.008 A 
HETATM   19  C   UNL     1      -7.004  -1.509 -34.426  1.00  0.00     0.017 A 
ENDBRANCH  13  15
ENDBRANCH  10  13
ENDBRANCH   8   9
ENDBRANCH   1   8
BRANCH   5  20
HETATM   20  N   UNL     1      -1.890   5.772 -32.005  1.00  0.00    -0.338 N 
HETATM   21  C   UNL     1      -0.913   5.793 -31.039  1.00  0.00     0.321 C 
HETATM   22  N   UNL     1      -1.180   6.717 -30.061  1.00  0.00    -0.309 N 
HETATM   23  O   UNL     1       0.018   4.998 -31.042  1.00  0.00    -0.247 OA
HETATM   24  H   UNL     1      -2.119   7.090 -30.040  1.00  0.00     0.170 HD
HETATM   25  H   UNL     1      -2.423   6.628 -32.107  1.00  0.00     0.164 HD
BRANCH  22  26
HETATM   26  C   UNL     1      -0.408   6.940 -28.899  1.00  0.00     0.036 A 
HETATM   27  C   UNL     1      -0.623   6.273 -27.690  1.00  0.00     0.029 A 
HETATM   28  C   UNL     1       0.158   6.565 -26.568  1.00  0.00     0.002 A 
HETATM   29  C   UNL     1       1.163   7.526 -26.648  1.00  0.00     0.000 A 
HETATM   30  C   UNL     1       1.398   8.183 -27.853  1.00  0.00     0.002 A 
HETATM   31  C   UNL     1       0.624   7.883 -28.977  1.00  0.00     0.029 A 
ENDBRANCH  22  26
ENDBRANCH   5  20
TORSDOF 6
ENDMDL
MODEL 6
REMARK VINA RESULT:      -7.7      4.507      7.472
REMARK  6 active torsions:
REMARK  status: ('A' for Active; 'I' for Inactive)
REMARK    1  A    between atoms: C_2  and  N_3 
REMARK    2  A    between atoms: C_2  and  C_24 
REMARK       I    between atoms: N_3  and  C_4 
REMARK    3  A    between atoms: C_4  and  C_5 
REMARK    4  A    between atoms: C_5  and  N_6 
REMARK    5  A    between atoms: C_10  and  N_11 
REMARK       I    between atoms: N_11  and  C_12 
REMARK       I    between atoms: C_12  and  N_13 
REMARK    6  A    between atoms: N_13  and  C_14 
ROOT
HETATM    1  N   UNL     1      -6.938   3.766 -30.780  1.00  0.00    -0.063 N 
HETATM    2  H   UNL     1      -6.752   4.216 -29.871  1.00  0.00     0.280 HD
HETATM    3  C   UNL     1      -7.066   2.287 -30.506  1.00  0.00     0.237 C 
HETATM    4  C   UNL     1      -5.717   1.636 -30.279  1.00  0.00     0.053 C 
HETATM    5  C   UNL     1      -4.712   1.913 -31.390  1.00  0.00     0.089 C 
HETATM    6  C   UNL     1      -4.575   3.414 -31.632  1.00  0.00     0.053 C 
HETATM    7  C   UNL     1      -5.878   4.181 -31.768  1.00  0.00     0.237 C 
ENDROOT
BRANCH   1   8
HETATM    8  C   UNL     1      -8.294   4.335 -31.242  1.00  0.00     0.337 C 
BRANCH   8   9
HETATM    9  C   UNL     1      -8.616   3.970 -32.691  1.00  0.00     0.244 C 
HETATM   10  N   UNL     1      -8.917   2.650 -32.903  1.00  0.00    -0.351 N 
HETATM   11  H   UNL     1      -8.790   1.958 -32.172  1.00  0.00     0.163 HD
HETATM   12  O   UNL     1      -8.658   4.842 -33.556  1.00  0.00    -0.272 OA
BRANCH  10  13
HETATM   13  C   UNL     1      -9.265   2.123 -34.215  1.00  0.00     0.120 C 
HETATM   14  C   UNL     1      -8.434   0.890 -34.561  1.00  0.00     0.038 C 
BRANCH  13  15
HETATM   15  C   UNL     1     -10.746   1.832 -34.227  1.00  0.00     0.005 A 
HETATM   16  S   UNL     1     -11.854   2.834 -35.080  1.00  0.00    -0.104 SA
HETATM   17  C   UNL     1     -13.190   1.879 -34.611  1.00  0.00     0.050 A 
HETATM   18  C   UNL     1     -12.813   0.818 -33.821  1.00  0.00     0.008 A 
HETATM   19  C   UNL     1     -11.405   0.790 -33.599  1.00  0.00     0.017 A 
ENDBRANCH  13  15
ENDBRANCH  10  13
ENDBRANCH   8   9
ENDBRANCH   1   8
BRANCH   5  20
HETATM   20  N   UNL     1      -4.916   1.078 -32.575  1.00  0.00    -0.338 N 
HETATM   21  C   UNL     1      -5.292  -0.244 -32.600  1.00  0.00     0.321 C 
HETATM   22  N   UNL     1      -5.079  -0.814 -33.829  1.00  0.00    -0.309 N 
HETATM   23  O   UNL     1      -5.679  -0.826 -31.594  1.00  0.00    -0.247 OA
HETATM   24  H   UNL     1      -4.492  -0.297 -34.468  1.00  0.00     0.170 HD
HETATM   25  H   UNL     1      -4.916   1.550 -33.472  1.00  0.00     0.164 HD
BRANCH  22  26
HETATM   26  C   UNL     1      -5.300  -2.169 -34.163  1.00  0.00     0.036 A 
HETATM   27  C   UNL     1      -6.512  -2.653 -34.662  1.00  0.00     0.029 A 
HETATM   28  C   UNL     1      -6.674  -4.013 -34.941  1.00  0.00     0.002 A 
HETATM   29  C   UNL     1      -5.623  -4.900 -34.724  1.00  0.00     0.000 A 
HETATM   30  C   UNL     1      -4.405  -4.425 -34.245  1.00  0.00     0.002 A 
HETATM   31  C   UNL     1      -4.240  -3.064 -33.976  1.00  0.00     0.029 A 
ENDBRANCH  22  26
ENDBRANCH   5  20
TORSDOF 6
ENDMDL
MODEL 7
REMARK VINA RESULT:      -7.5      1.942      2.328
REMARK  6 active torsions:
REMARK  status: ('A' for Active; 'I' for Inactive)
REMARK    1  A    between atoms: C_2  and  N_3 
REMARK    2  A    between atoms: C_2  and  C_24 
REMARK       I    between atoms: N_3  and  C_4 
REMARK    3  A    between atoms: C_4  and  C_5 
REMARK    4  A    between atoms: C_5  and  N_6 
REMARK    5  A    between atoms: C_10  and  N_11 
REMARK       I    between atoms: N_11  and  C_12 
REMARK       I    between atoms: C_12  and  N_13 
REMARK    6  A    between atoms: N_13  and  C_14 
ROOT
HETATM    1  N   UNL     1      -5.077   4.516 -30.930  1.00  0.00    -0.063 N 
HETATM    2  H   UNL     1      -5.358   5.097 -30.126  1.00  0.00     0.280 HD
HETATM    3  C   UNL     1      -6.199   4.610 -31.937  1.00  0.00     0.237 C 
HETATM    4  C   UNL     1      -7.388   3.761 -31.537  1.00  0.00     0.053 C 
HETATM    5  C   UNL     1      -7.029   2.311 -31.233  1.00  0.00     0.089 C 
HETATM    6  C   UNL     1      -5.915   2.239 -30.193  1.00  0.00     0.053 C 
HETATM    7  C   UNL     1      -4.715   3.135 -30.447  1.00  0.00     0.237 C 
ENDROOT
BRANCH   1   8
HETATM    8  C   UNL     1      -3.809   5.191 -31.492  1.00  0.00     0.337 C 
BRANCH   8   9
HETATM    9  C   UNL     1      -3.454   6.476 -30.745  1.00  0.00     0.244 C 
HETATM   10  N   UNL     1      -3.266   6.330 -29.396  1.00  0.00    -0.351 N 
HETATM   11  H   UNL     1      -3.491   5.459 -28.925  1.00  0.00     0.163 HD
HETATM   12  O   UNL     1      -3.289   7.526 -31.362  1.00  0.00    -0.272 OA
BRANCH  10  13
HETATM   13  C   UNL     1      -2.906   7.440 -28.526  1.00  0.00     0.120 C 
HETATM   14  C   UNL     1      -3.685   7.399 -27.214  1.00  0.00     0.038 C 
BRANCH  13  15
HETATM   15  C   UNL     1      -1.414   7.397 -28.303  1.00  0.00     0.005 A 
HETATM   16  S   UNL     1      -0.733   6.651 -26.910  1.00  0.00    -0.104 SA
HETATM   17  C   UNL     1       0.860   7.017 -27.405  1.00  0.00     0.050 A 
HETATM   18  C   UNL     1       0.886   7.693 -28.603  1.00  0.00     0.008 A 
HETATM   19  C   UNL     1      -0.424   7.913 -29.121  1.00  0.00     0.017 A 
ENDBRANCH  13  15
ENDBRANCH  10  13
ENDBRANCH   8   9
ENDBRANCH   1   8
BRANCH   5  20
HETATM   20  N   UNL     1      -6.852   1.497 -32.436  1.00  0.00    -0.338 N 
HETATM   21  C   UNL     1      -6.722   0.130 -32.497  1.00  0.00     0.321 C 
HETATM   22  N   UNL     1      -6.250  -0.286 -33.716  1.00  0.00    -0.309 N 
HETATM   23  O   UNL     1      -6.926  -0.584 -31.524  1.00  0.00    -0.247 OA
HETATM   24  H   UNL     1      -5.857   0.428 -34.312  1.00  0.00     0.170 HD
HETATM   25  H   UNL     1      -6.974   1.965 -33.327  1.00  0.00     0.164 HD
BRANCH  22  26
HETATM   26  C   UNL     1      -5.947  -1.618 -34.076  1.00  0.00     0.036 A 
HETATM   27  C   UNL     1      -6.891  -2.513 -34.586  1.00  0.00     0.029 A 
HETATM   28  C   UNL     1      -6.531  -3.829 -34.892  1.00  0.00     0.002 A 
HETATM   29  C   UNL     1      -5.222  -4.259 -34.690  1.00  0.00     0.000 A 
HETATM   30  C   UNL     1      -4.269  -3.370 -34.200  1.00  0.00     0.002 A 
HETATM   31  C   UNL     1      -4.627  -2.052 -33.905  1.00  0.00     0.029 A 
ENDBRANCH  22  26
ENDBRANCH   5  20
TORSDOF 6
ENDMDL
MODEL 8
REMARK VINA RESULT:      -7.5      2.922      9.855
REMARK  6 active torsions:
REMARK  status: ('A' for Active; 'I' for Inactive)
REMARK    1  A    between atoms: C_2  and  N_3 
REMARK    2  A    between atoms: C_2  and  C_24 
REMARK       I    between atoms: N_3  and  C_4 
REMARK    3  A    between atoms: C_4  and  C_5 
REMARK    4  A    between atoms: C_5  and  N_6 
REMARK    5  A    between atoms: C_10  and  N_11 
REMARK       I    between atoms: N_11  and  C_12 
REMARK       I    between atoms: C_12  and  N_13 
REMARK    6  A    between atoms: N_13  and  C_14 
ROOT
HETATM    1  N   UNL     1      -5.829   4.843 -32.393  1.00  0.00    -0.063 N 
HETATM    2  H   UNL     1      -6.809   5.097 -32.588  1.00  0.00     0.280 HD
HETATM    3  C   UNL     1      -5.798   4.321 -30.977  1.00  0.00     0.237 C 
HETATM    4  C   UNL     1      -5.876   5.441 -29.960  1.00  0.00     0.053 C 
HETATM    5  C   UNL     1      -4.837   6.534 -30.175  1.00  0.00     0.089 C 
HETATM    6  C   UNL     1      -4.905   7.069 -31.603  1.00  0.00     0.053 C 
HETATM    7  C   UNL     1      -4.938   6.019 -32.700  1.00  0.00     0.237 C 
ENDROOT
BRANCH   1   8
HETATM    8  C   UNL     1      -5.503   3.705 -33.381  1.00  0.00     0.337 C 
BRANCH   8   9
HETATM    9  C   UNL     1      -4.978   2.455 -32.675  1.00  0.00     0.244 C 
HETATM   10  N   UNL     1      -5.893   1.447 -32.523  1.00  0.00    -0.351 N 
HETATM   11  H   UNL     1      -6.874   1.592 -32.737  1.00  0.00     0.163 HD
HETATM   12  O   UNL     1      -3.795   2.377 -32.350  1.00  0.00    -0.272 OA
BRANCH  10  13
HETATM   13  C   UNL     1      -5.568   0.176 -31.890  1.00  0.00     0.120 C 
HETATM   14  C   UNL     1      -6.491  -0.112 -30.709  1.00  0.00     0.038 C 
BRANCH  13  15
HETATM   15  C   UNL     1      -5.637  -0.903 -32.942  1.00  0.00     0.005 A 
HETATM   16  S   UNL     1      -4.236  -1.774 -33.432  1.00  0.00    -0.104 SA
HETATM   17  C   UNL     1      -5.122  -2.713 -34.550  1.00  0.00     0.050 A 
HETATM   18  C   UNL     1      -6.457  -2.379 -34.560  1.00  0.00     0.008 A 
HETATM   19  C   UNL     1      -6.754  -1.336 -33.634  1.00  0.00     0.017 A 
ENDBRANCH  13  15
ENDBRANCH  10  13
ENDBRANCH   8   9
ENDBRANCH   1   8
BRANCH   5  20
HETATM   20  N   UNL     1      -3.509   6.175 -29.677  1.00  0.00    -0.338 N 
HETATM   21  C   UNL     1      -2.720   6.907 -28.822  1.00  0.00     0.321 C 
HETATM   22  N   UNL     1      -1.423   6.460 -28.811  1.00  0.00    -0.309 N 
HETATM   23  O   UNL     1      -3.146   7.892 -28.232  1.00  0.00    -0.247 OA
HETATM   24  H   UNL     1      -1.159   5.832 -29.557  1.00  0.00     0.170 HD
HETATM   25  H   UNL     1      -3.190   5.231 -29.866  1.00  0.00     0.164 HD
BRANCH  22  26
HETATM   26  C   UNL     1      -0.355   7.037 -28.089  1.00  0.00     0.036 A 
HETATM   27  C   UNL     1      -0.115   6.788 -26.735  1.00  0.00     0.029 A 
HETATM   28  C   UNL     1       0.942   7.419 -26.073  1.00  0.00     0.002 A 
HETATM   29  C   UNL     1       1.770   8.301 -26.762  1.00  0.00     0.000 A 
HETATM   30  C   UNL     1       1.552   8.541 -28.116  1.00  0.00     0.002 A 
HETATM   31  C   UNL     1       0.501   7.903 -28.780  1.00  0.00     0.029 A 
ENDBRANCH  22  26
ENDBRANCH   5  20
TORSDOF 6
ENDMDL
MODEL 9
REMARK VINA RESULT:      -7.3      3.591      5.987
REMARK  6 active torsions:
REMARK  status: ('A' for Active; 'I' for Inactive)
REMARK    1  A    between atoms: C_2  and  N_3 
REMARK    2  A    between atoms: C_2  and  C_24 
REMARK       I    between atoms: N_3  and  C_4 
REMARK    3  A    between atoms: C_4  and  C_5 
REMARK    4  A    between atoms: C_5  and  N_6 
REMARK    5  A    between atoms: C_10  and  N_11 
REMARK       I    between atoms: N_11  and  C_12 
REMARK       I    between atoms: C_12  and  N_13 
REMARK    6  A    between atoms: N_13  and  C_14 
ROOT
HETATM    1  N   UNL     1      -5.041   4.667 -31.512  1.00  0.00    -0.063 N 
HETATM    2  H   UNL     1      -4.693   5.107 -30.647  1.00  0.00     0.280 HD
HETATM    3  C   UNL     1      -5.869   3.479 -31.082  1.00  0.00     0.237 C 
HETATM    4  C   UNL     1      -5.004   2.314 -30.647  1.00  0.00     0.053 C 
HETATM    5  C   UNL     1      -3.952   1.919 -31.677  1.00  0.00     0.089 C 
HETATM    6  C   UNL     1      -3.107   3.126 -32.076  1.00  0.00     0.053 C 
HETATM    7  C   UNL     1      -3.880   4.384 -32.430  1.00  0.00     0.237 C 
ENDROOT
BRANCH   1   8
HETATM    8  C   UNL     1      -5.945   5.728 -32.170  1.00  0.00     0.337 C 
BRANCH   8   9
HETATM    9  C   UNL     1      -7.035   5.105 -33.041  1.00  0.00     0.244 C 
HETATM   10  N   UNL     1      -8.276   5.044 -32.462  1.00  0.00    -0.351 N 
HETATM   11  H   UNL     1      -8.409   5.265 -31.481  1.00  0.00     0.163 HD
HETATM   12  O   UNL     1      -6.787   4.763 -34.195  1.00  0.00    -0.272 OA
BRANCH  10  13
HETATM   13  C   UNL     1      -9.439   4.498 -33.148  1.00  0.00     0.120 C 
HETATM   14  C   UNL     1      -9.605   5.105 -34.538  1.00  0.00     0.038 C 
BRANCH  13  15
HETATM   15  C   UNL     1      -9.293   2.996 -33.196  1.00  0.00     0.005 A 
HETATM   16  S   UNL     1      -9.203   2.054 -31.759  1.00  0.00    -0.104 SA
HETATM   17  C   UNL     1      -9.061   0.597 -32.639  1.00  0.00     0.050 A 
HETATM   18  C   UNL     1      -9.079   0.811 -33.998  1.00  0.00     0.008 A 
HETATM   19  C   UNL     1      -9.213   2.193 -34.320  1.00  0.00     0.017 A 
ENDBRANCH  13  15
ENDBRANCH  10  13
ENDBRANCH   8   9
ENDBRANCH   1   8
BRANCH   5  20
HETATM   20  N   UNL     1      -4.492   1.110 -32.772  1.00  0.00    -0.338 N 
HETATM   21  C   UNL     1      -4.880  -0.207 -32.713  1.00  0.00     0.321 C 
HETATM   22  N   UNL     1      -5.027  -0.754 -33.963  1.00  0.00    -0.309 N 
HETATM   23  O   UNL     1      -4.979  -0.806 -31.650  1.00  0.00    -0.247 OA
HETATM   24  H   UNL     1      -4.634  -0.229 -34.731  1.00  0.00     0.170 HD
HETATM   25  H   UNL     1      -4.735   1.600 -33.625  1.00  0.00     0.164 HD
BRANCH  22  26
HETATM   26  C   UNL     1      -5.352  -2.100 -34.244  1.00  0.00     0.036 A 
HETATM   27  C   UNL     1      -6.639  -2.527 -34.583  1.00  0.00     0.029 A 
HETATM   28  C   UNL     1      -6.900  -3.880 -34.817  1.00  0.00     0.002 A 
HETATM   29  C   UNL     1      -5.874  -4.816 -34.716  1.00  0.00     0.000 A 
HETATM   30  C   UNL     1      -4.585  -4.398 -34.398  1.00  0.00     0.002 A 
HETATM   31  C   UNL     1      -4.322  -3.045 -34.174  1.00  0.00     0.029 A 
ENDBRANCH  22  26
ENDBRANCH   5  20
TORSDOF 6
ENDMDL
MODEL 10
REMARK VINA RESULT:      -7.2      2.984      3.714
REMARK  6 active torsions:
REMARK  status: ('A' for Active; 'I' for Inactive)
REMARK    1  A    between atoms: C_2  and  N_3 
REMARK    2  A    between atoms: C_2  and  C_24 
REMARK       I    between atoms: N_3  and  C_4 
REMARK    3  A    between atoms: C_4  and  C_5 
REMARK    4  A    between atoms: C_5  and  N_6 
REMARK    5  A    between atoms: C_10  and  N_11 
REMARK       I    between atoms: N_11  and  C_12 
REMARK       I    between atoms: C_12  and  N_13 
REMARK    6  A    between atoms: N_13  and  C_14 
ROOT
HETATM    1  N   UNL     1      -6.250   5.527 -29.465  1.00  0.00    -0.063 N 
HETATM    2  H   UNL     1      -6.441   6.513 -29.698  1.00  0.00     0.280 HD
HETATM    3  C   UNL     1      -5.158   5.070 -30.402  1.00  0.00     0.237 C 
HETATM    4  C   UNL     1      -5.685   4.803 -31.797  1.00  0.00     0.053 C 
HETATM    5  C   UNL     1      -6.879   3.856 -31.826  1.00  0.00     0.089 C 
HETATM    6  C   UNL     1      -7.983   4.351 -30.895  1.00  0.00     0.053 C 
HETATM    7  C   UNL     1      -7.539   4.747 -29.498  1.00  0.00     0.237 C 
ENDROOT
BRANCH   1   8
HETATM    8  C   UNL     1      -5.724   5.550 -28.015  1.00  0.00     0.337 C 
BRANCH   8   9
HETATM    9  C   UNL     1      -4.801   6.738 -27.750  1.00  0.00     0.244 C 
HETATM   10  N   UNL     1      -3.658   6.441 -27.055  1.00  0.00    -0.351 N 
HETATM   11  H   UNL     1      -3.523   5.529 -26.632  1.00  0.00     0.163 HD
HETATM   12  O   UNL     1      -5.069   7.847 -28.207  1.00  0.00    -0.272 OA
BRANCH  10  13
HETATM   13  C   UNL     1      -2.653   7.442 -26.725  1.00  0.00     0.120 C 
HETATM   14  C   UNL     1      -2.379   7.485 -25.224  1.00  0.00     0.038 C 
BRANCH  13  15
HETATM   15  C   UNL     1      -1.409   7.139 -27.522  1.00  0.00     0.005 A 
HETATM   16  S   UNL     1      -1.239   7.653 -29.156  1.00  0.00    -0.104 SA
HETATM   17  C   UNL     1       0.316   6.960 -29.287  1.00  0.00     0.050 A 
HETATM   18  C   UNL     1       0.708   6.346 -28.120  1.00  0.00     0.008 A 
HETATM   19  C   UNL     1      -0.286   6.449 -27.102  1.00  0.00     0.017 A 
ENDBRANCH  13  15
ENDBRANCH  10  13
ENDBRANCH   8   9
ENDBRANCH   1   8
BRANCH   5  20
HETATM   20  N   UNL     1      -6.502   2.448 -31.699  1.00  0.00    -0.338 N 
HETATM   21  C   UNL     1      -6.156   1.590 -32.715  1.00  0.00     0.321 C 
HETATM   22  N   UNL     1      -6.178   0.279 -32.310  1.00  0.00    -0.309 N 
HETATM   23  O   UNL     1      -5.952   1.986 -33.856  1.00  0.00    -0.247 OA
HETATM   24  H   UNL     1      -6.640   0.089 -31.432  1.00  0.00     0.170 HD
HETATM   25  H   UNL     1      -6.345   2.100 -30.760  1.00  0.00     0.164 HD
BRANCH  22  26
HETATM   26  C   UNL     1      -5.935  -0.845 -33.129  1.00  0.00     0.036 A 
HETATM   27  C   UNL     1      -4.662  -1.377 -33.352  1.00  0.00     0.029 A 
HETATM   28  C   UNL     1      -4.488  -2.472 -34.202  1.00  0.00     0.002 A 
HETATM   29  C   UNL     1      -5.587  -3.047 -34.834  1.00  0.00     0.000 A 
HETATM   30  C   UNL     1      -6.862  -2.538 -34.604  1.00  0.00     0.002 A 
HETATM   31  C   UNL     1      -7.037  -1.449 -33.746  1.00  0.00     0.029 A 
ENDBRANCH  22  26
ENDBRANCH   5  20
TORSDOF 6
ENDMDL
