MODEL 1
REMARK VINA RESULT:      -8.2      0.000      0.000
REMARK  5 active torsions:
REMARK  status: ('A' for Active; 'I' for Inactive)
REMARK    1  A    between atoms: C_4  and  C_5 
REMARK    2  A    between atoms: C_5  and  N_6 
REMARK       I    between atoms: N_6  and  C_7 
REMARK    3  A    between atoms: C_7  and  C_8 
REMARK    4  A    between atoms: C_11  and  N_12 
REMARK       I    between atoms: N_12  and  C_13 
REMARK    5  A    between atoms: C_13  and  C_14 
ROOT
HETATM    1  C   UNL     1      -5.553   1.906 -33.160  1.00  0.00     0.032 A 
HETATM    2  C   UNL     1      -5.742   3.292 -33.140  1.00  0.00     0.019 A 
HETATM    3  C   UNL     1      -4.858   4.117 -32.431  1.00  0.00     0.030 A 
HETATM    4  C   UNL     1      -3.780   3.572 -31.729  1.00  0.00     0.035 A 
HETATM    5  C   UNL     1      -3.600   2.183 -31.743  1.00  0.00     0.030 A 
HETATM    6  C   UNL     1      -4.480   1.356 -32.449  1.00  0.00     0.019 A 
ENDROOT
BRANCH   4   7
HETATM    7  N   UNL     1      -2.865   4.332 -30.975  1.00  0.00    -0.323 N 
HETATM    8  C   UNL     1      -1.721   4.963 -31.429  1.00  0.00     0.257 C 
HETATM    9  O   UNL     1      -1.235   4.885 -32.551  1.00  0.00    -0.267 OA
HETATM   10  H   UNL     1      -3.053   4.390 -29.982  1.00  0.00     0.169 HD
BRANCH   8  11
HETATM   11  C   UNL     1      -0.997   5.761 -30.413  1.00  0.00     0.047 A 
HETATM   12  C   UNL     1      -1.365   7.074 -30.060  1.00  0.00     0.027 A 
HETATM   13  C   UNL     1      -0.595   7.688 -29.075  1.00  0.00     0.138 A 
HETATM   14  C   UNL     1      -2.338   8.038 -30.459  1.00  0.00     0.033 A 
HETATM   15  N   UNL     1      -1.093   8.942 -28.857  1.00  0.00    -0.350 N 
HETATM   16  N   UNL     1       0.469   7.180 -28.428  1.00  0.00    -0.242 NA
HETATM   17  H   UNL     1      -0.701   9.590 -28.189  1.00  0.00     0.166 HD
HETATM   18  C   UNL     1      -2.155   9.170 -29.694  1.00  0.00     0.090 A 
HETATM   19  C   UNL     1       0.797   5.933 -28.833  1.00  0.00     0.120 A 
HETATM   20  C   UNL     1       0.125   5.196 -29.794  1.00  0.00     0.037 A 
ENDBRANCH   8  11
ENDBRANCH   4   7
BRANCH   1  21
HETATM   21  C   UNL     1      -6.471   0.979 -33.882  1.00  0.00     0.251 C 
HETATM   22  N   UNL     1      -5.963  -0.252 -34.234  1.00  0.00    -0.352 N 
HETATM   23  H   UNL     1      -5.110  -0.579 -33.803  1.00  0.00     0.163 HD
HETATM   24  O   UNL     1      -7.628   1.313 -34.112  1.00  0.00    -0.268 OA
BRANCH  22  25
HETATM   25  C   UNL     1      -6.824  -1.253 -34.820  1.00  0.00     0.169 C 
BRANCH  25  26
HETATM   26  C   UNL     1      -6.152  -2.582 -34.710  1.00  0.00     0.000 A 
HETATM   27  S   UNL     1      -4.541  -2.695 -34.129  1.00  0.00    -0.105 SA
HETATM   28  C   UNL     1      -4.531  -4.395 -34.301  1.00  0.00     0.050 A 
HETATM   29  C   UNL     1      -5.726  -4.874 -34.787  1.00  0.00     0.008 A 
HETATM   30  C   UNL     1      -6.662  -3.827 -35.025  1.00  0.00     0.017 A 
ENDBRANCH  25  26
ENDBRANCH  22  25
ENDBRANCH   1  21
TORSDOF 5
ENDMDL
MODEL 2
REMARK VINA RESULT:      -8.2      7.045     10.147
REMARK  5 active torsions:
REMARK  status: ('A' for Active; 'I' for Inactive)
REMARK    1  A    between atoms: C_4  and  C_5 
REMARK    2  A    between atoms: C_5  and  N_6 
REMARK       I    between atoms: N_6  and  C_7 
REMARK    3  A    between atoms: C_7  and  C_8 
REMARK    4  A    between atoms: C_11  and  N_12 
REMARK       I    between atoms: N_12  and  C_13 
REMARK    5  A    between atoms: C_13  and  C_14 
ROOT
HETATM    1  C   UNL     1     -10.626   2.530 -32.718  1.00  0.00     0.032 A 
HETATM    2  C   UNL     1      -9.541   2.618 -31.840  1.00  0.00     0.019 A 
HETATM    3  C   UNL     1      -8.500   1.682 -31.902  1.00  0.00     0.030 A 
HETATM    4  C   UNL     1      -8.531   0.643 -32.835  1.00  0.00     0.035 A 
HETATM    5  C   UNL     1      -9.624   0.551 -33.706  1.00  0.00     0.030 A 
HETATM    6  C   UNL     1     -10.665   1.483 -33.647  1.00  0.00     0.019 A 
ENDROOT
BRANCH   4   7
HETATM    7  N   UNL     1      -7.537  -0.350 -32.943  1.00  0.00    -0.323 N 
HETATM    8  C   UNL     1      -6.481  -0.388 -33.834  1.00  0.00     0.257 C 
HETATM    9  O   UNL     1      -6.279   0.379 -34.768  1.00  0.00    -0.267 OA
HETATM   10  H   UNL     1      -7.632  -1.139 -32.316  1.00  0.00     0.169 HD
BRANCH   8  11
HETATM   11  C   UNL     1      -5.546  -1.523 -33.654  1.00  0.00     0.047 A 
HETATM   12  C   UNL     1      -5.743  -2.784 -34.249  1.00  0.00     0.027 A 
HETATM   13  C   UNL     1      -4.767  -3.745 -33.998  1.00  0.00     0.138 A 
HETATM   14  C   UNL     1      -6.727  -3.423 -35.062  1.00  0.00     0.033 A 
HETATM   15  N   UNL     1      -5.114  -4.895 -34.652  1.00  0.00    -0.350 N 
HETATM   16  N   UNL     1      -3.661  -3.616 -33.244  1.00  0.00    -0.242 NA
HETATM   17  H   UNL     1      -4.565  -5.742 -34.622  1.00  0.00     0.166 HD
HETATM   18  C   UNL     1      -6.307  -4.714 -35.303  1.00  0.00     0.090 A 
HETATM   19  C   UNL     1      -3.543  -2.398 -32.670  1.00  0.00     0.120 A 
HETATM   20  C   UNL     1      -4.428  -1.344 -32.831  1.00  0.00     0.037 A 
ENDBRANCH   8  11
ENDBRANCH   4   7
BRANCH   1  21
HETATM   21  C   UNL     1     -11.769   3.488 -32.686  1.00  0.00     0.251 C 
HETATM   22  N   UNL     1     -12.550   3.487 -31.551  1.00  0.00    -0.352 N 
HETATM   23  H   UNL     1     -12.205   3.043 -30.711  1.00  0.00     0.163 HD
HETATM   24  O   UNL     1     -11.963   4.247 -33.628  1.00  0.00    -0.268 OA
BRANCH  22  25
HETATM   25  C   UNL     1     -13.595   4.471 -31.387  1.00  0.00     0.169 C 
BRANCH  25  26
HETATM   26  C   UNL     1     -14.905   3.832 -31.713  1.00  0.00     0.000 A 
HETATM   27  S   UNL     1     -16.331   4.781 -31.818  1.00  0.00    -0.105 SA
HETATM   28  C   UNL     1     -17.288   3.415 -32.191  1.00  0.00     0.050 A 
HETATM   29  C   UNL     1     -16.543   2.258 -32.238  1.00  0.00     0.008 A 
HETATM   30  C   UNL     1     -15.168   2.498 -31.960  1.00  0.00     0.017 A 
ENDBRANCH  25  26
ENDBRANCH  22  25
ENDBRANCH   1  21
TORSDOF 5
ENDMDL
MODEL 3
REMARK VINA RESULT:      -8.0      5.480      9.511
REMARK  5 active torsions:
REMARK  status: ('A' for Active; 'I' for Inactive)
REMARK    1  A    between atoms: C_4  and  C_5 
REMARK    2  A    between atoms: C_5  and  N_6 
REMARK       I    between atoms: N_6  and  C_7 
REMARK    3  A    between atoms: C_7  and  C_8 
REMARK    4  A    between atoms: C_11  and  N_12 
REMARK       I    between atoms: N_12  and  C_13 
REMARK    5  A    between atoms: C_13  and  C_14 
ROOT
HETATM    1  C   UNL     1      -6.430   1.002 -32.081  1.00  0.00     0.032 A 
HETATM    2  C   UNL     1      -6.747   2.274 -31.592  1.00  0.00     0.019 A 
HETATM    3  C   UNL     1      -8.083   2.691 -31.516  1.00  0.00     0.030 A 
HETATM    4  C   UNL     1      -9.117   1.850 -31.933  1.00  0.00     0.035 A 
HETATM    5  C   UNL     1      -8.796   0.581 -32.430  1.00  0.00     0.030 A 
HETATM    6  C   UNL     1      -7.464   0.161 -32.508  1.00  0.00     0.019 A 
ENDROOT
BRANCH   4   7
HETATM    7  N   UNL     1     -10.481   2.205 -31.910  1.00  0.00    -0.323 N 
HETATM    8  C   UNL     1     -11.188   2.886 -32.884  1.00  0.00     0.257 C 
HETATM    9  O   UNL     1     -10.732   3.402 -33.897  1.00  0.00    -0.267 OA
HETATM   10  H   UNL     1     -10.986   1.961 -31.068  1.00  0.00     0.169 HD
BRANCH   8  11
HETATM   11  C   UNL     1     -12.636   3.044 -32.616  1.00  0.00     0.047 A 
HETATM   12  C   UNL     1     -13.619   2.211 -33.184  1.00  0.00     0.027 A 
HETATM   13  C   UNL     1     -14.938   2.476 -32.822  1.00  0.00     0.138 A 
HETATM   14  C   UNL     1     -13.673   1.122 -34.105  1.00  0.00     0.033 A 
HETATM   15  N   UNL     1     -15.749   1.575 -33.455  1.00  0.00    -0.350 N 
HETATM   16  N   UNL     1     -15.387   3.443 -32.002  1.00  0.00    -0.242 NA
HETATM   17  H   UNL     1     -16.754   1.564 -33.357  1.00  0.00     0.166 HD
HETATM   18  C   UNL     1     -14.992   0.745 -34.241  1.00  0.00     0.090 A 
HETATM   19  C   UNL     1     -14.404   4.233 -31.517  1.00  0.00     0.120 A 
HETATM   20  C   UNL     1     -13.052   4.089 -31.782  1.00  0.00     0.037 A 
ENDBRANCH   8  11
ENDBRANCH   4   7
BRANCH   1  21
HETATM   21  C   UNL     1      -5.026   0.513 -32.200  1.00  0.00     0.251 C 
HETATM   22  N   UNL     1      -4.769  -0.760 -31.741  1.00  0.00    -0.352 N 
HETATM   23  H   UNL     1      -5.540  -1.393 -31.574  1.00  0.00     0.163 HD
HETATM   24  O   UNL     1      -4.168   1.223 -32.712  1.00  0.00    -0.268 OA
BRANCH  22  25
HETATM   25  C   UNL     1      -3.467  -1.355 -31.938  1.00  0.00     0.169 C 
BRANCH  25  26
HETATM   26  C   UNL     1      -3.639  -2.641 -32.677  1.00  0.00     0.000 A 
HETATM   27  S   UNL     1      -4.534  -2.689 -34.140  1.00  0.00    -0.105 SA
HETATM   28  C   UNL     1      -4.272  -4.369 -34.319  1.00  0.00     0.050 A 
HETATM   29  C   UNL     1      -3.517  -4.887 -33.292  1.00  0.00     0.008 A 
HETATM   30  C   UNL     1      -3.153  -3.891 -32.342  1.00  0.00     0.017 A 
ENDBRANCH  25  26
ENDBRANCH  22  25
ENDBRANCH   1  21
TORSDOF 5
ENDMDL
MODEL 4
REMARK VINA RESULT:      -7.9      6.655      9.737
REMARK  5 active torsions:
REMARK  status: ('A' for Active; 'I' for Inactive)
REMARK    1  A    between atoms: C_4  and  C_5 
REMARK    2  A    between atoms: C_5  and  N_6 
REMARK       I    between atoms: N_6  and  C_7 
REMARK    3  A    between atoms: C_7  and  C_8 
REMARK    4  A    between atoms: C_11  and  N_12 
REMARK       I    between atoms: N_12  and  C_13 
REMARK    5  A    between atoms: C_13  and  C_14 
ROOT
HETATM    1  C   UNL     1     -10.805   2.703 -32.817  1.00  0.00     0.032 A 
HETATM    2  C   UNL     1      -9.695   2.787 -31.970  1.00  0.00     0.019 A 
HETATM    3  C   UNL     1      -8.659   1.847 -32.064  1.00  0.00     0.030 A 
HETATM    4  C   UNL     1      -8.721   0.809 -32.996  1.00  0.00     0.035 A 
HETATM    5  C   UNL     1      -9.839   0.721 -33.835  1.00  0.00     0.030 A 
HETATM    6  C   UNL     1     -10.874   1.658 -33.745  1.00  0.00     0.019 A 
ENDROOT
BRANCH   4   7
HETATM    7  N   UNL     1      -7.734  -0.187 -33.134  1.00  0.00    -0.323 N 
HETATM    8  C   UNL     1      -6.890  -0.391 -34.210  1.00  0.00     0.257 C 
HETATM    9  O   UNL     1      -6.921   0.189 -35.288  1.00  0.00    -0.267 OA
HETATM   10  H   UNL     1      -7.663  -0.846 -32.368  1.00  0.00     0.169 HD
BRANCH   8  11
HETATM   11  C   UNL     1      -5.894  -1.473 -34.032  1.00  0.00     0.047 A 
HETATM   12  C   UNL     1      -4.805  -1.378 -33.143  1.00  0.00     0.027 A 
HETATM   13  C   UNL     1      -3.964  -2.486 -33.077  1.00  0.00     0.138 A 
HETATM   14  C   UNL     1      -4.253  -0.409 -32.253  1.00  0.00     0.033 A 
HETATM   15  N   UNL     1      -2.976  -2.224 -32.168  1.00  0.00    -0.350 N 
HETATM   16  N   UNL     1      -4.060  -3.634 -33.771  1.00  0.00    -0.242 NA
HETATM   17  H   UNL     1      -2.237  -2.875 -31.945  1.00  0.00     0.166 HD
HETATM   18  C   UNL     1      -3.139  -0.962 -31.660  1.00  0.00     0.090 A 
HETATM   19  C   UNL     1      -5.100  -3.654 -34.633  1.00  0.00     0.120 A 
HETATM   20  C   UNL     1      -6.021  -2.633 -34.805  1.00  0.00     0.037 A 
ENDBRANCH   8  11
ENDBRANCH   4   7
BRANCH   1  21
HETATM   21  C   UNL     1     -11.943   3.665 -32.750  1.00  0.00     0.251 C 
HETATM   22  N   UNL     1     -12.766   3.579 -31.650  1.00  0.00    -0.352 N 
HETATM   23  H   UNL     1     -12.456   3.067 -30.836  1.00  0.00     0.163 HD
HETATM   24  O   UNL     1     -12.098   4.499 -33.636  1.00  0.00    -0.268 OA
BRANCH  22  25
HETATM   25  C   UNL     1     -13.812   4.556 -31.446  1.00  0.00     0.169 C 
BRANCH  25  26
HETATM   26  C   UNL     1     -15.125   3.920 -31.762  1.00  0.00     0.000 A 
HETATM   27  S   UNL     1     -16.558   4.863 -31.809  1.00  0.00    -0.105 SA
HETATM   28  C   UNL     1     -17.516   3.503 -32.202  1.00  0.00     0.050 A 
HETATM   29  C   UNL     1     -16.766   2.353 -32.299  1.00  0.00     0.008 A 
HETATM   30  C   UNL     1     -15.386   2.592 -32.043  1.00  0.00     0.017 A 
ENDBRANCH  25  26
ENDBRANCH  22  25
ENDBRANCH   1  21
TORSDOF 5
ENDMDL
MODEL 5
REMARK VINA RESULT:      -7.7      3.293     10.074
REMARK  5 active torsions:
REMARK  status: ('A' for Active; 'I' for Inactive)
REMARK    1  A    between atoms: C_4  and  C_5 
REMARK    2  A    between atoms: C_5  and  N_6 
REMARK       I    between atoms: N_6  and  C_7 
REMARK    3  A    between atoms: C_7  and  C_8 
REMARK    4  A    between atoms: C_11  and  N_12 
REMARK       I    between atoms: N_12  and  C_13 
REMARK    5  A    between atoms: C_13  and  C_14 
ROOT
HETATM    1  C   UNL     1      -3.493   4.727 -31.291  1.00  0.00     0.032 A 
HETATM    2  C   UNL     1      -4.387   3.905 -30.596  1.00  0.00     0.019 A 
HETATM    3  C   UNL     1      -4.588   2.578 -30.998  1.00  0.00     0.030 A 
HETATM    4  C   UNL     1      -3.907   2.056 -32.101  1.00  0.00     0.035 A 
HETATM    5  C   UNL     1      -3.021   2.884 -32.800  1.00  0.00     0.030 A 
HETATM    6  C   UNL     1      -2.817   4.210 -32.402  1.00  0.00     0.019 A 
ENDROOT
BRANCH   4   7
HETATM    7  N   UNL     1      -4.074   0.742 -32.581  1.00  0.00    -0.323 N 
HETATM    8  C   UNL     1      -5.243   0.149 -33.019  1.00  0.00     0.257 C 
HETATM    9  O   UNL     1      -6.372   0.623 -32.967  1.00  0.00    -0.267 OA
HETATM   10  H   UNL     1      -3.245   0.160 -32.569  1.00  0.00     0.169 HD
BRANCH   8  11
HETATM   11  C   UNL     1      -5.093  -1.227 -33.546  1.00  0.00     0.047 A 
HETATM   12  C   UNL     1      -4.234  -2.183 -32.968  1.00  0.00     0.027 A 
HETATM   13  C   UNL     1      -4.214  -3.439 -33.568  1.00  0.00     0.138 A 
HETATM   14  C   UNL     1      -3.293  -2.241 -31.896  1.00  0.00     0.033 A 
HETATM   15  N   UNL     1      -3.339  -4.233 -32.879  1.00  0.00    -0.350 N 
HETATM   16  N   UNL     1      -4.910  -3.847 -34.644  1.00  0.00    -0.242 NA
HETATM   17  H   UNL     1      -3.145  -5.193 -33.124  1.00  0.00     0.166 HD
HETATM   18  C   UNL     1      -2.770  -3.516 -31.859  1.00  0.00     0.090 A 
HETATM   19  C   UNL     1      -5.687  -2.879 -35.178  1.00  0.00     0.120 A 
HETATM   20  C   UNL     1      -5.814  -1.589 -34.690  1.00  0.00     0.037 A 
ENDBRANCH   8  11
ENDBRANCH   4   7
BRANCH   1  21
HETATM   21  C   UNL     1      -3.252   6.151 -30.918  1.00  0.00     0.251 C 
HETATM   22  N   UNL     1      -2.772   6.390 -29.650  1.00  0.00    -0.352 N 
HETATM   23  H   UNL     1      -2.377   5.628 -29.116  1.00  0.00     0.163 HD
HETATM   24  O   UNL     1      -3.456   7.044 -31.733  1.00  0.00    -0.268 OA
BRANCH  22  25
HETATM   25  C   UNL     1      -2.392   7.728 -29.256  1.00  0.00     0.169 C 
BRANCH  25  26
HETATM   26  C   UNL     1      -1.132   7.649 -28.457  1.00  0.00     0.000 A 
HETATM   27  S   UNL     1      -1.175   7.147 -26.817  1.00  0.00    -0.105 SA
HETATM   28  C   UNL     1       0.518   7.318 -26.655  1.00  0.00     0.050 A 
HETATM   29  C   UNL     1       1.109   7.745 -27.822  1.00  0.00     0.008 A 
HETATM   30  C   UNL     1       0.156   7.938 -28.863  1.00  0.00     0.017 A 
ENDBRANCH  25  26
ENDBRANCH  22  25
ENDBRANCH   1  21
TORSDOF 5
ENDMDL
MODEL 6
REMARK VINA RESULT:      -7.6      0.980      2.040
REMARK  5 active torsions:
REMARK  status: ('A' for Active; 'I' for Inactive)
REMARK    1  A    between atoms: C_4  and  C_5 
REMARK    2  A    between atoms: C_5  and  N_6 
REMARK       I    between atoms: N_6  and  C_7 
REMARK    3  A    between atoms: C_7  and  C_8 
REMARK    4  A    between atoms: C_11  and  N_12 
REMARK       I    between atoms: N_12  and  C_13 
REMARK    5  A    between atoms: C_13  and  C_14 
ROOT
HETATM    1  C   UNL     1      -5.874   1.453 -32.792  1.00  0.00     0.032 A 
HETATM    2  C   UNL     1      -5.875   2.682 -33.461  1.00  0.00     0.019 A 
HETATM    3  C   UNL     1      -5.173   3.775 -32.935  1.00  0.00     0.030 A 
HETATM    4  C   UNL     1      -4.469   3.660 -31.734  1.00  0.00     0.035 A 
HETATM    5  C   UNL     1      -4.478   2.431 -31.062  1.00  0.00     0.030 A 
HETATM    6  C   UNL     1      -5.178   1.337 -31.584  1.00  0.00     0.019 A 
ENDROOT
BRANCH   4   7
HETATM    7  N   UNL     1      -3.761   4.718 -31.130  1.00  0.00    -0.323 N 
HETATM    8  C   UNL     1      -2.433   5.055 -31.316  1.00  0.00     0.257 C 
HETATM    9  O   UNL     1      -1.599   4.428 -31.957  1.00  0.00    -0.267 OA
HETATM   10  H   UNL     1      -4.281   5.269 -30.458  1.00  0.00     0.169 HD
BRANCH   8  11
HETATM   11  C   UNL     1      -1.988   6.275 -30.603  1.00  0.00     0.047 A 
HETATM   12  C   UNL     1      -0.859   6.305 -29.761  1.00  0.00     0.027 A 
HETATM   13  C   UNL     1      -0.559   7.531 -29.174  1.00  0.00     0.138 A 
HETATM   14  C   UNL     1       0.117   5.384 -29.274  1.00  0.00     0.033 A 
HETATM   15  N   UNL     1       0.560   7.378 -28.403  1.00  0.00    -0.350 N 
HETATM   16  N   UNL     1      -1.227   8.691 -29.305  1.00  0.00    -0.242 NA
HETATM   17  H   UNL     1       0.976   8.127 -27.868  1.00  0.00     0.166 HD
HETATM   18  C   UNL     1       0.982   6.075 -28.453  1.00  0.00     0.090 A 
HETATM   19  C   UNL     1      -2.320   8.594 -30.094  1.00  0.00     0.120 A 
HETATM   20  C   UNL     1      -2.740   7.447 -30.748  1.00  0.00     0.037 A 
ENDBRANCH   8  11
ENDBRANCH   4   7
BRANCH   1  21
HETATM   21  C   UNL     1      -6.617   0.262 -33.296  1.00  0.00     0.251 C 
HETATM   22  N   UNL     1      -6.051  -0.425 -34.347  1.00  0.00    -0.352 N 
HETATM   23  H   UNL     1      -5.080  -0.269 -34.578  1.00  0.00     0.163 HD
HETATM   24  O   UNL     1      -7.665  -0.081 -32.762  1.00  0.00    -0.268 OA
BRANCH  22  25
HETATM   25  C   UNL     1      -6.641  -1.662 -34.808  1.00  0.00     0.169 C 
BRANCH  25  26
HETATM   26  C   UNL     1      -5.692  -2.778 -34.517  1.00  0.00     0.000 A 
HETATM   27  S   UNL     1      -6.094  -4.391 -34.942  1.00  0.00    -0.105 SA
HETATM   28  C   UNL     1      -4.617  -4.989 -34.323  1.00  0.00     0.050 A 
HETATM   29  C   UNL     1      -3.829  -3.986 -33.805  1.00  0.00     0.008 A 
HETATM   30  C   UNL     1      -4.450  -2.710 -33.915  1.00  0.00     0.017 A 
ENDBRANCH  25  26
ENDBRANCH  22  25
ENDBRANCH   1  21
TORSDOF 5
ENDMDL
MODEL 7
REMARK VINA RESULT:      -7.6      3.403      9.937
REMARK  5 active torsions:
REMARK  status: ('A' for Active; 'I' for Inactive)
REMARK    1  A    between atoms: C_4  and  C_5 
REMARK    2  A    between atoms: C_5  and  N_6 
REMARK       I    between atoms: N_6  and  C_7 
REMARK    3  A    between atoms: C_7  and  C_8 
REMARK    4  A    between atoms: C_11  and  N_12 
REMARK       I    between atoms: N_12  and  C_13 
REMARK    5  A    between atoms: C_13  and  C_14 
ROOT
HETATM    1  C   UNL     1      -3.282   5.294 -31.213  1.00  0.00     0.032 A 
HETATM    2  C   UNL     1      -2.448   4.810 -32.227  1.00  0.00     0.019 A 
HETATM    3  C   UNL     1      -2.652   3.530 -32.760  1.00  0.00     0.030 A 
HETATM    4  C   UNL     1      -3.683   2.715 -32.285  1.00  0.00     0.035 A 
HETATM    5  C   UNL     1      -4.509   3.199 -31.264  1.00  0.00     0.030 A 
HETATM    6  C   UNL     1      -4.309   4.476 -30.729  1.00  0.00     0.019 A 
ENDROOT
BRANCH   4   7
HETATM    7  N   UNL     1      -3.935   1.410 -32.752  1.00  0.00    -0.323 N 
HETATM    8  C   UNL     1      -3.780   0.224 -32.058  1.00  0.00     0.257 C 
HETATM    9  O   UNL     1      -3.288   0.083 -30.945  1.00  0.00    -0.267 OA
HETATM   10  H   UNL     1      -4.232   1.337 -33.718  1.00  0.00     0.169 HD
BRANCH   8  11
HETATM   11  C   UNL     1      -4.205  -0.992 -32.788  1.00  0.00     0.047 A 
HETATM   12  C   UNL     1      -5.335  -1.031 -33.629  1.00  0.00     0.027 A 
HETATM   13  C   UNL     1      -5.596  -2.245 -34.258  1.00  0.00     0.138 A 
HETATM   14  C   UNL     1      -6.379  -0.144 -34.030  1.00  0.00     0.033 A 
HETATM   15  N   UNL     1      -6.714  -2.098 -35.032  1.00  0.00    -0.350 N 
HETATM   16  N   UNL     1      -4.903  -3.392 -34.151  1.00  0.00    -0.242 NA
HETATM   17  H   UNL     1      -7.111  -2.843 -35.587  1.00  0.00     0.166 HD
HETATM   18  C   UNL     1      -7.203  -0.824 -34.901  1.00  0.00     0.090 A 
HETATM   19  C   UNL     1      -3.853  -3.307 -33.305  1.00  0.00     0.120 A 
HETATM   20  C   UNL     1      -3.467  -2.170 -32.614  1.00  0.00     0.037 A 
ENDBRANCH   8  11
ENDBRANCH   4   7
BRANCH   1  21
HETATM   21  C   UNL     1      -3.102   6.641 -30.597  1.00  0.00     0.251 C 
HETATM   22  N   UNL     1      -2.774   6.675 -29.260  1.00  0.00    -0.352 N 
HETATM   23  H   UNL     1      -2.436   5.836 -28.810  1.00  0.00     0.163 HD
HETATM   24  O   UNL     1      -3.219   7.652 -31.281  1.00  0.00    -0.268 OA
BRANCH  22  25
HETATM   25  C   UNL     1      -2.456   7.931 -28.621  1.00  0.00     0.169 C 
BRANCH  25  26
HETATM   26  C   UNL     1      -1.089   7.831 -28.028  1.00  0.00     0.000 A 
HETATM   27  S   UNL     1      -0.882   7.315 -26.405  1.00  0.00    -0.105 SA
HETATM   28  C   UNL     1       0.817   7.465 -26.507  1.00  0.00     0.050 A 
HETATM   29  C   UNL     1       1.225   7.896 -27.749  1.00  0.00     0.008 A 
HETATM   30  C   UNL     1       0.125   8.109 -28.627  1.00  0.00     0.017 A 
ENDBRANCH  25  26
ENDBRANCH  22  25
ENDBRANCH   1  21
TORSDOF 5
ENDMDL
MODEL 8
REMARK VINA RESULT:      -7.5      6.633     10.193
REMARK  5 active torsions:
REMARK  status: ('A' for Active; 'I' for Inactive)
REMARK    1  A    between atoms: C_4  and  C_5 
REMARK    2  A    between atoms: C_5  and  N_6 
REMARK       I    between atoms: N_6  and  C_7 
REMARK    3  A    between atoms: C_7  and  C_8 
REMARK    4  A    between atoms: C_11  and  N_12 
REMARK       I    between atoms: N_12  and  C_13 
REMARK    5  A    between atoms: C_13  and  C_14 
ROOT
HETATM    1  C   UNL     1      -8.579   1.161 -33.748  1.00  0.00     0.032 A 
HETATM    2  C   UNL     1      -9.592   0.226 -33.509  1.00  0.00     0.019 A 
HETATM    3  C   UNL     1     -10.889   0.653 -33.189  1.00  0.00     0.030 A 
HETATM    4  C   UNL     1     -11.189   2.014 -33.097  1.00  0.00     0.035 A 
HETATM    5  C   UNL     1     -10.170   2.946 -33.327  1.00  0.00     0.030 A 
HETATM    6  C   UNL     1      -8.875   2.525 -33.646  1.00  0.00     0.019 A 
ENDROOT
BRANCH   4   7
HETATM    7  N   UNL     1     -12.459   2.520 -32.756  1.00  0.00    -0.323 N 
HETATM    8  C   UNL     1     -13.644   2.351 -33.448  1.00  0.00     0.257 C 
HETATM    9  O   UNL     1     -13.786   1.823 -34.545  1.00  0.00    -0.267 OA
HETATM   10  H   UNL     1     -12.495   3.100 -31.927  1.00  0.00     0.169 HD
BRANCH   8  11
HETATM   11  C   UNL     1     -14.840   2.935 -32.800  1.00  0.00     0.047 A 
HETATM   12  C   UNL     1     -14.907   4.276 -32.373  1.00  0.00     0.027 A 
HETATM   13  C   UNL     1     -16.107   4.681 -31.794  1.00  0.00     0.138 A 
HETATM   14  C   UNL     1     -14.042   5.411 -32.326  1.00  0.00     0.033 A 
HETATM   15  N   UNL     1     -15.996   6.000 -31.448  1.00  0.00    -0.350 N 
HETATM   16  N   UNL     1     -17.209   3.940 -31.583  1.00  0.00    -0.242 NA
HETATM   17  H   UNL     1     -16.736   6.525 -31.005  1.00  0.00     0.166 HD
HETATM   18  C   UNL     1     -14.744   6.457 -31.765  1.00  0.00     0.090 A 
HETATM   19  C   UNL     1     -17.075   2.655 -31.978  1.00  0.00     0.120 A 
HETATM   20  C   UNL     1     -15.949   2.110 -32.572  1.00  0.00     0.037 A 
ENDBRANCH   8  11
ENDBRANCH   4   7
BRANCH   1  21
HETATM   21  C   UNL     1      -7.179   0.764 -34.076  1.00  0.00     0.251 C 
HETATM   22  N   UNL     1      -6.750  -0.455 -33.600  1.00  0.00    -0.352 N 
HETATM   23  H   UNL     1      -7.430  -1.128 -33.273  1.00  0.00     0.163 HD
HETATM   24  O   UNL     1      -6.475   1.498 -34.761  1.00  0.00    -0.268 OA
BRANCH  22  25
HETATM   25  C   UNL     1      -5.454  -0.969 -33.980  1.00  0.00     0.169 C 
BRANCH  25  26
HETATM   26  C   UNL     1      -5.592  -2.423 -34.293  1.00  0.00     0.000 A 
HETATM   27  S   UNL     1      -4.251  -3.479 -34.116  1.00  0.00    -0.105 SA
HETATM   28  C   UNL     1      -5.167  -4.829 -34.627  1.00  0.00     0.050 A 
HETATM   29  C   UNL     1      -6.467  -4.489 -34.925  1.00  0.00     0.008 A 
HETATM   30  C   UNL     1      -6.713  -3.100 -34.734  1.00  0.00     0.017 A 
ENDBRANCH  25  26
ENDBRANCH  22  25
ENDBRANCH   1  21
TORSDOF 5
ENDMDL
MODEL 9
REMARK VINA RESULT:      -7.3      3.370     10.114
REMARK  5 active torsions:
REMARK  status: ('A' for Active; 'I' for Inactive)
REMARK    1  A    between atoms: C_4  and  C_5 
REMARK    2  A    between atoms: C_5  and  N_6 
REMARK       I    between atoms: N_6  and  C_7 
REMARK    3  A    between atoms: C_7  and  C_8 
REMARK    4  A    between atoms: C_11  and  N_12 
REMARK       I    between atoms: N_12  and  C_13 
REMARK    5  A    between atoms: C_13  and  C_14 
ROOT
HETATM    1  C   UNL     1      -2.989   6.204 -31.143  1.00  0.00     0.032 A 
HETATM    2  C   UNL     1      -4.355   5.978 -31.339  1.00  0.00     0.019 A 
HETATM    3  C   UNL     1      -4.802   4.757 -31.863  1.00  0.00     0.030 A 
HETATM    4  C   UNL     1      -3.894   3.752 -32.205  1.00  0.00     0.035 A 
HETATM    5  C   UNL     1      -2.527   3.986 -32.017  1.00  0.00     0.030 A 
HETATM    6  C   UNL     1      -2.076   5.204 -31.495  1.00  0.00     0.019 A 
ENDROOT
BRANCH   4   7
HETATM    7  N   UNL     1      -4.264   2.510 -32.759  1.00  0.00    -0.323 N 
HETATM    8  C   UNL     1      -4.731   1.396 -32.087  1.00  0.00     0.257 C 
HETATM    9  O   UNL     1      -4.804   1.247 -30.873  1.00  0.00    -0.267 OA
HETATM   10  H   UNL     1      -4.139   2.419 -33.759  1.00  0.00     0.169 HD
BRANCH   8  11
HETATM   11  C   UNL     1      -5.118   0.257 -32.950  1.00  0.00     0.047 A 
HETATM   12  C   UNL     1      -4.516  -1.014 -32.864  1.00  0.00     0.027 A 
HETATM   13  C   UNL     1      -5.000  -1.988 -33.734  1.00  0.00     0.138 A 
HETATM   14  C   UNL     1      -3.466  -1.633 -32.122  1.00  0.00     0.033 A 
HETATM   15  N   UNL     1      -4.312  -3.148 -33.509  1.00  0.00    -0.350 N 
HETATM   16  N   UNL     1      -5.969  -1.856 -34.657  1.00  0.00    -0.242 NA
HETATM   17  H   UNL     1      -4.478  -4.003 -34.021  1.00  0.00     0.166 HD
HETATM   18  C   UNL     1      -3.373  -2.947 -32.531  1.00  0.00     0.090 A 
HETATM   19  C   UNL     1      -6.484  -0.609 -34.720  1.00  0.00     0.120 A 
HETATM   20  C   UNL     1      -6.109   0.457 -33.919  1.00  0.00     0.037 A 
ENDBRANCH   8  11
ENDBRANCH   4   7
BRANCH   1  21
HETATM   21  C   UNL     1      -2.455   7.490 -30.606  1.00  0.00     0.251 C 
HETATM   22  N   UNL     1      -2.488   7.654 -29.239  1.00  0.00    -0.352 N 
HETATM   23  H   UNL     1      -2.632   6.850 -28.645  1.00  0.00     0.163 HD
HETATM   24  O   UNL     1      -1.990   8.330 -31.368  1.00  0.00    -0.268 OA
BRANCH  22  25
HETATM   25  C   UNL     1      -1.874   8.813 -28.631  1.00  0.00     0.169 C 
BRANCH  25  26
HETATM   26  C   UNL     1      -0.674   8.366 -27.863  1.00  0.00     0.000 A 
HETATM   27  S   UNL     1      -0.837   7.796 -26.252  1.00  0.00    -0.105 SA
HETATM   28  C   UNL     1       0.844   7.517 -26.114  1.00  0.00     0.050 A 
HETATM   29  C   UNL     1       1.520   7.847 -27.267  1.00  0.00     0.008 A 
HETATM   30  C   UNL     1       0.644   8.339 -28.276  1.00  0.00     0.017 A 
ENDBRANCH  25  26
ENDBRANCH  22  25
ENDBRANCH   1  21
TORSDOF 5
ENDMDL
MODEL 10
REMARK VINA RESULT:      -7.2     17.945     19.546
REMARK  5 active torsions:
REMARK  status: ('A' for Active; 'I' for Inactive)
REMARK    1  A    between atoms: C_4  and  C_5 
REMARK    2  A    between atoms: C_5  and  N_6 
REMARK       I    between atoms: N_6  and  C_7 
REMARK    3  A    between atoms: C_7  and  C_8 
REMARK    4  A    between atoms: C_11  and  N_12 
REMARK       I    between atoms: N_12  and  C_13 
REMARK    5  A    between atoms: C_13  and  C_14 
ROOT
HETATM    1  C   UNL     1      -5.614 -15.499 -31.908  1.00  0.00     0.032 A 
HETATM    2  C   UNL     1      -6.340 -16.372 -32.725  1.00  0.00     0.019 A 
HETATM    3  C   UNL     1      -6.841 -15.936 -33.959  1.00  0.00     0.030 A 
HETATM    4  C   UNL     1      -6.630 -14.624 -34.390  1.00  0.00     0.035 A 
HETATM    5  C   UNL     1      -5.911 -13.750 -33.566  1.00  0.00     0.030 A 
HETATM    6  C   UNL     1      -5.410 -14.181 -32.333  1.00  0.00     0.019 A 
ENDROOT
BRANCH   4   7
HETATM    7  N   UNL     1      -7.122 -14.105 -35.605  1.00  0.00    -0.323 N 
HETATM    8  C   UNL     1      -6.634 -14.338 -36.877  1.00  0.00     0.257 C 
HETATM    9  O   UNL     1      -5.616 -14.952 -37.173  1.00  0.00    -0.267 OA
HETATM   10  H   UNL     1      -7.900 -13.462 -35.526  1.00  0.00     0.169 HD
BRANCH   8  11
HETATM   11  C   UNL     1      -7.412 -13.717 -37.973  1.00  0.00     0.047 A 
HETATM   12  C   UNL     1      -6.819 -12.980 -39.017  1.00  0.00     0.027 A 
HETATM   13  C   UNL     1      -7.683 -12.470 -39.983  1.00  0.00     0.138 A 
HETATM   14  C   UNL     1      -5.510 -12.545 -39.387  1.00  0.00     0.033 A 
HETATM   15  N   UNL     1      -6.941 -11.795 -40.913  1.00  0.00    -0.350 N 
HETATM   16  N   UNL     1      -9.021 -12.588 -40.032  1.00  0.00    -0.242 NA
HETATM   17  H   UNL     1      -7.341 -11.329 -41.714  1.00  0.00     0.166 HD
HETATM   18  C   UNL     1      -5.616 -11.831 -40.562  1.00  0.00     0.090 A 
HETATM   19  C   UNL     1      -9.538 -13.272 -38.989  1.00  0.00     0.120 A 
HETATM   20  C   UNL     1      -8.807 -13.840 -37.958  1.00  0.00     0.037 A 
ENDBRANCH   8  11
ENDBRANCH   4   7
BRANCH   1  21
HETATM   21  C   UNL     1      -5.073 -15.903 -30.578  1.00  0.00     0.251 C 
HETATM   22  N   UNL     1      -3.944 -16.692 -30.579  1.00  0.00    -0.352 N 
HETATM   23  H   UNL     1      -3.392 -16.769 -31.422  1.00  0.00     0.163 HD
HETATM   24  O   UNL     1      -5.613 -15.513 -29.549  1.00  0.00    -0.268 OA
BRANCH  22  25
HETATM   25  C   UNL     1      -3.285 -17.019 -29.335  1.00  0.00     0.169 C 
BRANCH  25  26
HETATM   26  C   UNL     1      -2.037 -16.205 -29.230  1.00  0.00     0.000 A 
HETATM   27  S   UNL     1      -0.935 -16.469 -27.941  1.00  0.00    -0.105 SA
HETATM   28  C   UNL     1       0.116 -15.245 -28.507  1.00  0.00     0.050 A 
HETATM   29  C   UNL     1      -0.355 -14.647 -29.653  1.00  0.00     0.008 A 
HETATM   30  C   UNL     1      -1.600 -15.199 -30.070  1.00  0.00     0.017 A 
ENDBRANCH  25  26
ENDBRANCH  22  25
ENDBRANCH   1  21
TORSDOF 5
ENDMDL
