MODEL 1
REMARK VINA RESULT:      -8.3      0.000      0.000
REMARK  9 active torsions:
REMARK  status: ('A' for Active; 'I' for Inactive)
REMARK    1  A    between atoms: C_2  and  N_3 
REMARK    2  A    between atoms: N_3  and  C_5 
REMARK    3  A    between atoms: N_3  and  C_33 
REMARK    4  A    between atoms: C_5  and  C_6 
REMARK    5  A    between atoms: C_6  and  N_7 
REMARK       I    between atoms: N_7  and  C_8 
REMARK    6  A    between atoms: C_8  and  C_9 
REMARK    7  A    between atoms: N_15  and  C_16 
REMARK    8  A    between atoms: C_16  and  C_17 
REMARK       I    between atoms: C_17  and  N_18 
REMARK    9  A    between atoms: N_18  and  C_19 
ROOT
HETATM    1  C   UNL     1      -3.484   5.624 -31.308  1.00  0.00     0.081 A 
HETATM    2  S   UNL     1      -4.728   5.591 -30.126  1.00  0.00    -0.063 SA
HETATM    3  C   UNL     1      -5.789   4.760 -31.155  1.00  0.00     0.116 A 
HETATM    4  C   UNL     1      -5.226   4.511 -32.386  1.00  0.00     0.075 A 
HETATM    5  C   UNL     1      -6.015   3.729 -33.332  1.00  0.00     0.262 A 
HETATM    6  O   UNL     1      -5.600   3.413 -34.444  1.00  0.00    -0.267 OA
HETATM    7  N   UNL     1      -7.269   3.354 -32.855  1.00  0.00    -0.299 N 
HETATM    8  C   UNL     1      -7.691   3.686 -31.582  1.00  0.00     0.214 A 
HETATM    9  N   UNL     1      -7.020   4.388 -30.726  1.00  0.00    -0.235 NA
HETATM   10  C   UNL     1      -3.897   5.065 -32.513  1.00  0.00    -0.021 A 
HETATM   11  C   UNL     1      -3.050   4.972 -33.746  1.00  0.00     0.051 C 
ENDROOT
BRANCH   7  12
HETATM   12  C   UNL     1      -8.059   2.434 -33.660  1.00  0.00     0.236 C 
BRANCH  12  13
HETATM   13  C   UNL     1      -7.626   0.995 -33.348  1.00  0.00     0.240 C 
HETATM   14  N   UNL     1      -6.670   0.517 -34.232  1.00  0.00    -0.326 N 
HETATM   15  H   UNL     1      -6.360   1.141 -34.967  1.00  0.00     0.169 HD
HETATM   16  O   UNL     1      -8.152   0.358 -32.439  1.00  0.00    -0.271 OA
BRANCH  14  17
HETATM   17  C   UNL     1      -6.061  -0.758 -34.219  1.00  0.00     0.036 A 
HETATM   18  C   UNL     1      -6.612  -1.897 -34.808  1.00  0.00     0.053 A 
HETATM   19  C   UNL     1      -5.946  -3.128 -34.740  1.00  0.00     0.042 A 
HETATM   20 CL   UNL     1      -6.703  -4.495 -35.481  1.00  0.00    -0.084 Cl
HETATM   21  C   UNL     1      -4.711  -3.243 -34.088  1.00  0.00    -0.040 A 
HETATM   22  C   UNL     1      -3.978  -4.552 -33.995  1.00  0.00     0.050 C 
HETATM   23  C   UNL     1      -4.163  -2.098 -33.496  1.00  0.00     0.011 A 
HETATM   24  C   UNL     1      -4.831  -0.871 -33.560  1.00  0.00     0.030 A 
ENDBRANCH  14  17
ENDBRANCH  12  13
ENDBRANCH   7  12
BRANCH   1  25
HETATM   25  C   UNL     1      -2.199   6.213 -30.968  1.00  0.00     0.259 C 
HETATM   26  N   UNL     1      -1.341   5.398 -30.244  1.00  0.00    -0.355 N 
HETATM   27  H   UNL     1      -1.625   4.422 -30.212  1.00  0.00     0.162 HD
HETATM   28  O   UNL     1      -1.848   7.352 -31.266  1.00  0.00    -0.267 OA
BRANCH  26  29
HETATM   29  C   UNL     1       0.086   5.680 -30.160  1.00  0.00     0.150 C 
BRANCH  29  30
HETATM   30  C   UNL     1       0.623   5.915 -28.735  1.00  0.00     0.254 C 
BRANCH  30  31
HETATM   31  N   UNL     1      -0.348   6.741 -27.897  1.00  0.00    -0.070 N 
HETATM   32  H   UNL     1      -1.245   6.629 -28.392  1.00  0.00     0.279 HD
BRANCH  31  33
HETATM   33  C   UNL     1      -0.039   8.223 -27.923  1.00  0.00     0.230 C 
HETATM   34  C   UNL     1       1.446   8.473 -27.727  1.00  0.00     0.034 C 
ENDBRANCH  31  33
BRANCH  31  35
HETATM   35  C   UNL     1      -0.603   6.216 -26.501  1.00  0.00     0.230 C 
HETATM   36  C   UNL     1      -1.933   6.681 -25.937  1.00  0.00     0.034 C 
ENDBRANCH  31  35
ENDBRANCH  30  31
ENDBRANCH  29  30
ENDBRANCH  26  29
ENDBRANCH   1  25
TORSDOF 9
ENDMDL
MODEL 2
REMARK VINA RESULT:      -8.3      3.861     10.472
REMARK  9 active torsions:
REMARK  status: ('A' for Active; 'I' for Inactive)
REMARK    1  A    between atoms: C_2  and  N_3 
REMARK    2  A    between atoms: N_3  and  C_5 
REMARK    3  A    between atoms: N_3  and  C_33 
REMARK    4  A    between atoms: C_5  and  C_6 
REMARK    5  A    between atoms: C_6  and  N_7 
REMARK       I    between atoms: N_7  and  C_8 
REMARK    6  A    between atoms: C_8  and  C_9 
REMARK    7  A    between atoms: N_15  and  C_16 
REMARK    8  A    between atoms: C_16  and  C_17 
REMARK       I    between atoms: C_17  and  N_18 
REMARK    9  A    between atoms: N_18  and  C_19 
ROOT
HETATM    1  C   UNL     1      -5.362   2.222 -32.840  1.00  0.00     0.081 A 
HETATM    2  S   UNL     1      -5.953   3.409 -33.928  1.00  0.00    -0.063 SA
HETATM    3  C   UNL     1      -4.602   4.407 -33.695  1.00  0.00     0.116 A 
HETATM    4  C   UNL     1      -3.708   3.866 -32.799  1.00  0.00     0.075 A 
HETATM    5  C   UNL     1      -2.465   4.595 -32.576  1.00  0.00     0.262 A 
HETATM    6  O   UNL     1      -1.578   4.188 -31.830  1.00  0.00    -0.267 OA
HETATM    7  N   UNL     1      -2.362   5.780 -33.302  1.00  0.00    -0.299 N 
HETATM    8  C   UNL     1      -3.357   6.189 -34.169  1.00  0.00     0.214 A 
HETATM    9  N   UNL     1      -4.475   5.571 -34.377  1.00  0.00    -0.235 NA
HETATM   10  C   UNL     1      -4.168   2.614 -32.241  1.00  0.00    -0.021 A 
HETATM   11  C   UNL     1      -3.418   1.807 -31.224  1.00  0.00     0.051 C 
ENDROOT
BRANCH   7  12
HETATM   12  C   UNL     1      -1.092   6.490 -33.274  1.00  0.00     0.236 C 
BRANCH  12  13
HETATM   13  C   UNL     1      -1.136   7.553 -32.168  1.00  0.00     0.240 C 
HETATM   14  N   UNL     1      -0.680   7.080 -30.947  1.00  0.00    -0.326 N 
HETATM   15  H   UNL     1      -0.370   6.116 -30.905  1.00  0.00     0.169 HD
HETATM   16  O   UNL     1      -1.599   8.671 -32.381  1.00  0.00    -0.271 OA
BRANCH  14  17
HETATM   17  C   UNL     1      -0.585   7.801 -29.735  1.00  0.00     0.036 A 
HETATM   18  C   UNL     1       0.550   7.823 -28.923  1.00  0.00     0.053 A 
HETATM   19  C   UNL     1       0.557   8.556 -27.729  1.00  0.00     0.042 A 
HETATM   20 CL   UNL     1       1.997   8.519 -26.770  1.00  0.00    -0.084 Cl
HETATM   21  C   UNL     1      -0.568   9.288 -27.326  1.00  0.00    -0.040 A 
HETATM   22  C   UNL     1      -0.589  10.078 -26.048  1.00  0.00     0.050 C 
HETATM   23  C   UNL     1      -1.705   9.261 -28.143  1.00  0.00     0.011 A 
HETATM   24  C   UNL     1      -1.713   8.524 -29.332  1.00  0.00     0.030 A 
ENDBRANCH  14  17
ENDBRANCH  12  13
ENDBRANCH   7  12
BRANCH   1  25
HETATM   25  C   UNL     1      -6.125   1.000 -32.641  1.00  0.00     0.259 C 
HETATM   26  N   UNL     1      -6.118   0.113 -33.707  1.00  0.00    -0.355 N 
HETATM   27  H   UNL     1      -5.422   0.322 -34.417  1.00  0.00     0.162 HD
HETATM   28  O   UNL     1      -6.757   0.725 -31.624  1.00  0.00    -0.267 OA
BRANCH  26  29
HETATM   29  C   UNL     1      -6.496  -1.285 -33.535  1.00  0.00     0.150 C 
BRANCH  29  30
HETATM   30  C   UNL     1      -6.282  -2.176 -34.774  1.00  0.00     0.254 C 
BRANCH  30  31
HETATM   31  N   UNL     1      -5.033  -3.041 -34.636  1.00  0.00    -0.070 N 
HETATM   32  H   UNL     1      -4.484  -2.801 -35.475  1.00  0.00     0.279 HD
BRANCH  31  33
HETATM   33  C   UNL     1      -5.325  -4.523 -34.737  1.00  0.00     0.230 C 
HETATM   34  C   UNL     1      -6.649  -4.770 -35.439  1.00  0.00     0.034 C 
ENDBRANCH  31  33
BRANCH  31  35
HETATM   35  C   UNL     1      -4.135  -2.696 -33.468  1.00  0.00     0.230 C 
HETATM   36  C   UNL     1      -3.453  -3.915 -32.876  1.00  0.00     0.034 C 
ENDBRANCH  31  35
ENDBRANCH  30  31
ENDBRANCH  29  30
ENDBRANCH  26  29
ENDBRANCH   1  25
TORSDOF 9
ENDMDL
MODEL 3
REMARK VINA RESULT:      -8.1      3.468     10.321
REMARK  9 active torsions:
REMARK  status: ('A' for Active; 'I' for Inactive)
REMARK    1  A    between atoms: C_2  and  N_3 
REMARK    2  A    between atoms: N_3  and  C_5 
REMARK    3  A    between atoms: N_3  and  C_33 
REMARK    4  A    between atoms: C_5  and  C_6 
REMARK    5  A    between atoms: C_6  and  N_7 
REMARK       I    between atoms: N_7  and  C_8 
REMARK    6  A    between atoms: C_8  and  C_9 
REMARK    7  A    between atoms: N_15  and  C_16 
REMARK    8  A    between atoms: C_16  and  C_17 
REMARK       I    between atoms: C_17  and  N_18 
REMARK    9  A    between atoms: N_18  and  C_19 
ROOT
HETATM    1  C   UNL     1      -5.786   2.725 -33.139  1.00  0.00     0.081 A 
HETATM    2  S   UNL     1      -5.900   4.047 -34.227  1.00  0.00    -0.063 SA
HETATM    3  C   UNL     1      -4.443   4.722 -33.681  1.00  0.00     0.116 A 
HETATM    4  C   UNL     1      -3.869   3.970 -32.680  1.00  0.00     0.075 A 
HETATM    5  C   UNL     1      -2.568   4.407 -32.184  1.00  0.00     0.262 A 
HETATM    6  O   UNL     1      -1.944   3.793 -31.322  1.00  0.00    -0.267 OA
HETATM    7  N   UNL     1      -2.087   5.564 -32.791  1.00  0.00    -0.299 N 
HETATM    8  C   UNL     1      -2.791   6.207 -33.791  1.00  0.00     0.214 A 
HETATM    9  N   UNL     1      -3.951   5.853 -34.242  1.00  0.00    -0.235 NA
HETATM   10  C   UNL     1      -4.674   2.830 -32.308  1.00  0.00    -0.021 A 
HETATM   11  C   UNL     1      -4.316   1.847 -31.234  1.00  0.00     0.051 C 
ENDROOT
BRANCH   7  12
HETATM   12  C   UNL     1      -0.728   5.983 -32.482  1.00  0.00     0.236 C 
BRANCH  12  13
HETATM   13  C   UNL     1      -0.762   6.977 -31.314  1.00  0.00     0.240 C 
HETATM   14  N   UNL     1      -0.245   6.449 -30.141  1.00  0.00    -0.326 N 
HETATM   15  H   UNL     1       0.095   5.494 -30.168  1.00  0.00     0.169 HD
HETATM   16  O   UNL     1      -1.265   8.090 -31.444  1.00  0.00    -0.271 OA
BRANCH  14  17
HETATM   17  C   UNL     1      -0.125   7.100 -28.893  1.00  0.00     0.036 A 
HETATM   18  C   UNL     1      -1.076   7.025 -27.874  1.00  0.00     0.053 A 
HETATM   19  C   UNL     1      -0.885   7.712 -26.668  1.00  0.00     0.042 A 
HETATM   20 CL   UNL     1      -2.118   7.580 -25.462  1.00  0.00    -0.084 Cl
HETATM   21  C   UNL     1       0.265   8.484 -26.454  1.00  0.00    -0.040 A 
HETATM   22  C   UNL     1       0.493   9.235 -25.173  1.00  0.00     0.050 C 
HETATM   23  C   UNL     1       1.216   8.559 -27.480  1.00  0.00     0.011 A 
HETATM   24  C   UNL     1       1.021   7.876 -28.685  1.00  0.00     0.030 A 
ENDBRANCH  14  17
ENDBRANCH  12  13
ENDBRANCH   7  12
BRANCH   1  25
HETATM   25  C   UNL     1      -6.808   1.691 -33.171  1.00  0.00     0.259 C 
HETATM   26  N   UNL     1      -6.843   0.922 -34.325  1.00  0.00    -0.355 N 
HETATM   27  H   UNL     1      -6.029   1.034 -34.923  1.00  0.00     0.162 HD
HETATM   28  O   UNL     1      -7.616   1.474 -32.271  1.00  0.00    -0.267 OA
BRANCH  26  29
HETATM   29  C   UNL     1      -7.525  -0.366 -34.361  1.00  0.00     0.150 C 
BRANCH  29  30
HETATM   30  C   UNL     1      -6.784  -1.516 -33.651  1.00  0.00     0.254 C 
BRANCH  30  31
HETATM   31  N   UNL     1      -5.988  -2.365 -34.637  1.00  0.00    -0.070 N 
HETATM   32  H   UNL     1      -6.033  -1.821 -35.512  1.00  0.00     0.279 HD
BRANCH  31  33
HETATM   33  C   UNL     1      -6.648  -3.695 -34.940  1.00  0.00     0.230 C 
HETATM   34  C   UNL     1      -5.665  -4.840 -34.772  1.00  0.00     0.034 C 
ENDBRANCH  31  33
BRANCH  31  35
HETATM   35  C   UNL     1      -4.513  -2.496 -34.333  1.00  0.00     0.230 C 
HETATM   36  C   UNL     1      -4.060  -1.561 -33.226  1.00  0.00     0.034 C 
ENDBRANCH  31  35
ENDBRANCH  30  31
ENDBRANCH  29  30
ENDBRANCH  26  29
ENDBRANCH   1  25
TORSDOF 9
ENDMDL
MODEL 4
REMARK VINA RESULT:      -8.0      4.259     10.454
REMARK  9 active torsions:
REMARK  status: ('A' for Active; 'I' for Inactive)
REMARK    1  A    between atoms: C_2  and  N_3 
REMARK    2  A    between atoms: N_3  and  C_5 
REMARK    3  A    between atoms: N_3  and  C_33 
REMARK    4  A    between atoms: C_5  and  C_6 
REMARK    5  A    between atoms: C_6  and  N_7 
REMARK       I    between atoms: N_7  and  C_8 
REMARK    6  A    between atoms: C_8  and  C_9 
REMARK    7  A    between atoms: N_15  and  C_16 
REMARK    8  A    between atoms: C_16  and  C_17 
REMARK       I    between atoms: C_17  and  N_18 
REMARK    9  A    between atoms: N_18  and  C_19 
ROOT
HETATM    1  C   UNL     1      -6.064   2.143 -32.782  1.00  0.00     0.081 A 
HETATM    2  S   UNL     1      -6.525   3.255 -34.005  1.00  0.00    -0.063 SA
HETATM    3  C   UNL     1      -5.078   4.129 -33.862  1.00  0.00     0.116 A 
HETATM    4  C   UNL     1      -4.250   3.603 -32.897  1.00  0.00     0.075 A 
HETATM    5  C   UNL     1      -2.938   4.222 -32.737  1.00  0.00     0.262 A 
HETATM    6  O   UNL     1      -2.102   3.812 -31.936  1.00  0.00    -0.267 OA
HETATM    7  N   UNL     1      -2.710   5.301 -33.588  1.00  0.00    -0.299 N 
HETATM    8  C   UNL     1      -3.654   5.710 -34.511  1.00  0.00     0.214 A 
HETATM    9  N   UNL     1      -4.829   5.190 -34.667  1.00  0.00    -0.235 NA
HETATM   10  C   UNL     1      -4.839   2.475 -32.212  1.00  0.00    -0.021 A 
HETATM   11  C   UNL     1      -4.181   1.715 -31.100  1.00  0.00     0.051 C 
ENDROOT
BRANCH   7  12
HETATM   12  C   UNL     1      -1.374   5.876 -33.619  1.00  0.00     0.236 C 
BRANCH  12  13
HETATM   13  C   UNL     1      -1.312   7.053 -32.636  1.00  0.00     0.240 C 
HETATM   14  N   UNL     1      -1.043   6.656 -31.335  1.00  0.00    -0.326 N 
HETATM   15  H   UNL     1      -0.915   5.665 -31.166  1.00  0.00     0.169 HD
HETATM   16  O   UNL     1      -1.549   8.200 -33.006  1.00  0.00    -0.271 OA
BRANCH  14  17
HETATM   17  C   UNL     1      -0.913   7.487 -30.200  1.00  0.00     0.036 A 
HETATM   18  C   UNL     1       0.245   7.586 -29.428  1.00  0.00     0.053 A 
HETATM   19  C   UNL     1       0.286   8.428 -28.309  1.00  0.00     0.042 A 
HETATM   20 CL   UNL     1       1.754   8.482 -27.395  1.00  0.00    -0.084 Cl
HETATM   21  C   UNL     1      -0.829   9.193 -27.942  1.00  0.00    -0.040 A 
HETATM   22  C   UNL     1      -0.814  10.100 -26.744  1.00  0.00     0.050 C 
HETATM   23  C   UNL     1      -1.991   9.089 -28.718  1.00  0.00     0.011 A 
HETATM   24  C   UNL     1      -2.032   8.245 -29.833  1.00  0.00     0.030 A 
ENDBRANCH  14  17
ENDBRANCH  12  13
ENDBRANCH   7  12
BRANCH   1  25
HETATM   25  C   UNL     1      -6.951   1.036 -32.461  1.00  0.00     0.259 C 
HETATM   26  N   UNL     1      -8.175   1.391 -31.914  1.00  0.00    -0.355 N 
HETATM   27  H   UNL     1      -8.392   2.381 -31.989  1.00  0.00     0.162 HD
HETATM   28  O   UNL     1      -6.682  -0.151 -32.632  1.00  0.00    -0.267 OA
BRANCH  26  29
HETATM   29  C   UNL     1      -9.298   0.462 -31.897  1.00  0.00     0.150 C 
BRANCH  29  30
HETATM   30  C   UNL     1     -10.107   0.390 -33.206  1.00  0.00     0.254 C 
BRANCH  30  31
HETATM   31  N   UNL     1     -11.440   1.121 -33.085  1.00  0.00    -0.070 N 
HETATM   32  H   UNL     1     -11.576   1.202 -32.066  1.00  0.00     0.279 HD
BRANCH  31  33
HETATM   33  C   UNL     1     -12.609   0.308 -33.599  1.00  0.00     0.230 C 
HETATM   34  C   UNL     1     -13.430   1.105 -34.598  1.00  0.00     0.034 C 
ENDBRANCH  31  33
BRANCH  31  35
HETATM   35  C   UNL     1     -11.444   2.545 -33.595  1.00  0.00     0.230 C 
HETATM   36  C   UNL     1     -11.573   3.565 -32.478  1.00  0.00     0.034 C 
ENDBRANCH  31  35
ENDBRANCH  30  31
ENDBRANCH  29  30
ENDBRANCH  26  29
ENDBRANCH   1  25
TORSDOF 9
ENDMDL
MODEL 5
REMARK VINA RESULT:      -7.9      1.636      2.315
REMARK  9 active torsions:
REMARK  status: ('A' for Active; 'I' for Inactive)
REMARK    1  A    between atoms: C_2  and  N_3 
REMARK    2  A    between atoms: N_3  and  C_5 
REMARK    3  A    between atoms: N_3  and  C_33 
REMARK    4  A    between atoms: C_5  and  C_6 
REMARK    5  A    between atoms: C_6  and  N_7 
REMARK       I    between atoms: N_7  and  C_8 
REMARK    6  A    between atoms: C_8  and  C_9 
REMARK    7  A    between atoms: N_15  and  C_16 
REMARK    8  A    between atoms: C_16  and  C_17 
REMARK       I    between atoms: C_17  and  N_18 
REMARK    9  A    between atoms: N_18  and  C_19 
ROOT
HETATM    1  C   UNL     1      -6.019   5.863 -29.851  1.00  0.00     0.081 A 
HETATM    2  S   UNL     1      -7.126   4.851 -29.017  1.00  0.00    -0.063 SA
HETATM    3  C   UNL     1      -7.638   4.101 -30.450  1.00  0.00     0.116 A 
HETATM    4  C   UNL     1      -6.993   4.606 -31.557  1.00  0.00     0.075 A 
HETATM    5  C   UNL     1      -7.290   3.984 -32.842  1.00  0.00     0.262 A 
HETATM    6  O   UNL     1      -6.746   4.325 -33.889  1.00  0.00    -0.267 OA
HETATM    7  N   UNL     1      -8.226   2.954 -32.773  1.00  0.00    -0.299 N 
HETATM    8  C   UNL     1      -8.787   2.561 -31.573  1.00  0.00     0.214 A 
HETATM    9  N   UNL     1      -8.554   3.103 -30.420  1.00  0.00    -0.235 NA
HETATM   10  C   UNL     1      -6.085   5.682 -31.229  1.00  0.00    -0.021 A 
HETATM   11  C   UNL     1      -5.264   6.439 -32.230  1.00  0.00     0.051 C 
ENDROOT
BRANCH   7  12
HETATM   12  C   UNL     1      -8.462   2.164 -33.972  1.00  0.00     0.236 C 
BRANCH  12  13
HETATM   13  C   UNL     1      -8.009   0.720 -33.719  1.00  0.00     0.240 C 
HETATM   14  N   UNL     1      -6.766   0.442 -34.268  1.00  0.00    -0.326 N 
HETATM   15  H   UNL     1      -6.294   1.192 -34.761  1.00  0.00     0.169 HD
HETATM   16  O   UNL     1      -8.738  -0.082 -33.143  1.00  0.00    -0.271 OA
BRANCH  14  17
HETATM   17  C   UNL     1      -6.063  -0.782 -34.210  1.00  0.00     0.036 A 
HETATM   18  C   UNL     1      -6.482  -1.957 -34.836  1.00  0.00     0.053 A 
HETATM   19  C   UNL     1      -5.730  -3.134 -34.719  1.00  0.00     0.042 A 
HETATM   20 CL   UNL     1      -6.325  -4.552 -35.511  1.00  0.00    -0.084 Cl
HETATM   21  C   UNL     1      -4.540  -3.158 -33.978  1.00  0.00    -0.040 A 
HETATM   22  C   UNL     1      -3.718  -4.407 -33.832  1.00  0.00     0.050 C 
HETATM   23  C   UNL     1      -4.125  -1.977 -33.350  1.00  0.00     0.011 A 
HETATM   24  C   UNL     1      -4.879  -0.804 -33.464  1.00  0.00     0.030 A 
ENDBRANCH  14  17
ENDBRANCH  12  13
ENDBRANCH   7  12
BRANCH   1  25
HETATM   25  C   UNL     1      -5.178   6.772 -29.088  1.00  0.00     0.259 C 
HETATM   26  N   UNL     1      -3.847   6.398 -28.972  1.00  0.00    -0.355 N 
HETATM   27  H   UNL     1      -3.571   5.646 -29.599  1.00  0.00     0.162 HD
HETATM   28  O   UNL     1      -5.568   7.807 -28.555  1.00  0.00    -0.267 OA
BRANCH  26  29
HETATM   29  C   UNL     1      -2.819   7.357 -28.588  1.00  0.00     0.150 C 
BRANCH  29  30
HETATM   30  C   UNL     1      -1.515   7.281 -29.406  1.00  0.00     0.254 C 
BRANCH  30  31
HETATM   31  N   UNL     1      -0.735   6.005 -29.102  1.00  0.00    -0.070 N 
HETATM   32  H   UNL     1      -1.414   5.428 -28.583  1.00  0.00     0.279 HD
BRANCH  31  33
HETATM   33  C   UNL     1       0.426   6.233 -28.157  1.00  0.00     0.230 C 
HETATM   34  C   UNL     1       0.882   7.681 -28.195  1.00  0.00     0.034 C 
ENDBRANCH  31  33
BRANCH  31  35
HETATM   35  C   UNL     1      -0.358   5.176 -30.309  1.00  0.00     0.230 C 
HETATM   36  C   UNL     1       0.249   6.010 -31.423  1.00  0.00     0.034 C 
ENDBRANCH  31  35
ENDBRANCH  30  31
ENDBRANCH  29  30
ENDBRANCH  26  29
ENDBRANCH   1  25
TORSDOF 9
ENDMDL
MODEL 6
REMARK VINA RESULT:      -7.7      1.740      2.696
REMARK  9 active torsions:
REMARK  status: ('A' for Active; 'I' for Inactive)
REMARK    1  A    between atoms: C_2  and  N_3 
REMARK    2  A    between atoms: N_3  and  C_5 
REMARK    3  A    between atoms: N_3  and  C_33 
REMARK    4  A    between atoms: C_5  and  C_6 
REMARK    5  A    between atoms: C_6  and  N_7 
REMARK       I    between atoms: N_7  and  C_8 
REMARK    6  A    between atoms: C_8  and  C_9 
REMARK    7  A    between atoms: N_15  and  C_16 
REMARK    8  A    between atoms: C_16  and  C_17 
REMARK       I    between atoms: C_17  and  N_18 
REMARK    9  A    between atoms: N_18  and  C_19 
ROOT
HETATM    1  C   UNL     1      -5.022   6.024 -29.813  1.00  0.00     0.081 A 
HETATM    2  S   UNL     1      -4.039   6.012 -31.219  1.00  0.00    -0.063 SA
HETATM    3  C   UNL     1      -5.035   4.883 -32.000  1.00  0.00     0.116 A 
HETATM    4  C   UNL     1      -6.100   4.503 -31.214  1.00  0.00     0.075 A 
HETATM    5  C   UNL     1      -7.074   3.595 -31.809  1.00  0.00     0.262 A 
HETATM    6  O   UNL     1      -8.083   3.220 -31.217  1.00  0.00    -0.267 OA
HETATM    7  N   UNL     1      -6.773   3.211 -33.113  1.00  0.00    -0.299 N 
HETATM    8  C   UNL     1      -5.653   3.685 -33.770  1.00  0.00     0.214 A 
HETATM    9  N   UNL     1      -4.765   4.480 -33.265  1.00  0.00    -0.235 NA
HETATM   10  C   UNL     1      -6.073   5.116 -29.906  1.00  0.00    -0.021 A 
HETATM   11  C   UNL     1      -7.089   4.873 -28.830  1.00  0.00     0.051 C 
ENDROOT
BRANCH   7  12
HETATM   12  C   UNL     1      -7.767   2.442 -33.846  1.00  0.00     0.236 C 
BRANCH  12  13
HETATM   13  C   UNL     1      -7.097   1.199 -34.448  1.00  0.00     0.240 C 
HETATM   14  N   UNL     1      -6.676   0.294 -33.485  1.00  0.00    -0.326 N 
HETATM   15  H   UNL     1      -6.848   0.531 -32.514  1.00  0.00     0.169 HD
HETATM   16  O   UNL     1      -6.918   1.099 -35.659  1.00  0.00    -0.271 OA
BRANCH  14  17
HETATM   17  C   UNL     1      -6.034  -0.945 -33.702  1.00  0.00     0.036 A 
HETATM   18  C   UNL     1      -6.615  -2.023 -34.372  1.00  0.00     0.053 A 
HETATM   19  C   UNL     1      -5.912  -3.224 -34.535  1.00  0.00     0.042 A 
HETATM   20 CL   UNL     1      -6.708  -4.518 -35.363  1.00  0.00    -0.084 Cl
HETATM   21  C   UNL     1      -4.610  -3.369 -34.038  1.00  0.00    -0.040 A 
HETATM   22  C   UNL     1      -3.835  -4.647 -34.194  1.00  0.00     0.050 C 
HETATM   23  C   UNL     1      -4.031  -2.286 -33.364  1.00  0.00     0.011 A 
HETATM   24  C   UNL     1      -4.736  -1.089 -33.198  1.00  0.00     0.030 A 
ENDBRANCH  14  17
ENDBRANCH  12  13
ENDBRANCH   7  12
BRANCH   1  25
HETATM   25  C   UNL     1      -4.678   6.913 -28.715  1.00  0.00     0.259 C 
HETATM   26  N   UNL     1      -3.772   6.403 -27.796  1.00  0.00    -0.355 N 
HETATM   27  H   UNL     1      -3.303   5.555 -28.103  1.00  0.00     0.162 HD
HETATM   28  O   UNL     1      -5.133   8.042 -28.557  1.00  0.00    -0.267 OA
BRANCH  26  29
HETATM   29  C   UNL     1      -3.045   7.274 -26.881  1.00  0.00     0.150 C 
BRANCH  29  30
HETATM   30  C   UNL     1      -1.817   7.980 -27.488  1.00  0.00     0.254 C 
BRANCH  30  31
HETATM   31  N   UNL     1      -0.961   7.016 -28.304  1.00  0.00    -0.070 N 
HETATM   32  H   UNL     1      -1.629   6.282 -28.584  1.00  0.00     0.279 HD
BRANCH  31  33
HETATM   33  C   UNL     1       0.099   6.321 -27.475  1.00  0.00     0.230 C 
HETATM   34  C   UNL     1       1.158   7.304 -27.010  1.00  0.00     0.034 C 
ENDBRANCH  31  33
BRANCH  31  35
HETATM   35  C   UNL     1      -0.422   7.572 -29.603  1.00  0.00     0.230 C 
HETATM   36  C   UNL     1      -0.092   6.487 -30.611  1.00  0.00     0.034 C 
ENDBRANCH  31  35
ENDBRANCH  30  31
ENDBRANCH  29  30
ENDBRANCH  26  29
ENDBRANCH   1  25
TORSDOF 9
ENDMDL
MODEL 7
REMARK VINA RESULT:      -7.5      3.797      5.457
REMARK  9 active torsions:
REMARK  status: ('A' for Active; 'I' for Inactive)
REMARK    1  A    between atoms: C_2  and  N_3 
REMARK    2  A    between atoms: N_3  and  C_5 
REMARK    3  A    between atoms: N_3  and  C_33 
REMARK    4  A    between atoms: C_5  and  C_6 
REMARK    5  A    between atoms: C_6  and  N_7 
REMARK       I    between atoms: N_7  and  C_8 
REMARK    6  A    between atoms: C_8  and  C_9 
REMARK    7  A    between atoms: N_15  and  C_16 
REMARK    8  A    between atoms: C_16  and  C_17 
REMARK       I    between atoms: C_17  and  N_18 
REMARK    9  A    between atoms: N_18  and  C_19 
ROOT
HETATM    1  C   UNL     1      -3.534   3.597 -31.938  1.00  0.00     0.081 A 
HETATM    2  S   UNL     1      -3.430   1.996 -31.329  1.00  0.00    -0.063 SA
HETATM    3  C   UNL     1      -4.887   1.538 -32.067  1.00  0.00     0.116 A 
HETATM    4  C   UNL     1      -5.462   2.577 -32.763  1.00  0.00     0.075 A 
HETATM    5  C   UNL     1      -6.681   2.284 -33.509  1.00  0.00     0.262 A 
HETATM    6  O   UNL     1      -7.258   3.121 -34.197  1.00  0.00    -0.267 OA
HETATM    7  N   UNL     1      -7.116   0.966 -33.392  1.00  0.00    -0.299 N 
HETATM    8  C   UNL     1      -6.419   0.033 -32.647  1.00  0.00     0.214 A 
HETATM    9  N   UNL     1      -5.344   0.267 -31.965  1.00  0.00    -0.235 NA
HETATM   10  C   UNL     1      -4.713   3.808 -32.646  1.00  0.00    -0.021 A 
HETATM   11  C   UNL     1      -5.109   5.109 -33.276  1.00  0.00     0.051 C 
ENDROOT
BRANCH   7  12
HETATM   12  C   UNL     1      -8.225   0.536 -34.230  1.00  0.00     0.236 C 
BRANCH  12  13
HETATM   13  C   UNL     1      -9.531   0.654 -33.433  1.00  0.00     0.240 C 
HETATM   14  N   UNL     1     -10.527   1.328 -34.125  1.00  0.00    -0.326 N 
HETATM   15  H   UNL     1     -10.304   1.661 -35.056  1.00  0.00     0.169 HD
HETATM   16  O   UNL     1      -9.611   0.235 -32.281  1.00  0.00    -0.271 OA
BRANCH  14  17
HETATM   17  C   UNL     1     -11.840   1.598 -33.681  1.00  0.00     0.036 A 
HETATM   18  C   UNL     1     -12.235   2.796 -33.083  1.00  0.00     0.053 A 
HETATM   19  C   UNL     1     -13.558   2.980 -32.659  1.00  0.00     0.042 A 
HETATM   20 CL   UNL     1     -13.963   4.487 -31.913  1.00  0.00    -0.084 Cl
HETATM   21  C   UNL     1     -14.515   1.971 -32.831  1.00  0.00    -0.040 A 
HETATM   22  C   UNL     1     -15.939   2.139 -32.382  1.00  0.00     0.050 C 
HETATM   23  C   UNL     1     -14.114   0.769 -33.430  1.00  0.00     0.011 A 
HETATM   24  C   UNL     1     -12.792   0.586 -33.847  1.00  0.00     0.030 A 
ENDBRANCH  14  17
ENDBRANCH  12  13
ENDBRANCH   7  12
BRANCH   1  25
HETATM   25  C   UNL     1      -2.456   4.532 -31.659  1.00  0.00     0.259 C 
HETATM   26  N   UNL     1      -2.751   5.525 -30.736  1.00  0.00    -0.355 N 
HETATM   27  H   UNL     1      -3.609   5.364 -30.214  1.00  0.00     0.162 HD
HETATM   28  O   UNL     1      -1.345   4.499 -32.182  1.00  0.00    -0.267 OA
BRANCH  26  29
HETATM   29  C   UNL     1      -1.699   6.284 -30.072  1.00  0.00     0.150 C 
BRANCH  29  30
HETATM   30  C   UNL     1      -2.190   7.326 -29.049  1.00  0.00     0.254 C 
BRANCH  30  31
HETATM   31  N   UNL     1      -1.068   7.772 -28.117  1.00  0.00    -0.070 N 
HETATM   32  H   UNL     1      -1.131   8.801 -28.144  1.00  0.00     0.279 HD
BRANCH  31  33
HETATM   33  C   UNL     1       0.310   7.425 -28.642  1.00  0.00     0.230 C 
HETATM   34  C   UNL     1       1.355   8.385 -28.102  1.00  0.00     0.034 C 
ENDBRANCH  31  33
BRANCH  31  35
HETATM   35  C   UNL     1      -1.253   7.405 -26.662  1.00  0.00     0.230 C 
HETATM   36  C   UNL     1      -0.662   6.049 -26.321  1.00  0.00     0.034 C 
ENDBRANCH  31  35
ENDBRANCH  30  31
ENDBRANCH  29  30
ENDBRANCH  26  29
ENDBRANCH   1  25
TORSDOF 9
ENDMDL
MODEL 8
REMARK VINA RESULT:      -7.5      1.799      2.488
REMARK  9 active torsions:
REMARK  status: ('A' for Active; 'I' for Inactive)
REMARK    1  A    between atoms: C_2  and  N_3 
REMARK    2  A    between atoms: N_3  and  C_5 
REMARK    3  A    between atoms: N_3  and  C_33 
REMARK    4  A    between atoms: C_5  and  C_6 
REMARK    5  A    between atoms: C_6  and  N_7 
REMARK       I    between atoms: N_7  and  C_8 
REMARK    6  A    between atoms: C_8  and  C_9 
REMARK    7  A    between atoms: N_15  and  C_16 
REMARK    8  A    between atoms: C_16  and  C_17 
REMARK       I    between atoms: C_17  and  N_18 
REMARK    9  A    between atoms: N_18  and  C_19 
ROOT
HETATM    1  C   UNL     1      -3.443   7.155 -31.089  1.00  0.00     0.081 A 
HETATM    2  S   UNL     1      -2.363   5.833 -31.265  1.00  0.00    -0.063 SA
HETATM    3  C   UNL     1      -3.612   4.770 -31.697  1.00  0.00     0.116 A 
HETATM    4  C   UNL     1      -4.840   5.392 -31.704  1.00  0.00     0.075 A 
HETATM    5  C   UNL     1      -5.984   4.600 -32.140  1.00  0.00     0.262 A 
HETATM    6  O   UNL     1      -7.120   5.059 -32.224  1.00  0.00    -0.267 OA
HETATM    7  N   UNL     1      -5.671   3.284 -32.475  1.00  0.00    -0.299 N 
HETATM    8  C   UNL     1      -4.375   2.807 -32.414  1.00  0.00     0.214 A 
HETATM    9  N   UNL     1      -3.343   3.482 -32.019  1.00  0.00    -0.235 NA
HETATM   10  C   UNL     1      -4.767   6.775 -31.290  1.00  0.00    -0.021 A 
HETATM   11  C   UNL     1      -5.945   7.695 -31.178  1.00  0.00     0.051 C 
ENDROOT
BRANCH   7  12
HETATM   12  C   UNL     1      -6.713   2.466 -33.077  1.00  0.00     0.236 C 
BRANCH  12  13
HETATM   13  C   UNL     1      -6.410   0.987 -32.804  1.00  0.00     0.240 C 
HETATM   14  N   UNL     1      -5.900   0.327 -33.911  1.00  0.00    -0.326 N 
HETATM   15  H   UNL     1      -5.778   0.866 -34.761  1.00  0.00     0.169 HD
HETATM   16  O   UNL     1      -6.674   0.476 -31.718  1.00  0.00    -0.271 OA
BRANCH  14  17
HETATM   17  C   UNL     1      -5.513  -1.029 -33.993  1.00  0.00     0.036 A 
HETATM   18  C   UNL     1      -6.244  -2.015 -34.658  1.00  0.00     0.053 A 
HETATM   19  C   UNL     1      -5.795  -3.342 -34.681  1.00  0.00     0.042 A 
HETATM   20 CL   UNL     1      -6.766  -4.507 -35.513  1.00  0.00    -0.084 Cl
HETATM   21  C   UNL     1      -4.602  -3.709 -34.044  1.00  0.00    -0.040 A 
HETATM   22  C   UNL     1      -4.100  -5.126 -34.049  1.00  0.00     0.050 C 
HETATM   23  C   UNL     1      -3.873  -2.718 -33.376  1.00  0.00     0.011 A 
HETATM   24  C   UNL     1      -4.325  -1.394 -33.349  1.00  0.00     0.030 A 
ENDBRANCH  14  17
ENDBRANCH  12  13
ENDBRANCH   7  12
BRANCH   1  25
HETATM   25  C   UNL     1      -2.911   8.464 -30.748  1.00  0.00     0.259 C 
HETATM   26  N   UNL     1      -2.753   8.710 -29.392  1.00  0.00    -0.355 N 
HETATM   27  H   UNL     1      -2.834   7.882 -28.808  1.00  0.00     0.162 HD
HETATM   28  O   UNL     1      -2.613   9.334 -31.563  1.00  0.00    -0.267 OA
BRANCH  26  29
HETATM   29  C   UNL     1      -1.896   9.786 -28.909  1.00  0.00     0.150 C 
BRANCH  29  30
HETATM   30  C   UNL     1      -1.255   9.541 -27.530  1.00  0.00     0.254 C 
BRANCH  30  31
HETATM   31  N   UNL     1       0.178   9.034 -27.658  1.00  0.00    -0.070 N 
HETATM   32  H   UNL     1       0.509   9.472 -28.531  1.00  0.00     0.279 HD
BRANCH  31  33
HETATM   33  C   UNL     1       0.258   7.539 -27.887  1.00  0.00     0.230 C 
HETATM   34  C   UNL     1       0.593   7.227 -29.335  1.00  0.00     0.034 C 
ENDBRANCH  31  33
BRANCH  31  35
HETATM   35  C   UNL     1       1.133   9.518 -26.589  1.00  0.00     0.230 C 
HETATM   36  C   UNL     1       2.013   8.408 -26.046  1.00  0.00     0.034 C 
ENDBRANCH  31  35
ENDBRANCH  30  31
ENDBRANCH  29  30
ENDBRANCH  26  29
ENDBRANCH   1  25
TORSDOF 9
ENDMDL
MODEL 9
REMARK VINA RESULT:      -7.3      4.020     10.567
REMARK  9 active torsions:
REMARK  status: ('A' for Active; 'I' for Inactive)
REMARK    1  A    between atoms: C_2  and  N_3 
REMARK    2  A    between atoms: N_3  and  C_5 
REMARK    3  A    between atoms: N_3  and  C_33 
REMARK    4  A    between atoms: C_5  and  C_6 
REMARK    5  A    between atoms: C_6  and  N_7 
REMARK       I    between atoms: N_7  and  C_8 
REMARK    6  A    between atoms: C_8  and  C_9 
REMARK    7  A    between atoms: N_15  and  C_16 
REMARK    8  A    between atoms: C_16  and  C_17 
REMARK       I    between atoms: C_17  and  N_18 
REMARK    9  A    between atoms: N_18  and  C_19 
ROOT
HETATM    1  C   UNL     1      -5.614   2.715 -33.201  1.00  0.00     0.081 A 
HETATM    2  S   UNL     1      -5.766   4.089 -34.217  1.00  0.00    -0.063 SA
HETATM    3  C   UNL     1      -4.346   4.791 -33.609  1.00  0.00     0.116 A 
HETATM    4  C   UNL     1      -3.757   4.010 -32.641  1.00  0.00     0.075 A 
HETATM    5  C   UNL     1      -2.484   4.470 -32.099  1.00  0.00     0.262 A 
HETATM    6  O   UNL     1      -1.848   3.836 -31.261  1.00  0.00    -0.267 OA
HETATM    7  N   UNL     1      -2.041   5.679 -32.633  1.00  0.00    -0.299 N 
HETATM    8  C   UNL     1      -2.756   6.347 -33.609  1.00  0.00     0.214 A 
HETATM    9  N   UNL     1      -3.893   5.971 -34.099  1.00  0.00    -0.235 NA
HETATM   10  C   UNL     1      -4.520   2.818 -32.346  1.00  0.00    -0.021 A 
HETATM   11  C   UNL     1      -4.138   1.793 -31.322  1.00  0.00     0.051 C 
ENDROOT
BRANCH   7  12
HETATM   12  C   UNL     1      -0.705   6.134 -32.278  1.00  0.00     0.236 C 
BRANCH  12  13
HETATM   13  C   UNL     1      -0.804   7.101 -31.090  1.00  0.00     0.240 C 
HETATM   14  N   UNL     1      -0.117   6.652 -29.972  1.00  0.00    -0.326 N 
HETATM   15  H   UNL     1       0.367   5.765 -30.045  1.00  0.00     0.169 HD
HETATM   16  O   UNL     1      -1.488   8.119 -31.157  1.00  0.00    -0.271 OA
BRANCH  14  17
HETATM   17  C   UNL     1      -0.004   7.304 -28.724  1.00  0.00     0.036 A 
HETATM   18  C   UNL     1      -0.973   7.252 -27.720  1.00  0.00     0.053 A 
HETATM   19  C   UNL     1      -0.786   7.939 -26.513  1.00  0.00     0.042 A 
HETATM   20 CL   UNL     1      -2.041   7.838 -25.327  1.00  0.00    -0.084 Cl
HETATM   21  C   UNL     1       0.377   8.685 -26.282  1.00  0.00    -0.040 A 
HETATM   22  C   UNL     1       0.601   9.435 -24.998  1.00  0.00     0.050 C 
HETATM   23  C   UNL     1       1.346   8.736 -27.292  1.00  0.00     0.011 A 
HETATM   24  C   UNL     1       1.156   8.055 -28.499  1.00  0.00     0.030 A 
ENDBRANCH  14  17
ENDBRANCH  12  13
ENDBRANCH   7  12
BRANCH   1  25
HETATM   25  C   UNL     1      -6.591   1.643 -33.308  1.00  0.00     0.259 C 
HETATM   26  N   UNL     1      -7.856   1.939 -32.822  1.00  0.00    -0.355 N 
HETATM   27  H   UNL     1      -8.009   2.928 -32.638  1.00  0.00     0.162 HD
HETATM   28  O   UNL     1      -6.364   0.531 -33.777  1.00  0.00    -0.267 OA
BRANCH  26  29
HETATM   29  C   UNL     1      -9.019   1.143 -33.194  1.00  0.00     0.150 C 
BRANCH  29  30
HETATM   30  C   UNL     1     -10.347   1.920 -33.268  1.00  0.00     0.254 C 
BRANCH  30  31
HETATM   31  N   UNL     1     -10.778   2.162 -34.712  1.00  0.00    -0.070 N 
HETATM   32  H   UNL     1     -10.027   1.719 -35.262  1.00  0.00     0.279 HD
BRANCH  31  33
HETATM   33  C   UNL     1     -10.768   3.627 -35.095  1.00  0.00     0.230 C 
HETATM   34  C   UNL     1     -11.298   4.489 -33.962  1.00  0.00     0.034 C 
ENDBRANCH  31  33
BRANCH  31  35
HETATM   35  C   UNL     1     -12.044   1.451 -35.135  1.00  0.00     0.230 C 
HETATM   36  C   UNL     1     -12.843   0.929 -33.955  1.00  0.00     0.034 C 
ENDBRANCH  31  35
ENDBRANCH  30  31
ENDBRANCH  29  30
ENDBRANCH  26  29
ENDBRANCH   1  25
TORSDOF 9
ENDMDL
MODEL 10
REMARK VINA RESULT:      -7.3      3.807     10.614
REMARK  9 active torsions:
REMARK  status: ('A' for Active; 'I' for Inactive)
REMARK    1  A    between atoms: C_2  and  N_3 
REMARK    2  A    between atoms: N_3  and  C_5 
REMARK    3  A    between atoms: N_3  and  C_33 
REMARK    4  A    between atoms: C_5  and  C_6 
REMARK    5  A    between atoms: C_6  and  N_7 
REMARK       I    between atoms: N_7  and  C_8 
REMARK    6  A    between atoms: C_8  and  C_9 
REMARK    7  A    between atoms: N_15  and  C_16 
REMARK    8  A    between atoms: C_16  and  C_17 
REMARK       I    between atoms: C_17  and  N_18 
REMARK    9  A    between atoms: N_18  and  C_19 
ROOT
HETATM    1  C   UNL     1      -5.360   2.409 -32.787  1.00  0.00     0.081 A 
HETATM    2  S   UNL     1      -4.015   1.858 -31.874  1.00  0.00    -0.063 SA
HETATM    3  C   UNL     1      -3.239   3.363 -31.964  1.00  0.00     0.116 A 
HETATM    4  C   UNL     1      -3.973   4.281 -32.681  1.00  0.00     0.075 A 
HETATM    5  C   UNL     1      -3.446   5.639 -32.759  1.00  0.00     0.262 A 
HETATM    6  O   UNL     1      -4.034   6.549 -33.337  1.00  0.00    -0.267 OA
HETATM    7  N   UNL     1      -2.232   5.817 -32.100  1.00  0.00    -0.299 N 
HETATM    8  C   UNL     1      -1.617   4.784 -31.418  1.00  0.00     0.214 A 
HETATM    9  N   UNL     1      -2.052   3.568 -31.343  1.00  0.00    -0.235 NA
HETATM   10  C   UNL     1      -5.190   3.720 -33.223  1.00  0.00    -0.021 A 
HETATM   11  C   UNL     1      -6.175   4.474 -34.064  1.00  0.00     0.051 C 
ENDROOT
BRANCH   7  12
HETATM   12  C   UNL     1      -1.712   7.171 -31.981  1.00  0.00     0.236 C 
BRANCH  12  13
HETATM   13  C   UNL     1      -1.746   7.593 -30.506  1.00  0.00     0.240 C 
HETATM   14  N   UNL     1      -0.482   7.814 -29.979  1.00  0.00    -0.326 N 
HETATM   15  H   UNL     1       0.311   7.684 -30.596  1.00  0.00     0.169 HD
HETATM   16  O   UNL     1      -2.805   7.650 -29.887  1.00  0.00    -0.271 OA
BRANCH  14  17
HETATM   17  C   UNL     1      -0.166   8.218 -28.662  1.00  0.00     0.036 A 
HETATM   18  C   UNL     1      -1.063   8.846 -27.797  1.00  0.00     0.053 A 
HETATM   19  C   UNL     1      -0.665   9.224 -26.509  1.00  0.00     0.042 A 
HETATM   20 CL   UNL     1      -1.832  10.012 -25.504  1.00  0.00    -0.084 Cl
HETATM   21  C   UNL     1       0.638   8.977 -26.056  1.00  0.00    -0.040 A 
HETATM   22  C   UNL     1       1.093   9.377 -24.681  1.00  0.00     0.050 C 
HETATM   23  C   UNL     1       1.536   8.349 -26.928  1.00  0.00     0.011 A 
HETATM   24  C   UNL     1       1.138   7.976 -28.216  1.00  0.00     0.030 A 
ENDBRANCH  14  17
ENDBRANCH  12  13
ENDBRANCH   7  12
BRANCH   1  25
HETATM   25  C   UNL     1      -6.474   1.506 -33.023  1.00  0.00     0.259 C 
HETATM   26  N   UNL     1      -6.498   0.900 -34.271  1.00  0.00    -0.355 N 
HETATM   27  H   UNL     1      -5.633   0.997 -34.796  1.00  0.00     0.162 HD
HETATM   28  O   UNL     1      -7.367   1.266 -32.213  1.00  0.00    -0.267 OA
BRANCH  26  29
HETATM   29  C   UNL     1      -7.301  -0.291 -34.523  1.00  0.00     0.150 C 
BRANCH  29  30
HETATM   30  C   UNL     1      -6.843  -1.558 -33.775  1.00  0.00     0.254 C 
BRANCH  30  31
HETATM   31  N   UNL     1      -6.040  -2.486 -34.680  1.00  0.00    -0.070 N 
HETATM   32  H   UNL     1      -6.062  -2.007 -35.593  1.00  0.00     0.279 HD
BRANCH  31  33
HETATM   33  C   UNL     1      -6.711  -3.827 -34.897  1.00  0.00     0.230 C 
HETATM   34  C   UNL     1      -5.689  -4.950 -34.911  1.00  0.00     0.034 C 
ENDBRANCH  31  33
BRANCH  31  35
HETATM   35  C   UNL     1      -4.572  -2.610 -34.338  1.00  0.00     0.230 C 
HETATM   36  C   UNL     1      -4.177  -1.763 -33.143  1.00  0.00     0.034 C 
ENDBRANCH  31  35
ENDBRANCH  30  31
ENDBRANCH  29  30
ENDBRANCH  26  29
ENDBRANCH   1  25
TORSDOF 9
ENDMDL
