MODEL 1
REMARK VINA RESULT:      -8.6      0.000      0.000
REMARK  5 active torsions:
REMARK  status: ('A' for Active; 'I' for Inactive)
REMARK    1  A    between atoms: O_2  and  C_3 
REMARK    2  A    between atoms: C_6  and  C_7 
REMARK       I    between atoms: C_7  and  N_8 
REMARK    3  A    between atoms: N_8  and  C_9 
REMARK    4  A    between atoms: C_9  and  C_10 
REMARK       I    between atoms: C_10  and  N_11 
REMARK    5  A    between atoms: N_11  and  N_12 
ROOT
HETATM    1  C   UNL     1      -5.361   3.404 -31.296  1.00  0.00     0.255 C 
HETATM    2  N   UNL     1      -4.723   4.514 -31.816  1.00  0.00    -0.245 N 
HETATM    3  O   UNL     1      -5.308   3.051 -30.117  1.00  0.00    -0.270 OA
HETATM    4  H   UNL     1      -4.893   4.786 -32.787  1.00  0.00     0.192 HD
ENDROOT
BRANCH   1   5
HETATM    5  C   UNL     1      -6.241   2.651 -32.294  1.00  0.00     0.227 C 
BRANCH   5   6
HETATM    6  N   UNL     1      -5.703   1.416 -32.850  1.00  0.00    -0.348 N 
HETATM    7  C   UNL     1      -6.378   0.726 -33.835  1.00  0.00     0.252 C 
HETATM    8  O   UNL     1      -7.296   1.236 -34.470  1.00  0.00    -0.268 OA
HETATM    9  H   UNL     1      -4.864   1.041 -32.435  1.00  0.00     0.163 HD
BRANCH   7  10
HETATM   10  C   UNL     1      -5.971  -0.687 -34.100  1.00  0.00     0.032 A 
HETATM   11  C   UNL     1      -4.707  -1.190 -33.771  1.00  0.00     0.020 A 
HETATM   12  C   UNL     1      -4.422  -2.548 -33.957  1.00  0.00     0.038 A 
HETATM   13  C   UNL     1      -5.395  -3.422 -34.449  1.00  0.00     0.068 A 
HETATM   14  C   UNL     1      -6.648  -2.922 -34.797  1.00  0.00     0.038 A 
HETATM   15  C   UNL     1      -6.934  -1.563 -34.621  1.00  0.00     0.020 A 
BRANCH  13  16
HETATM   16  O   UNL     1      -5.000  -4.727 -34.545  1.00  0.00    -0.356 OA
HETATM   17  C   UNL     1      -3.890  -5.108 -33.738  1.00  0.00     0.210 C 
ENDBRANCH  13  16
ENDBRANCH   7  10
ENDBRANCH   5   6
ENDBRANCH   1   5
BRANCH   2  18
HETATM   18  N   UNL     1      -3.987   5.319 -30.998  1.00  0.00    -0.166 NA
HETATM   19  C   UNL     1      -2.724   5.421 -31.252  1.00  0.00     0.157 A 
HETATM   20  C   UNL     1      -1.898   4.714 -32.329  1.00  0.00     0.277 A 
HETATM   21  C   UNL     1      -1.787   6.262 -30.515  1.00  0.00     0.028 A 
HETATM   22  O   UNL     1      -2.334   3.917 -33.133  1.00  0.00    -0.266 OA
HETATM   23  N   UNL     1      -0.605   5.165 -32.157  1.00  0.00    -0.321 N 
HETATM   24  C   UNL     1      -0.537   6.069 -31.099  1.00  0.00     0.048 A 
HETATM   25  H   UNL     1       0.167   4.865 -32.732  1.00  0.00     0.169 HD
HETATM   26  C   UNL     1       0.578   6.731 -30.631  1.00  0.00     0.032 A 
HETATM   27  C   UNL     1       0.401   7.604 -29.550  1.00  0.00     0.021 A 
HETATM   28  C   UNL     1      -0.873   7.791 -28.971  1.00  0.00     0.012 A 
HETATM   29 BR   UNL     1      -1.061   8.986 -27.516  1.00  0.00    -0.051 Br
HETATM   30  C   UNL     1      -1.994   7.115 -29.451  1.00  0.00     0.035 A 
ENDBRANCH   2  18
TORSDOF 5
ENDMDL
MODEL 2
REMARK VINA RESULT:      -8.3      7.111     10.297
REMARK  5 active torsions:
REMARK  status: ('A' for Active; 'I' for Inactive)
REMARK    1  A    between atoms: O_2  and  C_3 
REMARK    2  A    between atoms: C_6  and  C_7 
REMARK       I    between atoms: C_7  and  N_8 
REMARK    3  A    between atoms: N_8  and  C_9 
REMARK    4  A    between atoms: C_9  and  C_10 
REMARK       I    between atoms: C_10  and  N_11 
REMARK    5  A    between atoms: N_11  and  N_12 
ROOT
HETATM    1  C   UNL     1     -10.389   1.962 -33.932  1.00  0.00     0.255 C 
HETATM    2  N   UNL     1      -9.142   1.888 -34.524  1.00  0.00    -0.245 N 
HETATM    3  O   UNL     1     -11.041   0.992 -33.543  1.00  0.00    -0.270 OA
HETATM    4  H   UNL     1      -8.631   2.749 -34.735  1.00  0.00     0.192 HD
ENDROOT
BRANCH   1   5
HETATM    5  C   UNL     1     -10.901   3.384 -33.705  1.00  0.00     0.227 C 
BRANCH   5   6
HETATM    6  N   UNL     1     -12.341   3.553 -33.544  1.00  0.00    -0.348 N 
HETATM    7  C   UNL     1     -12.898   3.768 -32.301  1.00  0.00     0.252 C 
HETATM    8  O   UNL     1     -12.217   4.093 -31.335  1.00  0.00    -0.268 OA
HETATM    9  H   UNL     1     -12.921   3.426 -34.360  1.00  0.00     0.163 HD
BRANCH   7  10
HETATM   10  C   UNL     1     -14.372   3.573 -32.155  1.00  0.00     0.032 A 
HETATM   11  C   UNL     1     -15.244   4.604 -31.787  1.00  0.00     0.020 A 
HETATM   12  C   UNL     1     -16.625   4.379 -31.762  1.00  0.00     0.038 A 
HETATM   13  C   UNL     1     -17.155   3.139 -32.125  1.00  0.00     0.068 A 
HETATM   14  C   UNL     1     -16.289   2.103 -32.473  1.00  0.00     0.038 A 
HETATM   15  C   UNL     1     -14.907   2.321 -32.490  1.00  0.00     0.020 A 
BRANCH  13  16
HETATM   16  O   UNL     1     -18.519   3.064 -32.096  1.00  0.00    -0.356 OA
HETATM   17  C   UNL     1     -19.177   3.104 -33.359  1.00  0.00     0.210 C 
ENDBRANCH  13  16
ENDBRANCH   7  10
ENDBRANCH   5   6
ENDBRANCH   1   5
BRANCH   2  18
HETATM   18  N   UNL     1      -8.541   0.676 -34.690  1.00  0.00    -0.166 NA
HETATM   19  C   UNL     1      -7.346   0.541 -34.217  1.00  0.00     0.157 A 
HETATM   20  C   UNL     1      -6.460   1.581 -33.527  1.00  0.00     0.277 A 
HETATM   21  C   UNL     1      -6.561  -0.687 -34.263  1.00  0.00     0.028 A 
HETATM   22  O   UNL     1      -6.770   2.736 -33.319  1.00  0.00    -0.266 OA
HETATM   23  N   UNL     1      -5.282   0.925 -33.233  1.00  0.00    -0.321 N 
HETATM   24  C   UNL     1      -5.337  -0.399 -33.661  1.00  0.00     0.048 A 
HETATM   25  H   UNL     1      -4.503   1.368 -32.771  1.00  0.00     0.169 HD
HETATM   26  C   UNL     1      -4.358  -1.362 -33.541  1.00  0.00     0.032 A 
HETATM   27  C   UNL     1      -4.645  -2.637 -34.046  1.00  0.00     0.021 A 
HETATM   28  C   UNL     1      -5.890  -2.914 -34.650  1.00  0.00     0.012 A 
HETATM   29 BR   UNL     1      -6.231  -4.654 -35.310  1.00  0.00    -0.051 Br
HETATM   30  C   UNL     1      -6.873  -1.932 -34.768  1.00  0.00     0.035 A 
ENDBRANCH   2  18
TORSDOF 5
ENDMDL
MODEL 3
REMARK VINA RESULT:      -8.3      3.806     10.200
REMARK  5 active torsions:
REMARK  status: ('A' for Active; 'I' for Inactive)
REMARK    1  A    between atoms: O_2  and  C_3 
REMARK    2  A    between atoms: C_6  and  C_7 
REMARK       I    between atoms: C_7  and  N_8 
REMARK    3  A    between atoms: N_8  and  C_9 
REMARK    4  A    between atoms: C_9  and  C_10 
REMARK       I    between atoms: C_10  and  N_11 
REMARK    5  A    between atoms: N_11  and  N_12 
ROOT
HETATM    1  C   UNL     1      -3.032   4.173 -31.450  1.00  0.00     0.255 C 
HETATM    2  N   UNL     1      -4.203   3.439 -31.429  1.00  0.00    -0.245 N 
HETATM    3  O   UNL     1      -1.929   3.727 -31.767  1.00  0.00    -0.270 OA
HETATM    4  H   UNL     1      -5.092   3.909 -31.241  1.00  0.00     0.192 HD
ENDROOT
BRANCH   1   5
HETATM    5  C   UNL     1      -3.207   5.656 -31.122  1.00  0.00     0.227 C 
BRANCH   5   6
HETATM    6  N   UNL     1      -2.482   6.168 -29.965  1.00  0.00    -0.348 N 
HETATM    7  C   UNL     1      -1.343   6.929 -30.119  1.00  0.00     0.252 C 
HETATM    8  O   UNL     1      -1.041   7.432 -31.196  1.00  0.00    -0.268 OA
HETATM    9  H   UNL     1      -2.796   5.879 -29.051  1.00  0.00     0.163 HD
BRANCH   7  10
HETATM   10  C   UNL     1      -0.461   7.113 -28.926  1.00  0.00     0.032 A 
HETATM   11  C   UNL     1       0.693   7.904 -28.947  1.00  0.00     0.020 A 
HETATM   12  C   UNL     1       1.422   8.113 -27.771  1.00  0.00     0.038 A 
HETATM   13  C   UNL     1       0.998   7.561 -26.560  1.00  0.00     0.068 A 
HETATM   14  C   UNL     1      -0.140   6.756 -26.537  1.00  0.00     0.038 A 
HETATM   15  C   UNL     1      -0.866   6.537 -27.714  1.00  0.00     0.020 A 
BRANCH  13  16
HETATM   16  O   UNL     1       1.776   7.875 -25.480  1.00  0.00    -0.356 OA
HETATM   17  C   UNL     1       2.019   9.261 -25.264  1.00  0.00     0.210 C 
ENDBRANCH  13  16
ENDBRANCH   7  10
ENDBRANCH   5   6
ENDBRANCH   1   5
BRANCH   2  18
HETATM   18  N   UNL     1      -4.187   2.126 -31.798  1.00  0.00    -0.166 NA
HETATM   19  C   UNL     1      -5.070   1.746 -32.661  1.00  0.00     0.157 A 
HETATM   20  C   UNL     1      -6.196   2.557 -33.309  1.00  0.00     0.277 A 
HETATM   21  C   UNL     1      -5.184   0.397 -33.204  1.00  0.00     0.028 A 
HETATM   22  O   UNL     1      -6.429   3.727 -33.090  1.00  0.00    -0.266 OA
HETATM   23  N   UNL     1      -6.854   1.674 -34.141  1.00  0.00    -0.321 N 
HETATM   24  C   UNL     1      -6.267   0.413 -34.082  1.00  0.00     0.048 A 
HETATM   25  H   UNL     1      -7.650   1.933 -34.703  1.00  0.00     0.169 HD
HETATM   26  C   UNL     1      -6.641  -0.721 -34.771  1.00  0.00     0.032 A 
HETATM   27  C   UNL     1      -5.890  -1.884 -34.553  1.00  0.00     0.021 A 
HETATM   28  C   UNL     1      -4.795  -1.883 -33.663  1.00  0.00     0.012 A 
HETATM   29 BR   UNL     1      -3.808  -3.476 -33.409  1.00  0.00    -0.051 Br
HETATM   30  C   UNL     1      -4.425  -0.730 -32.970  1.00  0.00     0.035 A 
ENDBRANCH   2  18
TORSDOF 5
ENDMDL
MODEL 4
REMARK VINA RESULT:      -8.2      3.971      8.599
REMARK  5 active torsions:
REMARK  status: ('A' for Active; 'I' for Inactive)
REMARK    1  A    between atoms: O_2  and  C_3 
REMARK    2  A    between atoms: C_6  and  C_7 
REMARK       I    between atoms: C_7  and  N_8 
REMARK    3  A    between atoms: N_8  and  C_9 
REMARK    4  A    between atoms: C_9  and  C_10 
REMARK       I    between atoms: C_10  and  N_11 
REMARK    5  A    between atoms: N_11  and  N_12 
ROOT
HETATM    1  C   UNL     1      -7.558   2.795 -32.985  1.00  0.00     0.255 C 
HETATM    2  N   UNL     1      -6.583   2.373 -33.869  1.00  0.00    -0.245 N 
HETATM    3  O   UNL     1      -8.391   2.059 -32.455  1.00  0.00    -0.270 OA
HETATM    4  H   UNL     1      -5.873   3.035 -34.193  1.00  0.00     0.192 HD
ENDROOT
BRANCH   1   5
HETATM    5  C   UNL     1      -7.489   4.278 -32.624  1.00  0.00     0.227 C 
BRANCH   5   6
HETATM    6  N   UNL     1      -6.188   4.803 -32.226  1.00  0.00    -0.348 N 
HETATM    7  C   UNL     1      -5.272   5.224 -33.167  1.00  0.00     0.252 C 
HETATM    8  O   UNL     1      -5.591   5.432 -34.333  1.00  0.00    -0.268 OA
HETATM    9  H   UNL     1      -5.951   4.772 -31.246  1.00  0.00     0.163 HD
BRANCH   7  10
HETATM   10  C   UNL     1      -3.855   5.406 -32.728  1.00  0.00     0.032 A 
HETATM   11  C   UNL     1      -3.506   5.861 -31.452  1.00  0.00     0.020 A 
HETATM   12  C   UNL     1      -2.160   5.917 -31.071  1.00  0.00     0.038 A 
HETATM   13  C   UNL     1      -1.152   5.499 -31.944  1.00  0.00     0.068 A 
HETATM   14  C   UNL     1      -1.494   5.064 -33.223  1.00  0.00     0.038 A 
HETATM   15  C   UNL     1      -2.838   5.016 -33.610  1.00  0.00     0.020 A 
BRANCH  13  16
HETATM   16  O   UNL     1       0.115   5.567 -31.435  1.00  0.00    -0.356 OA
HETATM   17  C   UNL     1       0.455   6.772 -30.758  1.00  0.00     0.210 C 
ENDBRANCH  13  16
ENDBRANCH   7  10
ENDBRANCH   5   6
ENDBRANCH   1   5
BRANCH   2  18
HETATM   18  N   UNL     1      -6.485   1.051 -34.191  1.00  0.00    -0.166 NA
HETATM   19  C   UNL     1      -5.535   0.377 -33.632  1.00  0.00     0.157 A 
HETATM   20  C   UNL     1      -4.442   0.863 -32.676  1.00  0.00     0.277 A 
HETATM   21  C   UNL     1      -5.297  -1.049 -33.821  1.00  0.00     0.028 A 
HETATM   22  O   UNL     1      -4.306   2.007 -32.295  1.00  0.00    -0.266 OA
HETATM   23  N   UNL     1      -3.682  -0.252 -32.389  1.00  0.00    -0.321 N 
HETATM   24  C   UNL     1      -4.178  -1.370 -33.055  1.00  0.00     0.048 A 
HETATM   25  H   UNL     1      -2.880  -0.232 -31.777  1.00  0.00     0.169 HD
HETATM   26  C   UNL     1      -3.688  -2.658 -33.013  1.00  0.00     0.032 A 
HETATM   27  C   UNL     1      -4.362  -3.627 -33.768  1.00  0.00     0.021 A 
HETATM   28  C   UNL     1      -5.496  -3.287 -34.536  1.00  0.00     0.012 A 
HETATM   29 BR   UNL     1      -6.375  -4.633 -35.533  1.00  0.00    -0.051 Br
HETATM   30  C   UNL     1      -5.982  -1.980 -34.573  1.00  0.00     0.035 A 
ENDBRANCH   2  18
TORSDOF 5
ENDMDL
MODEL 5
REMARK VINA RESULT:      -8.2      1.684      2.234
REMARK  5 active torsions:
REMARK  status: ('A' for Active; 'I' for Inactive)
REMARK    1  A    between atoms: O_2  and  C_3 
REMARK    2  A    between atoms: C_6  and  C_7 
REMARK       I    between atoms: C_7  and  N_8 
REMARK    3  A    between atoms: N_8  and  C_9 
REMARK    4  A    between atoms: C_9  and  C_10 
REMARK       I    between atoms: C_10  and  N_11 
REMARK    5  A    between atoms: N_11  and  N_12 
ROOT
HETATM    1  C   UNL     1      -7.198   3.842 -33.293  1.00  0.00     0.255 C 
HETATM    2  N   UNL     1      -6.433   3.851 -32.142  1.00  0.00    -0.245 N 
HETATM    3  O   UNL     1      -7.273   4.775 -34.093  1.00  0.00    -0.270 OA
HETATM    4  H   UNL     1      -6.356   3.000 -31.579  1.00  0.00     0.192 HD
ENDROOT
BRANCH   1   5
HETATM    5  C   UNL     1      -7.913   2.519 -33.570  1.00  0.00     0.227 C 
BRANCH   5   6
HETATM    6  N   UNL     1      -7.113   1.303 -33.485  1.00  0.00    -0.348 N 
HETATM    7  C   UNL     1      -6.799   0.577 -34.614  1.00  0.00     0.252 C 
HETATM    8  O   UNL     1      -6.933   1.043 -35.741  1.00  0.00    -0.268 OA
HETATM    9  H   UNL     1      -6.867   0.968 -32.566  1.00  0.00     0.163 HD
BRANCH   7  10
HETATM   10  C   UNL     1      -6.300  -0.819 -34.429  1.00  0.00     0.032 A 
HETATM   11  C   UNL     1      -7.028  -1.947 -34.825  1.00  0.00     0.020 A 
HETATM   12  C   UNL     1      -6.463  -3.222 -34.712  1.00  0.00     0.038 A 
HETATM   13  C   UNL     1      -5.163  -3.388 -34.227  1.00  0.00     0.068 A 
HETATM   14  C   UNL     1      -4.442  -2.270 -33.812  1.00  0.00     0.038 A 
HETATM   15  C   UNL     1      -5.007  -0.994 -33.916  1.00  0.00     0.020 A 
BRANCH  13  16
HETATM   16  O   UNL     1      -4.718  -4.680 -34.205  1.00  0.00    -0.356 OA
HETATM   17  C   UNL     1      -3.425  -4.888 -33.646  1.00  0.00     0.210 C 
ENDBRANCH  13  16
ENDBRANCH   7  10
ENDBRANCH   5   6
ENDBRANCH   1   5
BRANCH   2  18
HETATM   18  N   UNL     1      -5.674   4.942 -31.840  1.00  0.00    -0.166 NA
HETATM   19  C   UNL     1      -4.398   4.840 -32.016  1.00  0.00     0.157 A 
HETATM   20  C   UNL     1      -3.583   3.627 -32.474  1.00  0.00     0.277 A 
HETATM   21  C   UNL     1      -3.432   5.908 -31.787  1.00  0.00     0.028 A 
HETATM   22  O   UNL     1      -4.044   2.539 -32.747  1.00  0.00    -0.266 OA
HETATM   23  N   UNL     1      -2.269   4.048 -32.481  1.00  0.00    -0.321 N 
HETATM   24  C   UNL     1      -2.177   5.379 -32.080  1.00  0.00     0.048 A 
HETATM   25  H   UNL     1      -1.499   3.452 -32.743  1.00  0.00     0.169 HD
HETATM   26  C   UNL     1      -1.036   6.145 -31.966  1.00  0.00     0.032 A 
HETATM   27  C   UNL     1      -1.193   7.473 -31.547  1.00  0.00     0.021 A 
HETATM   28  C   UNL     1      -2.471   7.995 -31.256  1.00  0.00     0.012 A 
HETATM   29 BR   UNL     1      -2.629   9.796 -30.700  1.00  0.00    -0.051 Br
HETATM   30  C   UNL     1      -3.618   7.211 -31.373  1.00  0.00     0.035 A 
ENDBRANCH   2  18
TORSDOF 5
ENDMDL
MODEL 6
REMARK VINA RESULT:      -8.2      1.329      1.476
REMARK  5 active torsions:
REMARK  status: ('A' for Active; 'I' for Inactive)
REMARK    1  A    between atoms: O_2  and  C_3 
REMARK    2  A    between atoms: C_6  and  C_7 
REMARK       I    between atoms: C_7  and  N_8 
REMARK    3  A    between atoms: N_8  and  C_9 
REMARK    4  A    between atoms: C_9  and  C_10 
REMARK       I    between atoms: C_10  and  N_11 
REMARK    5  A    between atoms: N_11  and  N_12 
ROOT
HETATM    1  C   UNL     1      -5.598   5.025 -32.665  1.00  0.00     0.255 C 
HETATM    2  N   UNL     1      -4.613   5.943 -32.978  1.00  0.00    -0.245 N 
HETATM    3  O   UNL     1      -5.887   4.666 -31.523  1.00  0.00    -0.270 OA
HETATM    4  H   UNL     1      -4.499   6.252 -33.946  1.00  0.00     0.192 HD
ENDROOT
BRANCH   1   5
HETATM    5  C   UNL     1      -6.398   4.519 -33.866  1.00  0.00     0.227 C 
BRANCH   5   6
HETATM    6  N   UNL     1      -6.144   3.151 -34.302  1.00  0.00    -0.348 N 
HETATM    7  C   UNL     1      -6.986   2.120 -33.940  1.00  0.00     0.252 C 
HETATM    8  O   UNL     1      -8.104   2.330 -33.482  1.00  0.00    -0.268 OA
HETATM    9  H   UNL     1      -5.289   2.972 -34.807  1.00  0.00     0.163 HD
BRANCH   7  10
HETATM   10  C   UNL     1      -6.488   0.722 -34.107  1.00  0.00     0.032 A 
HETATM   11  C   UNL     1      -5.370   0.225 -33.427  1.00  0.00     0.020 A 
HETATM   12  C   UNL     1      -5.013  -1.122 -33.554  1.00  0.00     0.038 A 
HETATM   13  C   UNL     1      -5.775  -1.993 -34.335  1.00  0.00     0.068 A 
HETATM   14  C   UNL     1      -6.878  -1.499 -35.031  1.00  0.00     0.038 A 
HETATM   15  C   UNL     1      -7.232  -0.150 -34.914  1.00  0.00     0.020 A 
BRANCH  13  16
HETATM   16  O   UNL     1      -5.341  -3.290 -34.342  1.00  0.00    -0.356 OA
HETATM   17  C   UNL     1      -6.190  -4.232 -34.990  1.00  0.00     0.210 C 
ENDBRANCH  13  16
ENDBRANCH   7  10
ENDBRANCH   5   6
ENDBRANCH   1   5
BRANCH   2  18
HETATM   18  N   UNL     1      -3.897   6.536 -31.981  1.00  0.00    -0.166 NA
HETATM   19  C   UNL     1      -2.660   6.188 -31.855  1.00  0.00     0.157 A 
HETATM   20  C   UNL     1      -1.868   5.142 -32.645  1.00  0.00     0.277 A 
HETATM   21  C   UNL     1      -1.729   6.740 -30.877  1.00  0.00     0.028 A 
HETATM   22  O   UNL     1      -2.316   4.458 -33.541  1.00  0.00    -0.266 OA
HETATM   23  N   UNL     1      -0.599   5.154 -32.103  1.00  0.00    -0.321 N 
HETATM   24  C   UNL     1      -0.514   6.086 -31.071  1.00  0.00     0.048 A 
HETATM   25  H   UNL     1       0.147   4.558 -32.429  1.00  0.00     0.169 HD
HETATM   26  C   UNL     1       0.588   6.384 -30.298  1.00  0.00     0.032 A 
HETATM   27  C   UNL     1       0.435   7.371 -29.315  1.00  0.00     0.021 A 
HETATM   28  C   UNL     1      -0.801   8.027 -29.133  1.00  0.00     0.012 A 
HETATM   29 BR   UNL     1      -0.954   9.356 -27.796  1.00  0.00    -0.051 Br
HETATM   30  C   UNL     1      -1.910   7.716 -29.919  1.00  0.00     0.035 A 
ENDBRANCH   2  18
TORSDOF 5
ENDMDL
MODEL 7
REMARK VINA RESULT:      -8.0      6.046      9.184
REMARK  5 active torsions:
REMARK  status: ('A' for Active; 'I' for Inactive)
REMARK    1  A    between atoms: O_2  and  C_3 
REMARK    2  A    between atoms: C_6  and  C_7 
REMARK       I    between atoms: C_7  and  N_8 
REMARK    3  A    between atoms: N_8  and  C_9 
REMARK    4  A    between atoms: C_9  and  C_10 
REMARK       I    between atoms: C_10  and  N_11 
REMARK    5  A    between atoms: N_11  and  N_12 
ROOT
HETATM    1  C   UNL     1      -9.045   3.884 -32.894  1.00  0.00     0.255 C 
HETATM    2  N   UNL     1     -10.102   3.802 -33.780  1.00  0.00    -0.245 N 
HETATM    3  O   UNL     1      -9.137   4.257 -31.723  1.00  0.00    -0.270 OA
HETATM    4  H   UNL     1      -9.954   3.396 -34.707  1.00  0.00     0.192 HD
ENDROOT
BRANCH   1   5
HETATM    5  C   UNL     1      -7.710   3.389 -33.450  1.00  0.00     0.227 C 
BRANCH   5   6
HETATM    6  N   UNL     1      -7.471   1.951 -33.418  1.00  0.00    -0.348 N 
HETATM    7  C   UNL     1      -6.191   1.444 -33.351  1.00  0.00     0.252 C 
HETATM    8  O   UNL     1      -5.232   2.146 -33.048  1.00  0.00    -0.268 OA
HETATM    9  H   UNL     1      -8.268   1.342 -33.527  1.00  0.00     0.163 HD
BRANCH   7  10
HETATM   10  C   UNL     1      -5.995  -0.000 -33.681  1.00  0.00     0.032 A 
HETATM   11  C   UNL     1      -6.960  -0.767 -34.344  1.00  0.00     0.020 A 
HETATM   12  C   UNL     1      -6.676  -2.088 -34.709  1.00  0.00     0.038 A 
HETATM   13  C   UNL     1      -5.426  -2.652 -34.441  1.00  0.00     0.068 A 
HETATM   14  C   UNL     1      -4.469  -1.898 -33.762  1.00  0.00     0.038 A 
HETATM   15  C   UNL     1      -4.753  -0.580 -33.388  1.00  0.00     0.020 A 
BRANCH  13  16
HETATM   16  O   UNL     1      -5.265  -3.934 -34.885  1.00  0.00    -0.356 OA
HETATM   17  C   UNL     1      -6.445  -4.597 -35.329  1.00  0.00     0.210 C 
ENDBRANCH  13  16
ENDBRANCH   7  10
ENDBRANCH   5   6
ENDBRANCH   1   5
BRANCH   2  18
HETATM   18  N   UNL     1     -11.361   4.125 -33.366  1.00  0.00    -0.166 NA
HETATM   19  C   UNL     1     -12.214   3.160 -33.266  1.00  0.00     0.157 A 
HETATM   20  C   UNL     1     -12.036   1.677 -33.601  1.00  0.00     0.277 A 
HETATM   21  C   UNL     1     -13.590   3.303 -32.804  1.00  0.00     0.028 A 
HETATM   22  O   UNL     1     -11.018   1.175 -34.032  1.00  0.00    -0.266 OA
HETATM   23  N   UNL     1     -13.253   1.088 -33.327  1.00  0.00    -0.321 N 
HETATM   24  C   UNL     1     -14.163   2.034 -32.861  1.00  0.00     0.048 A 
HETATM   25  H   UNL     1     -13.433   0.104 -33.456  1.00  0.00     0.169 HD
HETATM   26  C   UNL     1     -15.472   1.825 -32.483  1.00  0.00     0.032 A 
HETATM   27  C   UNL     1     -16.198   2.938 -32.039  1.00  0.00     0.021 A 
HETATM   28  C   UNL     1     -15.603   4.217 -31.983  1.00  0.00     0.012 A 
HETATM   29 BR   UNL     1     -16.624   5.686 -31.369  1.00  0.00    -0.051 Br
HETATM   30  C   UNL     1     -14.278   4.417 -32.370  1.00  0.00     0.035 A 
ENDBRANCH   2  18
TORSDOF 5
ENDMDL
MODEL 8
REMARK VINA RESULT:      -7.8      6.177      9.521
REMARK  5 active torsions:
REMARK  status: ('A' for Active; 'I' for Inactive)
REMARK    1  A    between atoms: O_2  and  C_3 
REMARK    2  A    between atoms: C_6  and  C_7 
REMARK       I    between atoms: C_7  and  N_8 
REMARK    3  A    between atoms: N_8  and  C_9 
REMARK    4  A    between atoms: C_9  and  C_10 
REMARK       I    between atoms: C_10  and  N_11 
REMARK    5  A    between atoms: N_11  and  N_12 
ROOT
HETATM    1  C   UNL     1      -8.628   3.380 -31.776  1.00  0.00     0.255 C 
HETATM    2  N   UNL     1      -8.860   2.023 -31.896  1.00  0.00    -0.245 N 
HETATM    3  O   UNL     1      -7.515   3.895 -31.663  1.00  0.00    -0.270 OA
HETATM    4  H   UNL     1      -9.809   1.686 -32.077  1.00  0.00     0.192 HD
ENDROOT
BRANCH   1   5
HETATM    5  C   UNL     1      -9.881   4.250 -31.875  1.00  0.00     0.227 C 
BRANCH   5   6
HETATM    6  N   UNL     1     -11.168   3.573 -31.766  1.00  0.00    -0.348 N 
HETATM    7  C   UNL     1     -12.013   3.472 -32.850  1.00  0.00     0.252 C 
HETATM    8  O   UNL     1     -11.627   3.693 -33.994  1.00  0.00    -0.268 OA
HETATM    9  H   UNL     1     -11.453   3.254 -30.852  1.00  0.00     0.163 HD
BRANCH   7  10
HETATM   10  C   UNL     1     -13.436   3.098 -32.593  1.00  0.00     0.032 A 
HETATM   11  C   UNL     1     -14.304   3.886 -31.826  1.00  0.00     0.020 A 
HETATM   12  C   UNL     1     -15.651   3.529 -31.704  1.00  0.00     0.038 A 
HETATM   13  C   UNL     1     -16.155   2.403 -32.358  1.00  0.00     0.068 A 
HETATM   14  C   UNL     1     -15.291   1.604 -33.106  1.00  0.00     0.038 A 
HETATM   15  C   UNL     1     -13.941   1.953 -33.224  1.00  0.00     0.020 A 
BRANCH  13  16
HETATM   16  O   UNL     1     -17.495   2.189 -32.188  1.00  0.00    -0.356 OA
HETATM   17  C   UNL     1     -18.364   3.142 -32.791  1.00  0.00     0.210 C 
ENDBRANCH  13  16
ENDBRANCH   7  10
ENDBRANCH   5   6
ENDBRANCH   1   5
BRANCH   2  18
HETATM   18  N   UNL     1      -7.810   1.154 -31.919  1.00  0.00    -0.166 NA
HETATM   19  C   UNL     1      -7.640   0.462 -32.997  1.00  0.00     0.157 A 
HETATM   20  C   UNL     1      -8.496   0.431 -34.267  1.00  0.00     0.277 A 
HETATM   21  C   UNL     1      -6.554  -0.485 -33.223  1.00  0.00     0.028 A 
HETATM   22  O   UNL     1      -9.504   1.082 -34.446  1.00  0.00    -0.266 OA
HETATM   23  N   UNL     1      -7.884  -0.482 -35.101  1.00  0.00    -0.321 N 
HETATM   24  C   UNL     1      -6.750  -1.018 -34.495  1.00  0.00     0.048 A 
HETATM   25  H   UNL     1      -8.232  -0.712 -36.019  1.00  0.00     0.169 HD
HETATM   26  C   UNL     1      -5.882  -1.954 -35.017  1.00  0.00     0.032 A 
HETATM   27  C   UNL     1      -4.799  -2.341 -34.219  1.00  0.00     0.021 A 
HETATM   28  C   UNL     1      -4.612  -1.789 -32.933  1.00  0.00     0.012 A 
HETATM   29 BR   UNL     1      -3.128  -2.340 -31.897  1.00  0.00    -0.051 Br
HETATM   30  C   UNL     1      -5.497  -0.845 -32.414  1.00  0.00     0.035 A 
ENDBRANCH   2  18
TORSDOF 5
ENDMDL
MODEL 9
REMARK VINA RESULT:      -7.8      6.019      8.105
REMARK  5 active torsions:
REMARK  status: ('A' for Active; 'I' for Inactive)
REMARK    1  A    between atoms: O_2  and  C_3 
REMARK    2  A    between atoms: C_6  and  C_7 
REMARK       I    between atoms: C_7  and  N_8 
REMARK    3  A    between atoms: N_8  and  C_9 
REMARK    4  A    between atoms: C_9  and  C_10 
REMARK       I    between atoms: C_10  and  N_11 
REMARK    5  A    between atoms: N_11  and  N_12 
ROOT
HETATM    1  C   UNL     1      -8.562   3.036 -32.687  1.00  0.00     0.255 C 
HETATM    2  N   UNL     1      -9.342   3.058 -33.828  1.00  0.00    -0.245 N 
HETATM    3  O   UNL     1      -8.092   4.034 -32.139  1.00  0.00    -0.270 OA
HETATM    4  H   UNL     1      -9.766   2.190 -34.167  1.00  0.00     0.192 HD
ENDROOT
BRANCH   1   5
HETATM    5  C   UNL     1      -8.373   1.650 -32.073  1.00  0.00     0.227 C 
BRANCH   5   6
HETATM    6  N   UNL     1      -7.295   0.828 -32.609  1.00  0.00    -0.348 N 
HETATM    7  C   UNL     1      -7.505  -0.008 -33.685  1.00  0.00     0.252 C 
HETATM    8  O   UNL     1      -8.498   0.093 -34.399  1.00  0.00    -0.268 OA
HETATM    9  H   UNL     1      -6.414   0.832 -32.117  1.00  0.00     0.163 HD
BRANCH   7  10
HETATM   10  C   UNL     1      -6.487  -1.068 -33.953  1.00  0.00     0.032 A 
HETATM   11  C   UNL     1      -5.195  -1.038 -33.415  1.00  0.00     0.020 A 
HETATM   12  C   UNL     1      -4.322  -2.111 -33.626  1.00  0.00     0.038 A 
HETATM   13  C   UNL     1      -4.729  -3.233 -34.352  1.00  0.00     0.068 A 
HETATM   14  C   UNL     1      -6.008  -3.259 -34.907  1.00  0.00     0.038 A 
HETATM   15  C   UNL     1      -6.881  -2.184 -34.706  1.00  0.00     0.020 A 
BRANCH  13  16
HETATM   16  O   UNL     1      -3.795  -4.226 -34.450  1.00  0.00    -0.356 OA
HETATM   17  C   UNL     1      -3.330  -4.774 -33.221  1.00  0.00     0.210 C 
ENDBRANCH  13  16
ENDBRANCH   7  10
ENDBRANCH   5   6
ENDBRANCH   1   5
BRANCH   2  18
HETATM   18  N   UNL     1      -9.659   4.249 -34.411  1.00  0.00    -0.166 NA
HETATM   19  C   UNL     1     -10.905   4.463 -34.675  1.00  0.00     0.157 A 
HETATM   20  C   UNL     1     -12.106   3.534 -34.474  1.00  0.00     0.277 A 
HETATM   21  C   UNL     1     -11.440   5.688 -35.258  1.00  0.00     0.028 A 
HETATM   22  O   UNL     1     -12.051   2.410 -34.019  1.00  0.00    -0.266 OA
HETATM   23  N   UNL     1     -13.199   4.241 -34.929  1.00  0.00    -0.321 N 
HETATM   24  C   UNL     1     -12.815   5.499 -35.388  1.00  0.00     0.048 A 
HETATM   25  H   UNL     1     -14.139   3.874 -34.921  1.00  0.00     0.169 HD
HETATM   26  C   UNL     1     -13.623   6.485 -35.911  1.00  0.00     0.032 A 
HETATM   27  C   UNL     1     -13.007   7.681 -36.303  1.00  0.00     0.021 A 
HETATM   28  C   UNL     1     -11.614   7.858 -36.163  1.00  0.00     0.012 A 
HETATM   29 BR   UNL     1     -10.831   9.493 -36.701  1.00  0.00    -0.051 Br
HETATM   30  C   UNL     1     -10.805   6.853 -35.634  1.00  0.00     0.035 A 
ENDBRANCH   2  18
TORSDOF 5
ENDMDL
MODEL 10
REMARK VINA RESULT:      -7.6      2.679      3.679
REMARK  5 active torsions:
REMARK  status: ('A' for Active; 'I' for Inactive)
REMARK    1  A    between atoms: O_2  and  C_3 
REMARK    2  A    between atoms: C_6  and  C_7 
REMARK       I    between atoms: C_7  and  N_8 
REMARK    3  A    between atoms: N_8  and  C_9 
REMARK    4  A    between atoms: C_9  and  C_10 
REMARK       I    between atoms: C_10  and  N_11 
REMARK    5  A    between atoms: N_11  and  N_12 
ROOT
HETATM    1  C   UNL     1      -7.804   3.476 -33.633  1.00  0.00     0.255 C 
HETATM    2  N   UNL     1      -6.956   3.138 -32.595  1.00  0.00    -0.245 N 
HETATM    3  O   UNL     1      -7.866   4.591 -34.153  1.00  0.00    -0.270 OA
HETATM    4  H   UNL     1      -6.904   2.165 -32.281  1.00  0.00     0.192 HD
ENDROOT
BRANCH   1   5
HETATM    5  C   UNL     1      -8.638   2.316 -34.176  1.00  0.00     0.227 C 
BRANCH   5   6
HETATM    6  N   UNL     1      -7.925   1.091 -34.517  1.00  0.00    -0.348 N 
HETATM    7  C   UNL     1      -7.703   0.110 -33.574  1.00  0.00     0.252 C 
HETATM    8  O   UNL     1      -8.309   0.090 -32.507  1.00  0.00    -0.268 OA
HETATM    9  H   UNL     1      -7.531   1.021 -35.443  1.00  0.00     0.163 HD
BRANCH   7  10
HETATM   10  C   UNL     1      -6.678  -0.932 -33.880  1.00  0.00     0.032 A 
HETATM   11  C   UNL     1      -5.355  -0.855 -33.428  1.00  0.00     0.020 A 
HETATM   12  C   UNL     1      -4.469  -1.911 -33.668  1.00  0.00     0.038 A 
HETATM   13  C   UNL     1      -4.893  -3.062 -34.336  1.00  0.00     0.068 A 
HETATM   14  C   UNL     1      -6.204  -3.136 -34.806  1.00  0.00     0.038 A 
HETATM   15  C   UNL     1      -7.090  -2.077 -34.576  1.00  0.00     0.020 A 
BRANCH  13  16
HETATM   16  O   UNL     1      -3.941  -4.035 -34.469  1.00  0.00    -0.356 OA
HETATM   17  C   UNL     1      -3.451  -4.603 -33.260  1.00  0.00     0.210 C 
ENDBRANCH  13  16
ENDBRANCH   7  10
ENDBRANCH   5   6
ENDBRANCH   1   5
BRANCH   2  18
HETATM   18  N   UNL     1      -6.094   4.067 -32.092  1.00  0.00    -0.166 NA
HETATM   19  C   UNL     1      -6.214   4.366 -30.841  1.00  0.00     0.157 A 
HETATM   20  C   UNL     1      -7.240   3.861 -29.823  1.00  0.00     0.277 A 
HETATM   21  C   UNL     1      -5.361   5.304 -30.119  1.00  0.00     0.028 A 
HETATM   22  O   UNL     1      -8.130   3.072 -30.061  1.00  0.00    -0.266 OA
HETATM   23  N   UNL     1      -6.932   4.503 -28.641  1.00  0.00    -0.321 N 
HETATM   24  C   UNL     1      -5.836   5.346 -28.809  1.00  0.00     0.048 A 
HETATM   25  H   UNL     1      -7.449   4.364 -27.786  1.00  0.00     0.169 HD
HETATM   26  C   UNL     1      -5.237   6.145 -27.860  1.00  0.00     0.032 A 
HETATM   27  C   UNL     1      -4.134   6.908 -28.264  1.00  0.00     0.021 A 
HETATM   28  C   UNL     1      -3.663   6.852 -29.593  1.00  0.00     0.012 A 
HETATM   29 BR   UNL     1      -2.165   7.897 -30.087  1.00  0.00    -0.051 Br
HETATM   30  C   UNL     1      -4.277   6.041 -30.547  1.00  0.00     0.035 A 
ENDBRANCH   2  18
TORSDOF 5
ENDMDL
