MODEL 1
REMARK VINA RESULT:      -8.2      0.000      0.000
REMARK  6 active torsions:
REMARK  status: ('A' for Active; 'I' for Inactive)
REMARK    1  A    between atoms: C_2  and  C_3 
REMARK    2  A    between atoms: C_3  and  C_4 
REMARK    3  A    between atoms: C_4  and  N_5 
REMARK       I    between atoms: N_5  and  C_6 
REMARK       I    between atoms: C_6  and  N_7 
REMARK    4  A    between atoms: N_7  and  C_8 
REMARK    5  A    between atoms: N_11  and  C_12 
REMARK    6  A    between atoms: C_15  and  O_16 
ROOT
HETATM    1  C   UNL     1      -9.185   1.945 -33.671  1.00  0.00     0.123 C 
HETATM    2  C   UNL     1      -8.322   3.157 -33.684  1.00  0.00     0.009 A 
HETATM    3  C   UNL     1      -6.939   3.130 -33.638  1.00  0.00     0.047 A 
HETATM    4  N   UNL     1      -6.502   4.442 -33.801  1.00  0.00    -0.238 N 
HETATM    5  N   UNL     1      -7.574   5.283 -33.914  1.00  0.00    -0.179 NA
HETATM    6  C   UNL     1      -8.650   4.504 -33.859  1.00  0.00     0.150 A 
HETATM    7  C   UNL     1      -6.124   1.883 -33.508  1.00  0.00     0.069 C 
HETATM    8  C   UNL     1      -6.978   0.592 -33.729  1.00  0.00    -0.040 C 
HETATM    9  C   UNL     1      -6.266  -0.593 -33.048  1.00  0.00     0.015 C 
HETATM   10  C   UNL     1      -7.080   0.281 -35.237  1.00  0.00     0.015 C 
HETATM   11  C   UNL     1      -8.400   0.739 -33.112  1.00  0.00     0.039 C 
ENDROOT
BRANCH   1  12
HETATM   12  N   UNL     1     -10.371   2.200 -32.882  1.00  0.00    -0.334 N 
HETATM   13  C   UNL     1     -11.576   2.382 -33.511  1.00  0.00     0.316 C 
HETATM   14  N   UNL     1     -12.607   2.473 -32.611  1.00  0.00    -0.343 N 
HETATM   15  O   UNL     1     -11.705   2.462 -34.725  1.00  0.00    -0.247 OA
HETATM   16  H   UNL     1     -12.330   2.829 -31.709  1.00  0.00     0.164 HD
HETATM   17  H   UNL     1     -10.401   1.808 -31.954  1.00  0.00     0.165 HD
BRANCH  14  18
HETATM   18  C   UNL     1     -13.943   2.835 -33.050  1.00  0.00     0.124 C 
BRANCH  18  19
HETATM   19  C   UNL     1     -14.967   1.700 -33.003  1.00  0.00     0.019 C 
BRANCH  19  20
HETATM   20  C   UNL     1     -14.789   0.684 -34.131  1.00  0.00    -0.003 C 
HETATM   21  C   UNL     1     -13.938  -0.494 -33.680  1.00  0.00     0.005 C 
ENDBRANCH  19  20
ENDBRANCH  18  19
ENDBRANCH  14  18
ENDBRANCH   1  12
BRANCH   4  22
HETATM   22  C   UNL     1      -5.185   4.993 -33.911  1.00  0.00     0.058 A 
HETATM   23  C   UNL     1      -4.694   5.777 -32.853  1.00  0.00     0.034 A 
HETATM   24  C   UNL     1      -3.445   6.399 -32.940  1.00  0.00     0.039 A 
HETATM   25  C   UNL     1      -2.658   6.253 -34.081  1.00  0.00     0.068 A 
HETATM   26  C   UNL     1      -3.114   5.439 -35.115  1.00  0.00     0.039 A 
HETATM   27  C   UNL     1      -4.367   4.807 -35.030  1.00  0.00     0.034 A 
BRANCH  25  28
HETATM   28  O   UNL     1      -1.474   6.934 -34.057  1.00  0.00    -0.356 OA
HETATM   29  C   UNL     1      -1.149   7.605 -32.845  1.00  0.00     0.210 C 
ENDBRANCH  25  28
ENDBRANCH   4  22
TORSDOF 6
ENDMDL
MODEL 2
REMARK VINA RESULT:      -7.9      0.743      1.207
REMARK  6 active torsions:
REMARK  status: ('A' for Active; 'I' for Inactive)
REMARK    1  A    between atoms: C_2  and  C_3 
REMARK    2  A    between atoms: C_3  and  C_4 
REMARK    3  A    between atoms: C_4  and  N_5 
REMARK       I    between atoms: N_5  and  C_6 
REMARK       I    between atoms: C_6  and  N_7 
REMARK    4  A    between atoms: N_7  and  C_8 
REMARK    5  A    between atoms: N_11  and  C_12 
REMARK    6  A    between atoms: C_15  and  O_16 
ROOT
HETATM    1  C   UNL     1      -9.080   1.649 -33.745  1.00  0.00     0.123 C 
HETATM    2  C   UNL     1      -8.295   2.912 -33.798  1.00  0.00     0.009 A 
HETATM    3  C   UNL     1      -6.921   2.983 -33.641  1.00  0.00     0.047 A 
HETATM    4  N   UNL     1      -6.553   4.303 -33.885  1.00  0.00    -0.238 N 
HETATM    5  N   UNL     1      -7.661   5.057 -34.156  1.00  0.00    -0.179 NA
HETATM    6  C   UNL     1      -8.688   4.214 -34.117  1.00  0.00     0.150 A 
HETATM    7  C   UNL     1      -6.046   1.809 -33.336  1.00  0.00     0.069 C 
HETATM    8  C   UNL     1      -6.798   0.449 -33.509  1.00  0.00    -0.040 C 
HETATM    9  C   UNL     1      -6.075  -0.623 -32.670  1.00  0.00     0.015 C 
HETATM   10  C   UNL     1      -6.753   0.007 -34.985  1.00  0.00     0.015 C 
HETATM   11  C   UNL     1      -8.273   0.550 -33.020  1.00  0.00     0.039 C 
ENDROOT
BRANCH   1  12
HETATM   12  N   UNL     1     -10.342   1.888 -33.078  1.00  0.00    -0.334 N 
HETATM   13  C   UNL     1     -11.509   1.824 -33.796  1.00  0.00     0.316 C 
HETATM   14  N   UNL     1     -12.608   1.938 -32.984  1.00  0.00    -0.343 N 
HETATM   15  O   UNL     1     -11.555   1.691 -35.011  1.00  0.00    -0.247 OA
HETATM   16  H   UNL     1     -12.439   2.465 -32.140  1.00  0.00     0.164 HD
HETATM   17  H   UNL     1     -10.400   1.650 -32.101  1.00  0.00     0.165 HD
BRANCH  14  18
HETATM   18  C   UNL     1     -13.938   2.066 -33.551  1.00  0.00     0.124 C 
BRANCH  18  19
HETATM   19  C   UNL     1     -15.080   1.661 -32.617  1.00  0.00     0.019 C 
BRANCH  19  20
HETATM   20  C   UNL     1     -15.737   2.854 -31.921  1.00  0.00    -0.003 C 
HETATM   21  C   UNL     1     -17.254   2.743 -31.957  1.00  0.00     0.005 C 
ENDBRANCH  19  20
ENDBRANCH  18  19
ENDBRANCH  14  18
ENDBRANCH   1  12
BRANCH   4  22
HETATM   22  C   UNL     1      -5.267   4.932 -33.939  1.00  0.00     0.058 A 
HETATM   23  C   UNL     1      -4.909   5.818 -32.909  1.00  0.00     0.034 A 
HETATM   24  C   UNL     1      -3.697   6.514 -32.951  1.00  0.00     0.039 A 
HETATM   25  C   UNL     1      -2.817   6.342 -34.017  1.00  0.00     0.068 A 
HETATM   26  C   UNL     1      -3.141   5.429 -35.019  1.00  0.00     0.039 A 
HETATM   27  C   UNL     1      -4.355   4.723 -34.978  1.00  0.00     0.034 A 
BRANCH  25  28
HETATM   28  O   UNL     1      -1.681   7.099 -33.957  1.00  0.00    -0.356 OA
HETATM   29  C   UNL     1      -0.950   7.057 -32.737  1.00  0.00     0.210 C 
ENDBRANCH  25  28
ENDBRANCH   4  22
TORSDOF 6
ENDMDL
MODEL 3
REMARK VINA RESULT:      -7.8      2.276      9.046
REMARK  6 active torsions:
REMARK  status: ('A' for Active; 'I' for Inactive)
REMARK    1  A    between atoms: C_2  and  C_3 
REMARK    2  A    between atoms: C_3  and  C_4 
REMARK    3  A    between atoms: C_4  and  N_5 
REMARK       I    between atoms: N_5  and  C_6 
REMARK       I    between atoms: C_6  and  N_7 
REMARK    4  A    between atoms: N_7  and  C_8 
REMARK    5  A    between atoms: N_11  and  C_12 
REMARK    6  A    between atoms: C_15  and  O_16 
ROOT
HETATM    1  C   UNL     1      -5.263   2.431 -32.509  1.00  0.00     0.123 C 
HETATM    2  C   UNL     1      -6.638   2.801 -32.944  1.00  0.00     0.009 A 
HETATM    3  C   UNL     1      -7.588   1.893 -33.380  1.00  0.00     0.047 A 
HETATM    4  N   UNL     1      -8.771   2.603 -33.567  1.00  0.00    -0.238 N 
HETATM    5  N   UNL     1      -8.572   3.927 -33.289  1.00  0.00    -0.179 NA
HETATM    6  C   UNL     1      -7.304   4.028 -32.904  1.00  0.00     0.150 A 
HETATM    7  C   UNL     1      -7.343   0.426 -33.534  1.00  0.00     0.069 C 
HETATM    8  C   UNL     1      -6.002  -0.024 -32.869  1.00  0.00    -0.040 C 
HETATM    9  C   UNL     1      -5.546  -1.343 -33.524  1.00  0.00     0.015 C 
HETATM   10  C   UNL     1      -6.225  -0.293 -31.366  1.00  0.00     0.015 C 
HETATM   11  C   UNL     1      -4.885   1.041 -33.066  1.00  0.00     0.039 C 
ENDROOT
BRANCH   1  12
HETATM   12  N   UNL     1      -4.324   3.439 -32.954  1.00  0.00    -0.334 N 
HETATM   13  C   UNL     1      -3.123   3.576 -32.307  1.00  0.00     0.316 C 
HETATM   14  N   UNL     1      -2.307   4.477 -32.942  1.00  0.00    -0.343 N 
HETATM   15  O   UNL     1      -2.827   2.973 -31.284  1.00  0.00    -0.247 OA
HETATM   16  H   UNL     1      -2.807   5.186 -33.459  1.00  0.00     0.164 HD
HETATM   17  H   UNL     1      -4.343   3.688 -33.930  1.00  0.00     0.165 HD
BRANCH  14  18
HETATM   18  C   UNL     1      -1.058   4.901 -32.336  1.00  0.00     0.124 C 
BRANCH  18  19
HETATM   19  C   UNL     1      -1.156   6.158 -31.469  1.00  0.00     0.019 C 
BRANCH  19  20
HETATM   20  C   UNL     1       0.202   6.810 -31.204  1.00  0.00    -0.003 C 
HETATM   21  C   UNL     1       0.383   7.116 -29.724  1.00  0.00     0.005 C 
ENDBRANCH  19  20
ENDBRANCH  18  19
ENDBRANCH  14  18
ENDBRANCH   1  12
BRANCH   4  22
HETATM   22  C   UNL     1     -10.086   2.170 -33.932  1.00  0.00     0.058 A 
HETATM   23  C   UNL     1     -10.797   2.915 -34.888  1.00  0.00     0.034 A 
HETATM   24  C   UNL     1     -12.112   2.579 -35.226  1.00  0.00     0.039 A 
HETATM   25  C   UNL     1     -12.744   1.494 -34.622  1.00  0.00     0.068 A 
HETATM   26  C   UNL     1     -12.031   0.720 -33.710  1.00  0.00     0.039 A 
HETATM   27  C   UNL     1     -10.708   1.050 -33.371  1.00  0.00     0.034 A 
BRANCH  25  28
HETATM   28  O   UNL     1     -14.036   1.287 -35.015  1.00  0.00    -0.356 OA
HETATM   29  C   UNL     1     -14.950   0.870 -34.006  1.00  0.00     0.210 C 
ENDBRANCH  25  28
ENDBRANCH   4  22
TORSDOF 6
ENDMDL
MODEL 4
REMARK VINA RESULT:      -7.7      4.433      9.040
REMARK  6 active torsions:
REMARK  status: ('A' for Active; 'I' for Inactive)
REMARK    1  A    between atoms: C_2  and  C_3 
REMARK    2  A    between atoms: C_3  and  C_4 
REMARK    3  A    between atoms: C_4  and  N_5 
REMARK       I    between atoms: N_5  and  C_6 
REMARK       I    between atoms: C_6  and  N_7 
REMARK    4  A    between atoms: N_7  and  C_8 
REMARK    5  A    between atoms: N_11  and  C_12 
REMARK    6  A    between atoms: C_15  and  O_16 
ROOT
HETATM    1  C   UNL     1      -5.176   4.362 -31.162  1.00  0.00     0.123 C 
HETATM    2  C   UNL     1      -4.657   3.081 -31.715  1.00  0.00     0.009 A 
HETATM    3  C   UNL     1      -5.441   1.971 -31.979  1.00  0.00     0.047 A 
HETATM    4  N   UNL     1      -4.621   1.035 -32.604  1.00  0.00    -0.238 N 
HETATM    5  N   UNL     1      -3.347   1.521 -32.704  1.00  0.00    -0.179 NA
HETATM    6  C   UNL     1      -3.386   2.744 -32.187  1.00  0.00     0.150 A 
HETATM    7  C   UNL     1      -6.905   1.885 -31.688  1.00  0.00     0.069 C 
HETATM    8  C   UNL     1      -7.522   3.277 -31.333  1.00  0.00    -0.040 C 
HETATM    9  C   UNL     1      -8.813   3.052 -30.523  1.00  0.00     0.015 C 
HETATM   10  C   UNL     1      -7.897   4.031 -32.625  1.00  0.00     0.015 C 
HETATM   11  C   UNL     1      -6.541   4.131 -30.476  1.00  0.00     0.039 C 
ENDROOT
BRANCH   1  12
HETATM   12  N   UNL     1      -4.217   4.915 -30.230  1.00  0.00    -0.334 N 
HETATM   13  C   UNL     1      -3.521   6.046 -30.568  1.00  0.00     0.316 C 
HETATM   14  N   UNL     1      -2.764   6.505 -29.520  1.00  0.00    -0.343 N 
HETATM   15  O   UNL     1      -3.568   6.571 -31.672  1.00  0.00    -0.247 OA
HETATM   16  H   UNL     1      -2.478   5.783 -28.877  1.00  0.00     0.164 HD
HETATM   17  H   UNL     1      -4.389   4.766 -29.248  1.00  0.00     0.165 HD
BRANCH  14  18
HETATM   18  C   UNL     1      -1.820   7.592 -29.709  1.00  0.00     0.124 C 
BRANCH  18  19
HETATM   19  C   UNL     1      -0.351   7.212 -29.510  1.00  0.00     0.019 C 
BRANCH  19  20
HETATM   20  C   UNL     1       0.355   6.842 -30.815  1.00  0.00    -0.003 C 
HETATM   21  C   UNL     1       0.605   5.344 -30.897  1.00  0.00     0.005 C 
ENDBRANCH  19  20
ENDBRANCH  18  19
ENDBRANCH  14  18
ENDBRANCH   1  12
BRANCH   4  22
HETATM   22  C   UNL     1      -4.910  -0.251 -33.162  1.00  0.00     0.058 A 
HETATM   23  C   UNL     1      -4.013  -1.306 -32.918  1.00  0.00     0.034 A 
HETATM   24  C   UNL     1      -4.208  -2.562 -33.500  1.00  0.00     0.039 A 
HETATM   25  C   UNL     1      -5.299  -2.796 -34.335  1.00  0.00     0.068 A 
HETATM   26  C   UNL     1      -6.220  -1.771 -34.544  1.00  0.00     0.039 A 
HETATM   27  C   UNL     1      -6.031  -0.508 -33.956  1.00  0.00     0.034 A 
BRANCH  25  28
HETATM   28  O   UNL     1      -5.363  -4.053 -34.865  1.00  0.00    -0.356 OA
HETATM   29  C   UNL     1      -6.614  -4.450 -35.415  1.00  0.00     0.210 C 
ENDBRANCH  25  28
ENDBRANCH   4  22
TORSDOF 6
ENDMDL
MODEL 5
REMARK VINA RESULT:      -7.3      3.008      5.712
REMARK  6 active torsions:
REMARK  status: ('A' for Active; 'I' for Inactive)
REMARK    1  A    between atoms: C_2  and  C_3 
REMARK    2  A    between atoms: C_3  and  C_4 
REMARK    3  A    between atoms: C_4  and  N_5 
REMARK       I    between atoms: N_5  and  C_6 
REMARK       I    between atoms: C_6  and  N_7 
REMARK    4  A    between atoms: N_7  and  C_8 
REMARK    5  A    between atoms: N_11  and  C_12 
REMARK    6  A    between atoms: C_15  and  O_16 
ROOT
HETATM    1  C   UNL     1      -8.860   3.473 -32.640  1.00  0.00     0.123 C 
HETATM    2  C   UNL     1      -8.580   2.034 -32.892  1.00  0.00     0.009 A 
HETATM    3  C   UNL     1      -7.377   1.547 -33.376  1.00  0.00     0.047 A 
HETATM    4  N   UNL     1      -7.462   0.157 -33.348  1.00  0.00    -0.238 N 
HETATM    5  N   UNL     1      -8.692  -0.228 -32.893  1.00  0.00    -0.179 NA
HETATM    6  C   UNL     1      -9.340   0.897 -32.609  1.00  0.00     0.150 A 
HETATM    7  C   UNL     1      -6.218   2.405 -33.770  1.00  0.00     0.069 C 
HETATM    8  C   UNL     1      -6.390   3.886 -33.300  1.00  0.00    -0.040 C 
HETATM    9  C   UNL     1      -5.508   4.789 -34.184  1.00  0.00     0.015 C 
HETATM   10  C   UNL     1      -5.911   4.034 -31.842  1.00  0.00     0.015 C 
HETATM   11  C   UNL     1      -7.869   4.355 -33.432  1.00  0.00     0.039 C 
ENDROOT
BRANCH   1  12
HETATM   12  N   UNL     1     -10.227   3.775 -33.008  1.00  0.00    -0.334 N 
HETATM   13  C   UNL     1     -11.168   3.953 -32.027  1.00  0.00     0.316 C 
HETATM   14  N   UNL     1     -12.368   4.365 -32.547  1.00  0.00    -0.343 N 
HETATM   15  O   UNL     1     -10.957   3.758 -30.838  1.00  0.00    -0.247 OA
HETATM   16  H   UNL     1     -12.527   4.062 -33.496  1.00  0.00     0.164 HD
HETATM   17  H   UNL     1     -10.373   4.276 -33.871  1.00  0.00     0.165 HD
BRANCH  14  18
HETATM   18  C   UNL     1     -13.549   4.451 -31.707  1.00  0.00     0.124 C 
BRANCH  18  19
HETATM   19  C   UNL     1     -14.815   3.840 -32.309  1.00  0.00     0.019 C 
BRANCH  19  20
HETATM   20  C   UNL     1     -14.992   2.361 -31.961  1.00  0.00    -0.003 C 
HETATM   21  C   UNL     1     -14.613   1.472 -33.136  1.00  0.00     0.005 C 
ENDBRANCH  19  20
ENDBRANCH  18  19
ENDBRANCH  14  18
ENDBRANCH   1  12
BRANCH   4  22
HETATM   22  C   UNL     1      -6.498  -0.855 -33.658  1.00  0.00     0.058 A 
HETATM   23  C   UNL     1      -6.840  -1.842 -34.598  1.00  0.00     0.034 A 
HETATM   24  C   UNL     1      -5.965  -2.895 -34.883  1.00  0.00     0.039 A 
HETATM   25  C   UNL     1      -4.732  -2.987 -34.240  1.00  0.00     0.068 A 
HETATM   26  C   UNL     1      -4.364  -1.986 -33.342  1.00  0.00     0.039 A 
HETATM   27  C   UNL     1      -5.238  -0.923 -33.057  1.00  0.00     0.034 A 
BRANCH  25  28
HETATM   28  O   UNL     1      -3.981  -4.076 -34.581  1.00  0.00    -0.356 OA
HETATM   29  C   UNL     1      -3.384  -4.799 -33.511  1.00  0.00     0.210 C 
ENDBRANCH  25  28
ENDBRANCH   4  22
TORSDOF 6
ENDMDL
MODEL 6
REMARK VINA RESULT:      -7.0      1.328      1.474
REMARK  6 active torsions:
REMARK  status: ('A' for Active; 'I' for Inactive)
REMARK    1  A    between atoms: C_2  and  C_3 
REMARK    2  A    between atoms: C_3  and  C_4 
REMARK    3  A    between atoms: C_4  and  N_5 
REMARK       I    between atoms: N_5  and  C_6 
REMARK       I    between atoms: C_6  and  N_7 
REMARK    4  A    between atoms: N_7  and  C_8 
REMARK    5  A    between atoms: N_11  and  C_12 
REMARK    6  A    between atoms: C_15  and  O_16 
ROOT
HETATM    1  C   UNL     1      -8.135   1.918 -32.958  1.00  0.00     0.123 C 
HETATM    2  C   UNL     1      -7.272   3.130 -32.955  1.00  0.00     0.009 A 
HETATM    3  C   UNL     1      -5.925   3.127 -32.635  1.00  0.00     0.047 A 
HETATM    4  N   UNL     1      -5.449   4.413 -32.875  1.00  0.00    -0.238 N 
HETATM    5  N   UNL     1      -6.467   5.219 -33.301  1.00  0.00    -0.179 NA
HETATM    6  C   UNL     1      -7.542   4.440 -33.360  1.00  0.00     0.150 A 
HETATM    7  C   UNL     1      -5.167   1.917 -32.191  1.00  0.00     0.069 C 
HETATM    8  C   UNL     1      -5.976   0.598 -32.410  1.00  0.00    -0.040 C 
HETATM    9  C   UNL     1      -5.426  -0.482 -31.457  1.00  0.00     0.015 C 
HETATM   10  C   UNL     1      -5.784   0.097 -33.856  1.00  0.00     0.015 C 
HETATM   11  C   UNL     1      -7.490   0.803 -32.107  1.00  0.00     0.039 C 
ENDROOT
BRANCH   1  12
HETATM   12  N   UNL     1      -9.450   2.255 -32.456  1.00  0.00    -0.334 N 
HETATM   13  C   UNL     1     -10.506   2.335 -33.327  1.00  0.00     0.316 C 
HETATM   14  N   UNL     1     -11.693   2.527 -32.665  1.00  0.00    -0.343 N 
HETATM   15  O   UNL     1     -10.395   2.254 -34.542  1.00  0.00    -0.247 OA
HETATM   16  H   UNL     1     -11.594   3.002 -31.780  1.00  0.00     0.164 HD
HETATM   17  H   UNL     1      -9.665   1.988 -31.508  1.00  0.00     0.165 HD
BRANCH  14  18
HETATM   18  C   UNL     1     -12.913   2.808 -33.400  1.00  0.00     0.124 C 
BRANCH  18  19
HETATM   19  C   UNL     1     -14.196   2.305 -32.736  1.00  0.00     0.019 C 
BRANCH  19  20
HETATM   20  C   UNL     1     -14.878   1.184 -33.522  1.00  0.00    -0.003 C 
HETATM   21  C   UNL     1     -13.880   0.109 -33.922  1.00  0.00     0.005 C 
ENDBRANCH  19  20
ENDBRANCH  18  19
ENDBRANCH  14  18
ENDBRANCH   1  12
BRANCH   4  22
HETATM   22  C   UNL     1      -4.129   4.963 -32.793  1.00  0.00     0.058 A 
HETATM   23  C   UNL     1      -3.923   6.096 -31.987  1.00  0.00     0.034 A 
HETATM   24  C   UNL     1      -2.671   6.717 -31.930  1.00  0.00     0.039 A 
HETATM   25  C   UNL     1      -1.599   6.222 -32.671  1.00  0.00     0.068 A 
HETATM   26  C   UNL     1      -1.781   5.071 -33.434  1.00  0.00     0.039 A 
HETATM   27  C   UNL     1      -3.036   4.441 -33.491  1.00  0.00     0.034 A 
BRANCH  25  28
HETATM   28  O   UNL     1      -0.438   6.933 -32.554  1.00  0.00    -0.356 OA
HETATM   29  C   UNL     1       0.318   6.726 -31.367  1.00  0.00     0.210 C 
ENDBRANCH  25  28
ENDBRANCH   4  22
TORSDOF 6
ENDMDL
MODEL 7
REMARK VINA RESULT:      -6.9      4.438      6.318
REMARK  6 active torsions:
REMARK  status: ('A' for Active; 'I' for Inactive)
REMARK    1  A    between atoms: C_2  and  C_3 
REMARK    2  A    between atoms: C_3  and  C_4 
REMARK    3  A    between atoms: C_4  and  N_5 
REMARK       I    between atoms: N_5  and  C_6 
REMARK       I    between atoms: C_6  and  N_7 
REMARK    4  A    between atoms: N_7  and  C_8 
REMARK    5  A    between atoms: N_11  and  C_12 
REMARK    6  A    between atoms: C_15  and  O_16 
ROOT
HETATM    1  C   UNL     1     -11.893   3.613 -32.265  1.00  0.00     0.123 C 
HETATM    2  C   UNL     1     -10.571   2.932 -32.196  1.00  0.00     0.009 A 
HETATM    3  C   UNL     1     -10.232   1.811 -32.934  1.00  0.00     0.047 A 
HETATM    4  N   UNL     1      -8.884   1.559 -32.692  1.00  0.00    -0.238 N 
HETATM    5  N   UNL     1      -8.389   2.471 -31.803  1.00  0.00    -0.179 NA
HETATM    6  C   UNL     1      -9.398   3.292 -31.528  1.00  0.00     0.150 A 
HETATM    7  C   UNL     1     -11.167   1.094 -33.854  1.00  0.00     0.069 C 
HETATM    8  C   UNL     1     -12.471   1.910 -34.128  1.00  0.00    -0.040 C 
HETATM    9  C   UNL     1     -13.578   0.935 -34.576  1.00  0.00     0.015 C 
HETATM   10  C   UNL     1     -12.232   2.915 -35.273  1.00  0.00     0.015 C 
HETATM   11  C   UNL     1     -12.955   2.655 -32.849  1.00  0.00     0.039 C 
ENDROOT
BRANCH   1  12
HETATM   12  N   UNL     1     -12.277   4.066 -30.945  1.00  0.00    -0.334 N 
HETATM   13  C   UNL     1     -13.027   5.206 -30.814  1.00  0.00     0.316 C 
HETATM   14  N   UNL     1     -13.414   5.409 -29.513  1.00  0.00    -0.343 N 
HETATM   15  O   UNL     1     -13.306   5.950 -31.744  1.00  0.00    -0.247 OA
HETATM   16  H   UNL     1     -12.782   5.013 -28.833  1.00  0.00     0.164 HD
HETATM   17  H   UNL     1     -12.393   3.364 -30.231  1.00  0.00     0.165 HD
BRANCH  14  18
HETATM   18  C   UNL     1     -14.071   6.643 -29.120  1.00  0.00     0.124 C 
BRANCH  18  19
HETATM   19  C   UNL     1     -15.122   6.491 -28.019  1.00  0.00     0.019 C 
BRANCH  19  20
HETATM   20  C   UNL     1     -14.515   6.417 -26.617  1.00  0.00    -0.003 C 
HETATM   21  C   UNL     1     -15.450   5.703 -25.652  1.00  0.00     0.005 C 
ENDBRANCH  19  20
ENDBRANCH  18  19
ENDBRANCH  14  18
ENDBRANCH   1  12
BRANCH   4  22
HETATM   22  C   UNL     1      -7.992   0.583 -33.240  1.00  0.00     0.058 A 
HETATM   23  C   UNL     1      -7.053  -0.022 -32.387  1.00  0.00     0.034 A 
HETATM   24  C   UNL     1      -6.110  -0.927 -32.886  1.00  0.00     0.039 A 
HETATM   25  C   UNL     1      -6.083  -1.249 -34.241  1.00  0.00     0.068 A 
HETATM   26  C   UNL     1      -7.041  -0.692 -35.086  1.00  0.00     0.039 A 
HETATM   27  C   UNL     1      -7.994   0.213 -34.589  1.00  0.00     0.034 A 
BRANCH  25  28
HETATM   28  O   UNL     1      -5.097  -2.121 -34.609  1.00  0.00    -0.356 OA
HETATM   29  C   UNL     1      -4.217  -2.558 -33.580  1.00  0.00     0.210 C 
ENDBRANCH  25  28
ENDBRANCH   4  22
TORSDOF 6
ENDMDL
MODEL 8
REMARK VINA RESULT:      -6.7      4.616      9.851
REMARK  6 active torsions:
REMARK  status: ('A' for Active; 'I' for Inactive)
REMARK    1  A    between atoms: C_2  and  C_3 
REMARK    2  A    between atoms: C_3  and  C_4 
REMARK    3  A    between atoms: C_4  and  N_5 
REMARK       I    between atoms: N_5  and  C_6 
REMARK       I    between atoms: C_6  and  N_7 
REMARK    4  A    between atoms: N_7  and  C_8 
REMARK    5  A    between atoms: N_11  and  C_12 
REMARK    6  A    between atoms: C_15  and  O_16 
ROOT
HETATM    1  C   UNL     1      -4.149   5.829 -30.538  1.00  0.00     0.123 C 
HETATM    2  C   UNL     1      -3.989   4.508 -31.204  1.00  0.00     0.009 A 
HETATM    3  C   UNL     1      -4.979   3.541 -31.266  1.00  0.00     0.047 A 
HETATM    4  N   UNL     1      -4.495   2.518 -32.077  1.00  0.00    -0.238 N 
HETATM    5  N   UNL     1      -3.225   2.808 -32.492  1.00  0.00    -0.179 NA
HETATM    6  C   UNL     1      -2.943   4.002 -31.980  1.00  0.00     0.150 A 
HETATM    7  C   UNL     1      -6.321   3.666 -30.619  1.00  0.00     0.069 C 
HETATM    8  C   UNL     1      -6.604   5.120 -30.119  1.00  0.00    -0.040 C 
HETATM    9  C   UNL     1      -7.675   5.060 -29.012  1.00  0.00     0.015 C 
HETATM   10  C   UNL     1      -7.163   5.974 -31.275  1.00  0.00     0.015 C 
HETATM   11  C   UNL     1      -5.321   5.779 -29.533  1.00  0.00     0.039 C 
ENDROOT
BRANCH   1  12
HETATM   12  N   UNL     1      -2.915   6.192 -29.874  1.00  0.00    -0.334 N 
HETATM   13  C   UNL     1      -2.649   7.512 -29.618  1.00  0.00     0.316 C 
HETATM   14  N   UNL     1      -1.511   7.661 -28.866  1.00  0.00    -0.343 N 
HETATM   15  O   UNL     1      -3.339   8.438 -30.021  1.00  0.00    -0.247 OA
HETATM   16  H   UNL     1      -0.841   6.915 -28.988  1.00  0.00     0.164 HD
HETATM   17  H   UNL     1      -2.518   5.519 -29.238  1.00  0.00     0.165 HD
BRANCH  14  18
HETATM   18  C   UNL     1      -0.951   8.978 -28.622  1.00  0.00     0.124 C 
BRANCH  18  19
HETATM   19  C   UNL     1      -0.089   9.089 -27.364  1.00  0.00     0.019 C 
BRANCH  19  20
HETATM   20  C   UNL     1       1.335   8.571 -27.565  1.00  0.00    -0.003 C 
HETATM   21  C   UNL     1       1.877   7.946 -26.288  1.00  0.00     0.005 C 
ENDBRANCH  19  20
ENDBRANCH  18  19
ENDBRANCH  14  18
ENDBRANCH   1  12
BRANCH   4  22
HETATM   22  C   UNL     1      -5.111   1.314 -32.548  1.00  0.00     0.058 A 
HETATM   23  C   UNL     1      -6.051   1.403 -33.589  1.00  0.00     0.034 A 
HETATM   24  C   UNL     1      -6.736   0.268 -34.036  1.00  0.00     0.039 A 
HETATM   25  C   UNL     1      -6.498  -0.977 -33.458  1.00  0.00     0.068 A 
HETATM   26  C   UNL     1      -5.532  -1.084 -32.459  1.00  0.00     0.039 A 
HETATM   27  C   UNL     1      -4.838   0.052 -32.010  1.00  0.00     0.034 A 
BRANCH  25  28
HETATM   28  O   UNL     1      -7.250  -2.001 -33.961  1.00  0.00    -0.356 OA
HETATM   29  C   UNL     1      -6.558  -2.987 -34.718  1.00  0.00     0.210 C 
ENDBRANCH  25  28
ENDBRANCH   4  22
TORSDOF 6
ENDMDL
MODEL 9
REMARK VINA RESULT:      -6.5      3.569      6.209
REMARK  6 active torsions:
REMARK  status: ('A' for Active; 'I' for Inactive)
REMARK    1  A    between atoms: C_2  and  C_3 
REMARK    2  A    between atoms: C_3  and  C_4 
REMARK    3  A    between atoms: C_4  and  N_5 
REMARK       I    between atoms: N_5  and  C_6 
REMARK       I    between atoms: C_6  and  N_7 
REMARK    4  A    between atoms: N_7  and  C_8 
REMARK    5  A    between atoms: N_11  and  C_12 
REMARK    6  A    between atoms: C_15  and  O_16 
ROOT
HETATM    1  C   UNL     1      -8.762   4.014 -33.695  1.00  0.00     0.123 C 
HETATM    2  C   UNL     1      -8.462   2.579 -33.952  1.00  0.00     0.009 A 
HETATM    3  C   UNL     1      -7.191   2.030 -33.918  1.00  0.00     0.047 A 
HETATM    4  N   UNL     1      -7.340   0.655 -34.078  1.00  0.00    -0.238 N 
HETATM    5  N   UNL     1      -8.660   0.342 -34.242  1.00  0.00    -0.179 NA
HETATM    6  C   UNL     1      -9.318   1.493 -34.149  1.00  0.00     0.150 A 
HETATM    7  C   UNL     1      -5.941   2.814 -33.678  1.00  0.00     0.069 C 
HETATM    8  C   UNL     1      -6.237   4.264 -33.174  1.00  0.00    -0.040 C 
HETATM    9  C   UNL     1      -5.019   5.154 -33.489  1.00  0.00     0.015 C 
HETATM   10  C   UNL     1      -6.440   4.258 -31.645  1.00  0.00     0.015 C 
HETATM   11  C   UNL     1      -7.487   4.866 -33.882  1.00  0.00     0.039 C 
ENDROOT
BRANCH   1  12
HETATM   12  N   UNL     1      -9.815   4.459 -34.583  1.00  0.00    -0.334 N 
HETATM   13  C   UNL     1     -10.961   4.996 -34.056  1.00  0.00     0.316 C 
HETATM   14  N   UNL     1     -11.785   5.487 -35.037  1.00  0.00    -0.343 N 
HETATM   15  O   UNL     1     -11.214   5.024 -32.860  1.00  0.00    -0.247 OA
HETATM   16  H   UNL     1     -11.682   5.022 -35.927  1.00  0.00     0.164 HD
HETATM   17  H   UNL     1      -9.541   4.784 -35.497  1.00  0.00     0.165 HD
BRANCH  14  18
HETATM   18  C   UNL     1     -13.124   5.947 -34.717  1.00  0.00     0.124 C 
BRANCH  18  19
HETATM   19  C   UNL     1     -13.887   6.574 -35.886  1.00  0.00     0.019 C 
BRANCH  19  20
HETATM   20  C   UNL     1     -13.082   7.646 -36.622  1.00  0.00    -0.003 C 
HETATM   21  C   UNL     1     -13.902   8.912 -36.815  1.00  0.00     0.005 C 
ENDBRANCH  19  20
ENDBRANCH  18  19
ENDBRANCH  14  18
ENDBRANCH   1  12
BRANCH   4  22
HETATM   22  C   UNL     1      -6.382  -0.409 -34.046  1.00  0.00     0.058 A 
HETATM   23  C   UNL     1      -6.588  -1.522 -34.880  1.00  0.00     0.034 A 
HETATM   24  C   UNL     1      -5.724  -2.621 -34.835  1.00  0.00     0.039 A 
HETATM   25  C   UNL     1      -4.638  -2.634 -33.962  1.00  0.00     0.068 A 
HETATM   26  C   UNL     1      -4.398  -1.515 -33.167  1.00  0.00     0.039 A 
HETATM   27  C   UNL     1      -5.260  -0.407 -33.213  1.00  0.00     0.034 A 
BRANCH  25  28
HETATM   28  O   UNL     1      -3.887  -3.775 -33.991  1.00  0.00    -0.356 OA
HETATM   29  C   UNL     1      -4.584  -4.990 -34.243  1.00  0.00     0.210 C 
ENDBRANCH  25  28
ENDBRANCH   4  22
TORSDOF 6
ENDMDL
MODEL 10
REMARK VINA RESULT:      -6.5      3.975      8.928
REMARK  6 active torsions:
REMARK  status: ('A' for Active; 'I' for Inactive)
REMARK    1  A    between atoms: C_2  and  C_3 
REMARK    2  A    between atoms: C_3  and  C_4 
REMARK    3  A    between atoms: C_4  and  N_5 
REMARK       I    between atoms: N_5  and  C_6 
REMARK       I    between atoms: C_6  and  N_7 
REMARK    4  A    between atoms: N_7  and  C_8 
REMARK    5  A    between atoms: N_11  and  C_12 
REMARK    6  A    between atoms: C_15  and  O_16 
ROOT
HETATM    1  C   UNL     1      -9.091   2.099 -33.077  1.00  0.00     0.123 C 
HETATM    2  C   UNL     1     -10.573   1.972 -33.103  1.00  0.00     0.009 A 
HETATM    3  C   UNL     1     -11.441   2.821 -32.438  1.00  0.00     0.047 A 
HETATM    4  N   UNL     1     -12.731   2.457 -32.813  1.00  0.00    -0.238 N 
HETATM    5  N   UNL     1     -12.689   1.389 -33.664  1.00  0.00    -0.179 NA
HETATM    6  C   UNL     1     -11.399   1.121 -33.842  1.00  0.00     0.150 A 
HETATM    7  C   UNL     1     -11.006   3.945 -31.552  1.00  0.00     0.069 C 
HETATM    8  C   UNL     1      -9.480   4.251 -31.689  1.00  0.00    -0.040 C 
HETATM    9  C   UNL     1      -9.004   4.971 -30.412  1.00  0.00     0.015 C 
HETATM   10  C   UNL     1      -9.239   5.197 -32.884  1.00  0.00     0.015 C 
HETATM   11  C   UNL     1      -8.651   2.944 -31.860  1.00  0.00     0.039 C 
ENDROOT
BRANCH   1  12
HETATM   12  N   UNL     1      -8.489   0.784 -33.036  1.00  0.00    -0.334 N 
HETATM   13  C   UNL     1      -7.229   0.601 -33.544  1.00  0.00     0.316 C 
HETATM   14  N   UNL     1      -6.765  -0.667 -33.299  1.00  0.00    -0.343 N 
HETATM   15  O   UNL     1      -6.605   1.464 -34.147  1.00  0.00    -0.247 OA
HETATM   16  H   UNL     1      -7.494  -1.358 -33.213  1.00  0.00     0.164 HD
HETATM   17  H   UNL     1      -8.767   0.172 -32.285  1.00  0.00     0.165 HD
BRANCH  14  18
HETATM   18  C   UNL     1      -5.523  -1.129 -33.894  1.00  0.00     0.124 C 
BRANCH  18  19
HETATM   19  C   UNL     1      -5.681  -2.240 -34.933  1.00  0.00     0.019 C 
BRANCH  19  20
HETATM   20  C   UNL     1      -6.839  -3.190 -34.624  1.00  0.00    -0.003 C 
HETATM   21  C   UNL     1      -6.623  -4.548 -35.275  1.00  0.00     0.005 C 
ENDBRANCH  19  20
ENDBRANCH  18  19
ENDBRANCH  14  18
ENDBRANCH   1  12
BRANCH   4  22
HETATM   22  C   UNL     1     -14.005   3.031 -32.498  1.00  0.00     0.058 A 
HETATM   23  C   UNL     1     -15.103   2.172 -32.319  1.00  0.00     0.034 A 
HETATM   24  C   UNL     1     -16.383   2.685 -32.084  1.00  0.00     0.039 A 
HETATM   25  C   UNL     1     -16.596   4.060 -32.019  1.00  0.00     0.068 A 
HETATM   26  C   UNL     1     -15.505   4.918 -32.145  1.00  0.00     0.039 A 
HETATM   27  C   UNL     1     -14.216   4.408 -32.377  1.00  0.00     0.034 A 
BRANCH  25  28
HETATM   28  O   UNL     1     -17.893   4.435 -31.813  1.00  0.00    -0.356 OA
HETATM   29  C   UNL     1     -18.225   5.782 -32.132  1.00  0.00     0.210 C 
ENDBRANCH  25  28
ENDBRANCH   4  22
TORSDOF 6
ENDMDL
