MODEL 1
REMARK VINA RESULT:      -8.5      0.000      0.000
REMARK  8 active torsions:
REMARK  status: ('A' for Active; 'I' for Inactive)
REMARK    1  A    between atoms: O_2  and  C_3 
REMARK    2  A    between atoms: C_5  and  N_6 
REMARK    3  A    between atoms: N_6  and  C_7 
REMARK    4  A    between atoms: C_9  and  N_10 
REMARK    5  A    between atoms: C_12  and  C_13 
REMARK    6  A    between atoms: C_13  and  N_14 
REMARK    7  A    between atoms: N_18  and  C_19 
REMARK    8  A    between atoms: C_29  and  O_30 
ROOT
HETATM    1  C   UNL     1      -7.845   1.205 -33.093  1.00  0.00     0.731 A 
HETATM    2  N   UNL     1      -8.960   1.276 -33.810  1.00  0.00    -0.031 NA
HETATM    3  C   UNL     1      -9.346   2.473 -34.208  1.00  0.00     0.219 A 
HETATM    4  N   UNL     1      -8.662   3.585 -34.003  1.00  0.00    -0.200 NA
HETATM    5  C   UNL     1      -7.538   3.430 -33.307  1.00  0.00     0.174 A 
HETATM    6  N   UNL     1      -7.082   2.268 -32.841  1.00  0.00    -0.045 NA
ENDROOT
BRANCH   5   7
HETATM    7  C   UNL     1      -6.568   4.596 -33.315  1.00  0.00     0.316 C 
BRANCH   7   8
HETATM    8  N   UNL     1      -5.072   4.209 -33.390  1.00  0.00    -0.061 N 
HETATM    9  H   UNL     1      -5.044   3.381 -33.998  1.00  0.00     0.280 HD
HETATM   10  C   UNL     1      -4.226   5.297 -34.044  1.00  0.00     0.255 C 
HETATM   11  C   UNL     1      -2.753   4.832 -34.161  1.00  0.00     0.152 C 
HETATM   12  N   UNL     1      -2.197   4.335 -32.877  1.00  0.00    -0.364 N 
HETATM   13  C   UNL     1      -3.040   3.335 -32.176  1.00  0.00     0.152 C 
HETATM   14  C   UNL     1      -4.506   3.814 -32.029  1.00  0.00     0.255 C 
BRANCH  12  15
HETATM   15  C   UNL     1      -1.410   5.164 -32.097  1.00  0.00     0.102 A 
HETATM   16  N   UNL     1      -1.190   4.793 -30.821  1.00  0.00    -0.352 N 
HETATM   17  H   UNL     1      -1.581   3.904 -30.522  1.00  0.00     0.166 HD
HETATM   18  C   UNL     1      -0.429   5.484 -29.957  1.00  0.00     0.089 A 
HETATM   19  C   UNL     1       0.190   6.654 -30.363  1.00  0.00     0.017 A 
HETATM   20  C   UNL     1       0.017   7.078 -31.673  1.00  0.00     0.005 A 
HETATM   21  C   UNL     1      -0.775   6.330 -32.545  1.00  0.00     0.048 A 
ENDBRANCH  12  15
ENDBRANCH   7   8
ENDBRANCH   5   7
BRANCH   3  22
HETATM   22  N   UNL     1     -10.509   2.561 -34.940  1.00  0.00    -0.270 NA
HETATM   23  H   UNL     1     -10.483   3.399 -35.515  1.00  0.00     0.127 HD
HETATM   24  H   UNL     1     -10.691   1.709 -35.454  1.00  0.00     0.127 HD
ENDBRANCH   3  22
BRANCH   1  25
HETATM   25  N   UNL     1      -7.389  -0.009 -32.593  1.00  0.00    -0.185 N 
HETATM   26  H   UNL     1      -8.105  -0.494 -32.063  1.00  0.00     0.184 HD
BRANCH  25  27
HETATM   27  C   UNL     1      -6.404  -0.886 -33.094  1.00  0.00     0.085 A 
HETATM   28  C   UNL     1      -6.673  -1.800 -34.121  1.00  0.00     0.069 A 
HETATM   29  C   UNL     1      -5.677  -2.642 -34.623  1.00  0.00     0.070 A 
HETATM   30  C   UNL     1      -4.397  -2.583 -34.078  1.00  0.00     0.039 A 
HETATM   31  C   UNL     1      -4.110  -1.684 -33.045  1.00  0.00     0.042 A 
HETATM   32  C   UNL     1      -5.104  -0.837 -32.550  1.00  0.00     0.095 A 
BRANCH  29  33
HETATM   33  O   UNL     1      -6.085  -3.457 -35.643  1.00  0.00    -0.356 OA
HETATM   34  C   UNL     1      -6.276  -4.833 -35.331  1.00  0.00     0.210 C 
ENDBRANCH  29  33
BRANCH  32  35
HETATM   35  O   UNL     1      -4.928   0.083 -31.540  1.00  0.00    -0.354 OA
HETATM   36  C   UNL     1      -3.673   0.048 -30.864  1.00  0.00     0.210 C 
ENDBRANCH  32  35
ENDBRANCH  25  27
ENDBRANCH   1  25
TORSDOF 8
ENDMDL
MODEL 2
REMARK VINA RESULT:      -8.3      3.016      8.924
REMARK  8 active torsions:
REMARK  status: ('A' for Active; 'I' for Inactive)
REMARK    1  A    between atoms: O_2  and  C_3 
REMARK    2  A    between atoms: C_5  and  N_6 
REMARK    3  A    between atoms: N_6  and  C_7 
REMARK    4  A    between atoms: C_9  and  N_10 
REMARK    5  A    between atoms: C_12  and  C_13 
REMARK    6  A    between atoms: C_13  and  N_14 
REMARK    7  A    between atoms: N_18  and  C_19 
REMARK    8  A    between atoms: C_29  and  O_30 
ROOT
HETATM    1  C   UNL     1      -3.980   2.481 -31.322  1.00  0.00     0.731 A 
HETATM    2  N   UNL     1      -2.981   1.621 -31.159  1.00  0.00    -0.031 NA
HETATM    3  C   UNL     1      -3.252   0.343 -31.334  1.00  0.00     0.219 A 
HETATM    4  N   UNL     1      -4.422  -0.126 -31.730  1.00  0.00    -0.200 NA
HETATM    5  C   UNL     1      -5.365   0.798 -31.906  1.00  0.00     0.174 A 
HETATM    6  N   UNL     1      -5.194   2.107 -31.727  1.00  0.00    -0.045 NA
ENDROOT
BRANCH   5   7
HETATM    7  C   UNL     1      -6.611   0.362 -32.652  1.00  0.00     0.316 C 
BRANCH   7   8
HETATM    8  N   UNL     1      -7.710   1.442 -32.786  1.00  0.00    -0.061 N 
HETATM    9  H   UNL     1      -7.209   2.338 -32.731  1.00  0.00     0.280 HD
HETATM   10  C   UNL     1      -8.415   1.385 -34.138  1.00  0.00     0.255 C 
HETATM   11  C   UNL     1      -9.452   2.530 -34.250  1.00  0.00     0.152 C 
HETATM   12  N   UNL     1     -10.384   2.586 -33.095  1.00  0.00    -0.364 N 
HETATM   13  C   UNL     1      -9.728   2.559 -31.763  1.00  0.00     0.152 C 
HETATM   14  C   UNL     1      -8.715   1.394 -31.638  1.00  0.00     0.255 C 
BRANCH  12  15
HETATM   15  C   UNL     1     -11.646   2.028 -33.196  1.00  0.00     0.102 A 
HETATM   16  N   UNL     1     -12.685   2.755 -32.743  1.00  0.00    -0.352 N 
HETATM   17  H   UNL     1     -12.482   3.689 -32.394  1.00  0.00     0.166 HD
HETATM   18  C   UNL     1     -13.965   2.354 -32.798  1.00  0.00     0.089 A 
HETATM   19  C   UNL     1     -14.281   1.124 -33.351  1.00  0.00     0.017 A 
HETATM   20  C   UNL     1     -13.255   0.337 -33.852  1.00  0.00     0.005 A 
HETATM   21  C   UNL     1     -11.936   0.790 -33.785  1.00  0.00     0.048 A 
ENDBRANCH  12  15
ENDBRANCH   7   8
ENDBRANCH   5   7
BRANCH   3  22
HETATM   22  N   UNL     1      -2.227  -0.560 -31.154  1.00  0.00    -0.270 NA
HETATM   23  H   UNL     1      -1.444  -0.303 -31.748  1.00  0.00     0.127 HD
HETATM   24  H   UNL     1      -1.991  -0.665 -30.176  1.00  0.00     0.127 HD
ENDBRANCH   3  22
BRANCH   1  25
HETATM   25  N   UNL     1      -3.798   3.842 -31.112  1.00  0.00    -0.185 N 
HETATM   26  H   UNL     1      -4.128   4.134 -30.198  1.00  0.00     0.184 HD
BRANCH  25  27
HETATM   27  C   UNL     1      -2.826   4.721 -31.637  1.00  0.00     0.085 A 
HETATM   28  C   UNL     1      -1.520   4.775 -31.133  1.00  0.00     0.069 A 
HETATM   29  C   UNL     1      -0.564   5.633 -31.682  1.00  0.00     0.070 A 
HETATM   30  C   UNL     1      -0.922   6.462 -32.742  1.00  0.00     0.039 A 
HETATM   31  C   UNL     1      -2.224   6.430 -33.254  1.00  0.00     0.042 A 
HETATM   32  C   UNL     1      -3.177   5.567 -32.708  1.00  0.00     0.095 A 
BRANCH  29  33
HETATM   33  O   UNL     1       0.672   5.551 -31.103  1.00  0.00    -0.356 OA
HETATM   34  C   UNL     1       0.726   5.058 -29.768  1.00  0.00     0.210 C 
ENDBRANCH  29  33
BRANCH  32  35
HETATM   35  O   UNL     1      -4.481   5.456 -33.137  1.00  0.00    -0.354 OA
HETATM   36  C   UNL     1      -4.670   5.019 -34.481  1.00  0.00     0.210 C 
ENDBRANCH  32  35
ENDBRANCH  25  27
ENDBRANCH   1  25
TORSDOF 8
ENDMDL
MODEL 3
REMARK VINA RESULT:      -8.3      2.610      3.876
REMARK  8 active torsions:
REMARK  status: ('A' for Active; 'I' for Inactive)
REMARK    1  A    between atoms: O_2  and  C_3 
REMARK    2  A    between atoms: C_5  and  N_6 
REMARK    3  A    between atoms: N_6  and  C_7 
REMARK    4  A    between atoms: C_9  and  N_10 
REMARK    5  A    between atoms: C_12  and  C_13 
REMARK    6  A    between atoms: C_13  and  N_14 
REMARK    7  A    between atoms: N_18  and  C_19 
REMARK    8  A    between atoms: C_29  and  O_30 
ROOT
HETATM    1  C   UNL     1      -4.359   1.601 -31.303  1.00  0.00     0.731 A 
HETATM    2  N   UNL     1      -5.233   1.963 -30.371  1.00  0.00    -0.031 NA
HETATM    3  C   UNL     1      -5.333   3.250 -30.104  1.00  0.00     0.219 A 
HETATM    4  N   UNL     1      -4.679   4.200 -30.750  1.00  0.00    -0.200 NA
HETATM    5  C   UNL     1      -3.847   3.764 -31.693  1.00  0.00     0.174 A 
HETATM    6  N   UNL     1      -3.659   2.485 -32.014  1.00  0.00    -0.045 NA
ENDROOT
BRANCH   5   7
HETATM    7  C   UNL     1      -3.319   4.802 -32.665  1.00  0.00     0.316 C 
BRANCH   7   8
HETATM    8  N   UNL     1      -1.956   5.427 -32.284  1.00  0.00    -0.061 N 
HETATM    9  H   UNL     1      -1.429   5.468 -33.165  1.00  0.00     0.280 HD
HETATM   10  C   UNL     1      -2.100   6.853 -31.760  1.00  0.00     0.255 C 
HETATM   11  C   UNL     1      -0.705   7.458 -31.464  1.00  0.00     0.152 C 
HETATM   12  N   UNL     1       0.135   6.588 -30.601  1.00  0.00    -0.364 N 
HETATM   13  C   UNL     1       0.226   5.173 -31.042  1.00  0.00     0.152 C 
HETATM   14  C   UNL     1      -1.171   4.557 -31.306  1.00  0.00     0.255 C 
BRANCH  12  15
HETATM   15  C   UNL     1       0.225   6.841 -29.244  1.00  0.00     0.102 A 
HETATM   16  N   UNL     1      -0.292   5.923 -28.405  1.00  0.00    -0.352 N 
HETATM   17  H   UNL     1      -0.679   5.079 -28.819  1.00  0.00     0.166 HD
HETATM   18  C   UNL     1      -0.255   6.022 -27.066  1.00  0.00     0.089 A 
HETATM   19  C   UNL     1       0.346   7.117 -26.470  1.00  0.00     0.017 A 
HETATM   20  C   UNL     1       0.915   8.088 -27.282  1.00  0.00     0.005 A 
HETATM   21  C   UNL     1       0.864   7.948 -28.670  1.00  0.00     0.048 A 
ENDBRANCH  12  15
ENDBRANCH   7   8
ENDBRANCH   5   7
BRANCH   3  22
HETATM   22  N   UNL     1      -6.227   3.636 -29.129  1.00  0.00    -0.270 NA
HETATM   23  H   UNL     1      -5.735   4.158 -28.409  1.00  0.00     0.127 HD
HETATM   24  H   UNL     1      -7.022   4.120 -29.524  1.00  0.00     0.127 HD
ENDBRANCH   3  22
BRANCH   1  25
HETATM   25  N   UNL     1      -4.154   0.264 -31.615  1.00  0.00    -0.185 N 
HETATM   26  H   UNL     1      -3.925  -0.288 -30.794  1.00  0.00     0.184 HD
BRANCH  25  27
HETATM   27  C   UNL     1      -4.696  -0.521 -32.655  1.00  0.00     0.085 A 
HETATM   28  C   UNL     1      -5.791  -0.093 -33.417  1.00  0.00     0.069 A 
HETATM   29  C   UNL     1      -6.298  -0.871 -34.461  1.00  0.00     0.070 A 
HETATM   30  C   UNL     1      -5.714  -2.105 -34.737  1.00  0.00     0.039 A 
HETATM   31  C   UNL     1      -4.625  -2.555 -33.982  1.00  0.00     0.042 A 
HETATM   32  C   UNL     1      -4.114  -1.772 -32.943  1.00  0.00     0.095 A 
BRANCH  29  33
HETATM   33  O   UNL     1      -7.349  -0.307 -35.131  1.00  0.00    -0.356 OA
HETATM   34  C   UNL     1      -8.165   0.603 -34.400  1.00  0.00     0.210 C 
ENDBRANCH  29  33
BRANCH  32  35
HETATM   35  O   UNL     1      -3.049  -2.119 -32.142  1.00  0.00    -0.354 OA
HETATM   36  C   UNL     1      -2.942  -3.498 -31.794  1.00  0.00     0.210 C 
ENDBRANCH  32  35
ENDBRANCH  25  27
ENDBRANCH   1  25
TORSDOF 8
ENDMDL
MODEL 4
REMARK VINA RESULT:      -8.2      2.074      3.187
REMARK  8 active torsions:
REMARK  status: ('A' for Active; 'I' for Inactive)
REMARK    1  A    between atoms: O_2  and  C_3 
REMARK    2  A    between atoms: C_5  and  N_6 
REMARK    3  A    between atoms: N_6  and  C_7 
REMARK    4  A    between atoms: C_9  and  N_10 
REMARK    5  A    between atoms: C_12  and  C_13 
REMARK    6  A    between atoms: C_13  and  N_14 
REMARK    7  A    between atoms: N_18  and  C_19 
REMARK    8  A    between atoms: C_29  and  O_30 
ROOT
HETATM    1  C   UNL     1      -6.542   1.981 -31.296  1.00  0.00     0.731 A 
HETATM    2  N   UNL     1      -6.786   2.511 -30.104  1.00  0.00    -0.031 NA
HETATM    3  C   UNL     1      -6.435   3.768 -29.919  1.00  0.00     0.219 A 
HETATM    4  N   UNL     1      -5.928   4.548 -30.858  1.00  0.00    -0.200 NA
HETATM    5  C   UNL     1      -5.743   3.957 -32.037  1.00  0.00     0.174 A 
HETATM    6  N   UNL     1      -6.040   2.687 -32.309  1.00  0.00    -0.045 NA
ENDROOT
BRANCH   5   7
HETATM    7  C   UNL     1      -5.469   4.869 -33.218  1.00  0.00     0.316 C 
BRANCH   7   8
HETATM    8  N   UNL     1      -4.023   5.412 -33.308  1.00  0.00    -0.061 N 
HETATM    9  H   UNL     1      -3.880   5.616 -34.305  1.00  0.00     0.280 HD
HETATM   10  C   UNL     1      -3.846   6.715 -32.535  1.00  0.00     0.255 C 
HETATM   11  C   UNL     1      -2.405   7.254 -32.717  1.00  0.00     0.152 C 
HETATM   12  N   UNL     1      -1.363   6.239 -32.421  1.00  0.00    -0.364 N 
HETATM   13  C   UNL     1      -1.555   4.931 -33.097  1.00  0.00     0.152 C 
HETATM   14  C   UNL     1      -2.986   4.375 -32.886  1.00  0.00     0.255 C 
BRANCH  12  15
HETATM   15  C   UNL     1      -0.731   6.234 -31.190  1.00  0.00     0.102 A 
HETATM   16  N   UNL     1      -0.120   5.096 -30.809  1.00  0.00    -0.352 N 
HETATM   17  H   UNL     1      -0.123   4.323 -31.470  1.00  0.00     0.166 HD
HETATM   18  C   UNL     1       0.551   4.952 -29.656  1.00  0.00     0.089 A 
HETATM   19  C   UNL     1       0.648   6.017 -28.775  1.00  0.00     0.017 A 
HETATM   20  C   UNL     1       0.055   7.222 -29.120  1.00  0.00     0.005 A 
HETATM   21  C   UNL     1      -0.628   7.337 -30.332  1.00  0.00     0.048 A 
ENDBRANCH  12  15
ENDBRANCH   7   8
ENDBRANCH   5   7
BRANCH   3  22
HETATM   22  N   UNL     1      -6.671   4.325 -28.682  1.00  0.00    -0.270 NA
HETATM   23  H   UNL     1      -5.931   4.987 -28.464  1.00  0.00     0.127 HD
HETATM   24  H   UNL     1      -7.605   4.707 -28.618  1.00  0.00     0.127 HD
ENDBRANCH   3  22
BRANCH   1  25
HETATM   25  N   UNL     1      -6.835   0.649 -31.565  1.00  0.00    -0.185 N 
HETATM   26  H   UNL     1      -7.834   0.478 -31.591  1.00  0.00     0.184 HD
BRANCH  25  27
HETATM   27  C   UNL     1      -6.105  -0.313 -32.296  1.00  0.00     0.085 A 
HETATM   28  C   UNL     1      -4.867  -0.799 -31.857  1.00  0.00     0.069 A 
HETATM   29  C   UNL     1      -4.171  -1.771 -32.581  1.00  0.00     0.070 A 
HETATM   30  C   UNL     1      -4.713  -2.253 -33.770  1.00  0.00     0.039 A 
HETATM   31  C   UNL     1      -5.944  -1.773 -34.230  1.00  0.00     0.042 A 
HETATM   32  C   UNL     1      -6.642  -0.807 -33.502  1.00  0.00     0.095 A 
BRANCH  29  33
HETATM   33  O   UNL     1      -2.992  -2.167 -32.011  1.00  0.00    -0.356 OA
HETATM   34  C   UNL     1      -2.847  -3.555 -31.729  1.00  0.00     0.210 C 
ENDBRANCH  29  33
BRANCH  32  35
HETATM   35  O   UNL     1      -7.858  -0.270 -33.863  1.00  0.00    -0.354 OA
HETATM   36  C   UNL     1      -7.885   0.471 -35.081  1.00  0.00     0.210 C 
ENDBRANCH  32  35
ENDBRANCH  25  27
ENDBRANCH   1  25
TORSDOF 8
ENDMDL
MODEL 5
REMARK VINA RESULT:      -8.2      3.327      9.437
REMARK  8 active torsions:
REMARK  status: ('A' for Active; 'I' for Inactive)
REMARK    1  A    between atoms: O_2  and  C_3 
REMARK    2  A    between atoms: C_5  and  N_6 
REMARK    3  A    between atoms: N_6  and  C_7 
REMARK    4  A    between atoms: C_9  and  N_10 
REMARK    5  A    between atoms: C_12  and  C_13 
REMARK    6  A    between atoms: C_13  and  N_14 
REMARK    7  A    between atoms: N_18  and  C_19 
REMARK    8  A    between atoms: C_29  and  O_30 
ROOT
HETATM    1  C   UNL     1      -2.674   6.205 -31.116  1.00  0.00     0.731 A 
HETATM    2  N   UNL     1      -2.060   6.951 -32.027  1.00  0.00    -0.031 NA
HETATM    3  C   UNL     1      -2.392   6.757 -33.288  1.00  0.00     0.219 A 
HETATM    4  N   UNL     1      -3.338   5.929 -33.693  1.00  0.00    -0.200 NA
HETATM    5  C   UNL     1      -3.933   5.240 -32.721  1.00  0.00     0.174 A 
HETATM    6  N   UNL     1      -3.647   5.347 -31.424  1.00  0.00    -0.045 NA
ENDROOT
BRANCH   5   7
HETATM    7  C   UNL     1      -5.219   4.524 -33.086  1.00  0.00     0.316 C 
BRANCH   7   8
HETATM    8  N   UNL     1      -5.432   3.158 -32.391  1.00  0.00    -0.061 N 
HETATM    9  H   UNL     1      -5.485   3.376 -31.389  1.00  0.00     0.280 HD
HETATM   10  C   UNL     1      -6.749   2.502 -32.797  1.00  0.00     0.255 C 
HETATM   11  C   UNL     1      -6.948   1.177 -32.022  1.00  0.00     0.152 C 
HETATM   12  N   UNL     1      -5.777   0.268 -32.113  1.00  0.00    -0.364 N 
HETATM   13  C   UNL     1      -4.471   0.900 -31.803  1.00  0.00     0.152 C 
HETATM   14  C   UNL     1      -4.256   2.209 -32.604  1.00  0.00     0.255 C 
BRANCH  12  15
HETATM   15  C   UNL     1      -5.782  -0.777 -33.020  1.00  0.00     0.102 A 
HETATM   16  N   UNL     1      -4.632  -1.457 -33.190  1.00  0.00    -0.352 N 
HETATM   17  H   UNL     1      -3.842  -1.189 -32.609  1.00  0.00     0.166 HD
HETATM   18  C   UNL     1      -4.494  -2.506 -34.016  1.00  0.00     0.089 A 
HETATM   19  C   UNL     1      -5.577  -2.952 -34.755  1.00  0.00     0.017 A 
HETATM   20  C   UNL     1      -6.794  -2.304 -34.609  1.00  0.00     0.005 A 
HETATM   21  C   UNL     1      -6.902  -1.221 -33.734  1.00  0.00     0.048 A 
ENDBRANCH  12  15
ENDBRANCH   7   8
ENDBRANCH   5   7
BRANCH   3  22
HETATM   22  N   UNL     1      -1.752   7.516 -34.243  1.00  0.00    -0.270 NA
HETATM   23  H   UNL     1      -0.946   7.005 -34.595  1.00  0.00     0.127 HD
HETATM   24  H   UNL     1      -2.392   7.828 -34.961  1.00  0.00     0.127 HD
ENDBRANCH   3  22
BRANCH   1  25
HETATM   25  N   UNL     1      -2.354   6.308 -29.768  1.00  0.00    -0.185 N 
HETATM   26  H   UNL     1      -2.562   5.455 -29.261  1.00  0.00     0.184 HD
BRANCH  25  27
HETATM   27  C   UNL     1      -1.369   7.089 -29.125  1.00  0.00     0.085 A 
HETATM   28  C   UNL     1      -1.631   8.384 -28.660  1.00  0.00     0.069 A 
HETATM   29  C   UNL     1      -0.651   9.132 -28.002  1.00  0.00     0.070 A 
HETATM   30  C   UNL     1       0.616   8.584 -27.820  1.00  0.00     0.039 A 
HETATM   31  C   UNL     1       0.901   7.295 -28.285  1.00  0.00     0.042 A 
HETATM   32  C   UNL     1      -0.081   6.546 -28.936  1.00  0.00     0.095 A 
BRANCH  29  33
HETATM   33  O   UNL     1      -1.066  10.366 -27.582  1.00  0.00    -0.356 OA
HETATM   34  C   UNL     1      -0.994  10.628 -26.184  1.00  0.00     0.210 C 
ENDBRANCH  29  33
BRANCH  32  35
HETATM   35  O   UNL     1       0.093   5.272 -29.430  1.00  0.00    -0.354 OA
HETATM   36  C   UNL     1       0.878   5.154 -30.614  1.00  0.00     0.210 C 
ENDBRANCH  32  35
ENDBRANCH  25  27
ENDBRANCH   1  25
TORSDOF 8
ENDMDL
MODEL 6
REMARK VINA RESULT:      -8.2      1.484      3.144
REMARK  8 active torsions:
REMARK  status: ('A' for Active; 'I' for Inactive)
REMARK    1  A    between atoms: O_2  and  C_3 
REMARK    2  A    between atoms: C_5  and  N_6 
REMARK    3  A    between atoms: N_6  and  C_7 
REMARK    4  A    between atoms: C_9  and  N_10 
REMARK    5  A    between atoms: C_12  and  C_13 
REMARK    6  A    between atoms: C_13  and  N_14 
REMARK    7  A    between atoms: N_18  and  C_19 
REMARK    8  A    between atoms: C_29  and  O_30 
ROOT
HETATM    1  C   UNL     1      -7.199   0.035 -34.112  1.00  0.00     0.731 A 
HETATM    2  N   UNL     1      -8.425  -0.248 -33.687  1.00  0.00    -0.031 NA
HETATM    3  C   UNL     1      -9.128   0.740 -33.171  1.00  0.00     0.219 A 
HETATM    4  N   UNL     1      -8.723   1.997 -33.117  1.00  0.00    -0.200 NA
HETATM    5  C   UNL     1      -7.498   2.211 -33.592  1.00  0.00     0.174 A 
HETATM    6  N   UNL     1      -6.704   1.272 -34.106  1.00  0.00    -0.045 NA
ENDROOT
BRANCH   5   7
HETATM    7  C   UNL     1      -7.110   3.655 -33.845  1.00  0.00     0.316 C 
BRANCH   7   8
HETATM    8  N   UNL     1      -6.409   4.365 -32.663  1.00  0.00    -0.061 N 
HETATM    9  H   UNL     1      -7.172   4.649 -32.035  1.00  0.00     0.280 HD
HETATM   10  C   UNL     1      -5.491   3.426 -31.886  1.00  0.00     0.255 C 
HETATM   11  C   UNL     1      -4.873   4.163 -30.673  1.00  0.00     0.152 C 
HETATM   12  N   UNL     1      -4.233   5.452 -31.041  1.00  0.00    -0.364 N 
HETATM   13  C   UNL     1      -5.074   6.353 -31.867  1.00  0.00     0.152 C 
HETATM   14  C   UNL     1      -5.666   5.625 -33.100  1.00  0.00     0.255 C 
BRANCH  12  15
HETATM   15  C   UNL     1      -2.863   5.518 -31.218  1.00  0.00     0.102 A 
HETATM   16  N   UNL     1      -2.122   5.951 -30.180  1.00  0.00    -0.352 N 
HETATM   17  H   UNL     1      -2.612   6.161 -29.314  1.00  0.00     0.166 HD
HETATM   18  C   UNL     1      -0.783   6.044 -30.197  1.00  0.00     0.089 A 
HETATM   19  C   UNL     1      -0.079   5.679 -31.333  1.00  0.00     0.017 A 
HETATM   20  C   UNL     1      -0.786   5.207 -32.430  1.00  0.00     0.005 A 
HETATM   21  C   UNL     1      -2.177   5.117 -32.372  1.00  0.00     0.048 A 
ENDBRANCH  12  15
ENDBRANCH   7   8
ENDBRANCH   5   7
BRANCH   3  22
HETATM   22  N   UNL     1     -10.396   0.456 -32.715  1.00  0.00    -0.270 NA
HETATM   23  H   UNL     1     -11.001   1.256 -32.878  1.00  0.00     0.127 HD
HETATM   24  H   UNL     1     -10.744  -0.413 -33.099  1.00  0.00     0.127 HD
ENDBRANCH   3  22
BRANCH   1  25
HETATM   25  N   UNL     1      -6.371  -0.954 -34.626  1.00  0.00    -0.185 N 
HETATM   26  H   UNL     1      -6.203  -0.832 -35.619  1.00  0.00     0.184 HD
BRANCH  25  27
HETATM   27  C   UNL     1      -5.354  -1.706 -33.998  1.00  0.00     0.085 A 
HETATM   28  C   UNL     1      -4.604  -1.197 -32.930  1.00  0.00     0.069 A 
HETATM   29  C   UNL     1      -3.620  -1.965 -32.303  1.00  0.00     0.070 A 
HETATM   30  C   UNL     1      -3.368  -3.256 -32.762  1.00  0.00     0.039 A 
HETATM   31  C   UNL     1      -4.100  -3.779 -33.834  1.00  0.00     0.042 A 
HETATM   32  C   UNL     1      -5.089  -3.013 -34.455  1.00  0.00     0.095 A 
BRANCH  29  33
HETATM   33  O   UNL     1      -2.994  -1.343 -31.258  1.00  0.00    -0.356 OA
HETATM   34  C   UNL     1      -2.990   0.081 -31.265  1.00  0.00     0.210 C 
ENDBRANCH  29  33
BRANCH  32  35
HETATM   35  O   UNL     1      -5.865  -3.431 -35.512  1.00  0.00    -0.354 OA
HETATM   36  C   UNL     1      -6.719  -4.547 -35.269  1.00  0.00     0.210 C 
ENDBRANCH  32  35
ENDBRANCH  25  27
ENDBRANCH   1  25
TORSDOF 8
ENDMDL
MODEL 7
REMARK VINA RESULT:      -8.1      2.921      8.412
REMARK  8 active torsions:
REMARK  status: ('A' for Active; 'I' for Inactive)
REMARK    1  A    between atoms: O_2  and  C_3 
REMARK    2  A    between atoms: C_5  and  N_6 
REMARK    3  A    between atoms: N_6  and  C_7 
REMARK    4  A    between atoms: C_9  and  N_10 
REMARK    5  A    between atoms: C_12  and  C_13 
REMARK    6  A    between atoms: C_13  and  N_14 
REMARK    7  A    between atoms: N_18  and  C_19 
REMARK    8  A    between atoms: C_29  and  O_30 
ROOT
HETATM    1  C   UNL     1      -5.143   4.686 -31.011  1.00  0.00     0.731 A 
HETATM    2  N   UNL     1      -5.627   5.221 -29.896  1.00  0.00    -0.031 NA
HETATM    3  C   UNL     1      -6.562   4.544 -29.259  1.00  0.00     0.219 A 
HETATM    4  N   UNL     1      -6.990   3.345 -29.614  1.00  0.00    -0.200 NA
HETATM    5  C   UNL     1      -6.434   2.858 -30.721  1.00  0.00     0.174 A 
HETATM    6  N   UNL     1      -5.506   3.479 -31.447  1.00  0.00    -0.045 NA
ENDROOT
BRANCH   5   7
HETATM    7  C   UNL     1      -6.648   1.382 -30.995  1.00  0.00     0.316 C 
BRANCH   7   8
HETATM    8  N   UNL     1      -6.011   0.855 -32.303  1.00  0.00    -0.061 N 
HETATM    9  H   UNL     1      -5.677   1.696 -32.791  1.00  0.00     0.280 HD
HETATM   10  C   UNL     1      -4.805  -0.041 -32.038  1.00  0.00     0.255 C 
HETATM   11  C   UNL     1      -4.160  -0.480 -33.375  1.00  0.00     0.152 C 
HETATM   12  N   UNL     1      -5.138  -1.065 -34.328  1.00  0.00    -0.364 N 
HETATM   13  C   UNL     1      -6.362  -0.253 -34.542  1.00  0.00     0.152 C 
HETATM   14  C   UNL     1      -7.027   0.159 -33.205  1.00  0.00     0.255 C 
BRANCH  12  15
HETATM   15  C   UNL     1      -5.256  -2.439 -34.442  1.00  0.00     0.102 A 
HETATM   16  N   UNL     1      -4.212  -3.188 -34.041  1.00  0.00    -0.352 N 
HETATM   17  H   UNL     1      -3.417  -2.699 -33.637  1.00  0.00     0.166 HD
HETATM   18  C   UNL     1      -4.192  -4.530 -34.070  1.00  0.00     0.089 A 
HETATM   19  C   UNL     1      -5.296  -5.228 -34.532  1.00  0.00     0.017 A 
HETATM   20  C   UNL     1      -6.411  -4.511 -34.942  1.00  0.00     0.005 A 
HETATM   21  C   UNL     1      -6.398  -3.117 -34.889  1.00  0.00     0.048 A 
ENDBRANCH  12  15
ENDBRANCH   7   8
ENDBRANCH   5   7
BRANCH   3  22
HETATM   22  N   UNL     1      -7.082   5.096 -28.109  1.00  0.00    -0.270 NA
HETATM   23  H   UNL     1      -6.328   5.276 -27.451  1.00  0.00     0.127 HD
HETATM   24  H   UNL     1      -7.660   5.901 -28.310  1.00  0.00     0.127 HD
ENDBRANCH   3  22
BRANCH   1  25
HETATM   25  N   UNL     1      -4.190   5.351 -31.772  1.00  0.00    -0.185 N 
HETATM   26  H   UNL     1      -4.606   6.060 -32.367  1.00  0.00     0.184 HD
BRANCH  25  27
HETATM   27  C   UNL     1      -2.828   5.606 -31.504  1.00  0.00     0.085 A 
HETATM   28  C   UNL     1      -2.410   6.282 -30.351  1.00  0.00     0.069 A 
HETATM   29  C   UNL     1      -1.055   6.502 -30.089  1.00  0.00     0.070 A 
HETATM   30  C   UNL     1      -0.103   6.054 -31.002  1.00  0.00     0.039 A 
HETATM   31  C   UNL     1      -0.501   5.384 -32.164  1.00  0.00     0.042 A 
HETATM   32  C   UNL     1      -1.855   5.159 -32.421  1.00  0.00     0.095 A 
BRANCH  29  33
HETATM   33  O   UNL     1      -0.803   7.150 -28.911  1.00  0.00    -0.356 OA
HETATM   34  C   UNL     1      -1.910   7.358 -28.041  1.00  0.00     0.210 C 
ENDBRANCH  29  33
BRANCH  32  35
HETATM   35  O   UNL     1      -2.353   4.511 -33.530  1.00  0.00    -0.354 OA
HETATM   36  C   UNL     1      -1.983   5.050 -34.798  1.00  0.00     0.210 C 
ENDBRANCH  32  35
ENDBRANCH  25  27
ENDBRANCH   1  25
TORSDOF 8
ENDMDL
MODEL 8
REMARK VINA RESULT:      -8.1      1.961      3.074
REMARK  8 active torsions:
REMARK  status: ('A' for Active; 'I' for Inactive)
REMARK    1  A    between atoms: O_2  and  C_3 
REMARK    2  A    between atoms: C_5  and  N_6 
REMARK    3  A    between atoms: N_6  and  C_7 
REMARK    4  A    between atoms: C_9  and  N_10 
REMARK    5  A    between atoms: C_12  and  C_13 
REMARK    6  A    between atoms: C_13  and  N_14 
REMARK    7  A    between atoms: N_18  and  C_19 
REMARK    8  A    between atoms: C_29  and  O_30 
ROOT
HETATM    1  C   UNL     1      -6.616   2.959 -33.128  1.00  0.00     0.731 A 
HETATM    2  N   UNL     1      -7.718   3.665 -33.348  1.00  0.00    -0.031 NA
HETATM    3  C   UNL     1      -7.571   4.866 -33.872  1.00  0.00     0.219 A 
HETATM    4  N   UNL     1      -6.414   5.377 -34.257  1.00  0.00    -0.200 NA
HETATM    5  C   UNL     1      -5.358   4.598 -34.036  1.00  0.00     0.174 A 
HETATM    6  N   UNL     1      -5.405   3.385 -33.487  1.00  0.00    -0.045 NA
ENDROOT
BRANCH   5   7
HETATM    7  C   UNL     1      -4.069   4.989 -34.733  1.00  0.00     0.316 C 
BRANCH   7   8
HETATM    8  N   UNL     1      -3.218   6.050 -33.997  1.00  0.00    -0.061 N 
HETATM    9  H   UNL     1      -3.373   6.922 -34.520  1.00  0.00     0.280 HD
HETATM   10  C   UNL     1      -3.689   6.276 -32.563  1.00  0.00     0.255 C 
HETATM   11  C   UNL     1      -2.855   7.397 -31.896  1.00  0.00     0.152 C 
HETATM   12  N   UNL     1      -1.390   7.181 -32.014  1.00  0.00    -0.364 N 
HETATM   13  C   UNL     1      -0.914   6.877 -33.387  1.00  0.00     0.152 C 
HETATM   14  C   UNL     1      -1.726   5.732 -34.043  1.00  0.00     0.255 C 
BRANCH  12  15
HETATM   15  C   UNL     1      -0.684   6.634 -30.958  1.00  0.00     0.102 A 
HETATM   16  N   UNL     1      -0.911   7.139 -29.730  1.00  0.00    -0.352 N 
HETATM   17  H   UNL     1      -1.621   7.863 -29.649  1.00  0.00     0.166 HD
HETATM   18  C   UNL     1      -0.319   6.693 -28.611  1.00  0.00     0.089 A 
HETATM   19  C   UNL     1       0.587   5.648 -28.678  1.00  0.00     0.017 A 
HETATM   20  C   UNL     1       0.848   5.072 -29.913  1.00  0.00     0.005 A 
HETATM   21  C   UNL     1       0.207   5.557 -31.054  1.00  0.00     0.048 A 
ENDBRANCH  12  15
ENDBRANCH   7   8
ENDBRANCH   5   7
BRANCH   3  22
HETATM   22  N   UNL     1      -8.707   5.613 -34.093  1.00  0.00    -0.270 NA
HETATM   23  H   UNL     1      -9.527   5.052 -33.878  1.00  0.00     0.127 HD
HETATM   24  H   UNL     1      -8.670   6.499 -33.607  1.00  0.00     0.127 HD
ENDBRANCH   3  22
BRANCH   1  25
HETATM   25  N   UNL     1      -6.673   1.704 -32.535  1.00  0.00    -0.185 N 
HETATM   26  H   UNL     1      -7.316   1.683 -31.750  1.00  0.00     0.184 HD
BRANCH  25  27
HETATM   27  C   UNL     1      -6.464   0.425 -33.093  1.00  0.00     0.085 A 
HETATM   28  C   UNL     1      -5.218  -0.215 -33.045  1.00  0.00     0.069 A 
HETATM   29  C   UNL     1      -5.036  -1.492 -33.579  1.00  0.00     0.070 A 
HETATM   30  C   UNL     1      -6.111  -2.136 -34.187  1.00  0.00     0.039 A 
HETATM   31  C   UNL     1      -7.361  -1.511 -34.254  1.00  0.00     0.042 A 
HETATM   32  C   UNL     1      -7.544  -0.236 -33.713  1.00  0.00     0.095 A 
BRANCH  29  33
HETATM   33  O   UNL     1      -3.773  -1.996 -33.429  1.00  0.00    -0.356 OA
HETATM   34  C   UNL     1      -3.324  -2.222 -32.097  1.00  0.00     0.210 C 
ENDBRANCH  29  33
BRANCH  32  35
HETATM   35  O   UNL     1      -8.729   0.465 -33.724  1.00  0.00    -0.354 OA
HETATM   36  C   UNL     1      -9.750  -0.003 -32.845  1.00  0.00     0.210 C 
ENDBRANCH  32  35
ENDBRANCH  25  27
ENDBRANCH   1  25
TORSDOF 8
ENDMDL
MODEL 9
REMARK VINA RESULT:      -8.0      3.087      7.854
REMARK  8 active torsions:
REMARK  status: ('A' for Active; 'I' for Inactive)
REMARK    1  A    between atoms: O_2  and  C_3 
REMARK    2  A    between atoms: C_5  and  N_6 
REMARK    3  A    between atoms: N_6  and  C_7 
REMARK    4  A    between atoms: C_9  and  N_10 
REMARK    5  A    between atoms: C_12  and  C_13 
REMARK    6  A    between atoms: C_13  and  N_14 
REMARK    7  A    between atoms: N_18  and  C_19 
REMARK    8  A    between atoms: C_29  and  O_30 
ROOT
HETATM    1  C   UNL     1      -5.002   4.984 -30.090  1.00  0.00     0.731 A 
HETATM    2  N   UNL     1      -6.077   5.567 -29.572  1.00  0.00    -0.031 NA
HETATM    3  C   UNL     1      -7.188   4.858 -29.533  1.00  0.00     0.219 A 
HETATM    4  N   UNL     1      -7.281   3.594 -29.906  1.00  0.00    -0.200 NA
HETATM    5  C   UNL     1      -6.155   3.067 -30.383  1.00  0.00     0.174 A 
HETATM    6  N   UNL     1      -4.994   3.711 -30.486  1.00  0.00    -0.045 NA
ENDROOT
BRANCH   5   7
HETATM    7  C   UNL     1      -6.120   1.557 -30.525  1.00  0.00     0.316 C 
BRANCH   7   8
HETATM    8  N   UNL     1      -5.549   1.035 -31.865  1.00  0.00    -0.061 N 
HETATM    9  H   UNL     1      -5.052   1.837 -32.271  1.00  0.00     0.280 HD
HETATM   10  C   UNL     1      -4.535  -0.087 -31.662  1.00  0.00     0.255 C 
HETATM   11  C   UNL     1      -3.940  -0.524 -33.024  1.00  0.00     0.152 C 
HETATM   12  N   UNL     1      -4.978  -0.835 -34.039  1.00  0.00    -0.364 N 
HETATM   13  C   UNL     1      -6.026   0.205 -34.199  1.00  0.00     0.152 C 
HETATM   14  C   UNL     1      -6.646   0.617 -32.840  1.00  0.00     0.255 C 
BRANCH  12  15
HETATM   15  C   UNL     1      -5.341  -2.148 -34.277  1.00  0.00     0.102 A 
HETATM   16  N   UNL     1      -4.384  -3.088 -34.162  1.00  0.00    -0.352 N 
HETATM   17  H   UNL     1      -3.462  -2.779 -33.863  1.00  0.00     0.166 HD
HETATM   18  C   UNL     1      -4.594  -4.402 -34.339  1.00  0.00     0.089 A 
HETATM   19  C   UNL     1      -5.860  -4.863 -34.659  1.00  0.00     0.017 A 
HETATM   20  C   UNL     1      -6.893  -3.944 -34.773  1.00  0.00     0.005 A 
HETATM   21  C   UNL     1      -6.638  -2.587 -34.574  1.00  0.00     0.048 A 
ENDBRANCH  12  15
ENDBRANCH   7   8
ENDBRANCH   5   7
BRANCH   3  22
HETATM   22  N   UNL     1      -8.313   5.457 -29.010  1.00  0.00    -0.270 NA
HETATM   23  H   UNL     1      -9.139   5.069 -29.456  1.00  0.00     0.127 HD
HETATM   24  H   UNL     1      -8.324   5.411 -28.000  1.00  0.00     0.127 HD
ENDBRANCH   3  22
BRANCH   1  25
HETATM   25  N   UNL     1      -3.801   5.672 -30.214  1.00  0.00    -0.185 N 
HETATM   26  H   UNL     1      -3.356   5.825 -29.315  1.00  0.00     0.184 HD
BRANCH  25  27
HETATM   27  C   UNL     1      -2.880   5.706 -31.282  1.00  0.00     0.085 A 
HETATM   28  C   UNL     1      -3.260   5.435 -32.603  1.00  0.00     0.069 A 
HETATM   29  C   UNL     1      -2.340   5.500 -33.652  1.00  0.00     0.070 A 
HETATM   30  C   UNL     1      -1.014   5.825 -33.376  1.00  0.00     0.039 A 
HETATM   31  C   UNL     1      -0.612   6.091 -32.062  1.00  0.00     0.042 A 
HETATM   32  C   UNL     1      -1.535   6.032 -31.015  1.00  0.00     0.095 A 
BRANCH  29  33
HETATM   33  O   UNL     1      -2.867   5.238 -34.887  1.00  0.00    -0.356 OA
HETATM   34  C   UNL     1      -4.277   5.054 -34.959  1.00  0.00     0.210 C 
ENDBRANCH  29  33
BRANCH  32  35
HETATM   35  O   UNL     1      -1.245   6.277 -29.691  1.00  0.00    -0.354 OA
HETATM   36  C   UNL     1       0.067   5.927 -29.256  1.00  0.00     0.210 C 
ENDBRANCH  32  35
ENDBRANCH  25  27
ENDBRANCH   1  25
TORSDOF 8
ENDMDL
MODEL 10
REMARK VINA RESULT:      -8.0      3.602      9.034
REMARK  8 active torsions:
REMARK  status: ('A' for Active; 'I' for Inactive)
REMARK    1  A    between atoms: O_2  and  C_3 
REMARK    2  A    between atoms: C_5  and  N_6 
REMARK    3  A    between atoms: N_6  and  C_7 
REMARK    4  A    between atoms: C_9  and  N_10 
REMARK    5  A    between atoms: C_12  and  C_13 
REMARK    6  A    between atoms: C_13  and  N_14 
REMARK    7  A    between atoms: N_18  and  C_19 
REMARK    8  A    between atoms: C_29  and  O_30 
ROOT
HETATM    1  C   UNL     1      -2.095   7.145 -33.093  1.00  0.00     0.731 A 
HETATM    2  N   UNL     1      -1.238   6.672 -33.990  1.00  0.00    -0.031 NA
HETATM    3  C   UNL     1      -1.636   5.654 -34.727  1.00  0.00     0.219 A 
HETATM    4  N   UNL     1      -2.848   5.127 -34.681  1.00  0.00    -0.200 NA
HETATM    5  C   UNL     1      -3.662   5.675 -33.782  1.00  0.00     0.174 A 
HETATM    6  N   UNL     1      -3.341   6.685 -32.976  1.00  0.00    -0.045 NA
ENDROOT
BRANCH   5   7
HETATM    7  C   UNL     1      -5.135   5.331 -33.902  1.00  0.00     0.316 C 
BRANCH   7   8
HETATM    8  N   UNL     1      -5.591   4.094 -33.092  1.00  0.00    -0.061 N 
HETATM    9  H   UNL     1      -5.945   4.475 -32.206  1.00  0.00     0.280 HD
HETATM   10  C   UNL     1      -6.737   3.351 -33.771  1.00  0.00     0.255 C 
HETATM   11  C   UNL     1      -7.205   2.167 -32.888  1.00  0.00     0.152 C 
HETATM   12  N   UNL     1      -6.090   1.283 -32.462  1.00  0.00    -0.364 N 
HETATM   13  C   UNL     1      -4.925   1.989 -31.873  1.00  0.00     0.152 C 
HETATM   14  C   UNL     1      -4.435   3.151 -32.773  1.00  0.00     0.255 C 
BRANCH  12  15
HETATM   15  C   UNL     1      -5.845   0.103 -33.142  1.00  0.00     0.102 A 
HETATM   16  N   UNL     1      -4.740  -0.589 -32.807  1.00  0.00    -0.352 N 
HETATM   17  H   UNL     1      -4.175  -0.223 -32.044  1.00  0.00     0.166 HD
HETATM   18  C   UNL     1      -4.388  -1.759 -33.362  1.00  0.00     0.089 A 
HETATM   19  C   UNL     1      -5.185  -2.328 -34.341  1.00  0.00     0.017 A 
HETATM   20  C   UNL     1      -6.348  -1.671 -34.716  1.00  0.00     0.005 A 
HETATM   21  C   UNL     1      -6.686  -0.460 -34.111  1.00  0.00     0.048 A 
ENDBRANCH  12  15
ENDBRANCH   7   8
ENDBRANCH   5   7
BRANCH   3  22
HETATM   22  N   UNL     1      -0.751   5.146 -35.652  1.00  0.00    -0.270 NA
HETATM   23  H   UNL     1      -0.224   4.385 -35.232  1.00  0.00     0.127 HD
HETATM   24  H   UNL     1      -1.215   4.903 -36.517  1.00  0.00     0.127 HD
ENDBRANCH   3  22
BRANCH   1  25
HETATM   25  N   UNL     1      -1.743   8.184 -32.242  1.00  0.00    -0.185 N 
HETATM   26  H   UNL     1      -1.825   9.090 -32.692  1.00  0.00     0.184 HD
BRANCH  25  27
HETATM   27  C   UNL     1      -1.824   8.275 -30.836  1.00  0.00     0.085 A 
HETATM   28  C   UNL     1      -1.034   7.483 -29.992  1.00  0.00     0.069 A 
HETATM   29  C   UNL     1      -1.108   7.605 -28.602  1.00  0.00     0.070 A 
HETATM   30  C   UNL     1      -1.998   8.520 -28.045  1.00  0.00     0.039 A 
HETATM   31  C   UNL     1      -2.802   9.314 -28.870  1.00  0.00     0.042 A 
HETATM   32  C   UNL     1      -2.722   9.196 -30.260  1.00  0.00     0.095 A 
BRANCH  29  33
HETATM   33  O   UNL     1      -0.256   6.786 -27.914  1.00  0.00    -0.356 OA
HETATM   34  C   UNL     1       0.469   5.825 -28.675  1.00  0.00     0.210 C 
ENDBRANCH  29  33
BRANCH  32  35
HETATM   35  O   UNL     1      -3.464   9.928 -31.160  1.00  0.00    -0.354 OA
HETATM   36  C   UNL     1      -4.796  10.253 -30.765  1.00  0.00     0.210 C 
ENDBRANCH  32  35
ENDBRANCH  25  27
ENDBRANCH   1  25
TORSDOF 8
ENDMDL
