MODEL 1
REMARK VINA RESULT:      -8.4      0.000      0.000
REMARK  5 active torsions:
REMARK  status: ('A' for Active; 'I' for Inactive)
REMARK    1  A    between atoms: N_3  and  C_4 
REMARK    2  A    between atoms: C_5  and  C_6 
REMARK    3  A    between atoms: C_15  and  C_16 
REMARK       I    between atoms: C_16  and  N_17 
REMARK    4  A    between atoms: N_17  and  N_18 
REMARK       I    between atoms: N_18  and  C_19 
REMARK    5  A    between atoms: C_19  and  C_20 
ROOT
HETATM    1  C   UNL     1      -4.391   7.476 -31.578  1.00  0.00     0.070 C 
HETATM    2  C   UNL     1      -4.491   5.969 -31.526  1.00  0.00     0.036 A 
HETATM    3  N   UNL     1      -3.329   5.188 -31.493  1.00  0.00    -0.237 N 
HETATM    4  N   UNL     1      -3.328   3.822 -31.617  1.00  0.00    -0.158 NA
HETATM    5  C   UNL     1      -4.470   3.195 -31.688  1.00  0.00     0.196 A 
HETATM    6  C   UNL     1      -5.770   3.951 -31.599  1.00  0.00     0.209 A 
HETATM    7  O   UNL     1      -6.835   3.350 -31.551  1.00  0.00    -0.286 OA
HETATM    8  C   UNL     1      -5.710   5.415 -31.577  1.00  0.00     0.084 A 
ENDROOT
BRANCH   5   9
HETATM    9  C   UNL     1      -4.420   1.682 -31.873  1.00  0.00     0.294 C 
HETATM   10  N   UNL     1      -5.263   1.160 -32.835  1.00  0.00    -0.261 N 
HETATM   11  H   UNL     1      -5.770   1.751 -33.505  1.00  0.00     0.190 HD
HETATM   12  O   UNL     1      -3.660   0.989 -31.207  1.00  0.00    -0.264 OA
BRANCH  10  13
HETATM   13  N   UNL     1      -5.117  -0.195 -33.167  1.00  0.00    -0.262 N 
HETATM   14  C   UNL     1      -6.198  -0.885 -33.672  1.00  0.00     0.286 C 
HETATM   15  O   UNL     1      -7.319  -0.382 -33.739  1.00  0.00    -0.264 OA
HETATM   16  H   UNL     1      -4.168  -0.558 -33.192  1.00  0.00     0.190 HD
BRANCH  14  17
HETATM   17  C   UNL     1      -5.924  -2.232 -34.124  1.00  0.00     0.102 A 
HETATM   18  N   UNL     1      -4.658  -2.773 -34.033  1.00  0.00    -0.361 N 
HETATM   19  H   UNL     1      -3.862  -2.273 -33.655  1.00  0.00     0.165 HD
HETATM   20  C   UNL     1      -4.650  -4.051 -34.521  1.00  0.00     0.088 A 
HETATM   21  C   UNL     1      -5.927  -4.353 -34.932  1.00  0.00     0.019 A 
HETATM   22  C   UNL     1      -6.730  -3.212 -34.684  1.00  0.00     0.036 A 
ENDBRANCH  14  17
ENDBRANCH  10  13
ENDBRANCH   5   9
BRANCH   3  23
HETATM   23  C   UNL     1      -2.011   5.729 -31.384  1.00  0.00     0.073 A 
HETATM   24  C   UNL     1      -1.207   5.968 -32.519  1.00  0.00     0.076 A 
HETATM   25  C   UNL     1       0.102   6.465 -32.342  1.00  0.00     0.018 A 
HETATM   26  C   UNL     1       0.604   6.735 -31.071  1.00  0.00     0.001 A 
HETATM   27  C   UNL     1      -0.185   6.500 -29.952  1.00  0.00     0.002 A 
HETATM   28  C   UNL     1      -1.476   5.995 -30.108  1.00  0.00     0.032 A 
BRANCH  24  29
HETATM   29  C   UNL     1      -1.704   5.715 -33.922  1.00  0.00     0.419 C 
HETATM   30  F   UNL     1      -2.817   6.425 -34.268  1.00  0.00    -0.166 F 
HETATM   31  F   UNL     1      -0.773   6.066 -34.864  1.00  0.00    -0.166 F 
HETATM   32  F   UNL     1      -1.978   4.406 -34.176  1.00  0.00    -0.166 F 
ENDBRANCH  24  29
ENDBRANCH   3  23
TORSDOF 5
ENDMDL
MODEL 2
REMARK VINA RESULT:      -8.2      3.288      8.085
REMARK  5 active torsions:
REMARK  status: ('A' for Active; 'I' for Inactive)
REMARK    1  A    between atoms: N_3  and  C_4 
REMARK    2  A    between atoms: C_5  and  C_6 
REMARK    3  A    between atoms: C_15  and  C_16 
REMARK       I    between atoms: C_16  and  N_17 
REMARK    4  A    between atoms: N_17  and  N_18 
REMARK       I    between atoms: N_18  and  C_19 
REMARK    5  A    between atoms: C_19  and  C_20 
ROOT
HETATM    1  C   UNL     1      -9.921   1.576 -34.026  1.00  0.00     0.070 C 
HETATM    2  C   UNL     1      -8.785   2.563 -33.886  1.00  0.00     0.036 A 
HETATM    3  N   UNL     1      -7.467   2.107 -33.767  1.00  0.00    -0.237 N 
HETATM    4  N   UNL     1      -6.405   2.920 -33.466  1.00  0.00    -0.158 NA
HETATM    5  C   UNL     1      -6.606   4.206 -33.363  1.00  0.00     0.196 A 
HETATM    6  C   UNL     1      -7.971   4.793 -33.605  1.00  0.00     0.209 A 
HETATM    7  O   UNL     1      -8.130   6.006 -33.621  1.00  0.00    -0.286 OA
HETATM    8  C   UNL     1      -9.087   3.867 -33.815  1.00  0.00     0.084 A 
ENDROOT
BRANCH   5   9
HETATM    9  C   UNL     1      -5.405   5.066 -32.981  1.00  0.00     0.294 C 
HETATM   10  N   UNL     1      -4.907   4.881 -31.705  1.00  0.00    -0.261 N 
HETATM   11  H   UNL     1      -5.204   4.102 -31.104  1.00  0.00     0.190 HD
HETATM   12  O   UNL     1      -4.918   5.860 -33.777  1.00  0.00    -0.264 OA
BRANCH  10  13
HETATM   13  N   UNL     1      -3.698   5.511 -31.377  1.00  0.00    -0.262 N 
HETATM   14  C   UNL     1      -2.539   4.766 -31.338  1.00  0.00     0.286 C 
HETATM   15  O   UNL     1      -2.545   3.543 -31.473  1.00  0.00    -0.264 OA
HETATM   16  H   UNL     1      -3.704   6.528 -31.364  1.00  0.00     0.190 HD
BRANCH  14  17
HETATM   17  C   UNL     1      -1.320   5.519 -31.136  1.00  0.00     0.102 A 
HETATM   18  N   UNL     1      -0.660   5.499 -29.924  1.00  0.00    -0.361 N 
HETATM   19  H   UNL     1      -0.980   4.970 -29.121  1.00  0.00     0.165 HD
HETATM   20  C   UNL     1       0.460   6.283 -29.978  1.00  0.00     0.088 A 
HETATM   21  C   UNL     1       0.537   6.819 -31.242  1.00  0.00     0.019 A 
HETATM   22  C   UNL     1      -0.580   6.341 -31.971  1.00  0.00     0.036 A 
ENDBRANCH  14  17
ENDBRANCH  10  13
ENDBRANCH   5   9
BRANCH   3  23
HETATM   23  C   UNL     1      -7.088   0.735 -33.889  1.00  0.00     0.073 A 
HETATM   24  C   UNL     1      -6.767  -0.053 -32.762  1.00  0.00     0.076 A 
HETATM   25  C   UNL     1      -6.359  -1.391 -32.953  1.00  0.00     0.018 A 
HETATM   26  C   UNL     1      -6.283  -1.947 -34.228  1.00  0.00     0.001 A 
HETATM   27  C   UNL     1      -6.598  -1.173 -35.338  1.00  0.00     0.002 A 
HETATM   28  C   UNL     1      -6.989   0.155 -35.169  1.00  0.00     0.032 A 
BRANCH  24  29
HETATM   29  C   UNL     1      -6.851   0.487 -31.355  1.00  0.00     0.419 C 
HETATM   30  F   UNL     1      -8.013   1.143 -31.066  1.00  0.00    -0.166 F 
HETATM   31  F   UNL     1      -6.785  -0.513 -30.420  1.00  0.00    -0.166 F 
HETATM   32  F   UNL     1      -5.832   1.330 -31.033  1.00  0.00    -0.166 F 
ENDBRANCH  24  29
ENDBRANCH   3  23
TORSDOF 5
ENDMDL
MODEL 3
REMARK VINA RESULT:      -8.1      1.831      2.394
REMARK  5 active torsions:
REMARK  status: ('A' for Active; 'I' for Inactive)
REMARK    1  A    between atoms: N_3  and  C_4 
REMARK    2  A    between atoms: C_5  and  C_6 
REMARK    3  A    between atoms: C_15  and  C_16 
REMARK       I    between atoms: C_16  and  N_17 
REMARK    4  A    between atoms: N_17  and  N_18 
REMARK       I    between atoms: N_18  and  C_19 
REMARK    5  A    between atoms: C_19  and  C_20 
ROOT
HETATM    1  C   UNL     1      -3.388   9.034 -31.082  1.00  0.00     0.070 C 
HETATM    2  C   UNL     1      -3.674   7.557 -31.221  1.00  0.00     0.036 A 
HETATM    3  N   UNL     1      -2.862   6.618 -30.572  1.00  0.00    -0.237 N 
HETATM    4  N   UNL     1      -2.946   5.266 -30.780  1.00  0.00    -0.158 NA
HETATM    5  C   UNL     1      -3.884   4.807 -31.562  1.00  0.00     0.196 A 
HETATM    6  C   UNL     1      -4.882   5.740 -32.198  1.00  0.00     0.209 A 
HETATM    7  O   UNL     1      -5.827   5.296 -32.836  1.00  0.00    -0.286 OA
HETATM    8  C   UNL     1      -4.677   7.180 -32.027  1.00  0.00     0.084 A 
ENDROOT
BRANCH   5   9
HETATM    9  C   UNL     1      -3.911   3.301 -31.803  1.00  0.00     0.294 C 
HETATM   10  N   UNL     1      -5.160   2.712 -31.828  1.00  0.00    -0.261 N 
HETATM   11  H   UNL     1      -6.029   3.260 -31.854  1.00  0.00     0.190 HD
HETATM   12  O   UNL     1      -2.874   2.670 -31.975  1.00  0.00    -0.264 OA
BRANCH  10  13
HETATM   13  N   UNL     1      -5.243   1.370 -32.228  1.00  0.00    -0.262 N 
HETATM   14  C   UNL     1      -5.816   1.065 -33.445  1.00  0.00     0.286 C 
HETATM   15  O   UNL     1      -6.358   1.921 -34.143  1.00  0.00    -0.264 OA
HETATM   16  H   UNL     1      -4.709   0.698 -31.683  1.00  0.00     0.190 HD
BRANCH  14  17
HETATM   17  C   UNL     1      -5.730  -0.323 -33.844  1.00  0.00     0.102 A 
HETATM   18  N   UNL     1      -4.571  -1.050 -33.662  1.00  0.00    -0.361 N 
HETATM   19  H   UNL     1      -3.730  -0.666 -33.248  1.00  0.00     0.165 HD
HETATM   20  C   UNL     1      -4.735  -2.329 -34.116  1.00  0.00     0.088 A 
HETATM   21  C   UNL     1      -6.017  -2.445 -34.598  1.00  0.00     0.019 A 
HETATM   22  C   UNL     1      -6.645  -1.185 -34.429  1.00  0.00     0.036 A 
ENDBRANCH  14  17
ENDBRANCH  10  13
ENDBRANCH   5   9
BRANCH   3  23
HETATM   23  C   UNL     1      -1.816   6.968 -29.663  1.00  0.00     0.073 A 
HETATM   24  C   UNL     1      -0.470   7.062 -30.075  1.00  0.00     0.076 A 
HETATM   25  C   UNL     1       0.522   7.371 -29.119  1.00  0.00     0.018 A 
HETATM   26  C   UNL     1       0.191   7.597 -27.785  1.00  0.00     0.001 A 
HETATM   27  C   UNL     1      -1.133   7.505 -27.376  1.00  0.00     0.002 A 
HETATM   28  C   UNL     1      -2.124   7.186 -28.305  1.00  0.00     0.032 A 
BRANCH  24  29
HETATM   29  C   UNL     1      -0.054   6.848 -31.510  1.00  0.00     0.419 C 
HETATM   30  F   UNL     1      -0.684   7.657 -32.412  1.00  0.00    -0.166 F 
HETATM   31  F   UNL     1       1.279   7.105 -31.699  1.00  0.00    -0.166 F 
HETATM   32  F   UNL     1      -0.224   5.569 -31.943  1.00  0.00    -0.166 F 
ENDBRANCH  24  29
ENDBRANCH   3  23
TORSDOF 5
ENDMDL
MODEL 4
REMARK VINA RESULT:      -8.1      3.806      8.739
REMARK  5 active torsions:
REMARK  status: ('A' for Active; 'I' for Inactive)
REMARK    1  A    between atoms: N_3  and  C_4 
REMARK    2  A    between atoms: C_5  and  C_6 
REMARK    3  A    between atoms: C_15  and  C_16 
REMARK       I    between atoms: C_16  and  N_17 
REMARK    4  A    between atoms: N_17  and  N_18 
REMARK       I    between atoms: N_18  and  C_19 
REMARK    5  A    between atoms: C_19  and  C_20 
ROOT
HETATM    1  C   UNL     1      -6.279   3.374 -34.248  1.00  0.00     0.070 C 
HETATM    2  C   UNL     1      -4.993   3.839 -33.603  1.00  0.00     0.036 A 
HETATM    3  N   UNL     1      -4.452   3.131 -32.523  1.00  0.00    -0.237 N 
HETATM    4  N   UNL     1      -3.391   3.576 -31.777  1.00  0.00    -0.158 NA
HETATM    5  C   UNL     1      -2.790   4.679 -32.132  1.00  0.00     0.196 A 
HETATM    6  C   UNL     1      -3.229   5.433 -33.360  1.00  0.00     0.209 A 
HETATM    7  O   UNL     1      -2.592   6.401 -33.753  1.00  0.00    -0.286 OA
HETATM    8  C   UNL     1      -4.433   4.970 -34.053  1.00  0.00     0.084 A 
ENDROOT
BRANCH   5   9
HETATM    9  C   UNL     1      -1.646   5.161 -31.246  1.00  0.00     0.294 C 
HETATM   10  N   UNL     1      -2.007   5.908 -30.141  1.00  0.00    -0.261 N 
HETATM   11  H   UNL     1      -2.982   5.997 -29.830  1.00  0.00     0.190 HD
HETATM   12  O   UNL     1      -0.482   4.881 -31.509  1.00  0.00    -0.264 OA
BRANCH  10  13
HETATM   13  N   UNL     1      -1.010   6.212 -29.203  1.00  0.00    -0.262 N 
HETATM   14  C   UNL     1      -0.576   7.515 -29.082  1.00  0.00     0.286 C 
HETATM   15  O   UNL     1      -0.953   8.403 -29.845  1.00  0.00    -0.264 OA
HETATM   16  H   UNL     1      -0.785   5.488 -28.526  1.00  0.00     0.190 HD
BRANCH  14  17
HETATM   17  C   UNL     1       0.346   7.767 -27.994  1.00  0.00     0.102 A 
HETATM   18  N   UNL     1       0.199   7.142 -26.773  1.00  0.00    -0.361 N 
HETATM   19  H   UNL     1      -0.545   6.486 -26.566  1.00  0.00     0.165 HD
HETATM   20  C   UNL     1       1.185   7.540 -25.912  1.00  0.00     0.088 A 
HETATM   21  C   UNL     1       1.991   8.432 -26.579  1.00  0.00     0.019 A 
HETATM   22  C   UNL     1       1.466   8.577 -27.888  1.00  0.00     0.036 A 
ENDBRANCH  14  17
ENDBRANCH  10  13
ENDBRANCH   5   9
BRANCH   3  23
HETATM   23  C   UNL     1      -4.979   1.894 -32.041  1.00  0.00     0.073 A 
HETATM   24  C   UNL     1      -5.883   1.840 -30.958  1.00  0.00     0.076 A 
HETATM   25  C   UNL     1      -6.335   0.582 -30.502  1.00  0.00     0.018 A 
HETATM   26  C   UNL     1      -5.916  -0.598 -31.111  1.00  0.00     0.001 A 
HETATM   27  C   UNL     1      -5.026  -0.548 -32.177  1.00  0.00     0.002 A 
HETATM   28  C   UNL     1      -4.558   0.685 -32.630  1.00  0.00     0.032 A 
BRANCH  24  29
HETATM   29  C   UNL     1      -6.388   3.086 -30.273  1.00  0.00     0.419 C 
HETATM   30  F   UNL     1      -6.964   4.000 -31.107  1.00  0.00    -0.166 F 
HETATM   31  F   UNL     1      -7.366   2.802 -29.355  1.00  0.00    -0.166 F 
HETATM   32  F   UNL     1      -5.431   3.746 -29.566  1.00  0.00    -0.166 F 
ENDBRANCH  24  29
ENDBRANCH   3  23
TORSDOF 5
ENDMDL
MODEL 5
REMARK VINA RESULT:      -7.8     17.063     19.254
REMARK  5 active torsions:
REMARK  status: ('A' for Active; 'I' for Inactive)
REMARK    1  A    between atoms: N_3  and  C_4 
REMARK    2  A    between atoms: C_5  and  C_6 
REMARK    3  A    between atoms: C_15  and  C_16 
REMARK       I    between atoms: C_16  and  N_17 
REMARK    4  A    between atoms: N_17  and  N_18 
REMARK       I    between atoms: N_18  and  C_19 
REMARK    5  A    between atoms: C_19  and  C_20 
ROOT
HETATM    1  C   UNL     1      -6.438 -11.863 -41.034  1.00  0.00     0.070 C 
HETATM    2  C   UNL     1      -5.913 -12.580 -39.812  1.00  0.00     0.036 A 
HETATM    3  N   UNL     1      -6.479 -13.797 -39.413  1.00  0.00    -0.237 N 
HETATM    4  N   UNL     1      -6.181 -14.423 -38.230  1.00  0.00    -0.158 NA
HETATM    5  C   UNL     1      -5.260 -13.910 -37.461  1.00  0.00     0.196 A 
HETATM    6  C   UNL     1      -4.510 -12.671 -37.878  1.00  0.00     0.209 A 
HETATM    7  O   UNL     1      -3.571 -12.261 -37.210  1.00  0.00    -0.286 OA
HETATM    8  C   UNL     1      -4.947 -11.986 -39.098  1.00  0.00     0.084 A 
ENDROOT
BRANCH   5   9
HETATM    9  C   UNL     1      -4.995 -14.613 -36.133  1.00  0.00     0.294 C 
HETATM   10  N   UNL     1      -5.077 -13.824 -35.002  1.00  0.00    -0.261 N 
HETATM   11  H   UNL     1      -5.456 -12.870 -35.020  1.00  0.00     0.190 HD
HETATM   12  O   UNL     1      -4.738 -15.811 -36.093  1.00  0.00    -0.264 OA
BRANCH  10  13
HETATM   13  N   UNL     1      -5.024 -14.463 -33.754  1.00  0.00    -0.262 N 
HETATM   14  C   UNL     1      -6.198 -14.712 -33.076  1.00  0.00     0.286 C 
HETATM   15  O   UNL     1      -7.284 -14.295 -33.476  1.00  0.00    -0.264 OA
HETATM   16  H   UNL     1      -4.135 -14.879 -33.492  1.00  0.00     0.190 HD
BRANCH  14  17
HETATM   17  C   UNL     1      -6.067 -15.502 -31.870  1.00  0.00     0.102 A 
HETATM   18  N   UNL     1      -6.984 -16.483 -31.555  1.00  0.00    -0.361 N 
HETATM   19  H   UNL     1      -7.786 -16.706 -32.132  1.00  0.00     0.165 HD
HETATM   20  C   UNL     1      -6.648 -17.087 -30.374  1.00  0.00     0.088 A 
HETATM   21  C   UNL     1      -5.495 -16.498 -29.912  1.00  0.00     0.019 A 
HETATM   22  C   UNL     1      -5.128 -15.501 -30.850  1.00  0.00     0.036 A 
ENDBRANCH  14  17
ENDBRANCH  10  13
ENDBRANCH   5   9
BRANCH   3  23
HETATM   23  C   UNL     1      -7.473 -14.495 -40.166  1.00  0.00     0.073 A 
HETATM   24  C   UNL     1      -8.852 -14.261 -39.979  1.00  0.00     0.076 A 
HETATM   25  C   UNL     1      -9.784 -15.013 -40.725  1.00  0.00     0.018 A 
HETATM   26  C   UNL     1      -9.366 -15.968 -41.648  1.00  0.00     0.001 A 
HETATM   27  C   UNL     1      -8.009 -16.201 -41.835  1.00  0.00     0.002 A 
HETATM   28  C   UNL     1      -7.074 -15.476 -41.095  1.00  0.00     0.032 A 
BRANCH  24  29
HETATM   29  C   UNL     1      -9.365 -13.225 -39.007  1.00  0.00     0.419 C 
HETATM   30  F   UNL     1      -8.944 -11.951 -39.260  1.00  0.00    -0.166 F 
HETATM   31  F   UNL     1     -10.733 -13.140 -39.028  1.00  0.00    -0.166 F 
HETATM   32  F   UNL     1      -9.053 -13.492 -37.710  1.00  0.00    -0.166 F 
ENDBRANCH  24  29
ENDBRANCH   3  23
TORSDOF 5
ENDMDL
MODEL 6
REMARK VINA RESULT:      -7.7     17.769     19.405
REMARK  5 active torsions:
REMARK  status: ('A' for Active; 'I' for Inactive)
REMARK    1  A    between atoms: N_3  and  C_4 
REMARK    2  A    between atoms: C_5  and  C_6 
REMARK    3  A    between atoms: C_15  and  C_16 
REMARK       I    between atoms: C_16  and  N_17 
REMARK    4  A    between atoms: N_17  and  N_18 
REMARK       I    between atoms: N_18  and  C_19 
REMARK    5  A    between atoms: C_19  and  C_20 
ROOT
HETATM    1  C   UNL     1      -6.284 -12.189 -40.481  1.00  0.00     0.070 C 
HETATM    2  C   UNL     1      -6.267 -12.725 -39.068  1.00  0.00     0.036 A 
HETATM    3  N   UNL     1      -7.450 -13.176 -38.472  1.00  0.00    -0.237 N 
HETATM    4  N   UNL     1      -7.553 -13.516 -37.147  1.00  0.00    -0.158 NA
HETATM    5  C   UNL     1      -6.478 -13.500 -36.408  1.00  0.00     0.196 A 
HETATM    6  C   UNL     1      -5.139 -13.151 -37.003  1.00  0.00     0.209 A 
HETATM    7  O   UNL     1      -4.119 -13.249 -36.335  1.00  0.00    -0.286 OA
HETATM    8  C   UNL     1      -5.108 -12.692 -38.394  1.00  0.00     0.084 A 
ENDROOT
BRANCH   5   9
HETATM    9  C   UNL     1      -6.649 -13.838 -34.930  1.00  0.00     0.294 C 
HETATM   10  N   UNL     1      -5.869 -14.874 -34.451  1.00  0.00    -0.261 N 
HETATM   11  H   UNL     1      -5.101 -15.284 -34.995  1.00  0.00     0.190 HD
HETATM   12  O   UNL     1      -7.427 -13.208 -34.223  1.00  0.00    -0.264 OA
BRANCH  10  13
HETATM   13  N   UNL     1      -5.856 -15.095 -33.066  1.00  0.00    -0.262 N 
HETATM   14  C   UNL     1      -6.304 -16.302 -32.573  1.00  0.00     0.286 C 
HETATM   15  O   UNL     1      -6.820 -17.152 -33.299  1.00  0.00    -0.264 OA
HETATM   16  H   UNL     1      -5.342 -14.423 -32.502  1.00  0.00     0.190 HD
BRANCH  14  17
HETATM   17  C   UNL     1      -6.120 -16.503 -31.152  1.00  0.00     0.102 A 
HETATM   18  N   UNL     1      -7.054 -17.186 -30.400  1.00  0.00    -0.361 N 
HETATM   19  H   UNL     1      -7.905 -17.578 -30.785  1.00  0.00     0.165 HD
HETATM   20  C   UNL     1      -6.660 -17.245 -29.091  1.00  0.00     0.088 A 
HETATM   21  C   UNL     1      -5.452 -16.598 -28.985  1.00  0.00     0.019 A 
HETATM   22  C   UNL     1      -5.110 -16.130 -30.278  1.00  0.00     0.036 A 
ENDBRANCH  14  17
ENDBRANCH  10  13
ENDBRANCH   5   9
BRANCH   3  23
HETATM   23  C   UNL     1      -8.697 -13.280 -39.162  1.00  0.00     0.073 A 
HETATM   24  C   UNL     1      -9.224 -14.526 -39.566  1.00  0.00     0.076 A 
HETATM   25  C   UNL     1     -10.440 -14.558 -40.283  1.00  0.00     0.018 A 
HETATM   26  C   UNL     1     -11.131 -13.386 -40.582  1.00  0.00     0.001 A 
HETATM   27  C   UNL     1     -10.615 -12.159 -40.185  1.00  0.00     0.002 A 
HETATM   28  C   UNL     1      -9.406 -12.108 -39.490  1.00  0.00     0.032 A 
BRANCH  24  29
HETATM   29  C   UNL     1      -8.531 -15.830 -39.253  1.00  0.00     0.419 C 
HETATM   30  F   UNL     1      -8.565 -16.190 -37.937  1.00  0.00    -0.166 F 
HETATM   31  F   UNL     1      -9.110 -16.886 -39.907  1.00  0.00    -0.166 F 
HETATM   32  F   UNL     1      -7.225 -15.859 -39.636  1.00  0.00    -0.166 F 
ENDBRANCH  24  29
ENDBRANCH   3  23
TORSDOF 5
ENDMDL
MODEL 7
REMARK VINA RESULT:      -7.6      3.713      5.040
REMARK  5 active torsions:
REMARK  status: ('A' for Active; 'I' for Inactive)
REMARK    1  A    between atoms: N_3  and  C_4 
REMARK    2  A    between atoms: C_5  and  C_6 
REMARK    3  A    between atoms: C_15  and  C_16 
REMARK       I    between atoms: C_16  and  N_17 
REMARK    4  A    between atoms: N_17  and  N_18 
REMARK       I    between atoms: N_18  and  C_19 
REMARK    5  A    between atoms: C_19  and  C_20 
ROOT
HETATM    1  C   UNL     1      -2.180  10.259 -29.485  1.00  0.00     0.070 C 
HETATM    2  C   UNL     1      -2.339   8.827 -29.941  1.00  0.00     0.036 A 
HETATM    3  N   UNL     1      -1.548   7.817 -29.380  1.00  0.00    -0.237 N 
HETATM    4  N   UNL     1      -1.508   6.531 -29.853  1.00  0.00    -0.158 NA
HETATM    5  C   UNL     1      -2.307   6.194 -30.828  1.00  0.00     0.196 A 
HETATM    6  C   UNL     1      -3.284   7.187 -31.402  1.00  0.00     0.209 A 
HETATM    7  O   UNL     1      -4.109   6.836 -32.234  1.00  0.00    -0.286 OA
HETATM    8  C   UNL     1      -3.205   8.573 -30.932  1.00  0.00     0.084 A 
ENDROOT
BRANCH   5   9
HETATM    9  C   UNL     1      -2.195   4.766 -31.354  1.00  0.00     0.294 C 
HETATM   10  N   UNL     1      -3.267   3.936 -31.089  1.00  0.00    -0.261 N 
HETATM   11  H   UNL     1      -4.158   4.286 -30.715  1.00  0.00     0.190 HD
HETATM   12  O   UNL     1      -1.209   4.400 -31.983  1.00  0.00    -0.264 OA
BRANCH  10  13
HETATM   13  N   UNL     1      -3.290   2.679 -31.710  1.00  0.00    -0.262 N 
HETATM   14  C   UNL     1      -4.250   1.762 -31.338  1.00  0.00     0.286 C 
HETATM   15  O   UNL     1      -5.021   1.967 -30.402  1.00  0.00    -0.264 OA
HETATM   16  H   UNL     1      -2.710   2.569 -32.537  1.00  0.00     0.190 HD
BRANCH  14  17
HETATM   17  C   UNL     1      -4.293   0.549 -32.127  1.00  0.00     0.102 A 
HETATM   18  N   UNL     1      -5.232   0.377 -33.123  1.00  0.00    -0.361 N 
HETATM   19  H   UNL     1      -5.932   1.071 -33.358  1.00  0.00     0.165 HD
HETATM   20  C   UNL     1      -5.073  -0.842 -33.723  1.00  0.00     0.088 A 
HETATM   21  C   UNL     1      -4.014  -1.475 -33.116  1.00  0.00     0.019 A 
HETATM   22  C   UNL     1      -3.522  -0.603 -32.112  1.00  0.00     0.036 A 
ENDBRANCH  14  17
ENDBRANCH  10  13
ENDBRANCH   5   9
BRANCH   3  23
HETATM   23  C   UNL     1      -0.650   8.027 -28.289  1.00  0.00     0.073 A 
HETATM   24  C   UNL     1      -1.098   8.057 -26.950  1.00  0.00     0.076 A 
HETATM   25  C   UNL     1      -0.167   8.310 -25.920  1.00  0.00     0.018 A 
HETATM   26  C   UNL     1       1.182   8.517 -26.201  1.00  0.00     0.001 A 
HETATM   27  C   UNL     1       1.625   8.488 -27.517  1.00  0.00     0.002 A 
HETATM   28  C   UNL     1       0.716   8.254 -28.550  1.00  0.00     0.032 A 
BRANCH  24  29
HETATM   29  C   UNL     1      -2.543   7.820 -26.583  1.00  0.00     0.419 C 
HETATM   30  F   UNL     1      -3.124   6.760 -27.215  1.00  0.00    -0.166 F 
HETATM   31  F   UNL     1      -2.690   7.540 -25.249  1.00  0.00    -0.166 F 
HETATM   32  F   UNL     1      -3.345   8.897 -26.801  1.00  0.00    -0.166 F 
ENDBRANCH  24  29
ENDBRANCH   3  23
TORSDOF 5
ENDMDL
MODEL 8
REMARK VINA RESULT:      -7.6      5.956      9.427
REMARK  5 active torsions:
REMARK  status: ('A' for Active; 'I' for Inactive)
REMARK    1  A    between atoms: N_3  and  C_4 
REMARK    2  A    between atoms: C_5  and  C_6 
REMARK    3  A    between atoms: C_15  and  C_16 
REMARK       I    between atoms: C_16  and  N_17 
REMARK    4  A    between atoms: N_17  and  N_18 
REMARK       I    between atoms: N_18  and  C_19 
REMARK    5  A    between atoms: C_19  and  C_20 
ROOT
HETATM    1  C   UNL     1     -10.370  -0.505 -32.721  1.00  0.00     0.070 C 
HETATM    2  C   UNL     1     -10.144   0.849 -33.352  1.00  0.00     0.036 A 
HETATM    3  N   UNL     1      -8.891   1.468 -33.260  1.00  0.00    -0.237 N 
HETATM    4  N   UNL     1      -8.650   2.759 -33.652  1.00  0.00    -0.158 NA
HETATM    5  C   UNL     1      -9.611   3.435 -34.220  1.00  0.00     0.196 A 
HETATM    6  C   UNL     1     -10.952   2.799 -34.474  1.00  0.00     0.209 A 
HETATM    7  O   UNL     1     -11.811   3.397 -35.108  1.00  0.00    -0.286 OA
HETATM    8  C   UNL     1     -11.186   1.456 -33.937  1.00  0.00     0.084 A 
ENDROOT
BRANCH   5   9
HETATM    9  C   UNL     1      -9.312   4.883 -34.596  1.00  0.00     0.294 C 
HETATM   10  N   UNL     1     -10.226   5.493 -35.433  1.00  0.00    -0.261 N 
HETATM   11  H   UNL     1     -11.136   5.073 -35.657  1.00  0.00     0.190 HD
HETATM   12  O   UNL     1      -8.320   5.457 -34.161  1.00  0.00    -0.264 OA
BRANCH  10  13
HETATM   13  N   UNL     1     -10.091   6.872 -35.654  1.00  0.00    -0.262 N 
HETATM   14  C   UNL     1     -11.223   7.640 -35.823  1.00  0.00     0.286 C 
HETATM   15  O   UNL     1     -12.346   7.141 -35.896  1.00  0.00    -0.264 OA
HETATM   16  H   UNL     1      -9.170   7.270 -35.495  1.00  0.00     0.190 HD
BRANCH  14  17
HETATM   17  C   UNL     1     -11.002   9.069 -35.899  1.00  0.00     0.102 A 
HETATM   18  N   UNL     1      -9.783   9.622 -35.570  1.00  0.00    -0.361 N 
HETATM   19  H   UNL     1      -8.986   9.078 -35.260  1.00  0.00     0.165 HD
HETATM   20  C   UNL     1      -9.820  10.981 -35.721  1.00  0.00     0.088 A 
HETATM   21  C   UNL     1     -11.078  11.322 -36.159  1.00  0.00     0.019 A 
HETATM   22  C   UNL     1     -11.823  10.122 -36.272  1.00  0.00     0.036 A 
ENDBRANCH  14  17
ENDBRANCH  10  13
ENDBRANCH   5   9
BRANCH   3  23
HETATM   23  C   UNL     1      -7.737   0.843 -32.695  1.00  0.00     0.073 A 
HETATM   24  C   UNL     1      -6.834   0.094 -33.481  1.00  0.00     0.076 A 
HETATM   25  C   UNL     1      -5.736  -0.534 -32.855  1.00  0.00     0.018 A 
HETATM   26  C   UNL     1      -5.523  -0.416 -31.484  1.00  0.00     0.001 A 
HETATM   27  C   UNL     1      -6.409   0.320 -30.708  1.00  0.00     0.002 A 
HETATM   28  C   UNL     1      -7.509   0.936 -31.308  1.00  0.00     0.032 A 
BRANCH  24  29
HETATM   29  C   UNL     1      -7.002  -0.053 -34.974  1.00  0.00     0.419 C 
HETATM   30  F   UNL     1      -6.741   1.080 -35.690  1.00  0.00    -0.166 F 
HETATM   31  F   UNL     1      -6.144  -0.987 -35.494  1.00  0.00    -0.166 F 
HETATM   32  F   UNL     1      -8.241  -0.476 -35.345  1.00  0.00    -0.166 F 
ENDBRANCH  24  29
ENDBRANCH   3  23
TORSDOF 5
ENDMDL
MODEL 9
REMARK VINA RESULT:      -7.6      4.027      5.840
REMARK  5 active torsions:
REMARK  status: ('A' for Active; 'I' for Inactive)
REMARK    1  A    between atoms: N_3  and  C_4 
REMARK    2  A    between atoms: C_5  and  C_6 
REMARK    3  A    between atoms: C_15  and  C_16 
REMARK       I    between atoms: C_16  and  N_17 
REMARK    4  A    between atoms: N_17  and  N_18 
REMARK       I    between atoms: N_18  and  C_19 
REMARK    5  A    between atoms: C_19  and  C_20 
ROOT
HETATM    1  C   UNL     1       1.121   8.189 -28.206  1.00  0.00     0.070 C 
HETATM    2  C   UNL     1       0.143   7.466 -29.103  1.00  0.00     0.036 A 
HETATM    3  N   UNL     1      -1.216   7.806 -29.082  1.00  0.00    -0.237 N 
HETATM    4  N   UNL     1      -2.188   7.092 -29.732  1.00  0.00    -0.158 NA
HETATM    5  C   UNL     1      -1.835   6.084 -30.482  1.00  0.00     0.196 A 
HETATM    6  C   UNL     1      -0.382   5.732 -30.663  1.00  0.00     0.209 A 
HETATM    7  O   UNL     1      -0.049   4.861 -31.455  1.00  0.00    -0.286 OA
HETATM    8  C   UNL     1       0.604   6.460 -29.860  1.00  0.00     0.084 A 
ENDROOT
BRANCH   5   9
HETATM    9  C   UNL     1      -2.954   5.289 -31.147  1.00  0.00     0.294 C 
HETATM   10  N   UNL     1      -2.787   3.918 -31.182  1.00  0.00    -0.261 N 
HETATM   11  H   UNL     1      -2.050   3.438 -30.650  1.00  0.00     0.190 HD
HETATM   12  O   UNL     1      -3.941   5.851 -31.607  1.00  0.00    -0.264 OA
BRANCH  10  13
HETATM   13  N   UNL     1      -3.869   3.138 -31.614  1.00  0.00    -0.262 N 
HETATM   14  C   UNL     1      -3.811   1.768 -31.470  1.00  0.00     0.286 C 
HETATM   15  O   UNL     1      -2.796   1.196 -31.077  1.00  0.00    -0.264 OA
HETATM   16  H   UNL     1      -4.726   3.635 -31.844  1.00  0.00     0.190 HD
BRANCH  14  17
HETATM   17  C   UNL     1      -5.024   1.053 -31.806  1.00  0.00     0.102 A 
HETATM   18  N   UNL     1      -6.258   1.499 -31.378  1.00  0.00    -0.361 N 
HETATM   19  H   UNL     1      -6.389   2.332 -30.817  1.00  0.00     0.165 HD
HETATM   20  C   UNL     1      -7.246   0.661 -31.819  1.00  0.00     0.088 A 
HETATM   21  C   UNL     1      -6.653  -0.343 -32.547  1.00  0.00     0.019 A 
HETATM   22  C   UNL     1      -5.256  -0.099 -32.541  1.00  0.00     0.036 A 
ENDBRANCH  14  17
ENDBRANCH  10  13
ENDBRANCH   5   9
BRANCH   3  23
HETATM   23  C   UNL     1      -1.748   8.902 -28.335  1.00  0.00     0.073 A 
HETATM   24  C   UNL     1      -2.217   8.745 -27.013  1.00  0.00     0.076 A 
HETATM   25  C   UNL     1      -2.770   9.858 -26.344  1.00  0.00     0.018 A 
HETATM   26  C   UNL     1      -2.846  11.105 -26.960  1.00  0.00     0.001 A 
HETATM   27  C   UNL     1      -2.384  11.262 -28.261  1.00  0.00     0.002 A 
HETATM   28  C   UNL     1      -1.848  10.169 -28.942  1.00  0.00     0.032 A 
BRANCH  24  29
HETATM   29  C   UNL     1      -2.143   7.424 -26.287  1.00  0.00     0.419 C 
HETATM   30  F   UNL     1      -0.879   6.935 -26.123  1.00  0.00    -0.166 F 
HETATM   31  F   UNL     1      -2.639   7.514 -25.012  1.00  0.00    -0.166 F 
HETATM   32  F   UNL     1      -2.874   6.437 -26.874  1.00  0.00    -0.166 F 
ENDBRANCH  24  29
ENDBRANCH   3  23
TORSDOF 5
ENDMDL
MODEL 10
REMARK VINA RESULT:      -7.5      3.365      4.235
REMARK  5 active torsions:
REMARK  status: ('A' for Active; 'I' for Inactive)
REMARK    1  A    between atoms: N_3  and  C_4 
REMARK    2  A    between atoms: C_5  and  C_6 
REMARK    3  A    between atoms: C_15  and  C_16 
REMARK       I    between atoms: C_16  and  N_17 
REMARK    4  A    between atoms: N_17  and  N_18 
REMARK       I    between atoms: N_18  and  C_19 
REMARK    5  A    between atoms: C_19  and  C_20 
ROOT
HETATM    1  C   UNL     1      -0.742   7.070 -33.514  1.00  0.00     0.070 C 
HETATM    2  C   UNL     1      -1.957   6.191 -33.324  1.00  0.00     0.036 A 
HETATM    3  N   UNL     1      -2.185   5.562 -32.094  1.00  0.00    -0.237 N 
HETATM    4  N   UNL     1      -3.161   4.621 -31.890  1.00  0.00    -0.158 NA
HETATM    5  C   UNL     1      -3.984   4.346 -32.865  1.00  0.00     0.196 A 
HETATM    6  C   UNL     1      -3.889   5.074 -34.181  1.00  0.00     0.209 A 
HETATM    7  O   UNL     1      -4.731   4.895 -35.050  1.00  0.00    -0.286 OA
HETATM    8  C   UNL     1      -2.761   5.988 -34.377  1.00  0.00     0.084 A 
ENDROOT
BRANCH   5   9
HETATM    9  C   UNL     1      -5.023   3.259 -32.610  1.00  0.00     0.294 C 
HETATM   10  N   UNL     1      -6.332   3.591 -32.900  1.00  0.00    -0.261 N 
HETATM   11  H   UNL     1      -6.585   4.445 -33.412  1.00  0.00     0.190 HD
HETATM   12  O   UNL     1      -4.694   2.158 -32.184  1.00  0.00    -0.264 OA
BRANCH  10  13
HETATM   13  N   UNL     1      -7.291   2.569 -32.857  1.00  0.00    -0.262 N 
HETATM   14  C   UNL     1      -8.629   2.900 -32.864  1.00  0.00     0.286 C 
HETATM   15  O   UNL     1      -9.013   4.067 -32.795  1.00  0.00    -0.264 OA
HETATM   16  H   UNL     1      -6.954   1.622 -33.009  1.00  0.00     0.190 HD
BRANCH  14  17
HETATM   17  C   UNL     1      -9.548   1.786 -32.965  1.00  0.00     0.102 A 
HETATM   18  N   UNL     1     -10.773   1.923 -33.585  1.00  0.00    -0.361 N 
HETATM   19  H   UNL     1     -11.098   2.790 -33.997  1.00  0.00     0.165 HD
HETATM   20  C   UNL     1     -11.458   0.740 -33.555  1.00  0.00     0.088 A 
HETATM   21  C   UNL     1     -10.670  -0.186 -32.911  1.00  0.00     0.019 A 
HETATM   22  C   UNL     1      -9.470   0.469 -32.539  1.00  0.00     0.036 A 
ENDBRANCH  14  17
ENDBRANCH  10  13
ENDBRANCH   5   9
BRANCH   3  23
HETATM   23  C   UNL     1      -1.390   5.787 -30.928  1.00  0.00     0.073 A 
HETATM   24  C   UNL     1      -1.671   6.835 -30.025  1.00  0.00     0.076 A 
HETATM   25  C   UNL     1      -0.822   7.032 -28.915  1.00  0.00     0.018 A 
HETATM   26  C   UNL     1       0.274   6.201 -28.689  1.00  0.00     0.001 A 
HETATM   27  C   UNL     1       0.552   5.169 -29.576  1.00  0.00     0.002 A 
HETATM   28  C   UNL     1      -0.268   4.970 -30.688  1.00  0.00     0.032 A 
BRANCH  24  29
HETATM   29  C   UNL     1      -2.855   7.754 -30.206  1.00  0.00     0.419 C 
HETATM   30  F   UNL     1      -4.060   7.118 -30.289  1.00  0.00    -0.166 F 
HETATM   31  F   UNL     1      -2.999   8.615 -29.149  1.00  0.00    -0.166 F 
HETATM   32  F   UNL     1      -2.759   8.560 -31.299  1.00  0.00    -0.166 F 
ENDBRANCH  24  29
ENDBRANCH   3  23
TORSDOF 5
ENDMDL
