MODEL 1
REMARK VINA RESULT:      -9.0      0.000      0.000
REMARK  3 active torsions:
REMARK  status: ('A' for Active; 'I' for Inactive)
REMARK    1  A    between atoms: C_5  and  C_6 
REMARK       I    between atoms: C_6  and  N_7 
REMARK    2  A    between atoms: N_7  and  C_8 
REMARK    3  A    between atoms: C_13  and  C_14 
ROOT
HETATM    1  C   UNL     1      -7.023   2.875 -33.979  1.00  0.00     0.137 A 
HETATM    2  N   UNL     1      -8.387   3.031 -33.989  1.00  0.00    -0.262 N 
HETATM    3  H   UNL     1      -9.076   2.293 -34.116  1.00  0.00     0.191 HD
HETATM    4  N   UNL     1      -8.791   4.298 -33.770  1.00  0.00    -0.185 NA
HETATM    5  C   UNL     1      -7.642   4.970 -33.651  1.00  0.00     0.155 A 
HETATM    6  C   UNL     1      -6.505   4.142 -33.788  1.00  0.00     0.039 A 
ENDROOT
BRANCH   1   7
HETATM    7  N   UNL     1      -6.387   1.653 -34.119  1.00  0.00    -0.307 N 
HETATM    8  C   UNL     1      -6.878   0.499 -33.537  1.00  0.00     0.258 C 
HETATM    9  O   UNL     1      -7.893   0.450 -32.844  1.00  0.00    -0.267 OA
HETATM   10  H   UNL     1      -5.500   1.639 -34.609  1.00  0.00     0.170 HD
BRANCH   8  11
HETATM   11  C   UNL     1      -6.063  -0.725 -33.730  1.00  0.00     0.044 A 
HETATM   12  C   UNL     1      -4.882  -0.994 -32.991  1.00  0.00     0.008 A 
HETATM   13  C   UNL     1      -4.224  -2.208 -33.222  1.00  0.00     0.043 A 
HETATM   14  C   UNL     1      -4.100  -0.299 -32.018  1.00  0.00     0.032 A 
HETATM   15  C   UNL     1      -4.662  -3.146 -34.167  1.00  0.00     0.030 A 
HETATM   16  N   UNL     1      -3.134  -2.257 -32.382  1.00  0.00    -0.365 N 
HETATM   17  C   UNL     1      -5.802  -2.839 -34.911  1.00  0.00     0.003 A 
HETATM   18  C   UNL     1      -6.493  -1.650 -34.699  1.00  0.00     0.018 A 
HETATM   19  H   UNL     1      -2.482  -3.030 -32.335  1.00  0.00     0.165 HD
HETATM   20  C   UNL     1      -3.049  -1.106 -31.652  1.00  0.00     0.089 A 
ENDBRANCH   8  11
ENDBRANCH   1   7
BRANCH   6  21
HETATM   21  C   UNL     1      -5.097   4.475 -33.750  1.00  0.00    -0.018 A 
HETATM   22  C   UNL     1      -4.366   4.292 -32.567  1.00  0.00     0.052 A 
HETATM   23  C   UNL     1      -3.030   4.633 -32.574  1.00  0.00     0.105 A 
HETATM   24  C   UNL     1      -2.414   5.126 -33.699  1.00  0.00     0.105 A 
HETATM   25  O   UNL     1      -2.181   4.533 -31.517  1.00  0.00    -0.323 OA
HETATM   26  O   UNL     1      -1.098   5.397 -33.492  1.00  0.00    -0.323 OA
HETATM   27  C   UNL     1      -3.098   5.305 -34.882  1.00  0.00     0.040 A 
HETATM   28  C   UNL     1      -0.956   5.013 -32.108  1.00  0.00     0.352 A 
HETATM   29  C   UNL     1      -4.458   4.971 -34.906  1.00  0.00     0.015 A 
ENDBRANCH   6  21
TORSDOF 3
ENDMDL
MODEL 2
REMARK VINA RESULT:      -8.8      1.764      2.198
REMARK  3 active torsions:
REMARK  status: ('A' for Active; 'I' for Inactive)
REMARK    1  A    between atoms: C_5  and  C_6 
REMARK       I    between atoms: C_6  and  N_7 
REMARK    2  A    between atoms: N_7  and  C_8 
REMARK    3  A    between atoms: C_13  and  C_14 
ROOT
HETATM    1  C   UNL     1      -7.250   1.787 -31.463  1.00  0.00     0.137 A 
HETATM    2  N   UNL     1      -8.472   1.869 -30.843  1.00  0.00    -0.262 N 
HETATM    3  H   UNL     1      -9.126   1.103 -30.698  1.00  0.00     0.191 HD
HETATM    4  N   UNL     1      -8.762   3.099 -30.375  1.00  0.00    -0.185 NA
HETATM    5  C   UNL     1      -7.702   3.825 -30.740  1.00  0.00     0.155 A 
HETATM    6  C   UNL     1      -6.732   3.068 -31.436  1.00  0.00     0.039 A 
ENDROOT
BRANCH   1   7
HETATM    7  N   UNL     1      -6.719   0.611 -31.964  1.00  0.00    -0.307 N 
HETATM    8  C   UNL     1      -6.648   0.357 -33.321  1.00  0.00     0.258 C 
HETATM    9  O   UNL     1      -7.054   1.124 -34.193  1.00  0.00    -0.267 OA
HETATM   10  H   UNL     1      -6.441  -0.100 -31.297  1.00  0.00     0.170 HD
BRANCH   8  11
HETATM   11  C   UNL     1      -6.102  -0.968 -33.708  1.00  0.00     0.044 A 
HETATM   12  C   UNL     1      -4.939  -1.527 -33.121  1.00  0.00     0.008 A 
HETATM   13  C   UNL     1      -4.547  -2.808 -33.528  1.00  0.00     0.043 A 
HETATM   14  C   UNL     1      -3.960  -1.096 -32.173  1.00  0.00     0.032 A 
HETATM   15  C   UNL     1      -5.234  -3.541 -34.505  1.00  0.00     0.030 A 
HETATM   16  N   UNL     1      -3.421  -3.147 -32.811  1.00  0.00    -0.365 N 
HETATM   17  C   UNL     1      -6.351  -2.952 -35.098  1.00  0.00     0.003 A 
HETATM   18  C   UNL     1      -6.780  -1.686 -34.709  1.00  0.00     0.018 A 
HETATM   19  H   UNL     1      -2.928  -4.026 -32.902  1.00  0.00     0.165 HD
HETATM   20  C   UNL     1      -3.056  -2.117 -31.991  1.00  0.00     0.089 A 
ENDBRANCH   8  11
ENDBRANCH   1   7
BRANCH   6  21
HETATM   21  C   UNL     1      -5.470   3.474 -32.016  1.00  0.00    -0.018 A 
HETATM   22  C   UNL     1      -5.452   4.329 -33.127  1.00  0.00     0.052 A 
HETATM   23  C   UNL     1      -4.226   4.681 -33.652  1.00  0.00     0.105 A 
HETATM   24  C   UNL     1      -3.048   4.229 -33.108  1.00  0.00     0.105 A 
HETATM   25  O   UNL     1      -4.028   5.486 -34.729  1.00  0.00    -0.323 OA
HETATM   26  O   UNL     1      -1.958   4.694 -33.774  1.00  0.00    -0.323 OA
HETATM   27  C   UNL     1      -3.028   3.400 -32.007  1.00  0.00     0.040 A 
HETATM   28  C   UNL     1      -2.586   5.496 -34.797  1.00  0.00     0.352 A 
HETATM   29  C   UNL     1      -4.257   3.021 -31.454  1.00  0.00     0.015 A 
ENDBRANCH   6  21
TORSDOF 3
ENDMDL
MODEL 3
REMARK VINA RESULT:      -8.6      1.988      2.862
REMARK  3 active torsions:
REMARK  status: ('A' for Active; 'I' for Inactive)
REMARK    1  A    between atoms: C_5  and  C_6 
REMARK       I    between atoms: C_6  and  N_7 
REMARK    2  A    between atoms: N_7  and  C_8 
REMARK    3  A    between atoms: C_13  and  C_14 
ROOT
HETATM    1  C   UNL     1      -9.009   0.685 -33.236  1.00  0.00     0.137 A 
HETATM    2  N   UNL     1     -10.338   0.397 -33.428  1.00  0.00    -0.262 N 
HETATM    3  H   UNL     1     -10.735  -0.522 -33.612  1.00  0.00     0.191 HD
HETATM    4  N   UNL     1     -11.147   1.469 -33.318  1.00  0.00    -0.185 NA
HETATM    5  C   UNL     1     -10.298   2.472 -33.081  1.00  0.00     0.155 A 
HETATM    6  C   UNL     1      -8.949   2.050 -33.035  1.00  0.00     0.039 A 
ENDROOT
BRANCH   1   7
HETATM    7  N   UNL     1      -8.007  -0.270 -33.241  1.00  0.00    -0.307 N 
HETATM    8  C   UNL     1      -7.168  -0.448 -34.326  1.00  0.00     0.258 C 
HETATM    9  O   UNL     1      -7.237   0.198 -35.370  1.00  0.00    -0.267 OA
HETATM   10  H   UNL     1      -7.948  -0.893 -32.443  1.00  0.00     0.170 HD
BRANCH   8  11
HETATM   11  C   UNL     1      -6.174  -1.544 -34.207  1.00  0.00     0.044 A 
HETATM   12  C   UNL     1      -5.054  -1.484 -33.339  1.00  0.00     0.008 A 
HETATM   13  C   UNL     1      -4.214  -2.601 -33.272  1.00  0.00     0.043 A 
HETATM   14  C   UNL     1      -4.485  -0.507 -32.466  1.00  0.00     0.032 A 
HETATM   15  C   UNL     1      -4.414  -3.754 -34.043  1.00  0.00     0.030 A 
HETATM   16  N   UNL     1      -3.223  -2.324 -32.356  1.00  0.00    -0.365 N 
HETATM   17  C   UNL     1      -5.499  -3.772 -34.920  1.00  0.00     0.003 A 
HETATM   18  C   UNL     1      -6.366  -2.687 -35.004  1.00  0.00     0.018 A 
HETATM   19  H   UNL     1      -2.480  -2.962 -32.106  1.00  0.00     0.165 HD
HETATM   20  C   UNL     1      -3.377  -1.058 -31.865  1.00  0.00     0.089 A 
ENDBRANCH   8  11
ENDBRANCH   1   7
BRANCH   6  21
HETATM   21  C   UNL     1      -7.738   2.815 -32.830  1.00  0.00    -0.018 A 
HETATM   22  C   UNL     1      -7.197   3.566 -33.883  1.00  0.00     0.052 A 
HETATM   23  C   UNL     1      -6.036   4.270 -33.645  1.00  0.00     0.105 A 
HETATM   24  C   UNL     1      -5.421   4.260 -32.416  1.00  0.00     0.105 A 
HETATM   25  O   UNL     1      -5.373   5.035 -34.553  1.00  0.00    -0.323 OA
HETATM   26  O   UNL     1      -4.293   5.018 -32.395  1.00  0.00    -0.323 OA
HETATM   27  C   UNL     1      -5.933   3.545 -31.355  1.00  0.00     0.040 A 
HETATM   28  C   UNL     1      -4.272   5.512 -33.751  1.00  0.00     0.352 A 
HETATM   29  C   UNL     1      -7.109   2.816 -31.566  1.00  0.00     0.015 A 
ENDBRANCH   6  21
TORSDOF 3
ENDMDL
MODEL 4
REMARK VINA RESULT:      -8.5      3.744      5.707
REMARK  3 active torsions:
REMARK  status: ('A' for Active; 'I' for Inactive)
REMARK    1  A    between atoms: C_5  and  C_6 
REMARK       I    between atoms: C_6  and  N_7 
REMARK    2  A    between atoms: N_7  and  C_8 
REMARK    3  A    between atoms: C_13  and  C_14 
ROOT
HETATM    1  C   UNL     1      -7.329   1.465 -30.950  1.00  0.00     0.137 A 
HETATM    2  N   UNL     1      -6.708   2.035 -29.867  1.00  0.00    -0.262 N 
HETATM    3  H   UNL     1      -5.861   1.699 -29.413  1.00  0.00     0.191 HD
HETATM    4  N   UNL     1      -7.304   3.161 -29.429  1.00  0.00    -0.185 NA
HETATM    5  C   UNL     1      -8.356   3.289 -30.242  1.00  0.00     0.155 A 
HETATM    6  C   UNL     1      -8.436   2.254 -31.202  1.00  0.00     0.039 A 
ENDROOT
BRANCH   1   7
HETATM    7  N   UNL     1      -6.857   0.341 -31.605  1.00  0.00    -0.307 N 
HETATM    8  C   UNL     1      -6.078   0.428 -32.745  1.00  0.00     0.258 C 
HETATM    9  O   UNL     1      -5.751   1.484 -33.282  1.00  0.00    -0.267 OA
HETATM   10  H   UNL     1      -7.159  -0.564 -31.261  1.00  0.00     0.170 HD
BRANCH   8  11
HETATM   11  C   UNL     1      -5.689  -0.862 -33.366  1.00  0.00     0.044 A 
HETATM   12  C   UNL     1      -4.629  -1.668 -32.879  1.00  0.00     0.008 A 
HETATM   13  C   UNL     1      -4.386  -2.891 -33.515  1.00  0.00     0.043 A 
HETATM   14  C   UNL     1      -3.641  -1.552 -31.853  1.00  0.00     0.032 A 
HETATM   15  C   UNL     1      -5.122  -3.334 -34.622  1.00  0.00     0.030 A 
HETATM   16  N   UNL     1      -3.340  -3.502 -32.858  1.00  0.00    -0.365 N 
HETATM   17  C   UNL     1      -6.132  -2.504 -35.109  1.00  0.00     0.003 A 
HETATM   18  C   UNL     1      -6.413  -1.288 -34.494  1.00  0.00     0.018 A 
HETATM   19  H   UNL     1      -2.959  -4.406 -33.106  1.00  0.00     0.165 HD
HETATM   20  C   UNL     1      -2.881  -2.699 -31.854  1.00  0.00     0.089 A 
ENDBRANCH   8  11
ENDBRANCH   1   7
BRANCH   6  21
HETATM   21  C   UNL     1      -9.420   2.013 -32.236  1.00  0.00    -0.018 A 
HETATM   22  C   UNL     1      -9.860   3.071 -33.044  1.00  0.00     0.052 A 
HETATM   23  C   UNL     1     -10.806   2.797 -34.008  1.00  0.00     0.105 A 
HETATM   24  C   UNL     1     -11.304   1.530 -34.196  1.00  0.00     0.105 A 
HETATM   25  O   UNL     1     -11.350   3.702 -34.865  1.00  0.00    -0.323 OA
HETATM   26  O   UNL     1     -12.223   1.478 -35.196  1.00  0.00    -0.323 OA
HETATM   27  C   UNL     1     -10.883   0.464 -33.430  1.00  0.00     0.040 A 
HETATM   28  C   UNL     1     -12.243   2.857 -35.620  1.00  0.00     0.352 A 
HETATM   29  C   UNL     1      -9.926   0.711 -32.439  1.00  0.00     0.015 A 
ENDBRANCH   6  21
TORSDOF 3
ENDMDL
MODEL 5
REMARK VINA RESULT:      -8.5      2.377      6.561
REMARK  3 active torsions:
REMARK  status: ('A' for Active; 'I' for Inactive)
REMARK    1  A    between atoms: C_5  and  C_6 
REMARK       I    between atoms: C_6  and  N_7 
REMARK    2  A    between atoms: N_7  and  C_8 
REMARK    3  A    between atoms: C_13  and  C_14 
ROOT
HETATM    1  C   UNL     1      -7.310   2.048 -32.498  1.00  0.00     0.137 A 
HETATM    2  N   UNL     1      -8.332   2.673 -31.828  1.00  0.00    -0.262 N 
HETATM    3  H   UNL     1      -8.425   3.674 -31.671  1.00  0.00     0.191 HD
HETATM    4  N   UNL     1      -9.289   1.832 -31.389  1.00  0.00    -0.185 NA
HETATM    5  C   UNL     1      -8.840   0.632 -31.766  1.00  0.00     0.155 A 
HETATM    6  C   UNL     1      -7.603   0.699 -32.447  1.00  0.00     0.039 A 
ENDROOT
BRANCH   1   7
HETATM    7  N   UNL     1      -6.254   2.719 -33.089  1.00  0.00    -0.307 N 
HETATM    8  C   UNL     1      -5.448   3.590 -32.379  1.00  0.00     0.258 C 
HETATM    9  O   UNL     1      -5.597   3.858 -31.188  1.00  0.00    -0.267 OA
HETATM   10  H   UNL     1      -6.127   2.607 -34.089  1.00  0.00     0.170 HD
BRANCH   8  11
HETATM   11  C   UNL     1      -4.387   4.277 -33.157  1.00  0.00     0.044 A 
HETATM   12  C   UNL     1      -3.098   4.550 -32.635  1.00  0.00     0.008 A 
HETATM   13  C   UNL     1      -2.161   5.156 -33.481  1.00  0.00     0.043 A 
HETATM   14  C   UNL     1      -2.448   4.392 -31.373  1.00  0.00     0.032 A 
HETATM   15  C   UNL     1      -2.452   5.527 -34.800  1.00  0.00     0.030 A 
HETATM   16  N   UNL     1      -0.988   5.297 -32.771  1.00  0.00    -0.365 N 
HETATM   17  C   UNL     1      -3.740   5.286 -35.277  1.00  0.00     0.003 A 
HETATM   18  C   UNL     1      -4.695   4.671 -34.472  1.00  0.00     0.018 A 
HETATM   19  H   UNL     1      -0.140   5.702 -33.143  1.00  0.00     0.165 HD
HETATM   20  C   UNL     1      -1.153   4.841 -31.494  1.00  0.00     0.089 A 
ENDBRANCH   8  11
ENDBRANCH   1   7
BRANCH   6  21
HETATM   21  C   UNL     1      -6.778  -0.359 -32.991  1.00  0.00    -0.018 A 
HETATM   22  C   UNL     1      -7.359  -1.366 -33.777  1.00  0.00     0.052 A 
HETATM   23  C   UNL     1      -6.537  -2.359 -34.265  1.00  0.00     0.105 A 
HETATM   24  C   UNL     1      -5.186  -2.372 -34.012  1.00  0.00     0.105 A 
HETATM   25  O   UNL     1      -6.933  -3.412 -35.028  1.00  0.00    -0.323 OA
HETATM   26  O   UNL     1      -4.562  -3.434 -34.585  1.00  0.00    -0.323 OA
HETATM   27  C   UNL     1      -4.580  -1.391 -33.256  1.00  0.00     0.040 A 
HETATM   28  C   UNL     1      -5.674  -4.086 -35.233  1.00  0.00     0.352 A 
HETATM   29  C   UNL     1      -5.389  -0.370 -32.743  1.00  0.00     0.015 A 
ENDBRANCH   6  21
TORSDOF 3
ENDMDL
MODEL 6
REMARK VINA RESULT:      -8.5     15.603     16.674
REMARK  3 active torsions:
REMARK  status: ('A' for Active; 'I' for Inactive)
REMARK    1  A    between atoms: C_5  and  C_6 
REMARK       I    between atoms: C_6  and  N_7 
REMARK    2  A    between atoms: N_7  and  C_8 
REMARK    3  A    between atoms: C_13  and  C_14 
ROOT
HETATM    1  C   UNL     1      -6.572 -13.895 -34.812  1.00  0.00     0.137 A 
HETATM    2  N   UNL     1      -7.268 -14.152 -33.657  1.00  0.00    -0.262 N 
HETATM    3  H   UNL     1      -8.263 -13.999 -33.507  1.00  0.00     0.191 HD
HETATM    4  N   UNL     1      -6.515 -14.689 -32.677  1.00  0.00    -0.185 NA
HETATM    5  C   UNL     1      -5.296 -14.742 -33.220  1.00  0.00     0.155 A 
HETATM    6  C   UNL     1      -5.263 -14.245 -34.543  1.00  0.00     0.039 A 
ENDROOT
BRANCH   1   7
HETATM    7  N   UNL     1      -7.154 -13.403 -35.968  1.00  0.00    -0.307 N 
HETATM    8  C   UNL     1      -7.562 -14.234 -36.995  1.00  0.00     0.258 C 
HETATM    9  O   UNL     1      -7.438 -15.457 -36.988  1.00  0.00    -0.267 OA
HETATM   10  H   UNL     1      -7.210 -12.396 -36.073  1.00  0.00     0.170 HD
BRANCH   8  11
HETATM   11  C   UNL     1      -8.122 -13.561 -38.193  1.00  0.00     0.044 A 
HETATM   12  C   UNL     1      -7.314 -12.946 -39.184  1.00  0.00     0.008 A 
HETATM   13  C   UNL     1      -7.952 -12.387 -40.298  1.00  0.00     0.043 A 
HETATM   14  C   UNL     1      -5.919 -12.692 -39.357  1.00  0.00     0.032 A 
HETATM   15  C   UNL     1      -9.344 -12.384 -40.459  1.00  0.00     0.030 A 
HETATM   16  N   UNL     1      -6.975 -11.878 -41.125  1.00  0.00    -0.365 N 
HETATM   17  C   UNL     1     -10.118 -12.958 -39.450  1.00  0.00     0.003 A 
HETATM   18  C   UNL     1      -9.521 -13.537 -38.335  1.00  0.00     0.018 A 
HETATM   19  H   UNL     1      -7.155 -11.421 -42.009  1.00  0.00     0.165 HD
HETATM   20  C   UNL     1      -5.743 -12.055 -40.564  1.00  0.00     0.089 A 
ENDBRANCH   8  11
ENDBRANCH   1   7
BRANCH   6  21
HETATM   21  C   UNL     1      -4.152 -14.107 -35.461  1.00  0.00    -0.018 A 
HETATM   22  C   UNL     1      -4.066 -12.979 -36.291  1.00  0.00     0.052 A 
HETATM   23  C   UNL     1      -2.996 -12.895 -37.156  1.00  0.00     0.105 A 
HETATM   24  C   UNL     1      -2.028 -13.868 -37.210  1.00  0.00     0.105 A 
HETATM   25  O   UNL     1      -2.766 -11.883 -38.035  1.00  0.00    -0.323 OA
HETATM   26  O   UNL     1      -1.065 -13.591 -38.128  1.00  0.00    -0.323 OA
HETATM   27  C   UNL     1      -2.073 -14.982 -36.399  1.00  0.00     0.040 A 
HETATM   28  C   UNL     1      -1.536 -12.328 -38.643  1.00  0.00     0.352 A 
HETATM   29  C   UNL     1      -3.150 -15.099 -35.511  1.00  0.00     0.015 A 
ENDBRANCH   6  21
TORSDOF 3
ENDMDL
MODEL 7
REMARK VINA RESULT:      -8.3      3.511      7.351
REMARK  3 active torsions:
REMARK  status: ('A' for Active; 'I' for Inactive)
REMARK    1  A    between atoms: C_5  and  C_6 
REMARK       I    between atoms: C_6  and  N_7 
REMARK    2  A    between atoms: N_7  and  C_8 
REMARK    3  A    between atoms: C_13  and  C_14 
ROOT
HETATM    1  C   UNL     1      -6.450   1.376 -33.318  1.00  0.00     0.137 A 
HETATM    2  N   UNL     1      -5.876   2.534 -32.856  1.00  0.00    -0.262 N 
HETATM    3  H   UNL     1      -6.332   3.440 -32.772  1.00  0.00     0.191 HD
HETATM    4  N   UNL     1      -4.596   2.386 -32.462  1.00  0.00    -0.185 NA
HETATM    5  C   UNL     1      -4.343   1.099 -32.714  1.00  0.00     0.155 A 
HETATM    6  C   UNL     1      -5.454   0.420 -33.263  1.00  0.00     0.039 A 
ENDROOT
BRANCH   1   7
HETATM    7  N   UNL     1      -7.772   1.278 -33.716  1.00  0.00    -0.307 N 
HETATM    8  C   UNL     1      -8.797   1.885 -33.013  1.00  0.00     0.258 C 
HETATM    9  O   UNL     1      -8.640   2.540 -31.985  1.00  0.00    -0.267 OA
HETATM   10  H   UNL     1      -7.981   0.683 -34.510  1.00  0.00     0.170 HD
BRANCH   8  11
HETATM   11  C   UNL     1     -10.168   1.650 -33.529  1.00  0.00     0.044 A 
HETATM   12  C   UNL     1     -10.844   2.563 -34.378  1.00  0.00     0.008 A 
HETATM   13  C   UNL     1     -12.115   2.210 -34.845  1.00  0.00     0.043 A 
HETATM   14  C   UNL     1     -10.575   3.864 -34.905  1.00  0.00     0.032 A 
HETATM   15  C   UNL     1     -12.754   1.015 -34.489  1.00  0.00     0.030 A 
HETATM   16  N   UNL     1     -12.556   3.228 -35.662  1.00  0.00    -0.365 N 
HETATM   17  C   UNL     1     -12.086   0.152 -33.620  1.00  0.00     0.003 A 
HETATM   18  C   UNL     1     -10.815   0.461 -33.146  1.00  0.00     0.018 A 
HETATM   19  H   UNL     1     -13.447   3.231 -36.141  1.00  0.00     0.165 HD
HETATM   20  C   UNL     1     -11.634   4.234 -35.701  1.00  0.00     0.089 A 
ENDBRANCH   8  11
ENDBRANCH   1   7
BRANCH   6  21
HETATM   21  C   UNL     1      -5.588  -0.956 -33.693  1.00  0.00    -0.018 A 
HETATM   22  C   UNL     1      -4.514  -1.845 -33.540  1.00  0.00     0.052 A 
HETATM   23  C   UNL     1      -4.683  -3.143 -33.973  1.00  0.00     0.105 A 
HETATM   24  C   UNL     1      -5.864  -3.574 -34.528  1.00  0.00     0.105 A 
HETATM   25  O   UNL     1      -3.747  -4.127 -33.913  1.00  0.00    -0.323 OA
HETATM   26  O   UNL     1      -5.821  -4.884 -34.886  1.00  0.00    -0.323 OA
HETATM   27  C   UNL     1      -6.945  -2.731 -34.680  1.00  0.00     0.040 A 
HETATM   28  C   UNL     1      -4.477  -5.230 -34.488  1.00  0.00     0.352 A 
HETATM   29  C   UNL     1      -6.803  -1.406 -34.253  1.00  0.00     0.015 A 
ENDBRANCH   6  21
TORSDOF 3
ENDMDL
MODEL 8
REMARK VINA RESULT:      -8.3      2.934      6.031
REMARK  3 active torsions:
REMARK  status: ('A' for Active; 'I' for Inactive)
REMARK    1  A    between atoms: C_5  and  C_6 
REMARK       I    between atoms: C_6  and  N_7 
REMARK    2  A    between atoms: N_7  and  C_8 
REMARK    3  A    between atoms: C_13  and  C_14 
ROOT
HETATM    1  C   UNL     1      -6.740   2.859 -33.806  1.00  0.00     0.137 A 
HETATM    2  N   UNL     1      -6.036   4.035 -33.885  1.00  0.00    -0.262 N 
HETATM    3  H   UNL     1      -5.023   4.129 -33.900  1.00  0.00     0.191 HD
HETATM    4  N   UNL     1      -6.815   5.129 -33.986  1.00  0.00    -0.185 NA
HETATM    5  C   UNL     1      -8.053   4.631 -33.935  1.00  0.00     0.155 A 
HETATM    6  C   UNL     1      -8.073   3.223 -33.806  1.00  0.00     0.039 A 
ENDROOT
BRANCH   1   7
HETATM    7  N   UNL     1      -6.148   1.609 -33.760  1.00  0.00    -0.307 N 
HETATM    8  C   UNL     1      -5.636   1.082 -32.588  1.00  0.00     0.258 C 
HETATM    9  O   UNL     1      -5.644   1.663 -31.504  1.00  0.00    -0.267 OA
HETATM   10  H   UNL     1      -6.034   1.110 -34.635  1.00  0.00     0.170 HD
BRANCH   8  11
HETATM   11  C   UNL     1      -4.985  -0.247 -32.702  1.00  0.00     0.044 A 
HETATM   12  C   UNL     1      -5.482  -1.285 -33.529  1.00  0.00     0.008 A 
HETATM   13  C   UNL     1      -4.754  -2.479 -33.597  1.00  0.00     0.043 A 
HETATM   14  C   UNL     1      -6.631  -1.476 -34.357  1.00  0.00     0.032 A 
HETATM   15  C   UNL     1      -3.579  -2.698 -32.864  1.00  0.00     0.030 A 
HETATM   16  N   UNL     1      -5.408  -3.317 -34.472  1.00  0.00    -0.365 N 
HETATM   17  C   UNL     1      -3.133  -1.677 -32.025  1.00  0.00     0.003 A 
HETATM   18  C   UNL     1      -3.822  -0.470 -31.942  1.00  0.00     0.018 A 
HETATM   19  H   UNL     1      -5.095  -4.249 -34.714  1.00  0.00     0.165 HD
HETATM   20  C   UNL     1      -6.546  -2.721 -34.934  1.00  0.00     0.089 A 
ENDBRANCH   8  11
ENDBRANCH   1   7
BRANCH   6  21
HETATM   21  C   UNL     1      -9.191   2.311 -33.694  1.00  0.00    -0.018 A 
HETATM   22  C   UNL     1     -10.387   2.583 -34.374  1.00  0.00     0.052 A 
HETATM   23  C   UNL     1     -11.429   1.692 -34.230  1.00  0.00     0.105 A 
HETATM   24  C   UNL     1     -11.314   0.560 -33.459  1.00  0.00     0.105 A 
HETATM   25  O   UNL     1     -12.656   1.808 -34.805  1.00  0.00    -0.323 OA
HETATM   26  O   UNL     1     -12.454  -0.180 -33.452  1.00  0.00    -0.323 OA
HETATM   27  C   UNL     1     -10.149   0.254 -32.790  1.00  0.00     0.040 A 
HETATM   28  C   UNL     1     -13.299   0.613 -34.313  1.00  0.00     0.352 A 
HETATM   29  C   UNL     1      -9.074   1.142 -32.913  1.00  0.00     0.015 A 
ENDBRANCH   6  21
TORSDOF 3
ENDMDL
MODEL 9
REMARK VINA RESULT:      -8.3      3.829      5.865
REMARK  3 active torsions:
REMARK  status: ('A' for Active; 'I' for Inactive)
REMARK    1  A    between atoms: C_5  and  C_6 
REMARK       I    between atoms: C_6  and  N_7 
REMARK    2  A    between atoms: N_7  and  C_8 
REMARK    3  A    between atoms: C_13  and  C_14 
ROOT
HETATM    1  C   UNL     1      -1.695   5.214 -32.611  1.00  0.00     0.137 A 
HETATM    2  N   UNL     1      -1.708   5.514 -33.950  1.00  0.00    -0.262 N 
HETATM    3  H   UNL     1      -2.146   4.964 -34.686  1.00  0.00     0.191 HD
HETATM    4  N   UNL     1      -1.094   6.675 -34.253  1.00  0.00    -0.185 NA
HETATM    5  C   UNL     1      -0.651   7.106 -33.069  1.00  0.00     0.155 A 
HETATM    6  C   UNL     1      -0.979   6.230 -32.008  1.00  0.00     0.039 A 
ENDROOT
BRANCH   1   7
HETATM    7  N   UNL     1      -2.318   4.105 -32.065  1.00  0.00    -0.307 N 
HETATM    8  C   UNL     1      -3.550   3.662 -32.511  1.00  0.00     0.258 C 
HETATM    9  O   UNL     1      -4.202   4.204 -33.401  1.00  0.00    -0.267 OA
HETATM   10  H   UNL     1      -1.873   3.659 -31.271  1.00  0.00     0.170 HD
BRANCH   8  11
HETATM   11  C   UNL     1      -4.118   2.492 -31.796  1.00  0.00     0.044 A 
HETATM   12  C   UNL     1      -5.260   2.574 -30.959  1.00  0.00     0.008 A 
HETATM   13  C   UNL     1      -5.737   1.393 -30.378  1.00  0.00     0.043 A 
HETATM   14  C   UNL     1      -6.107   3.621 -30.481  1.00  0.00     0.032 A 
HETATM   15  C   UNL     1      -5.120   0.148 -30.565  1.00  0.00     0.030 A 
HETATM   16  N   UNL     1      -6.853   1.714 -29.638  1.00  0.00    -0.365 N 
HETATM   17  C   UNL     1      -3.975   0.100 -31.359  1.00  0.00     0.003 A 
HETATM   18  C   UNL     1      -3.479   1.250 -31.966  1.00  0.00     0.018 A 
HETATM   19  H   UNL     1      -7.404   1.046 -29.115  1.00  0.00     0.165 HD
HETATM   20  C   UNL     1      -7.083   3.059 -29.692  1.00  0.00     0.089 A 
ENDBRANCH   8  11
ENDBRANCH   1   7
BRANCH   6  21
HETATM   21  C   UNL     1      -0.670   6.316 -30.597  1.00  0.00    -0.018 A 
HETATM   22  C   UNL     1      -1.426   7.152 -29.763  1.00  0.00     0.052 A 
HETATM   23  C   UNL     1      -1.088   7.210 -28.428  1.00  0.00     0.105 A 
HETATM   24  C   UNL     1      -0.055   6.468 -27.909  1.00  0.00     0.105 A 
HETATM   25  O   UNL     1      -1.704   7.974 -27.487  1.00  0.00    -0.323 OA
HETATM   26  O   UNL     1       0.110   6.671 -26.575  1.00  0.00    -0.323 OA
HETATM   27  C   UNL     1       0.700   5.625 -28.696  1.00  0.00     0.040 A 
HETATM   28  C   UNL     1      -0.943   7.622 -26.313  1.00  0.00     0.352 A 
HETATM   29  C   UNL     1       0.384   5.547 -30.058  1.00  0.00     0.015 A 
ENDBRANCH   6  21
TORSDOF 3
ENDMDL
MODEL 10
REMARK VINA RESULT:      -8.3      3.430      5.775
REMARK  3 active torsions:
REMARK  status: ('A' for Active; 'I' for Inactive)
REMARK    1  A    between atoms: C_5  and  C_6 
REMARK       I    between atoms: C_6  and  N_7 
REMARK    2  A    between atoms: N_7  and  C_8 
REMARK    3  A    between atoms: C_13  and  C_14 
ROOT
HETATM    1  C   UNL     1      -7.557   3.183 -32.519  1.00  0.00     0.137 A 
HETATM    2  N   UNL     1      -6.807   3.969 -31.680  1.00  0.00    -0.262 N 
HETATM    3  H   UNL     1      -5.861   3.775 -31.359  1.00  0.00     0.191 HD
HETATM    4  N   UNL     1      -7.424   5.109 -31.308  1.00  0.00    -0.185 NA
HETATM    5  C   UNL     1      -8.615   5.022 -31.906  1.00  0.00     0.155 A 
HETATM    6  C   UNL     1      -8.765   3.837 -32.662  1.00  0.00     0.039 A 
ENDROOT
BRANCH   1   7
HETATM    7  N   UNL     1      -7.102   2.000 -33.076  1.00  0.00    -0.307 N 
HETATM    8  C   UNL     1      -7.034   0.825 -32.349  1.00  0.00     0.258 C 
HETATM    9  O   UNL     1      -7.348   0.723 -31.165  1.00  0.00    -0.267 OA
HETATM   10  H   UNL     1      -6.748   2.033 -34.025  1.00  0.00     0.170 HD
BRANCH   8  11
HETATM   11  C   UNL     1      -6.477  -0.350 -33.063  1.00  0.00     0.044 A 
HETATM   12  C   UNL     1      -5.239  -0.952 -32.718  1.00  0.00     0.008 A 
HETATM   13  C   UNL     1      -4.840  -2.089 -33.430  1.00  0.00     0.043 A 
HETATM   14  C   UNL     1      -4.189  -0.676 -31.790  1.00  0.00     0.032 A 
HETATM   15  C   UNL     1      -5.592  -2.636 -34.479  1.00  0.00     0.030 A 
HETATM   16  N   UNL     1      -3.636  -2.506 -32.907  1.00  0.00    -0.365 N 
HETATM   17  C   UNL     1      -6.785  -2.002 -34.826  1.00  0.00     0.003 A 
HETATM   18  C   UNL     1      -7.223  -0.877 -34.133  1.00  0.00     0.018 A 
HETATM   19  H   UNL     1      -3.120  -3.314 -33.232  1.00  0.00     0.165 HD
HETATM   20  C   UNL     1      -3.232  -1.656 -31.918  1.00  0.00     0.089 A 
ENDBRANCH   8  11
ENDBRANCH   1   7
BRANCH   6  21
HETATM   21  C   UNL     1      -9.893   3.356 -33.430  1.00  0.00    -0.018 A 
HETATM   22  C   UNL     1     -10.630   2.253 -32.977  1.00  0.00     0.052 A 
HETATM   23  C   UNL     1     -11.690   1.823 -33.746  1.00  0.00     0.105 A 
HETATM   24  C   UNL     1     -12.038   2.453 -34.918  1.00  0.00     0.105 A 
HETATM   25  O   UNL     1     -12.498   0.767 -33.464  1.00  0.00    -0.323 OA
HETATM   26  O   UNL     1     -13.109   1.872 -35.519  1.00  0.00    -0.323 OA
HETATM   27  C   UNL     1     -11.345   3.548 -35.385  1.00  0.00     0.040 A 
HETATM   28  C   UNL     1     -13.400   0.808 -34.589  1.00  0.00     0.352 A 
HETATM   29  C   UNL     1     -10.260   4.006 -34.628  1.00  0.00     0.015 A 
ENDBRANCH   6  21
TORSDOF 3
ENDMDL
