MODEL 1
REMARK VINA RESULT:      -9.0      0.000      0.000
REMARK  8 active torsions:
REMARK  status: ('A' for Active; 'I' for Inactive)
REMARK    1  A    between atoms: C_2  and  N_3 
REMARK       I    between atoms: N_3  and  C_4 
REMARK       I    between atoms: C_4  and  N_5 
REMARK    2  A    between atoms: N_8  and  C_9 
REMARK    3  A    between atoms: C_11  and  C_12 
REMARK    4  A    between atoms: C_19  and  C_20 
REMARK    5  A    between atoms: C_20  and  O_21 
REMARK    6  A    between atoms: C_23  and  C_24 
REMARK    7  A    between atoms: C_24  and  C_25 
REMARK    8  A    between atoms: C_27  and  O_28 
ROOT
HETATM    1  C   UNL     1      -7.137   1.021 -32.588  1.00  0.00     0.137 A 
HETATM    2  N   UNL     1      -7.029  -0.139 -33.266  1.00  0.00    -0.210 NA
HETATM    3  C   UNL     1      -5.846  -0.782 -33.244  1.00  0.00     0.162 A 
HETATM    4  N   UNL     1      -4.748  -0.321 -32.627  1.00  0.00    -0.230 NA
HETATM    5  C   UNL     1      -4.859   0.824 -31.925  1.00  0.00     0.071 A 
HETATM    6  C   UNL     1      -6.058   1.541 -31.858  1.00  0.00     0.019 A 
ENDROOT
BRANCH   1   7
HETATM    7  N   UNL     1      -8.388   1.633 -32.564  1.00  0.00    -0.362 N 
HETATM    8  C   UNL     1      -8.691   2.686 -33.564  1.00  0.00     0.144 C 
HETATM    9  C   UNL     1      -9.752   2.259 -34.595  1.00  0.00     0.147 C 
HETATM   10  N   UNL     1     -10.907   1.663 -33.928  1.00  0.00    -0.331 N 
HETATM   11  C   UNL     1     -12.052   2.429 -33.791  1.00  0.00     0.318 C 
HETATM   12  C   UNL     1     -10.533   0.470 -33.162  1.00  0.00     0.147 C 
HETATM   13  N   UNL     1     -13.020   1.908 -32.973  1.00  0.00    -0.339 N 
HETATM   14  O   UNL     1     -12.199   3.495 -34.382  1.00  0.00    -0.247 OA
HETATM   15  H   UNL     1     -12.695   1.326 -32.221  1.00  0.00     0.164 HD
HETATM   16  C   UNL     1      -9.534   0.851 -32.056  1.00  0.00     0.144 C 
BRANCH  13  17
HETATM   17  C   UNL     1     -14.317   2.540 -32.741  1.00  0.00     0.078 C 
HETATM   18  C   UNL     1     -14.364   3.347 -31.444  1.00  0.00     0.032 C 
HETATM   19  C   UNL     1     -15.475   1.548 -32.827  1.00  0.00     0.032 C 
ENDBRANCH  13  17
ENDBRANCH   1   7
BRANCH   6  20
HETATM   20  C   UNL     1      -6.198   2.740 -30.949  1.00  0.00     0.083 C 
BRANCH  20  21
HETATM   21  C   UNL     1      -5.969   4.124 -31.533  1.00  0.00    -0.051 A 
HETATM   22  C   UNL     1      -5.493   4.197 -32.857  1.00  0.00     0.044 A 
HETATM   23  C   UNL     1      -5.246   5.426 -33.470  1.00  0.00     0.068 A 
HETATM   24  C   UNL     1      -5.499   6.601 -32.765  1.00  0.00     0.037 A 
HETATM   25  C   UNL     1      -5.969   6.551 -31.453  1.00  0.00     0.003 A 
HETATM   26  C   UNL     1      -6.197   5.320 -30.838  1.00  0.00     0.007 A 
BRANCH  23  27
HETATM   27  O   UNL     1      -4.772   5.606 -34.741  1.00  0.00    -0.356 OA
HETATM   28  C   UNL     1      -3.398   5.310 -34.956  1.00  0.00     0.210 C 
ENDBRANCH  23  27
ENDBRANCH  20  21
ENDBRANCH   6  20
BRANCH   3  29
HETATM   29  C   UNL     1      -5.750  -2.115 -33.878  1.00  0.00     0.012 A 
HETATM   30  C   UNL     1      -6.859  -2.730 -34.490  1.00  0.00     0.015 A 
HETATM   31  C   UNL     1      -6.765  -4.007 -35.058  1.00  0.00     0.001 A 
HETATM   32  C   UNL     1      -5.560  -4.704 -35.023  1.00  0.00     0.000 A 
HETATM   33  C   UNL     1      -4.446  -4.122 -34.430  1.00  0.00     0.001 A 
HETATM   34  C   UNL     1      -4.541  -2.845 -33.867  1.00  0.00     0.015 A 
ENDBRANCH   3  29
BRANCH   5  35
HETATM   35  C   UNL     1      -3.601   1.246 -31.195  1.00  0.00     0.226 C 
BRANCH  35  36
HETATM   36  O   UNL     1      -2.811   2.114 -32.010  1.00  0.00    -0.390 OA
HETATM   37  C   UNL     1      -2.580   3.359 -31.366  1.00  0.00     0.201 C 
ENDBRANCH  35  36
ENDBRANCH   5  35
TORSDOF 8
ENDMDL
MODEL 2
REMARK VINA RESULT:      -8.8      1.348      1.684
REMARK  8 active torsions:
REMARK  status: ('A' for Active; 'I' for Inactive)
REMARK    1  A    between atoms: C_2  and  N_3 
REMARK       I    between atoms: N_3  and  C_4 
REMARK       I    between atoms: C_4  and  N_5 
REMARK    2  A    between atoms: N_8  and  C_9 
REMARK    3  A    between atoms: C_11  and  C_12 
REMARK    4  A    between atoms: C_19  and  C_20 
REMARK    5  A    between atoms: C_20  and  O_21 
REMARK    6  A    between atoms: C_23  and  C_24 
REMARK    7  A    between atoms: C_24  and  C_25 
REMARK    8  A    between atoms: C_27  and  O_28 
ROOT
HETATM    1  C   UNL     1      -6.960   1.000 -32.778  1.00  0.00     0.137 A 
HETATM    2  N   UNL     1      -6.957  -0.186 -33.417  1.00  0.00    -0.210 NA
HETATM    3  C   UNL     1      -5.802  -0.877 -33.471  1.00  0.00     0.162 A 
HETATM    4  N   UNL     1      -4.638  -0.442 -32.968  1.00  0.00    -0.230 NA
HETATM    5  C   UNL     1      -4.644   0.731 -32.303  1.00  0.00     0.071 A 
HETATM    6  C   UNL     1      -5.803   1.500 -32.163  1.00  0.00     0.019 A 
ENDROOT
BRANCH   1   7
HETATM    7  N   UNL     1      -8.180   1.666 -32.673  1.00  0.00    -0.362 N 
HETATM    8  C   UNL     1      -8.500   2.738 -33.646  1.00  0.00     0.144 C 
HETATM    9  C   UNL     1      -9.641   2.364 -34.610  1.00  0.00     0.147 C 
HETATM   10  N   UNL     1     -10.777   1.814 -33.873  1.00  0.00    -0.331 N 
HETATM   11  C   UNL     1     -11.876   2.627 -33.661  1.00  0.00     0.318 C 
HETATM   12  C   UNL     1     -10.406   0.600 -33.139  1.00  0.00     0.147 C 
HETATM   13  N   UNL     1     -12.812   2.142 -32.786  1.00  0.00    -0.339 N 
HETATM   14  O   UNL     1     -12.014   3.702 -34.237  1.00  0.00    -0.247 OA
HETATM   15  H   UNL     1     -12.466   1.541 -32.059  1.00  0.00     0.164 HD
HETATM   16  C   UNL     1      -9.324   0.930 -32.096  1.00  0.00     0.144 C 
BRANCH  13  17
HETATM   17  C   UNL     1     -14.063   2.827 -32.469  1.00  0.00     0.078 C 
HETATM   18  C   UNL     1     -13.969   3.690 -31.210  1.00  0.00     0.032 C 
HETATM   19  C   UNL     1     -15.254   1.874 -32.408  1.00  0.00     0.032 C 
ENDBRANCH  13  17
ENDBRANCH   1   7
BRANCH   6  20
HETATM   20  C   UNL     1      -5.817   2.735 -31.292  1.00  0.00     0.083 C 
BRANCH  20  21
HETATM   21  C   UNL     1      -5.166   4.003 -31.822  1.00  0.00    -0.051 A 
HETATM   22  C   UNL     1      -4.513   4.832 -30.890  1.00  0.00     0.044 A 
HETATM   23  C   UNL     1      -3.896   6.020 -31.286  1.00  0.00     0.068 A 
HETATM   24  C   UNL     1      -3.908   6.376 -32.634  1.00  0.00     0.037 A 
HETATM   25  C   UNL     1      -4.549   5.569 -33.573  1.00  0.00     0.003 A 
HETATM   26  C   UNL     1      -5.180   4.392 -33.169  1.00  0.00     0.007 A 
BRANCH  23  27
HETATM   27  O   UNL     1      -3.250   6.901 -30.462  1.00  0.00    -0.356 OA
HETATM   28  C   UNL     1      -2.066   7.500 -30.973  1.00  0.00     0.210 C 
ENDBRANCH  23  27
ENDBRANCH  20  21
ENDBRANCH   6  20
BRANCH   3  29
HETATM   29  C   UNL     1      -5.814  -2.235 -34.058  1.00  0.00     0.012 A 
HETATM   30  C   UNL     1      -6.989  -2.813 -34.574  1.00  0.00     0.015 A 
HETATM   31  C   UNL     1      -6.996  -4.112 -35.098  1.00  0.00     0.001 A 
HETATM   32  C   UNL     1      -5.827  -4.869 -35.113  1.00  0.00     0.000 A 
HETATM   33  C   UNL     1      -4.648  -4.324 -34.615  1.00  0.00     0.001 A 
HETATM   34  C   UNL     1      -4.644  -3.026 -34.096  1.00  0.00     0.015 A 
ENDBRANCH   3  29
BRANCH   5  35
HETATM   35  C   UNL     1      -3.311   1.125 -31.699  1.00  0.00     0.226 C 
BRANCH  35  36
HETATM   36  O   UNL     1      -2.814   0.088 -30.852  1.00  0.00    -0.390 OA
HETATM   37  C   UNL     1      -2.126  -0.904 -31.600  1.00  0.00     0.201 C 
ENDBRANCH  35  36
ENDBRANCH   5  35
TORSDOF 8
ENDMDL
MODEL 3
REMARK VINA RESULT:      -8.6      2.657      6.254
REMARK  8 active torsions:
REMARK  status: ('A' for Active; 'I' for Inactive)
REMARK    1  A    between atoms: C_2  and  N_3 
REMARK       I    between atoms: N_3  and  C_4 
REMARK       I    between atoms: C_4  and  N_5 
REMARK    2  A    between atoms: N_8  and  C_9 
REMARK    3  A    between atoms: C_11  and  C_12 
REMARK    4  A    between atoms: C_19  and  C_20 
REMARK    5  A    between atoms: C_20  and  O_21 
REMARK    6  A    between atoms: C_23  and  C_24 
REMARK    7  A    between atoms: C_24  and  C_25 
REMARK    8  A    between atoms: C_27  and  O_28 
ROOT
HETATM    1  C   UNL     1      -5.639   2.633 -32.163  1.00  0.00     0.137 A 
HETATM    2  N   UNL     1      -4.877   3.703 -32.463  1.00  0.00    -0.210 NA
HETATM    3  C   UNL     1      -3.550   3.622 -32.244  1.00  0.00     0.162 A 
HETATM    4  N   UNL     1      -2.939   2.559 -31.703  1.00  0.00    -0.230 NA
HETATM    5  C   UNL     1      -3.693   1.476 -31.426  1.00  0.00     0.071 A 
HETATM    6  C   UNL     1      -5.073   1.454 -31.656  1.00  0.00     0.019 A 
ENDROOT
BRANCH   1   7
HETATM    7  N   UNL     1      -6.997   2.712 -32.463  1.00  0.00    -0.362 N 
HETATM    8  C   UNL     1      -7.958   3.006 -31.372  1.00  0.00     0.144 C 
HETATM    9  C   UNL     1      -8.616   4.392 -31.498  1.00  0.00     0.147 C 
HETATM   10  N   UNL     1      -9.111   4.605 -32.856  1.00  0.00    -0.331 N 
HETATM   11  C   UNL     1     -10.469   4.477 -33.086  1.00  0.00     0.318 C 
HETATM   12  C   UNL     1      -8.027   4.542 -33.841  1.00  0.00     0.147 C 
HETATM   13  N   UNL     1     -10.850   4.470 -34.402  1.00  0.00    -0.339 N 
HETATM   14  O   UNL     1     -11.282   4.398 -32.169  1.00  0.00    -0.247 OA
HETATM   15  H   UNL     1     -10.179   4.101 -35.053  1.00  0.00     0.164 HD
HETATM   16  C   UNL     1      -7.383   3.145 -33.822  1.00  0.00     0.144 C 
BRANCH  13  17
HETATM   17  C   UNL     1     -12.240   4.394 -34.848  1.00  0.00     0.078 C 
HETATM   18  C   UNL     1     -12.543   3.124 -35.642  1.00  0.00     0.032 C 
HETATM   19  C   UNL     1     -12.682   5.646 -35.603  1.00  0.00     0.032 C 
ENDBRANCH  13  17
ENDBRANCH   1   7
BRANCH   6  20
HETATM   20  C   UNL     1      -5.872   0.184 -31.476  1.00  0.00     0.083 C 
BRANCH  20  21
HETATM   21  C   UNL     1      -6.132  -0.687 -32.693  1.00  0.00    -0.051 A 
HETATM   22  C   UNL     1      -5.085  -1.522 -33.127  1.00  0.00     0.044 A 
HETATM   23  C   UNL     1      -5.234  -2.349 -34.243  1.00  0.00     0.068 A 
HETATM   24  C   UNL     1      -6.451  -2.363 -34.921  1.00  0.00     0.037 A 
HETATM   25  C   UNL     1      -7.500  -1.543 -34.509  1.00  0.00     0.003 A 
HETATM   26  C   UNL     1      -7.341  -0.705 -33.405  1.00  0.00     0.007 A 
BRANCH  23  27
HETATM   27  O   UNL     1      -4.278  -3.184 -34.754  1.00  0.00    -0.356 OA
HETATM   28  C   UNL     1      -3.889  -4.283 -33.938  1.00  0.00     0.210 C 
ENDBRANCH  23  27
ENDBRANCH  20  21
ENDBRANCH   6  20
BRANCH   3  29
HETATM   29  C   UNL     1      -2.687   4.739 -32.686  1.00  0.00     0.012 A 
HETATM   30  C   UNL     1      -2.185   4.817 -33.999  1.00  0.00     0.015 A 
HETATM   31  C   UNL     1      -1.341   5.862 -34.398  1.00  0.00     0.001 A 
HETATM   32  C   UNL     1      -0.974   6.852 -33.491  1.00  0.00     0.000 A 
HETATM   33  C   UNL     1      -1.457   6.806 -32.188  1.00  0.00     0.001 A 
HETATM   34  C   UNL     1      -2.302   5.763 -31.793  1.00  0.00     0.015 A 
ENDBRANCH   3  29
BRANCH   5  35
HETATM   35  C   UNL     1      -2.926   0.288 -30.884  1.00  0.00     0.226 C 
BRANCH  35  36
HETATM   36  O   UNL     1      -2.231  -0.387 -31.934  1.00  0.00    -0.390 OA
HETATM   37  C   UNL     1      -2.118  -1.778 -31.668  1.00  0.00     0.201 C 
ENDBRANCH  35  36
ENDBRANCH   5  35
TORSDOF 8
ENDMDL
MODEL 4
REMARK VINA RESULT:      -8.6      3.003      8.682
REMARK  8 active torsions:
REMARK  status: ('A' for Active; 'I' for Inactive)
REMARK    1  A    between atoms: C_2  and  N_3 
REMARK       I    between atoms: N_3  and  C_4 
REMARK       I    between atoms: C_4  and  N_5 
REMARK    2  A    between atoms: N_8  and  C_9 
REMARK    3  A    between atoms: C_11  and  C_12 
REMARK    4  A    between atoms: C_19  and  C_20 
REMARK    5  A    between atoms: C_20  and  O_21 
REMARK    6  A    between atoms: C_23  and  C_24 
REMARK    7  A    between atoms: C_24  and  C_25 
REMARK    8  A    between atoms: C_27  and  O_28 
ROOT
HETATM    1  C   UNL     1      -8.252   3.391 -33.517  1.00  0.00     0.137 A 
HETATM    2  N   UNL     1      -8.920   4.368 -34.161  1.00  0.00    -0.210 NA
HETATM    3  C   UNL     1     -10.196   4.134 -34.525  1.00  0.00     0.162 A 
HETATM    4  N   UNL     1     -10.836   2.972 -34.328  1.00  0.00    -0.230 NA
HETATM    5  C   UNL     1     -10.180   2.002 -33.660  1.00  0.00     0.071 A 
HETATM    6  C   UNL     1      -8.866   2.168 -33.210  1.00  0.00     0.019 A 
ENDROOT
BRANCH   1   7
HETATM    7  N   UNL     1      -6.958   3.678 -33.088  1.00  0.00    -0.362 N 
HETATM    8  C   UNL     1      -5.820   3.390 -33.994  1.00  0.00     0.144 C 
HETATM    9  C   UNL     1      -5.123   4.660 -34.517  1.00  0.00     0.147 C 
HETATM   10  N   UNL     1      -4.845   5.584 -33.420  1.00  0.00    -0.331 N 
HETATM   11  C   UNL     1      -3.550   5.659 -32.939  1.00  0.00     0.318 C 
HETATM   12  C   UNL     1      -6.076   6.005 -32.745  1.00  0.00     0.147 C 
HETATM   13  N   UNL     1      -3.389   6.369 -31.778  1.00  0.00    -0.339 N 
HETATM   14  O   UNL     1      -2.604   5.142 -33.527  1.00  0.00    -0.247 OA
HETATM   15  H   UNL     1      -4.173   6.372 -31.151  1.00  0.00     0.164 HD
HETATM   16  C   UNL     1      -6.777   4.783 -32.124  1.00  0.00     0.144 C 
BRANCH  13  17
HETATM   17  C   UNL     1      -2.095   6.605 -31.140  1.00  0.00     0.078 C 
HETATM   18  C   UNL     1      -2.213   6.907 -29.647  1.00  0.00     0.032 C 
HETATM   19  C   UNL     1      -1.269   7.665 -31.864  1.00  0.00     0.032 C 
ENDBRANCH  13  17
ENDBRANCH   1   7
BRANCH   6  20
HETATM   20  C   UNL     1      -8.204   1.125 -32.339  1.00  0.00     0.083 C 
BRANCH  20  21
HETATM   21  C   UNL     1      -7.268   0.123 -32.993  1.00  0.00    -0.051 A 
HETATM   22  C   UNL     1      -6.048  -0.144 -32.341  1.00  0.00     0.044 A 
HETATM   23  C   UNL     1      -5.124  -1.044 -32.875  1.00  0.00     0.068 A 
HETATM   24  C   UNL     1      -5.429  -1.707 -34.063  1.00  0.00     0.037 A 
HETATM   25  C   UNL     1      -6.630  -1.457 -34.725  1.00  0.00     0.003 A 
HETATM   26  C   UNL     1      -7.543  -0.543 -34.197  1.00  0.00     0.007 A 
BRANCH  23  27
HETATM   27  O   UNL     1      -3.910  -1.361 -32.331  1.00  0.00    -0.356 OA
HETATM   28  C   UNL     1      -3.413  -0.486 -31.327  1.00  0.00     0.210 C 
ENDBRANCH  23  27
ENDBRANCH  20  21
ENDBRANCH   6  20
BRANCH   3  29
HETATM   29  C   UNL     1     -10.980   5.239 -35.118  1.00  0.00     0.012 A 
HETATM   30  C   UNL     1     -10.388   6.468 -35.467  1.00  0.00     0.015 A 
HETATM   31  C   UNL     1     -11.146   7.520 -35.997  1.00  0.00     0.001 A 
HETATM   32  C   UNL     1     -12.517   7.371 -36.187  1.00  0.00     0.000 A 
HETATM   33  C   UNL     1     -13.131   6.168 -35.857  1.00  0.00     0.001 A 
HETATM   34  C   UNL     1     -12.371   5.118 -35.331  1.00  0.00     0.015 A 
ENDBRANCH   3  29
BRANCH   5  35
HETATM   35  C   UNL     1     -10.987   0.745 -33.411  1.00  0.00     0.226 C 
BRANCH  35  36
HETATM   36  O   UNL     1     -12.386   1.033 -33.414  1.00  0.00    -0.390 OA
HETATM   37  C   UNL     1     -13.149  -0.120 -33.743  1.00  0.00     0.201 C 
ENDBRANCH  35  36
ENDBRANCH   5  35
TORSDOF 8
ENDMDL
MODEL 5
REMARK VINA RESULT:      -8.1      2.945      6.445
REMARK  8 active torsions:
REMARK  status: ('A' for Active; 'I' for Inactive)
REMARK    1  A    between atoms: C_2  and  N_3 
REMARK       I    between atoms: N_3  and  C_4 
REMARK       I    between atoms: C_4  and  N_5 
REMARK    2  A    between atoms: N_8  and  C_9 
REMARK    3  A    between atoms: C_11  and  C_12 
REMARK    4  A    between atoms: C_19  and  C_20 
REMARK    5  A    between atoms: C_20  and  O_21 
REMARK    6  A    between atoms: C_23  and  C_24 
REMARK    7  A    between atoms: C_24  and  C_25 
REMARK    8  A    between atoms: C_27  and  O_28 
ROOT
HETATM    1  C   UNL     1      -5.299   3.153 -31.314  1.00  0.00     0.137 A 
HETATM    2  N   UNL     1      -4.384   4.133 -31.449  1.00  0.00    -0.210 NA
HETATM    3  C   UNL     1      -3.083   3.786 -31.500  1.00  0.00     0.162 A 
HETATM    4  N   UNL     1      -2.632   2.529 -31.380  1.00  0.00    -0.230 NA
HETATM    5  C   UNL     1      -3.546   1.544 -31.273  1.00  0.00     0.071 A 
HETATM    6  C   UNL     1      -4.920   1.804 -31.250  1.00  0.00     0.019 A 
ENDROOT
BRANCH   1   7
HETATM    7  N   UNL     1      -6.641   3.527 -31.334  1.00  0.00    -0.362 N 
HETATM    8  C   UNL     1      -7.275   4.000 -30.079  1.00  0.00     0.144 C 
HETATM    9  C   UNL     1      -7.634   5.497 -30.106  1.00  0.00     0.147 C 
HETATM   10  N   UNL     1      -8.338   5.835 -31.340  1.00  0.00    -0.331 N 
HETATM   11  C   UNL     1      -9.710   6.006 -31.287  1.00  0.00     0.318 C 
HETATM   12  C   UNL     1      -7.516   5.560 -32.523  1.00  0.00     0.147 C 
HETATM   13  N   UNL     1     -10.343   6.104 -32.498  1.00  0.00    -0.339 N 
HETATM   14  O   UNL     1     -10.317   6.086 -30.222  1.00  0.00    -0.247 OA
HETATM   15  H   UNL     1      -9.913   5.612 -33.261  1.00  0.00     0.164 HD
HETATM   16  C   UNL     1      -7.195   4.057 -32.598  1.00  0.00     0.144 C 
BRANCH  13  17
HETATM   17  C   UNL     1     -11.778   6.336 -32.651  1.00  0.00     0.078 C 
HETATM   18  C   UNL     1     -12.569   5.049 -32.886  1.00  0.00     0.032 C 
HETATM   19  C   UNL     1     -12.092   7.388 -33.711  1.00  0.00     0.032 C 
ENDBRANCH  13  17
ENDBRANCH   1   7
BRANCH   6  20
HETATM   20  C   UNL     1      -5.927   0.678 -31.276  1.00  0.00     0.083 C 
BRANCH  20  21
HETATM   21  C   UNL     1      -6.844   0.553 -32.481  1.00  0.00    -0.051 A 
HETATM   22  C   UNL     1      -8.230   0.501 -32.237  1.00  0.00     0.044 A 
HETATM   23  C   UNL     1      -9.145   0.377 -33.285  1.00  0.00     0.068 A 
HETATM   24  C   UNL     1      -8.675   0.330 -34.596  1.00  0.00     0.037 A 
HETATM   25  C   UNL     1      -7.307   0.379 -34.859  1.00  0.00     0.003 A 
HETATM   26  C   UNL     1      -6.395   0.484 -33.809  1.00  0.00     0.007 A 
BRANCH  23  27
HETATM   27  O   UNL     1     -10.505   0.304 -33.155  1.00  0.00    -0.356 OA
HETATM   28  C   UNL     1     -11.271   1.194 -33.956  1.00  0.00     0.210 C 
ENDBRANCH  23  27
ENDBRANCH  20  21
ENDBRANCH   6  20
BRANCH   3  29
HETATM   29  C   UNL     1      -2.077   4.836 -31.774  1.00  0.00     0.012 A 
HETATM   30  C   UNL     1      -1.037   5.123 -30.871  1.00  0.00     0.015 A 
HETATM   31  C   UNL     1      -0.109   6.142 -31.124  1.00  0.00     0.001 A 
HETATM   32  C   UNL     1      -0.203   6.903 -32.286  1.00  0.00     0.000 A 
HETATM   33  C   UNL     1      -1.217   6.641 -33.200  1.00  0.00     0.001 A 
HETATM   34  C   UNL     1      -2.140   5.621 -32.947  1.00  0.00     0.015 A 
ENDBRANCH   3  29
BRANCH   5  35
HETATM   35  C   UNL     1      -2.969   0.145 -31.215  1.00  0.00     0.226 C 
BRANCH  35  36
HETATM   36  O   UNL     1      -3.079  -0.502 -32.484  1.00  0.00    -0.390 OA
HETATM   37  C   UNL     1      -3.368  -1.885 -32.336  1.00  0.00     0.201 C 
ENDBRANCH  35  36
ENDBRANCH   5  35
TORSDOF 8
ENDMDL
MODEL 6
REMARK VINA RESULT:      -8.0      2.602      7.271
REMARK  8 active torsions:
REMARK  status: ('A' for Active; 'I' for Inactive)
REMARK    1  A    between atoms: C_2  and  N_3 
REMARK       I    between atoms: N_3  and  C_4 
REMARK       I    between atoms: C_4  and  N_5 
REMARK    2  A    between atoms: N_8  and  C_9 
REMARK    3  A    between atoms: C_11  and  C_12 
REMARK    4  A    between atoms: C_19  and  C_20 
REMARK    5  A    between atoms: C_20  and  O_21 
REMARK    6  A    between atoms: C_23  and  C_24 
REMARK    7  A    between atoms: C_24  and  C_25 
REMARK    8  A    between atoms: C_27  and  O_28 
ROOT
HETATM    1  C   UNL     1      -7.148   2.313 -33.261  1.00  0.00     0.137 A 
HETATM    2  N   UNL     1      -6.496   1.138 -33.362  1.00  0.00    -0.210 NA
HETATM    3  C   UNL     1      -7.178   0.067 -33.808  1.00  0.00     0.162 A 
HETATM    4  N   UNL     1      -8.482   0.079 -34.119  1.00  0.00    -0.230 NA
HETATM    5  C   UNL     1      -9.132   1.258 -34.046  1.00  0.00     0.071 A 
HETATM    6  C   UNL     1      -8.496   2.432 -33.630  1.00  0.00     0.019 A 
ENDROOT
BRANCH   1   7
HETATM    7  N   UNL     1      -6.406   3.424 -32.865  1.00  0.00    -0.362 N 
HETATM    8  C   UNL     1      -6.539   3.918 -31.473  1.00  0.00     0.144 C 
HETATM    9  C   UNL     1      -5.269   3.706 -30.629  1.00  0.00     0.147 C 
HETATM   10  N   UNL     1      -4.086   4.162 -31.355  1.00  0.00    -0.331 N 
HETATM   11  C   UNL     1      -3.530   5.379 -31.003  1.00  0.00     0.318 C 
HETATM   12  C   UNL     1      -3.907   3.425 -32.610  1.00  0.00     0.147 C 
HETATM   13  N   UNL     1      -2.566   5.858 -31.851  1.00  0.00    -0.339 N 
HETATM   14  O   UNL     1      -3.863   5.980 -29.985  1.00  0.00    -0.247 OA
HETATM   15  H   UNL     1      -2.655   5.590 -32.815  1.00  0.00     0.164 HD
HETATM   16  C   UNL     1      -5.112   3.668 -33.536  1.00  0.00     0.144 C 
BRANCH  13  17
HETATM   17  C   UNL     1      -1.826   7.098 -31.627  1.00  0.00     0.078 C 
HETATM   18  C   UNL     1      -1.643   7.922 -32.901  1.00  0.00     0.032 C 
HETATM   19  C   UNL     1      -0.497   6.866 -30.912  1.00  0.00     0.032 C 
ENDBRANCH  13  17
ENDBRANCH   1   7
BRANCH   6  20
HETATM   20  C   UNL     1      -9.203   3.766 -33.696  1.00  0.00     0.083 C 
BRANCH  20  21
HETATM   21  C   UNL     1     -10.329   4.039 -32.712  1.00  0.00    -0.051 A 
HETATM   22  C   UNL     1     -11.543   4.525 -33.236  1.00  0.00     0.044 A 
HETATM   23  C   UNL     1     -12.627   4.812 -32.404  1.00  0.00     0.068 A 
HETATM   24  C   UNL     1     -12.510   4.588 -31.034  1.00  0.00     0.037 A 
HETATM   25  C   UNL     1     -11.317   4.108 -30.494  1.00  0.00     0.003 A 
HETATM   26  C   UNL     1     -10.230   3.841 -31.327  1.00  0.00     0.007 A 
BRANCH  23  27
HETATM   27  O   UNL     1     -13.839   5.299 -32.809  1.00  0.00    -0.356 OA
HETATM   28  C   UNL     1     -13.817   6.327 -33.792  1.00  0.00     0.210 C 
ENDBRANCH  23  27
ENDBRANCH  20  21
ENDBRANCH   6  20
BRANCH   3  29
HETATM   29  C   UNL     1      -6.445  -1.197 -34.043  1.00  0.00     0.012 A 
HETATM   30  C   UNL     1      -5.065  -1.314 -33.788  1.00  0.00     0.015 A 
HETATM   31  C   UNL     1      -4.373  -2.505 -34.045  1.00  0.00     0.001 A 
HETATM   32  C   UNL     1      -5.044  -3.607 -34.569  1.00  0.00     0.000 A 
HETATM   33  C   UNL     1      -6.408  -3.524 -34.826  1.00  0.00     0.001 A 
HETATM   34  C   UNL     1      -7.097  -2.335 -34.565  1.00  0.00     0.015 A 
ENDBRANCH   3  29
BRANCH   5  35
HETATM   35  C   UNL     1     -10.582   1.213 -34.480  1.00  0.00     0.226 C 
BRANCH  35  36
HETATM   36  O   UNL     1     -11.412   0.732 -33.421  1.00  0.00    -0.390 OA
HETATM   37  C   UNL     1     -12.786   0.973 -33.692  1.00  0.00     0.201 C 
ENDBRANCH  35  36
ENDBRANCH   5  35
TORSDOF 8
ENDMDL
MODEL 7
REMARK VINA RESULT:      -8.0      2.261      3.245
REMARK  8 active torsions:
REMARK  status: ('A' for Active; 'I' for Inactive)
REMARK    1  A    between atoms: C_2  and  N_3 
REMARK       I    between atoms: N_3  and  C_4 
REMARK       I    between atoms: C_4  and  N_5 
REMARK    2  A    between atoms: N_8  and  C_9 
REMARK    3  A    between atoms: C_11  and  C_12 
REMARK    4  A    between atoms: C_19  and  C_20 
REMARK    5  A    between atoms: C_20  and  O_21 
REMARK    6  A    between atoms: C_23  and  C_24 
REMARK    7  A    between atoms: C_24  and  C_25 
REMARK    8  A    between atoms: C_27  and  O_28 
ROOT
HETATM    1  C   UNL     1      -6.187   3.058 -32.438  1.00  0.00     0.137 A 
HETATM    2  N   UNL     1      -5.940   1.754 -32.671  1.00  0.00    -0.210 NA
HETATM    3  C   UNL     1      -4.670   1.317 -32.567  1.00  0.00     0.162 A 
HETATM    4  N   UNL     1      -3.622   2.105 -32.289  1.00  0.00    -0.230 NA
HETATM    5  C   UNL     1      -3.868   3.405 -32.028  1.00  0.00     0.071 A 
HETATM    6  C   UNL     1      -5.159   3.940 -32.074  1.00  0.00     0.019 A 
ENDROOT
BRANCH   1   7
HETATM    7  N   UNL     1      -7.516   3.474 -32.482  1.00  0.00    -0.362 N 
HETATM    8  C   UNL     1      -8.113   3.833 -33.791  1.00  0.00     0.144 C 
HETATM    9  C   UNL     1      -9.193   2.840 -34.259  1.00  0.00     0.147 C 
HETATM   10  N   UNL     1     -10.140   2.564 -33.182  1.00  0.00    -0.331 N 
HETATM   11  C   UNL     1     -11.378   3.179 -33.224  1.00  0.00     0.318 C 
HETATM   12  C   UNL     1      -9.474   1.972 -32.017  1.00  0.00     0.147 C 
HETATM   13  N   UNL     1     -12.139   3.061 -32.091  1.00  0.00    -0.339 N 
HETATM   14  O   UNL     1     -11.779   3.773 -34.222  1.00  0.00    -0.247 OA
HETATM   15  H   UNL     1     -11.632   2.979 -31.227  1.00  0.00     0.164 HD
HETATM   16  C   UNL     1      -8.438   2.958 -31.450  1.00  0.00     0.144 C 
BRANCH  13  17
HETATM   17  C   UNL     1     -13.492   3.597 -31.957  1.00  0.00     0.078 C 
HETATM   18  C   UNL     1     -13.691   4.400 -30.672  1.00  0.00     0.032 C 
HETATM   19  C   UNL     1     -14.566   2.523 -32.120  1.00  0.00     0.032 C 
ENDBRANCH  13  17
ENDBRANCH   1   7
BRANCH   6  20
HETATM   20  C   UNL     1      -5.428   5.361 -31.637  1.00  0.00     0.083 C 
BRANCH  20  21
HETATM   21  C   UNL     1      -5.550   5.651 -30.150  1.00  0.00    -0.051 A 
HETATM   22  C   UNL     1      -4.514   6.393 -29.549  1.00  0.00     0.044 A 
HETATM   23  C   UNL     1      -4.539   6.697 -28.186  1.00  0.00     0.068 A 
HETATM   24  C   UNL     1      -5.622   6.278 -27.416  1.00  0.00     0.037 A 
HETATM   25  C   UNL     1      -6.657   5.542 -27.991  1.00  0.00     0.003 A 
HETATM   26  C   UNL     1      -6.619   5.225 -29.349  1.00  0.00     0.007 A 
BRANCH  23  27
HETATM   27  O   UNL     1      -3.581   7.396 -27.505  1.00  0.00    -0.356 OA
HETATM   28  C   UNL     1      -2.489   7.892 -28.269  1.00  0.00     0.210 C 
ENDBRANCH  23  27
ENDBRANCH  20  21
ENDBRANCH   6  20
BRANCH   3  29
HETATM   29  C   UNL     1      -4.404  -0.133 -32.696  1.00  0.00     0.012 A 
HETATM   30  C   UNL     1      -3.534  -0.810 -31.821  1.00  0.00     0.015 A 
HETATM   31  C   UNL     1      -3.263  -2.176 -31.973  1.00  0.00     0.001 A 
HETATM   32  C   UNL     1      -3.851  -2.898 -33.008  1.00  0.00     0.000 A 
HETATM   33  C   UNL     1      -4.719  -2.258 -33.886  1.00  0.00     0.001 A 
HETATM   34  C   UNL     1      -4.991  -0.895 -33.730  1.00  0.00     0.015 A 
ENDBRANCH   3  29
BRANCH   5  35
HETATM   35  C   UNL     1      -2.648   4.219 -31.651  1.00  0.00     0.226 C 
BRANCH  35  36
HETATM   36  O   UNL     1      -1.683   4.201 -32.704  1.00  0.00    -0.390 OA
HETATM   37  C   UNL     1      -1.584   5.471 -33.335  1.00  0.00     0.201 C 
ENDBRANCH  35  36
ENDBRANCH   5  35
TORSDOF 8
ENDMDL
MODEL 8
REMARK VINA RESULT:      -8.0      2.636      6.946
REMARK  8 active torsions:
REMARK  status: ('A' for Active; 'I' for Inactive)
REMARK    1  A    between atoms: C_2  and  N_3 
REMARK       I    between atoms: N_3  and  C_4 
REMARK       I    between atoms: C_4  and  N_5 
REMARK    2  A    between atoms: N_8  and  C_9 
REMARK    3  A    between atoms: C_11  and  C_12 
REMARK    4  A    between atoms: C_19  and  C_20 
REMARK    5  A    between atoms: C_20  and  O_21 
REMARK    6  A    between atoms: C_23  and  C_24 
REMARK    7  A    between atoms: C_24  and  C_25 
REMARK    8  A    between atoms: C_27  and  O_28 
ROOT
HETATM    1  C   UNL     1      -7.910   2.170 -32.158  1.00  0.00     0.137 A 
HETATM    2  N   UNL     1      -7.032   1.211 -32.510  1.00  0.00    -0.210 NA
HETATM    3  C   UNL     1      -7.513   0.072 -33.046  1.00  0.00     0.162 A 
HETATM    4  N   UNL     1      -8.817  -0.190 -33.212  1.00  0.00    -0.230 NA
HETATM    5  C   UNL     1      -9.697   0.778 -32.887  1.00  0.00     0.071 A 
HETATM    6  C   UNL     1      -9.288   2.007 -32.360  1.00  0.00     0.019 A 
ENDROOT
BRANCH   1   7
HETATM    7  N   UNL     1      -7.387   3.367 -31.672  1.00  0.00    -0.362 N 
HETATM    8  C   UNL     1      -7.160   3.512 -30.214  1.00  0.00     0.144 C 
HETATM    9  C   UNL     1      -5.669   3.577 -29.834  1.00  0.00     0.147 C 
HETATM   10  N   UNL     1      -4.962   4.531 -30.686  1.00  0.00    -0.331 N 
HETATM   11  C   UNL     1      -4.650   5.772 -30.161  1.00  0.00     0.318 C 
HETATM   12  C   UNL     1      -5.039   4.150 -32.100  1.00  0.00     0.147 C 
HETATM   13  N   UNL     1      -4.188   6.697 -31.060  1.00  0.00    -0.339 N 
HETATM   14  O   UNL     1      -4.758   6.021 -28.963  1.00  0.00    -0.247 OA
HETATM   15  H   UNL     1      -4.528   6.605 -32.001  1.00  0.00     0.164 HD
HETATM   16  C   UNL     1      -6.506   4.151 -32.563  1.00  0.00     0.144 C 
BRANCH  13  17
HETATM   17  C   UNL     1      -3.759   8.046 -30.694  1.00  0.00     0.078 C 
HETATM   18  C   UNL     1      -4.884   9.076 -30.788  1.00  0.00     0.032 C 
HETATM   19  C   UNL     1      -2.520   8.495 -31.465  1.00  0.00     0.032 C 
ENDBRANCH  13  17
ENDBRANCH   1   7
BRANCH   6  20
HETATM   20  C   UNL     1     -10.278   3.128 -32.141  1.00  0.00     0.083 C 
BRANCH  20  21
HETATM   21  C   UNL     1     -10.630   4.024 -33.316  1.00  0.00    -0.051 A 
HETATM   22  C   UNL     1     -11.940   4.540 -33.366  1.00  0.00     0.044 A 
HETATM   23  C   UNL     1     -12.353   5.365 -34.415  1.00  0.00     0.068 A 
HETATM   24  C   UNL     1     -11.442   5.700 -35.416  1.00  0.00     0.037 A 
HETATM   25  C   UNL     1     -10.141   5.198 -35.386  1.00  0.00     0.003 A 
HETATM   26  C   UNL     1      -9.739   4.360 -34.346  1.00  0.00     0.007 A 
BRANCH  23  27
HETATM   27  O   UNL     1     -13.601   5.905 -34.565  1.00  0.00    -0.356 OA
HETATM   28  C   UNL     1     -13.845   6.621 -35.769  1.00  0.00     0.210 C 
ENDBRANCH  23  27
ENDBRANCH  20  21
ENDBRANCH   6  20
BRANCH   3  29
HETATM   29  C   UNL     1      -6.556  -0.936 -33.552  1.00  0.00     0.012 A 
HETATM   30  C   UNL     1      -5.184  -0.882 -33.238  1.00  0.00     0.015 A 
HETATM   31  C   UNL     1      -4.281  -1.823 -33.750  1.00  0.00     0.001 A 
HETATM   32  C   UNL     1      -4.726  -2.837 -34.593  1.00  0.00     0.000 A 
HETATM   33  C   UNL     1      -6.076  -2.920 -34.918  1.00  0.00     0.001 A 
HETATM   34  C   UNL     1      -6.976  -1.982 -34.402  1.00  0.00     0.015 A 
ENDBRANCH   3  29
BRANCH   5  35
HETATM   35  C   UNL     1     -11.147   0.440 -33.168  1.00  0.00     0.226 C 
BRANCH  35  36
HETATM   36  O   UNL     1     -11.544   0.940 -34.447  1.00  0.00    -0.390 OA
HETATM   37  C   UNL     1     -12.949   1.136 -34.510  1.00  0.00     0.201 C 
ENDBRANCH  35  36
ENDBRANCH   5  35
TORSDOF 8
ENDMDL
MODEL 9
REMARK VINA RESULT:      -7.9      2.855      7.165
REMARK  8 active torsions:
REMARK  status: ('A' for Active; 'I' for Inactive)
REMARK    1  A    between atoms: C_2  and  N_3 
REMARK       I    between atoms: N_3  and  C_4 
REMARK       I    between atoms: C_4  and  N_5 
REMARK    2  A    between atoms: N_8  and  C_9 
REMARK    3  A    between atoms: C_11  and  C_12 
REMARK    4  A    between atoms: C_19  and  C_20 
REMARK    5  A    between atoms: C_20  and  O_21 
REMARK    6  A    between atoms: C_23  and  C_24 
REMARK    7  A    between atoms: C_24  and  C_25 
REMARK    8  A    between atoms: C_27  and  O_28 
ROOT
HETATM    1  C   UNL     1      -6.237   2.454 -32.961  1.00  0.00     0.137 A 
HETATM    2  N   UNL     1      -5.822   1.184 -33.133  1.00  0.00    -0.210 NA
HETATM    3  C   UNL     1      -6.681   0.302 -33.680  1.00  0.00     0.162 A 
HETATM    4  N   UNL     1      -7.943   0.593 -34.026  1.00  0.00    -0.230 NA
HETATM    5  C   UNL     1      -8.353   1.869 -33.882  1.00  0.00     0.071 A 
HETATM    6  C   UNL     1      -7.519   2.862 -33.358  1.00  0.00     0.019 A 
ENDROOT
BRANCH   1   7
HETATM    7  N   UNL     1      -5.311   3.366 -32.460  1.00  0.00    -0.362 N 
HETATM    8  C   UNL     1      -4.484   2.981 -31.290  1.00  0.00     0.144 C 
HETATM    9  C   UNL     1      -2.994   2.798 -31.633  1.00  0.00     0.147 C 
HETATM   10  N   UNL     1      -2.503   3.930 -32.414  1.00  0.00    -0.331 N 
HETATM   11  C   UNL     1      -1.737   4.886 -31.771  1.00  0.00     0.318 C 
HETATM   12  C   UNL     1      -3.230   4.069 -33.679  1.00  0.00     0.147 C 
HETATM   13  N   UNL     1      -1.488   6.028 -32.487  1.00  0.00    -0.339 N 
HETATM   14  O   UNL     1      -1.290   4.714 -30.640  1.00  0.00    -0.247 OA
HETATM   15  H   UNL     1      -2.193   6.292 -33.153  1.00  0.00     0.164 HD
HETATM   16  C   UNL     1      -4.719   4.341 -33.399  1.00  0.00     0.144 C 
BRANCH  13  17
HETATM   17  C   UNL     1      -0.660   7.130 -32.003  1.00  0.00     0.078 C 
HETATM   18  C   UNL     1       0.637   6.659 -31.347  1.00  0.00     0.032 C 
HETATM   19  C   UNL     1      -1.430   8.088 -31.098  1.00  0.00     0.032 C 
ENDBRANCH  13  17
ENDBRANCH   1   7
BRANCH   6  20
HETATM   20  C   UNL     1      -7.949   4.311 -33.342  1.00  0.00     0.083 C 
BRANCH  20  21
HETATM   21  C   UNL     1      -8.467   4.899 -32.039  1.00  0.00    -0.051 A 
HETATM   22  C   UNL     1      -7.604   5.756 -31.328  1.00  0.00     0.044 A 
HETATM   23  C   UNL     1      -7.994   6.333 -30.118  1.00  0.00     0.068 A 
HETATM   24  C   UNL     1      -9.270   6.073 -29.620  1.00  0.00     0.037 A 
HETATM   25  C   UNL     1     -10.139   5.226 -30.308  1.00  0.00     0.003 A 
HETATM   26  C   UNL     1      -9.738   4.638 -31.508  1.00  0.00     0.007 A 
BRANCH  23  27
HETATM   27  O   UNL     1      -7.230   7.164 -29.345  1.00  0.00    -0.356 OA
HETATM   28  C   UNL     1      -6.694   6.609 -28.150  1.00  0.00     0.210 C 
ENDBRANCH  23  27
ENDBRANCH  20  21
ENDBRANCH   6  20
BRANCH   3  29
HETATM   29  C   UNL     1      -6.198  -1.062 -33.989  1.00  0.00     0.012 A 
HETATM   30  C   UNL     1      -4.846  -1.424 -33.841  1.00  0.00     0.015 A 
HETATM   31  C   UNL     1      -4.393  -2.709 -34.169  1.00  0.00     0.001 A 
HETATM   32  C   UNL     1      -5.282  -3.662 -34.659  1.00  0.00     0.000 A 
HETATM   33  C   UNL     1      -6.625  -3.337 -34.812  1.00  0.00     0.001 A 
HETATM   34  C   UNL     1      -7.075  -2.055 -34.480  1.00  0.00     0.015 A 
ENDBRANCH   3  29
BRANCH   5  35
HETATM   35  C   UNL     1      -9.764   2.142 -34.359  1.00  0.00     0.226 C 
BRANCH  35  36
HETATM   36  O   UNL     1     -10.717   1.768 -33.362  1.00  0.00    -0.390 OA
HETATM   37  C   UNL     1     -11.913   1.276 -33.950  1.00  0.00     0.201 C 
ENDBRANCH  35  36
ENDBRANCH   5  35
TORSDOF 8
ENDMDL
MODEL 10
REMARK VINA RESULT:      -7.9      2.540      7.117
REMARK  8 active torsions:
REMARK  status: ('A' for Active; 'I' for Inactive)
REMARK    1  A    between atoms: C_2  and  N_3 
REMARK       I    between atoms: N_3  and  C_4 
REMARK       I    between atoms: C_4  and  N_5 
REMARK    2  A    between atoms: N_8  and  C_9 
REMARK    3  A    between atoms: C_11  and  C_12 
REMARK    4  A    between atoms: C_19  and  C_20 
REMARK    5  A    between atoms: C_20  and  O_21 
REMARK    6  A    between atoms: C_23  and  C_24 
REMARK    7  A    between atoms: C_24  and  C_25 
REMARK    8  A    between atoms: C_27  and  O_28 
ROOT
HETATM    1  C   UNL     1      -6.547   1.675 -32.078  1.00  0.00     0.137 A 
HETATM    2  N   UNL     1      -6.051   0.533 -32.595  1.00  0.00    -0.210 NA
HETATM    3  C   UNL     1      -6.919  -0.374 -33.084  1.00  0.00     0.162 A 
HETATM    4  N   UNL     1      -8.252  -0.237 -33.050  1.00  0.00    -0.230 NA
HETATM    5  C   UNL     1      -8.751   0.915 -32.559  1.00  0.00     0.071 A 
HETATM    6  C   UNL     1      -7.926   1.930 -32.065  1.00  0.00     0.019 A 
ENDROOT
BRANCH   1   7
HETATM    7  N   UNL     1      -5.630   2.629 -31.643  1.00  0.00    -0.362 N 
HETATM    8  C   UNL     1      -4.428   2.184 -30.897  1.00  0.00     0.144 C 
HETATM    9  C   UNL     1      -3.119   2.377 -31.684  1.00  0.00     0.147 C 
HETATM   10  N   UNL     1      -3.053   3.721 -32.252  1.00  0.00    -0.331 N 
HETATM   11  C   UNL     1      -2.247   4.657 -31.629  1.00  0.00     0.318 C 
HETATM   12  C   UNL     1      -4.163   3.970 -33.178  1.00  0.00     0.147 C 
HETATM   13  N   UNL     1      -2.389   5.947 -32.067  1.00  0.00    -0.339 N 
HETATM   14  O   UNL     1      -1.440   4.347 -30.757  1.00  0.00    -0.247 OA
HETATM   15  H   UNL     1      -3.298   6.198 -32.413  1.00  0.00     0.164 HD
HETATM   16  C   UNL     1      -5.502   3.875 -32.426  1.00  0.00     0.144 C 
BRANCH  13  17
HETATM   17  C   UNL     1      -1.594   7.069 -31.570  1.00  0.00     0.078 C 
HETATM   18  C   UNL     1      -2.179   8.429 -31.949  1.00  0.00     0.032 C 
HETATM   19  C   UNL     1      -0.122   6.962 -31.962  1.00  0.00     0.032 C 
ENDBRANCH  13  17
ENDBRANCH   1   7
BRANCH   6  20
HETATM   20  C   UNL     1      -8.498   3.268 -31.655  1.00  0.00     0.083 C 
BRANCH  20  21
HETATM   21  C   UNL     1      -9.303   4.055 -32.676  1.00  0.00    -0.051 A 
HETATM   22  C   UNL     1     -10.539   4.585 -32.257  1.00  0.00     0.044 A 
HETATM   23  C   UNL     1     -11.348   5.313 -33.131  1.00  0.00     0.068 A 
HETATM   24  C   UNL     1     -10.910   5.538 -34.435  1.00  0.00     0.037 A 
HETATM   25  C   UNL     1      -9.690   5.021 -34.871  1.00  0.00     0.003 A 
HETATM   26  C   UNL     1      -8.894   4.279 -33.999  1.00  0.00     0.007 A 
BRANCH  23  27
HETATM   27  O   UNL     1     -12.566   5.857 -32.829  1.00  0.00    -0.356 OA
HETATM   28  C   UNL     1     -13.135   6.726 -33.800  1.00  0.00     0.210 C 
ENDBRANCH  23  27
ENDBRANCH  20  21
ENDBRANCH   6  20
BRANCH   3  29
HETATM   29  C   UNL     1      -6.384  -1.572 -33.767  1.00  0.00     0.012 A 
HETATM   30  C   UNL     1      -5.002  -1.776 -33.939  1.00  0.00     0.015 A 
HETATM   31  C   UNL     1      -4.507  -2.898 -34.616  1.00  0.00     0.001 A 
HETATM   32  C   UNL     1      -5.384  -3.842 -35.145  1.00  0.00     0.000 A 
HETATM   33  C   UNL     1      -6.755  -3.671 -34.988  1.00  0.00     0.001 A 
HETATM   34  C   UNL     1      -7.246  -2.552 -34.308  1.00  0.00     0.015 A 
ENDBRANCH   3  29
BRANCH   5  35
HETATM   35  C   UNL     1     -10.260   1.031 -32.618  1.00  0.00     0.226 C 
BRANCH  35  36
HETATM   36  O   UNL     1     -10.705   1.163 -33.970  1.00  0.00    -0.390 OA
HETATM   37  C   UNL     1     -12.056   1.596 -34.028  1.00  0.00     0.201 C 
ENDBRANCH  35  36
ENDBRANCH   5  35
TORSDOF 8
ENDMDL
