MODEL 1
REMARK VINA RESULT:      -7.1      0.000      0.000
REMARK  6 active torsions:
REMARK  status: ('A' for Active; 'I' for Inactive)
REMARK    1  A    between atoms: C_2  and  O_3 
REMARK    2  A    between atoms: O_3  and  C_4 
REMARK    3  A    between atoms: C_4  and  C_5 
REMARK    4  A    between atoms: C_6  and  O_7 
REMARK    5  A    between atoms: C_12  and  O_13 
REMARK    6  A    between atoms: C_17  and  C_18 
ROOT
HETATM    1  C   UNL     1      -4.578   2.318 -32.478  1.00  0.00     0.133 C 
HETATM    2  C   UNL     1      -3.553   3.349 -31.889  1.00  0.00     0.073 C 
HETATM    3  C   UNL     1      -2.666   3.901 -33.022  1.00  0.00     0.047 C 
HETATM    4  C   UNL     1      -4.230   4.526 -31.127  1.00  0.00     0.097 C 
HETATM    5  C   UNL     1      -5.365   5.038 -31.923  1.00  0.00     0.042 A 
HETATM    6  C   UNL     1      -6.067   4.352 -32.891  1.00  0.00     0.030 A 
HETATM    7  C   UNL     1      -6.963   5.319 -33.377  1.00  0.00     0.190 A 
HETATM    8  N   UNL     1      -6.859   6.496 -32.772  1.00  0.00    -0.149 NA
HETATM    9  N   UNL     1      -5.880   6.300 -31.872  1.00  0.00    -0.279 N 
HETATM   10  H   UNL     1      -5.609   7.079 -31.281  1.00  0.00     0.189 HD
HETATM   11  C   UNL     1      -5.754   2.943 -33.290  1.00  0.00     0.074 C 
ENDROOT
BRANCH  11  12
HETATM   12  C   UNL     1      -7.072   2.179 -33.267  1.00  0.00    -0.048 A 
HETATM   13  C   UNL     1      -7.334   1.225 -34.266  1.00  0.00     0.011 A 
HETATM   14  C   UNL     1      -8.529   0.502 -34.267  1.00  0.00     0.043 A 
HETATM   15  C   UNL     1      -9.466   0.719 -33.264  1.00  0.00     0.116 A 
HETATM   16  F   UNL     1     -10.611   0.023 -33.269  1.00  0.00    -0.206 F 
HETATM   17  C   UNL     1      -9.232   1.644 -32.259  1.00  0.00     0.043 A 
HETATM   18  C   UNL     1      -8.038   2.367 -32.255  1.00  0.00     0.011 A 
ENDBRANCH  11  12
BRANCH   1  19
HETATM   19  C   UNL     1      -5.047   1.379 -31.386  1.00  0.00     0.267 C 
HETATM   20  O   UNL     1      -5.377   1.727 -30.259  1.00  0.00    -0.265 OA
BRANCH  19  21
HETATM   21  O   UNL     1      -4.991   0.092 -31.829  1.00  0.00    -0.316 OA
BRANCH  21  22
HETATM   22  C   UNL     1      -3.902  -0.249 -32.707  1.00  0.00     0.123 C 
HETATM   23  C   UNL     1      -4.362  -1.292 -33.721  1.00  0.00     0.040 C 
HETATM   24  C   UNL     1      -2.792  -0.816 -31.829  1.00  0.00     0.040 C 
ENDBRANCH  21  22
ENDBRANCH  19  21
ENDBRANCH   1  19
BRANCH   2  25
HETATM   25  O   UNL     1      -2.636   2.687 -30.999  1.00  0.00    -0.389 OA
HETATM   26  H   UNL     1      -3.087   1.903 -30.628  1.00  0.00     0.210 HD
ENDBRANCH   2  25
BRANCH   7  27
HETATM   27  O   UNL     1      -7.879   5.228 -34.344  1.00  0.00    -0.343 OA
HETATM   28  H   UNL     1      -8.281   4.347 -34.329  1.00  0.00     0.219 HD
ENDBRANCH   7  27
TORSDOF 6
ENDMDL
MODEL 2
REMARK VINA RESULT:      -6.9      2.013      2.426
REMARK  6 active torsions:
REMARK  status: ('A' for Active; 'I' for Inactive)
REMARK    1  A    between atoms: C_2  and  O_3 
REMARK    2  A    between atoms: O_3  and  C_4 
REMARK    3  A    between atoms: C_4  and  C_5 
REMARK    4  A    between atoms: C_6  and  O_7 
REMARK    5  A    between atoms: C_12  and  O_13 
REMARK    6  A    between atoms: C_17  and  C_18 
ROOT
HETATM    1  C   UNL     1      -5.059   1.437 -32.952  1.00  0.00     0.133 C 
HETATM    2  C   UNL     1      -3.766   1.864 -32.173  1.00  0.00     0.073 C 
HETATM    3  C   UNL     1      -3.198   3.159 -32.785  1.00  0.00     0.047 C 
HETATM    4  C   UNL     1      -4.002   2.060 -30.646  1.00  0.00     0.097 C 
HETATM    5  C   UNL     1      -5.239   2.840 -30.437  1.00  0.00     0.042 A 
HETATM    6  C   UNL     1      -6.294   2.961 -31.316  1.00  0.00     0.030 A 
HETATM    7  C   UNL     1      -7.148   3.868 -30.665  1.00  0.00     0.190 A 
HETATM    8  N   UNL     1      -6.696   4.272 -29.484  1.00  0.00    -0.149 NA
HETATM    9  N   UNL     1      -5.528   3.619 -29.355  1.00  0.00    -0.279 N 
HETATM   10  H   UNL     1      -4.980   3.776 -28.515  1.00  0.00     0.189 HD
HETATM   11  C   UNL     1      -6.324   2.302 -32.661  1.00  0.00     0.074 C 
ENDROOT
BRANCH  11  12
HETATM   12  C   UNL     1      -7.667   1.591 -32.770  1.00  0.00    -0.048 A 
HETATM   13  C   UNL     1      -8.353   1.598 -33.997  1.00  0.00     0.011 A 
HETATM   14  C   UNL     1      -9.582   0.948 -34.131  1.00  0.00     0.043 A 
HETATM   15  C   UNL     1     -10.130   0.278 -33.044  1.00  0.00     0.116 A 
HETATM   16  F   UNL     1     -11.309  -0.344 -33.177  1.00  0.00    -0.206 F 
HETATM   17  C   UNL     1      -9.472   0.243 -31.824  1.00  0.00     0.043 A 
HETATM   18  C   UNL     1      -8.243   0.891 -31.688  1.00  0.00     0.011 A 
ENDBRANCH  11  12
BRANCH   1  19
HETATM   19  C   UNL     1      -5.301  -0.047 -32.769  1.00  0.00     0.267 C 
HETATM   20  O   UNL     1      -5.375  -0.615 -31.687  1.00  0.00    -0.265 OA
BRANCH  19  21
HETATM   21  O   UNL     1      -5.368  -0.656 -33.986  1.00  0.00    -0.316 OA
BRANCH  21  22
HETATM   22  C   UNL     1      -5.831  -2.019 -34.009  1.00  0.00     0.123 C 
HETATM   23  C   UNL     1      -4.944  -2.851 -34.931  1.00  0.00     0.040 C 
HETATM   24  C   UNL     1      -7.261  -1.988 -34.534  1.00  0.00     0.040 C 
ENDBRANCH  21  22
ENDBRANCH  19  21
ENDBRANCH   1  19
BRANCH   2  25
HETATM   25  O   UNL     1      -2.726   0.887 -32.359  1.00  0.00    -0.389 OA
HETATM   26  H   UNL     1      -2.279   1.079 -33.208  1.00  0.00     0.210 HD
ENDBRANCH   2  25
BRANCH   7  27
HETATM   27  O   UNL     1      -8.318   4.375 -31.058  1.00  0.00    -0.343 OA
HETATM   28  H   UNL     1      -8.192   4.897 -31.865  1.00  0.00     0.219 HD
ENDBRANCH   7  27
TORSDOF 6
ENDMDL
MODEL 3
REMARK VINA RESULT:      -6.6      2.699      4.776
REMARK  6 active torsions:
REMARK  status: ('A' for Active; 'I' for Inactive)
REMARK    1  A    between atoms: C_2  and  O_3 
REMARK    2  A    between atoms: O_3  and  C_4 
REMARK    3  A    between atoms: C_4  and  C_5 
REMARK    4  A    between atoms: C_6  and  O_7 
REMARK    5  A    between atoms: C_12  and  O_13 
REMARK    6  A    between atoms: C_17  and  C_18 
ROOT
HETATM    1  C   UNL     1      -8.306   0.969 -33.092  1.00  0.00     0.133 C 
HETATM    2  C   UNL     1      -9.389   1.827 -33.834  1.00  0.00     0.073 C 
HETATM    3  C   UNL     1     -10.613   2.019 -32.917  1.00  0.00     0.047 C 
HETATM    4  C   UNL     1      -8.860   3.213 -34.307  1.00  0.00     0.097 C 
HETATM    5  C   UNL     1      -8.089   3.843 -33.215  1.00  0.00     0.042 A 
HETATM    6  C   UNL     1      -7.479   3.199 -32.161  1.00  0.00     0.030 A 
HETATM    7  C   UNL     1      -6.973   4.260 -31.390  1.00  0.00     0.190 A 
HETATM    8  N   UNL     1      -7.218   5.458 -31.907  1.00  0.00    -0.149 NA
HETATM    9  N   UNL     1      -7.893   5.181 -33.035  1.00  0.00    -0.279 N 
HETATM   10  H   UNL     1      -8.204   5.957 -33.612  1.00  0.00     0.189 HD
HETATM   11  C   UNL     1      -7.527   1.715 -31.965  1.00  0.00     0.074 C 
ENDROOT
BRANCH  11  12
HETATM   12  C   UNL     1      -6.093   1.260 -31.720  1.00  0.00    -0.048 A 
HETATM   13  C   UNL     1      -5.842   0.255 -30.768  1.00  0.00     0.011 A 
HETATM   14  C   UNL     1      -4.540  -0.190 -30.528  1.00  0.00     0.043 A 
HETATM   15  C   UNL     1      -3.482   0.357 -31.242  1.00  0.00     0.116 A 
HETATM   16  F   UNL     1      -2.235  -0.072 -31.007  1.00  0.00    -0.206 F 
HETATM   17  C   UNL     1      -3.699   1.341 -32.194  1.00  0.00     0.043 A 
HETATM   18  C   UNL     1      -4.999   1.786 -32.438  1.00  0.00     0.011 A 
ENDBRANCH  11  12
BRANCH   1  19
HETATM   19  C   UNL     1      -7.393   0.308 -34.104  1.00  0.00     0.267 C 
HETATM   20  O   UNL     1      -6.934   0.859 -35.096  1.00  0.00    -0.265 OA
BRANCH  19  21
HETATM   21  O   UNL     1      -7.209  -1.002 -33.772  1.00  0.00    -0.316 OA
BRANCH  21  22
HETATM   22  C   UNL     1      -6.308  -1.763 -34.597  1.00  0.00     0.123 C 
HETATM   23  C   UNL     1      -6.818  -3.195 -34.735  1.00  0.00     0.040 C 
HETATM   24  C   UNL     1      -4.953  -1.746 -33.899  1.00  0.00     0.040 C 
ENDBRANCH  21  22
ENDBRANCH  19  21
ENDBRANCH   1  19
BRANCH   2  25
HETATM   25  O   UNL     1      -9.897   1.111 -34.974  1.00  0.00    -0.389 OA
HETATM   26  H   UNL     1     -10.862   1.267 -35.024  1.00  0.00     0.210 HD
ENDBRANCH   2  25
BRANCH   7  27
HETATM   27  O   UNL     1      -6.303   4.237 -30.236  1.00  0.00    -0.343 OA
HETATM   28  H   UNL     1      -5.372   4.025 -30.405  1.00  0.00     0.219 HD
ENDBRANCH   7  27
TORSDOF 6
ENDMDL
MODEL 4
REMARK VINA RESULT:      -6.6      2.920      5.493
REMARK  6 active torsions:
REMARK  status: ('A' for Active; 'I' for Inactive)
REMARK    1  A    between atoms: C_2  and  O_3 
REMARK    2  A    between atoms: O_3  and  C_4 
REMARK    3  A    between atoms: C_4  and  C_5 
REMARK    4  A    between atoms: C_6  and  O_7 
REMARK    5  A    between atoms: C_12  and  O_13 
REMARK    6  A    between atoms: C_17  and  C_18 
ROOT
HETATM    1  C   UNL     1      -9.530   2.048 -31.975  1.00  0.00     0.133 C 
HETATM    2  C   UNL     1     -10.251   3.429 -31.795  1.00  0.00     0.073 C 
HETATM    3  C   UNL     1      -9.806   4.076 -30.469  1.00  0.00     0.047 C 
HETATM    4  C   UNL     1     -10.000   4.415 -32.975  1.00  0.00     0.097 C 
HETATM    5  C   UNL     1      -8.563   4.411 -33.320  1.00  0.00     0.042 A 
HETATM    6  C   UNL     1      -7.657   3.404 -33.061  1.00  0.00     0.030 A 
HETATM    7  C   UNL     1      -6.443   3.947 -33.514  1.00  0.00     0.190 A 
HETATM    8  N   UNL     1      -6.561   5.166 -34.027  1.00  0.00    -0.149 NA
HETATM    9  N   UNL     1      -7.874   5.429 -33.911  1.00  0.00    -0.279 N 
HETATM   10  H   UNL     1      -8.214   6.329 -34.235  1.00  0.00     0.189 HD
HETATM   11  C   UNL     1      -8.019   2.134 -32.356  1.00  0.00     0.074 C 
ENDROOT
BRANCH  11  12
HETATM   12  C   UNL     1      -7.470   0.992 -33.202  1.00  0.00    -0.048 A 
HETATM   13  C   UNL     1      -6.899  -0.124 -32.567  1.00  0.00     0.011 A 
HETATM   14  C   UNL     1      -6.395  -1.191 -33.315  1.00  0.00     0.043 A 
HETATM   15  C   UNL     1      -6.468  -1.155 -34.702  1.00  0.00     0.116 A 
HETATM   16  F   UNL     1      -5.983  -2.179 -35.416  1.00  0.00    -0.206 F 
HETATM   17  C   UNL     1      -7.036  -0.073 -35.357  1.00  0.00     0.043 A 
HETATM   18  C   UNL     1      -7.541   0.994 -34.611  1.00  0.00     0.011 A 
ENDBRANCH  11  12
BRANCH   1  19
HETATM   19  C   UNL     1     -10.328   1.171 -32.916  1.00  0.00     0.267 C 
HETATM   20  O   UNL     1     -10.401  -0.049 -32.841  1.00  0.00    -0.265 OA
BRANCH  19  21
HETATM   21  O   UNL     1     -10.900   1.937 -33.887  1.00  0.00    -0.316 OA
BRANCH  21  22
HETATM   22  C   UNL     1     -11.969   1.340 -34.644  1.00  0.00     0.123 C 
HETATM   23  C   UNL     1     -12.407   2.287 -35.757  1.00  0.00     0.040 C 
HETATM   24  C   UNL     1     -13.116   1.099 -33.670  1.00  0.00     0.040 C 
ENDBRANCH  21  22
ENDBRANCH  19  21
ENDBRANCH   1  19
BRANCH   2  25
HETATM   25  O   UNL     1     -11.669   3.235 -31.647  1.00  0.00    -0.389 OA
HETATM   26  H   UNL     1     -11.812   2.566 -30.948  1.00  0.00     0.210 HD
ENDBRANCH   2  25
BRANCH   7  27
HETATM   27  O   UNL     1      -5.214   3.427 -33.497  1.00  0.00    -0.343 OA
HETATM   28  H   UNL     1      -4.804   3.533 -34.369  1.00  0.00     0.219 HD
ENDBRANCH   7  27
TORSDOF 6
ENDMDL
MODEL 5
REMARK VINA RESULT:      -6.6     16.544     17.676
REMARK  6 active torsions:
REMARK  status: ('A' for Active; 'I' for Inactive)
REMARK    1  A    between atoms: C_2  and  O_3 
REMARK    2  A    between atoms: O_3  and  C_4 
REMARK    3  A    between atoms: C_4  and  C_5 
REMARK    4  A    between atoms: C_6  and  O_7 
REMARK    5  A    between atoms: C_12  and  O_13 
REMARK    6  A    between atoms: C_17  and  C_18 
ROOT
HETATM    1  C   UNL     1      -5.209 -14.208 -39.595  1.00  0.00     0.133 C 
HETATM    2  C   UNL     1      -5.168 -13.454 -40.969  1.00  0.00     0.073 C 
HETATM    3  C   UNL     1      -5.578 -14.418 -42.100  1.00  0.00     0.047 C 
HETATM    4  C   UNL     1      -6.069 -12.185 -41.004  1.00  0.00     0.097 C 
HETATM    5  C   UNL     1      -7.386 -12.502 -40.414  1.00  0.00     0.042 A 
HETATM    6  C   UNL     1      -7.668 -13.520 -39.528  1.00  0.00     0.030 A 
HETATM    7  C   UNL     1      -9.060 -13.422 -39.364  1.00  0.00     0.190 A 
HETATM    8  N   UNL     1      -9.611 -12.433 -40.058  1.00  0.00    -0.149 NA
HETATM    9  N   UNL     1      -8.565 -11.870 -40.686  1.00  0.00    -0.279 N 
HETATM   10  H   UNL     1      -8.740 -11.079 -41.298  1.00  0.00     0.189 HD
HETATM   11  C   UNL     1      -6.638 -14.488 -39.034  1.00  0.00     0.074 C 
ENDROOT
BRANCH  11  12
HETATM   12  C   UNL     1      -6.771 -14.533 -37.517  1.00  0.00    -0.048 A 
HETATM   13  C   UNL     1      -6.626 -15.761 -36.848  1.00  0.00     0.011 A 
HETATM   14  C   UNL     1      -6.733 -15.833 -35.457  1.00  0.00     0.043 A 
HETATM   15  C   UNL     1      -6.978 -14.679 -34.724  1.00  0.00     0.116 A 
HETATM   16  F   UNL     1      -7.081 -14.752 -33.391  1.00  0.00    -0.206 F 
HETATM   17  C   UNL     1      -7.115 -13.451 -35.355  1.00  0.00     0.043 A 
HETATM   18  C   UNL     1      -7.006 -13.376 -36.744  1.00  0.00     0.011 A 
ENDBRANCH  11  12
BRANCH   1  19
HETATM   19  C   UNL     1      -4.310 -13.507 -38.598  1.00  0.00     0.267 C 
HETATM   20  O   UNL     1      -4.310 -12.301 -38.384  1.00  0.00    -0.265 OA
BRANCH  19  21
HETATM   21  O   UNL     1      -3.468 -14.410 -38.021  1.00  0.00    -0.316 OA
BRANCH  21  22
HETATM   22  C   UNL     1      -2.699 -13.958 -36.891  1.00  0.00     0.123 C 
HETATM   23  C   UNL     1      -1.225 -14.289 -37.102  1.00  0.00     0.040 C 
HETATM   24  C   UNL     1      -3.239 -14.692 -35.670  1.00  0.00     0.040 C 
ENDBRANCH  21  22
ENDBRANCH  19  21
ENDBRANCH   1  19
BRANCH   2  25
HETATM   25  O   UNL     1      -3.818 -13.073 -41.289  1.00  0.00    -0.389 OA
HETATM   26  H   UNL     1      -3.832 -12.595 -42.142  1.00  0.00     0.210 HD
ENDBRANCH   2  25
BRANCH   7  27
HETATM   27  O   UNL     1      -9.891 -14.168 -38.633  1.00  0.00    -0.343 OA
HETATM   28  H   UNL     1     -10.802 -13.869 -38.769  1.00  0.00     0.219 HD
ENDBRANCH   7  27
TORSDOF 6
ENDMDL
MODEL 6
REMARK VINA RESULT:      -6.4     16.778     18.365
REMARK  6 active torsions:
REMARK  status: ('A' for Active; 'I' for Inactive)
REMARK    1  A    between atoms: C_2  and  O_3 
REMARK    2  A    between atoms: O_3  and  C_4 
REMARK    3  A    between atoms: C_4  and  C_5 
REMARK    4  A    between atoms: C_6  and  O_7 
REMARK    5  A    between atoms: C_12  and  O_13 
REMARK    6  A    between atoms: C_17  and  C_18 
ROOT
HETATM    1  C   UNL     1      -6.758 -13.131 -38.708  1.00  0.00     0.133 C 
HETATM    2  C   UNL     1      -8.086 -13.513 -39.449  1.00  0.00     0.073 C 
HETATM    3  C   UNL     1      -8.584 -12.309 -40.271  1.00  0.00     0.047 C 
HETATM    4  C   UNL     1      -7.941 -14.759 -40.372  1.00  0.00     0.097 C 
HETATM    5  C   UNL     1      -6.700 -14.640 -41.166  1.00  0.00     0.042 A 
HETATM    6  C   UNL     1      -5.590 -13.886 -40.851  1.00  0.00     0.030 A 
HETATM    7  C   UNL     1      -4.758 -14.063 -41.969  1.00  0.00     0.190 A 
HETATM    8  N   UNL     1      -5.273 -14.862 -42.896  1.00  0.00    -0.149 NA
HETATM    9  N   UNL     1      -6.461 -15.217 -42.379  1.00  0.00    -0.279 N 
HETATM   10  H   UNL     1      -7.056 -15.834 -42.923  1.00  0.00     0.189 HD
HETATM   11  C   UNL     1      -5.493 -13.043 -39.617  1.00  0.00     0.074 C 
ENDROOT
BRANCH  11  12
HETATM   12  C   UNL     1      -4.162 -13.385 -38.957  1.00  0.00    -0.048 A 
HETATM   13  C   UNL     1      -3.371 -12.352 -38.426  1.00  0.00     0.011 A 
HETATM   14  C   UNL     1      -2.151 -12.634 -37.807  1.00  0.00     0.043 A 
HETATM   15  C   UNL     1      -1.717 -13.950 -37.706  1.00  0.00     0.116 A 
HETATM   16  F   UNL     1      -0.546 -14.216 -37.113  1.00  0.00    -0.206 F 
HETATM   17  C   UNL     1      -2.481 -14.991 -38.211  1.00  0.00     0.043 A 
HETATM   18  C   UNL     1      -3.701 -14.712 -38.828  1.00  0.00     0.011 A 
ENDBRANCH  11  12
BRANCH   1  19
HETATM   19  C   UNL     1      -6.562 -14.033 -37.507  1.00  0.00     0.267 C 
HETATM   20  O   UNL     1      -6.709 -15.248 -37.515  1.00  0.00    -0.265 OA
BRANCH  19  21
HETATM   21  O   UNL     1      -6.253 -13.283 -36.412  1.00  0.00    -0.316 OA
BRANCH  21  22
HETATM   22  C   UNL     1      -5.942 -13.994 -35.200  1.00  0.00     0.123 C 
HETATM   23  C   UNL     1      -6.542 -13.264 -34.002  1.00  0.00     0.040 C 
HETATM   24  C   UNL     1      -4.423 -14.034 -35.092  1.00  0.00     0.040 C 
ENDBRANCH  21  22
ENDBRANCH  19  21
ENDBRANCH   1  19
BRANCH   2  25
HETATM   25  O   UNL     1      -9.135 -13.762 -38.496  1.00  0.00    -0.389 OA
HETATM   26  H   UNL     1      -8.727 -13.843 -37.611  1.00  0.00     0.210 HD
ENDBRANCH   2  25
BRANCH   7  27
HETATM   27  O   UNL     1      -3.554 -13.549 -42.230  1.00  0.00    -0.343 OA
HETATM   28  H   UNL     1      -2.879 -14.034 -41.733  1.00  0.00     0.219 HD
ENDBRANCH   7  27
TORSDOF 6
ENDMDL
MODEL 7
REMARK VINA RESULT:      -6.4      2.201      4.599
REMARK  6 active torsions:
REMARK  status: ('A' for Active; 'I' for Inactive)
REMARK    1  A    between atoms: C_2  and  O_3 
REMARK    2  A    between atoms: O_3  and  C_4 
REMARK    3  A    between atoms: C_4  and  C_5 
REMARK    4  A    between atoms: C_6  and  O_7 
REMARK    5  A    between atoms: C_12  and  O_13 
REMARK    6  A    between atoms: C_17  and  C_18 
ROOT
HETATM    1  C   UNL     1      -8.296   3.502 -31.951  1.00  0.00     0.133 C 
HETATM    2  C   UNL     1      -8.332   5.064 -31.820  1.00  0.00     0.073 C 
HETATM    3  C   UNL     1      -7.841   5.476 -30.418  1.00  0.00     0.047 C 
HETATM    4  C   UNL     1      -7.494   5.795 -32.910  1.00  0.00     0.097 C 
HETATM    5  C   UNL     1      -6.182   5.130 -33.048  1.00  0.00     0.042 A 
HETATM    6  C   UNL     1      -5.878   3.830 -32.704  1.00  0.00     0.030 A 
HETATM    7  C   UNL     1      -4.498   3.750 -32.957  1.00  0.00     0.190 A 
HETATM    8  N   UNL     1      -3.976   4.875 -33.431  1.00  0.00    -0.149 NA
HETATM    9  N   UNL     1      -5.029   5.707 -33.492  1.00  0.00    -0.279 N 
HETATM   10  H   UNL     1      -4.874   6.654 -33.824  1.00  0.00     0.189 HD
HETATM   11  C   UNL     1      -6.873   2.883 -32.110  1.00  0.00     0.074 C 
ENDROOT
BRANCH  11  12
HETATM   12  C   UNL     1      -6.784   1.592 -32.916  1.00  0.00    -0.048 A 
HETATM   13  C   UNL     1      -6.648   0.366 -32.241  1.00  0.00     0.011 A 
HETATM   14  C   UNL     1      -6.574  -0.834 -32.952  1.00  0.00     0.043 A 
HETATM   15  C   UNL     1      -6.643  -0.820 -34.339  1.00  0.00     0.116 A 
HETATM   16  F   UNL     1      -6.570  -1.973 -35.017  1.00  0.00    -0.206 F 
HETATM   17  C   UNL     1      -6.789   0.373 -35.032  1.00  0.00     0.043 A 
HETATM   18  C   UNL     1      -6.865   1.573 -34.324  1.00  0.00     0.011 A 
ENDBRANCH  11  12
BRANCH   1  19
HETATM   19  C   UNL     1      -9.259   3.056 -33.032  1.00  0.00     0.267 C 
HETATM   20  O   UNL     1      -9.328   3.544 -34.152  1.00  0.00    -0.265 OA
BRANCH  19  21
HETATM   21  O   UNL     1     -10.069   2.071 -32.549  1.00  0.00    -0.316 OA
BRANCH  21  22
HETATM   22  C   UNL     1     -10.461   1.038 -33.472  1.00  0.00     0.123 C 
HETATM   23  C   UNL     1     -11.942   1.182 -33.812  1.00  0.00     0.040 C 
HETATM   24  C   UNL     1     -10.203  -0.293 -32.775  1.00  0.00     0.040 C 
ENDBRANCH  21  22
ENDBRANCH  19  21
ENDBRANCH   1  19
BRANCH   2  25
HETATM   25  O   UNL     1      -9.689   5.539 -31.883  1.00  0.00    -0.389 OA
HETATM   26  H   UNL     1      -9.873   5.809 -32.805  1.00  0.00     0.210 HD
ENDBRANCH   2  25
BRANCH   7  27
HETATM   27  O   UNL     1      -3.654   2.730 -32.787  1.00  0.00    -0.343 OA
HETATM   28  H   UNL     1      -3.658   2.169 -33.577  1.00  0.00     0.219 HD
ENDBRANCH   7  27
TORSDOF 6
ENDMDL
MODEL 8
REMARK VINA RESULT:      -6.4      2.234      4.587
REMARK  6 active torsions:
REMARK  status: ('A' for Active; 'I' for Inactive)
REMARK    1  A    between atoms: C_2  and  O_3 
REMARK    2  A    between atoms: O_3  and  C_4 
REMARK    3  A    between atoms: C_4  and  C_5 
REMARK    4  A    between atoms: C_6  and  O_7 
REMARK    5  A    between atoms: C_12  and  O_13 
REMARK    6  A    between atoms: C_17  and  C_18 
ROOT
HETATM    1  C   UNL     1      -6.717   4.799 -31.882  1.00  0.00     0.133 C 
HETATM    2  C   UNL     1      -6.117   6.240 -32.037  1.00  0.00     0.073 C 
HETATM    3  C   UNL     1      -5.851   6.842 -30.644  1.00  0.00     0.047 C 
HETATM    4  C   UNL     1      -4.814   6.277 -32.888  1.00  0.00     0.097 C 
HETATM    5  C   UNL     1      -3.917   5.183 -32.459  1.00  0.00     0.042 A 
HETATM    6  C   UNL     1      -4.286   4.020 -31.817  1.00  0.00     0.030 A 
HETATM    7  C   UNL     1      -3.054   3.390 -31.572  1.00  0.00     0.190 A 
HETATM    8  N   UNL     1      -2.007   4.068 -32.025  1.00  0.00    -0.149 NA
HETATM    9  N   UNL     1      -2.558   5.161 -32.579  1.00  0.00    -0.279 N 
HETATM   10  H   UNL     1      -1.941   5.852 -32.995  1.00  0.00     0.189 HD
HETATM   11  C   UNL     1      -5.700   3.701 -31.442  1.00  0.00     0.074 C 
ENDROOT
BRANCH  11  12
HETATM   12  C   UNL     1      -5.975   2.287 -31.939  1.00  0.00    -0.048 A 
HETATM   13  C   UNL     1      -6.582   1.359 -31.075  1.00  0.00     0.011 A 
HETATM   14  C   UNL     1      -6.857   0.058 -31.504  1.00  0.00     0.043 A 
HETATM   15  C   UNL     1      -6.535  -0.322 -32.801  1.00  0.00     0.116 A 
HETATM   16  F   UNL     1      -6.799  -1.570 -33.209  1.00  0.00    -0.206 F 
HETATM   17  C   UNL     1      -5.946   0.575 -33.680  1.00  0.00     0.043 A 
HETATM   18  C   UNL     1      -5.673   1.875 -33.254  1.00  0.00     0.011 A 
ENDBRANCH  11  12
BRANCH   1  19
HETATM   19  C   UNL     1      -7.487   4.426 -33.131  1.00  0.00     0.267 C 
HETATM   20  O   UNL     1      -7.123   4.669 -34.275  1.00  0.00    -0.265 OA
BRANCH  19  21
HETATM   21  O   UNL     1      -8.665   3.833 -32.787  1.00  0.00    -0.316 OA
BRANCH  21  22
HETATM   22  C   UNL     1      -9.259   2.949 -33.756  1.00  0.00     0.123 C 
HETATM   23  C   UNL     1     -10.416   3.654 -34.458  1.00  0.00     0.040 C 
HETATM   24  C   UNL     1      -9.764   1.733 -32.990  1.00  0.00     0.040 C 
ENDBRANCH  21  22
ENDBRANCH  19  21
ENDBRANCH   1  19
BRANCH   2  25
HETATM   25  O   UNL     1      -7.085   7.121 -32.635  1.00  0.00    -0.389 OA
HETATM   26  H   UNL     1      -7.329   7.797 -31.972  1.00  0.00     0.210 HD
ENDBRANCH   2  25
BRANCH   7  27
HETATM   27  O   UNL     1      -2.791   2.235 -30.956  1.00  0.00    -0.343 OA
HETATM   28  H   UNL     1      -2.917   1.500 -31.575  1.00  0.00     0.219 HD
ENDBRANCH   7  27
TORSDOF 6
ENDMDL
MODEL 9
REMARK VINA RESULT:      -6.4      2.850      4.276
REMARK  6 active torsions:
REMARK  status: ('A' for Active; 'I' for Inactive)
REMARK    1  A    between atoms: C_2  and  O_3 
REMARK    2  A    between atoms: O_3  and  C_4 
REMARK    3  A    between atoms: C_4  and  C_5 
REMARK    4  A    between atoms: C_6  and  O_7 
REMARK    5  A    between atoms: C_12  and  O_13 
REMARK    6  A    between atoms: C_17  and  C_18 
ROOT
HETATM    1  C   UNL     1      -7.656   3.671 -32.623  1.00  0.00     0.133 C 
HETATM    2  C   UNL     1      -8.457   4.737 -31.798  1.00  0.00     0.073 C 
HETATM    3  C   UNL     1      -8.802   5.938 -32.701  1.00  0.00     0.047 C 
HETATM    4  C   UNL     1      -9.756   4.170 -31.154  1.00  0.00     0.097 C 
HETATM    5  C   UNL     1     -10.485   3.360 -32.151  1.00  0.00     0.042 A 
HETATM    6  C   UNL     1      -9.951   2.753 -33.268  1.00  0.00     0.030 A 
HETATM    7  C   UNL     1     -11.078   2.198 -33.898  1.00  0.00     0.190 A 
HETATM    8  N   UNL     1     -12.213   2.411 -33.244  1.00  0.00    -0.149 NA
HETATM    9  N   UNL     1     -11.827   3.115 -32.166  1.00  0.00    -0.279 N 
HETATM   10  H   UNL     1     -12.539   3.409 -31.504  1.00  0.00     0.189 HD
HETATM   11  C   UNL     1      -8.504   2.848 -33.642  1.00  0.00     0.074 C 
ENDROOT
BRANCH  11  12
HETATM   12  C   UNL     1      -8.030   1.427 -33.921  1.00  0.00    -0.048 A 
HETATM   13  C   UNL     1      -8.452   0.382 -33.081  1.00  0.00     0.011 A 
HETATM   14  C   UNL     1      -8.043  -0.933 -33.317  1.00  0.00     0.043 A 
HETATM   15  C   UNL     1      -7.217  -1.214 -34.398  1.00  0.00     0.116 A 
HETATM   16  F   UNL     1      -6.826  -2.476 -34.620  1.00  0.00    -0.206 F 
HETATM   17  C   UNL     1      -6.794  -0.206 -35.251  1.00  0.00     0.043 A 
HETATM   18  C   UNL     1      -7.203   1.107 -35.018  1.00  0.00     0.011 A 
ENDBRANCH  11  12
BRANCH   1  19
HETATM   19  C   UNL     1      -6.846   2.799 -31.687  1.00  0.00     0.267 C 
HETATM   20  O   UNL     1      -7.263   2.325 -30.638  1.00  0.00    -0.265 OA
BRANCH  19  21
HETATM   21  O   UNL     1      -5.574   2.673 -32.160  1.00  0.00    -0.316 OA
BRANCH  21  22
HETATM   22  C   UNL     1      -4.704   1.766 -31.458  1.00  0.00     0.123 C 
HETATM   23  C   UNL     1      -3.312   2.379 -31.329  1.00  0.00     0.040 C 
HETATM   24  C   UNL     1      -4.647   0.486 -32.282  1.00  0.00     0.040 C 
ENDBRANCH  21  22
ENDBRANCH  19  21
ENDBRANCH   1  19
BRANCH   2  25
HETATM   25  O   UNL     1      -7.628   5.290 -30.759  1.00  0.00    -0.389 OA
HETATM   26  H   UNL     1      -7.026   4.586 -30.446  1.00  0.00     0.210 HD
ENDBRANCH   2  25
BRANCH   7  27
HETATM   27  O   UNL     1     -11.170   1.509 -35.037  1.00  0.00    -0.343 OA
HETATM   28  H   UNL     1     -11.704   2.005 -35.675  1.00  0.00     0.219 HD
ENDBRANCH   7  27
TORSDOF 6
ENDMDL
MODEL 10
REMARK VINA RESULT:      -6.3     16.754     18.369
REMARK  6 active torsions:
REMARK  status: ('A' for Active; 'I' for Inactive)
REMARK    1  A    between atoms: C_2  and  O_3 
REMARK    2  A    between atoms: O_3  and  C_4 
REMARK    3  A    between atoms: C_4  and  C_5 
REMARK    4  A    between atoms: C_6  and  O_7 
REMARK    5  A    between atoms: C_12  and  O_13 
REMARK    6  A    between atoms: C_17  and  C_18 
ROOT
HETATM    1  C   UNL     1      -6.158 -15.004 -38.645  1.00  0.00     0.133 C 
HETATM    2  C   UNL     1      -7.666 -14.760 -38.289  1.00  0.00     0.073 C 
HETATM    3  C   UNL     1      -8.256 -16.028 -37.643  1.00  0.00     0.047 C 
HETATM    4  C   UNL     1      -7.888 -13.536 -37.353  1.00  0.00     0.097 C 
HETATM    5  C   UNL     1      -6.903 -13.574 -36.253  1.00  0.00     0.042 A 
HETATM    6  C   UNL     1      -5.686 -14.221 -36.260  1.00  0.00     0.030 A 
HETATM    7  C   UNL     1      -5.206 -14.008 -34.956  1.00  0.00     0.190 A 
HETATM    8  N   UNL     1      -6.022 -13.286 -34.198  1.00  0.00    -0.149 NA
HETATM    9  N   UNL     1      -7.054 -13.017 -35.017  1.00  0.00    -0.279 N 
HETATM   10  H   UNL     1      -7.827 -12.471 -34.651  1.00  0.00     0.189 HD
HETATM   11  C   UNL     1      -5.183 -15.013 -37.427  1.00  0.00     0.074 C 
ENDROOT
BRANCH  11  12
HETATM   12  C   UNL     1      -3.760 -14.538 -37.697  1.00  0.00    -0.048 A 
HETATM   13  C   UNL     1      -2.765 -15.483 -38.004  1.00  0.00     0.011 A 
HETATM   14  C   UNL     1      -1.454 -15.078 -38.266  1.00  0.00     0.043 A 
HETATM   15  C   UNL     1      -1.130 -13.728 -38.233  1.00  0.00     0.116 A 
HETATM   16  F   UNL     1       0.129 -13.344 -38.484  1.00  0.00    -0.206 F 
HETATM   17  C   UNL     1      -2.092 -12.772 -37.944  1.00  0.00     0.043 A 
HETATM   18  C   UNL     1      -3.403 -13.174 -37.684  1.00  0.00     0.011 A 
ENDBRANCH  11  12
BRANCH   1  19
HETATM   19  C   UNL     1      -5.727 -14.051 -39.740  1.00  0.00     0.267 C 
HETATM   20  O   UNL     1      -5.983 -12.855 -39.765  1.00  0.00    -0.265 OA
BRANCH  19  21
HETATM   21  O   UNL     1      -5.065 -14.738 -40.714  1.00  0.00    -0.316 OA
BRANCH  21  22
HETATM   22  C   UNL     1      -4.379 -13.957 -41.711  1.00  0.00     0.123 C 
HETATM   23  C   UNL     1      -4.883 -14.335 -43.100  1.00  0.00     0.040 C 
HETATM   24  C   UNL     1      -2.896 -14.281 -41.577  1.00  0.00     0.040 C 
ENDBRANCH  21  22
ENDBRANCH  19  21
ENDBRANCH   1  19
BRANCH   2  25
HETATM   25  O   UNL     1      -8.436 -14.572 -39.490  1.00  0.00    -0.389 OA
HETATM   26  H   UNL     1      -8.370 -15.388 -40.024  1.00  0.00     0.210 HD
ENDBRANCH   2  25
BRANCH   7  27
HETATM   27  O   UNL     1      -4.076 -14.425 -34.381  1.00  0.00    -0.343 OA
HETATM   28  H   UNL     1      -3.371 -14.470 -35.044  1.00  0.00     0.219 HD
ENDBRANCH   7  27
TORSDOF 6
ENDMDL
