MODEL 1
REMARK VINA RESULT:      -7.9      0.000      0.000
REMARK  5 active torsions:
REMARK  status: ('A' for Active; 'I' for Inactive)
REMARK    1  A    between atoms: C_3  and  N_4 
REMARK       I    between atoms: N_4  and  C_5 
REMARK       I    between atoms: C_5  and  N_6 
REMARK    2  A    between atoms: N_6  and  C_7 
REMARK    3  A    between atoms: C_7  and  C_8 
REMARK    4  A    between atoms: C_20  and  C_21 
REMARK       I    between atoms: C_21  and  N_22 
REMARK    5  A    between atoms: N_22  and  C_23 
ROOT
HETATM    1  C   UNL     1      -7.194   0.567 -35.313  1.00  0.00     0.052 C 
HETATM    2  C   UNL     1      -7.199   0.676 -33.806  1.00  0.00    -0.020 A 
HETATM    3  C   UNL     1      -7.954   1.682 -33.150  1.00  0.00     0.043 A 
HETATM    4  C   UNL     1      -8.011   1.689 -31.750  1.00  0.00     0.030 A 
HETATM    5  C   UNL     1      -7.347   0.717 -30.996  1.00  0.00     0.003 A 
HETATM    6  C   UNL     1      -6.563  -0.239 -31.627  1.00  0.00     0.018 A 
HETATM    7  C   UNL     1      -6.456  -0.240 -33.022  1.00  0.00     0.040 A 
ENDROOT
BRANCH   3   8
HETATM    8  N   UNL     1      -8.549   2.688 -33.942  1.00  0.00    -0.309 N 
HETATM    9  C   UNL     1      -9.790   2.895 -34.448  1.00  0.00     0.321 C 
HETATM   10  N   UNL     1     -10.661   1.855 -34.497  1.00  0.00    -0.338 N 
HETATM   11  O   UNL     1     -10.069   4.014 -34.874  1.00  0.00    -0.247 OA
HETATM   12  H   UNL     1     -10.235   0.962 -34.694  1.00  0.00     0.164 HD
HETATM   13  H   UNL     1      -7.990   3.514 -34.111  1.00  0.00     0.170 HD
BRANCH  10  14
HETATM   14  C   UNL     1     -11.963   2.076 -35.085  1.00  0.00     0.167 C 
BRANCH  14  15
HETATM   15  C   UNL     1     -13.000   2.070 -34.020  1.00  0.00     0.009 A 
HETATM   16  C   UNL     1     -13.549   3.198 -33.345  1.00  0.00     0.060 A 
HETATM   17  C   UNL     1     -13.228   4.633 -33.546  1.00  0.00     0.073 C 
HETATM   18  N   UNL     1     -14.446   2.837 -32.421  1.00  0.00    -0.179 NA
HETATM   19  N   UNL     1     -14.458   1.499 -32.479  1.00  0.00    -0.282 N 
HETATM   20  H   UNL     1     -15.065   0.998 -31.838  1.00  0.00     0.189 HD
HETATM   21  C   UNL     1     -13.608   0.982 -33.414  1.00  0.00     0.034 A 
HETATM   22  C   UNL     1     -13.460  -0.478 -33.618  1.00  0.00     0.070 C 
ENDBRANCH  14  15
ENDBRANCH  10  14
ENDBRANCH   3   8
BRANCH   7  23
HETATM   23  C   UNL     1      -5.491  -1.214 -33.606  1.00  0.00     0.252 C 
HETATM   24  N   UNL     1      -6.052  -2.416 -33.985  1.00  0.00    -0.349 N 
HETATM   25  H   UNL     1      -7.063  -2.455 -34.000  1.00  0.00     0.163 HD
HETATM   26  O   UNL     1      -4.323  -0.893 -33.766  1.00  0.00    -0.268 OA
BRANCH  24  27
HETATM   27  C   UNL     1      -5.342  -3.508 -34.668  1.00  0.00     0.022 C 
HETATM   28  C   UNL     1      -4.185  -4.053 -33.814  1.00  0.00     0.037 C 
HETATM   29  C   UNL     1      -6.348  -4.652 -34.892  1.00  0.00     0.037 C 
HETATM   30  C   UNL     1      -4.817  -3.035 -36.030  1.00  0.00     0.037 C 
ENDBRANCH  24  27
ENDBRANCH   7  23
TORSDOF 5
ENDMDL
MODEL 2
REMARK VINA RESULT:      -7.8      3.524      7.614
REMARK  5 active torsions:
REMARK  status: ('A' for Active; 'I' for Inactive)
REMARK    1  A    between atoms: C_3  and  N_4 
REMARK       I    between atoms: N_4  and  C_5 
REMARK       I    between atoms: C_5  and  N_6 
REMARK    2  A    between atoms: N_6  and  C_7 
REMARK    3  A    between atoms: C_7  and  C_8 
REMARK    4  A    between atoms: C_20  and  C_21 
REMARK       I    between atoms: C_21  and  N_22 
REMARK    5  A    between atoms: N_22  and  C_23 
ROOT
HETATM    1  C   UNL     1      -6.661   0.474 -31.168  1.00  0.00     0.052 C 
HETATM    2  C   UNL     1      -6.496  -0.269 -32.473  1.00  0.00    -0.020 A 
HETATM    3  C   UNL     1      -5.239  -0.803 -32.854  1.00  0.00     0.043 A 
HETATM    4  C   UNL     1      -5.149  -1.570 -34.023  1.00  0.00     0.030 A 
HETATM    5  C   UNL     1      -6.277  -1.824 -34.808  1.00  0.00     0.003 A 
HETATM    6  C   UNL     1      -7.501  -1.262 -34.471  1.00  0.00     0.018 A 
HETATM    7  C   UNL     1      -7.606  -0.456 -33.332  1.00  0.00     0.040 A 
ENDROOT
BRANCH   3   8
HETATM    8  N   UNL     1      -4.110  -0.463 -32.076  1.00  0.00    -0.309 N 
HETATM    9  C   UNL     1      -3.471   0.695 -31.776  1.00  0.00     0.321 C 
HETATM   10  N   UNL     1      -3.709   1.792 -32.538  1.00  0.00    -0.338 N 
HETATM   11  O   UNL     1      -2.673   0.697 -30.840  1.00  0.00    -0.247 OA
HETATM   12  H   UNL     1      -3.857   1.597 -33.517  1.00  0.00     0.164 HD
HETATM   13  H   UNL     1      -3.716  -1.204 -31.511  1.00  0.00     0.170 HD
BRANCH  10  14
HETATM   14  C   UNL     1      -2.983   3.007 -32.240  1.00  0.00     0.167 C 
BRANCH  14  15
HETATM   15  C   UNL     1      -3.656   4.163 -32.886  1.00  0.00     0.009 A 
HETATM   16  C   UNL     1      -3.133   5.002 -33.912  1.00  0.00     0.060 A 
HETATM   17  C   UNL     1      -1.811   4.917 -34.580  1.00  0.00     0.073 C 
HETATM   18  N   UNL     1      -3.993   5.969 -34.251  1.00  0.00    -0.179 NA
HETATM   19  N   UNL     1      -5.041   5.776 -33.440  1.00  0.00    -0.282 N 
HETATM   20  H   UNL     1      -5.822   6.420 -33.508  1.00  0.00     0.189 HD
HETATM   21  C   UNL     1      -4.895   4.713 -32.596  1.00  0.00     0.034 A 
HETATM   22  C   UNL     1      -5.936   4.347 -31.608  1.00  0.00     0.070 C 
ENDBRANCH  14  15
ENDBRANCH  10  14
ENDBRANCH   3   8
BRANCH   7  23
HETATM   23  C   UNL     1      -8.921   0.213 -33.120  1.00  0.00     0.252 C 
HETATM   24  N   UNL     1      -9.029   1.457 -33.707  1.00  0.00    -0.349 N 
HETATM   25  H   UNL     1      -8.297   1.712 -34.359  1.00  0.00     0.163 HD
HETATM   26  O   UNL     1      -9.811  -0.369 -32.519  1.00  0.00    -0.268 OA
BRANCH  24  27
HETATM   27  C   UNL     1     -10.245   2.284 -33.727  1.00  0.00     0.022 C 
HETATM   28  C   UNL     1     -10.587   2.823 -32.329  1.00  0.00     0.037 C 
HETATM   29  C   UNL     1      -9.976   3.489 -34.649  1.00  0.00     0.037 C 
HETATM   30  C   UNL     1     -11.427   1.485 -34.290  1.00  0.00     0.037 C 
ENDBRANCH  24  27
ENDBRANCH   7  23
TORSDOF 5
ENDMDL
MODEL 3
REMARK VINA RESULT:      -7.7      3.722      7.813
REMARK  5 active torsions:
REMARK  status: ('A' for Active; 'I' for Inactive)
REMARK    1  A    between atoms: C_3  and  N_4 
REMARK       I    between atoms: N_4  and  C_5 
REMARK       I    between atoms: C_5  and  N_6 
REMARK    2  A    between atoms: N_6  and  C_7 
REMARK    3  A    between atoms: C_7  and  C_8 
REMARK    4  A    between atoms: C_20  and  C_21 
REMARK       I    between atoms: C_21  and  N_22 
REMARK    5  A    between atoms: N_22  and  C_23 
ROOT
HETATM    1  C   UNL     1      -9.012   2.840 -31.255  1.00  0.00     0.052 C 
HETATM    2  C   UNL     1      -8.314   1.653 -31.875  1.00  0.00    -0.020 A 
HETATM    3  C   UNL     1      -7.055   1.213 -31.392  1.00  0.00     0.043 A 
HETATM    4  C   UNL     1      -6.486   0.050 -31.928  1.00  0.00     0.030 A 
HETATM    5  C   UNL     1      -7.144  -0.685 -32.918  1.00  0.00     0.003 A 
HETATM    6  C   UNL     1      -8.351  -0.233 -33.434  1.00  0.00     0.018 A 
HETATM    7  C   UNL     1      -8.917   0.949 -32.946  1.00  0.00     0.040 A 
ENDROOT
BRANCH   3   8
HETATM    8  N   UNL     1      -6.388   2.021 -30.445  1.00  0.00    -0.309 N 
HETATM    9  C   UNL     1      -5.498   3.041 -30.519  1.00  0.00     0.321 C 
HETATM   10  N   UNL     1      -4.824   3.242 -31.680  1.00  0.00    -0.338 N 
HETATM   11  O   UNL     1      -5.311   3.729 -29.517  1.00  0.00    -0.247 OA
HETATM   12  H   UNL     1      -4.586   2.396 -32.177  1.00  0.00     0.164 HD
HETATM   13  H   UNL     1      -6.688   1.924 -29.484  1.00  0.00     0.170 HD
BRANCH  10  14
HETATM   14  C   UNL     1      -3.841   4.300 -31.730  1.00  0.00     0.167 C 
BRANCH  14  15
HETATM   15  C   UNL     1      -3.693   4.780 -33.129  1.00  0.00     0.009 A 
HETATM   16  C   UNL     1      -4.701   4.834 -34.133  1.00  0.00     0.060 A 
HETATM   17  C   UNL     1      -6.128   4.440 -34.022  1.00  0.00     0.073 C 
HETATM   18  N   UNL     1      -4.224   5.296 -35.294  1.00  0.00    -0.179 NA
HETATM   19  N   UNL     1      -2.924   5.511 -35.053  1.00  0.00    -0.282 N 
HETATM   20  H   UNL     1      -2.346   5.850 -35.815  1.00  0.00     0.189 HD
HETATM   21  C   UNL     1      -2.546   5.214 -33.775  1.00  0.00     0.034 A 
HETATM   22  C   UNL     1      -1.145   5.363 -33.317  1.00  0.00     0.070 C 
ENDBRANCH  14  15
ENDBRANCH  10  14
ENDBRANCH   3   8
BRANCH   7  23
HETATM   23  C   UNL     1     -10.142   1.430 -33.647  1.00  0.00     0.252 C 
HETATM   24  N   UNL     1     -11.293   0.745 -33.319  1.00  0.00    -0.349 N 
HETATM   25  H   UNL     1     -11.235   0.121 -32.523  1.00  0.00     0.163 HD
HETATM   26  O   UNL     1     -10.078   2.395 -34.393  1.00  0.00    -0.268 OA
BRANCH  24  27
HETATM   27  C   UNL     1     -12.644   1.076 -33.796  1.00  0.00     0.022 C 
HETATM   28  C   UNL     1     -12.643   1.448 -35.288  1.00  0.00     0.037 C 
HETATM   29  C   UNL     1     -13.523  -0.177 -33.619  1.00  0.00     0.037 C 
HETATM   30  C   UNL     1     -13.240   2.220 -32.965  1.00  0.00     0.037 C 
ENDBRANCH  24  27
ENDBRANCH   7  23
TORSDOF 5
ENDMDL
MODEL 4
REMARK VINA RESULT:      -7.6      3.308      7.763
REMARK  5 active torsions:
REMARK  status: ('A' for Active; 'I' for Inactive)
REMARK    1  A    between atoms: C_3  and  N_4 
REMARK       I    between atoms: N_4  and  C_5 
REMARK       I    between atoms: C_5  and  N_6 
REMARK    2  A    between atoms: N_6  and  C_7 
REMARK    3  A    between atoms: C_7  and  C_8 
REMARK    4  A    between atoms: C_20  and  C_21 
REMARK       I    between atoms: C_21  and  N_22 
REMARK    5  A    between atoms: N_22  and  C_23 
ROOT
HETATM    1  C   UNL     1      -8.357   1.065 -31.545  1.00  0.00     0.052 C 
HETATM    2  C   UNL     1      -7.795   0.436 -32.798  1.00  0.00    -0.020 A 
HETATM    3  C   UNL     1      -6.592  -0.315 -32.760  1.00  0.00     0.043 A 
HETATM    4  C   UNL     1      -6.156  -0.964 -33.923  1.00  0.00     0.030 A 
HETATM    5  C   UNL     1      -6.891  -0.891 -35.109  1.00  0.00     0.003 A 
HETATM    6  C   UNL     1      -8.040  -0.114 -35.169  1.00  0.00     0.018 A 
HETATM    7  C   UNL     1      -8.472   0.579 -34.033  1.00  0.00     0.040 A 
ENDROOT
BRANCH   3   8
HETATM    8  N   UNL     1      -5.841  -0.306 -31.564  1.00  0.00    -0.309 N 
HETATM    9  C   UNL     1      -4.927   0.534 -31.019  1.00  0.00     0.321 C 
HETATM   10  N   UNL     1      -4.325   1.455 -31.813  1.00  0.00    -0.338 N 
HETATM   11  O   UNL     1      -4.654   0.407 -29.826  1.00  0.00    -0.247 OA
HETATM   12  H   UNL     1      -4.146   1.141 -32.756  1.00  0.00     0.164 HD
HETATM   13  H   UNL     1      -6.080  -1.011 -30.880  1.00  0.00     0.170 HD
BRANCH  10  14
HETATM   14  C   UNL     1      -3.314   2.310 -31.231  1.00  0.00     0.167 C 
BRANCH  14  15
HETATM   15  C   UNL     1      -3.688   3.734 -31.432  1.00  0.00     0.009 A 
HETATM   16  C   UNL     1      -4.734   4.451 -30.785  1.00  0.00     0.060 A 
HETATM   17  C   UNL     1      -5.685   3.957 -29.758  1.00  0.00     0.073 C 
HETATM   18  N   UNL     1      -4.815   5.714 -31.218  1.00  0.00    -0.179 NA
HETATM   19  N   UNL     1      -3.857   5.804 -32.148  1.00  0.00    -0.282 N 
HETATM   20  H   UNL     1      -3.746   6.687 -32.637  1.00  0.00     0.189 HD
HETATM   21  C   UNL     1      -3.152   4.648 -32.325  1.00  0.00     0.034 A 
HETATM   22  C   UNL     1      -2.064   4.539 -33.324  1.00  0.00     0.070 C 
ENDBRANCH  14  15
ENDBRANCH  10  14
ENDBRANCH   3   8
BRANCH   7  23
HETATM   23  C   UNL     1      -9.635   1.491 -34.223  1.00  0.00     0.252 C 
HETATM   24  N   UNL     1     -10.864   0.900 -34.015  1.00  0.00    -0.349 N 
HETATM   25  H   UNL     1     -10.855  -0.019 -33.590  1.00  0.00     0.163 HD
HETATM   26  O   UNL     1      -9.448   2.671 -34.480  1.00  0.00    -0.268 OA
BRANCH  24  27
HETATM   27  C   UNL     1     -12.158   1.597 -34.048  1.00  0.00     0.022 C 
HETATM   28  C   UNL     1     -12.469   2.151 -35.448  1.00  0.00     0.037 C 
HETATM   29  C   UNL     1     -13.251   0.572 -33.689  1.00  0.00     0.037 C 
HETATM   30  C   UNL     1     -12.183   2.729 -33.013  1.00  0.00     0.037 C 
ENDBRANCH  24  27
ENDBRANCH   7  23
TORSDOF 5
ENDMDL
MODEL 5
REMARK VINA RESULT:      -7.4      6.392      9.380
REMARK  5 active torsions:
REMARK  status: ('A' for Active; 'I' for Inactive)
REMARK    1  A    between atoms: C_3  and  N_4 
REMARK       I    between atoms: N_4  and  C_5 
REMARK       I    between atoms: C_5  and  N_6 
REMARK    2  A    between atoms: N_6  and  C_7 
REMARK    3  A    between atoms: C_7  and  C_8 
REMARK    4  A    between atoms: C_20  and  C_21 
REMARK       I    between atoms: C_21  and  N_22 
REMARK    5  A    between atoms: N_22  and  C_23 
ROOT
HETATM    1  C   UNL     1      -4.761   6.910 -32.386  1.00  0.00     0.052 C 
HETATM    2  C   UNL     1      -3.578   6.394 -33.172  1.00  0.00    -0.020 A 
HETATM    3  C   UNL     1      -3.743   5.392 -34.163  1.00  0.00     0.043 A 
HETATM    4  C   UNL     1      -2.640   5.011 -34.938  1.00  0.00     0.030 A 
HETATM    5  C   UNL     1      -1.390   5.609 -34.758  1.00  0.00     0.003 A 
HETATM    6  C   UNL     1      -1.207   6.552 -33.755  1.00  0.00     0.018 A 
HETATM    7  C   UNL     1      -2.283   6.917 -32.939  1.00  0.00     0.040 A 
ENDROOT
BRANCH   3   8
HETATM    8  N   UNL     1      -5.002   4.761 -34.265  1.00  0.00    -0.309 N 
HETATM    9  C   UNL     1      -5.617   3.746 -33.608  1.00  0.00     0.321 C 
HETATM   10  N   UNL     1      -4.868   2.903 -32.853  1.00  0.00    -0.338 N 
HETATM   11  O   UNL     1      -6.831   3.609 -33.750  1.00  0.00    -0.247 OA
HETATM   12  H   UNL     1      -3.950   2.711 -33.227  1.00  0.00     0.164 HD
HETATM   13  H   UNL     1      -5.672   5.196 -34.886  1.00  0.00     0.170 HD
BRANCH  10  14
HETATM   14  C   UNL     1      -5.527   1.795 -32.199  1.00  0.00     0.167 C 
BRANCH  14  15
HETATM   15  C   UNL     1      -5.016   0.513 -32.749  1.00  0.00     0.009 A 
HETATM   16  C   UNL     1      -5.565  -0.245 -33.823  1.00  0.00     0.060 A 
HETATM   17  C   UNL     1      -6.759   0.065 -34.647  1.00  0.00     0.073 C 
HETATM   18  N   UNL     1      -4.871  -1.366 -34.046  1.00  0.00    -0.179 NA
HETATM   19  N   UNL     1      -3.907  -1.348 -33.117  1.00  0.00    -0.282 N 
HETATM   20  H   UNL     1      -3.260  -2.129 -33.083  1.00  0.00     0.189 HD
HETATM   21  C   UNL     1      -3.947  -0.249 -32.306  1.00  0.00     0.034 A 
HETATM   22  C   UNL     1      -2.978  -0.055 -31.202  1.00  0.00     0.070 C 
ENDBRANCH  14  15
ENDBRANCH  10  14
ENDBRANCH   3   8
BRANCH   7  23
HETATM   23  C   UNL     1      -1.968   7.832 -31.806  1.00  0.00     0.252 C 
HETATM   24  N   UNL     1      -1.759   7.197 -30.600  1.00  0.00    -0.349 N 
HETATM   25  H   UNL     1      -1.662   6.190 -30.633  1.00  0.00     0.163 HD
HETATM   26  O   UNL     1      -1.857   9.033 -32.005  1.00  0.00    -0.268 OA
BRANCH  24  27
HETATM   27  C   UNL     1      -1.345   7.856 -29.352  1.00  0.00     0.022 C 
HETATM   28  C   UNL     1      -1.837   9.312 -29.290  1.00  0.00     0.037 C 
HETATM   29  C   UNL     1      -1.986   7.087 -28.181  1.00  0.00     0.037 C 
HETATM   30  C   UNL     1       0.181   7.807 -29.202  1.00  0.00     0.037 C 
ENDBRANCH  24  27
ENDBRANCH   7  23
TORSDOF 5
ENDMDL
MODEL 6
REMARK VINA RESULT:      -7.4      6.254      8.796
REMARK  5 active torsions:
REMARK  status: ('A' for Active; 'I' for Inactive)
REMARK    1  A    between atoms: C_3  and  N_4 
REMARK       I    between atoms: N_4  and  C_5 
REMARK       I    between atoms: C_5  and  N_6 
REMARK    2  A    between atoms: N_6  and  C_7 
REMARK    3  A    between atoms: C_7  and  C_8 
REMARK    4  A    between atoms: C_20  and  C_21 
REMARK       I    between atoms: C_21  and  N_22 
REMARK    5  A    between atoms: N_22  and  C_23 
ROOT
HETATM    1  C   UNL     1      -4.412   6.153 -31.575  1.00  0.00     0.052 C 
HETATM    2  C   UNL     1      -3.435   5.821 -32.677  1.00  0.00    -0.020 A 
HETATM    3  C   UNL     1      -3.890   5.447 -33.968  1.00  0.00     0.043 A 
HETATM    4  C   UNL     1      -2.954   5.242 -34.990  1.00  0.00     0.030 A 
HETATM    5  C   UNL     1      -1.586   5.411 -34.759  1.00  0.00     0.003 A 
HETATM    6  C   UNL     1      -1.128   5.725 -33.487  1.00  0.00     0.018 A 
HETATM    7  C   UNL     1      -2.041   5.892 -32.440  1.00  0.00     0.040 A 
ENDROOT
BRANCH   3   8
HETATM    8  N   UNL     1      -5.272   5.214 -34.142  1.00  0.00    -0.309 N 
HETATM    9  C   UNL     1      -6.131   4.236 -33.761  1.00  0.00     0.321 C 
HETATM   10  N   UNL     1      -5.629   3.044 -33.353  1.00  0.00    -0.338 N 
HETATM   11  O   UNL     1      -7.339   4.459 -33.831  1.00  0.00    -0.247 OA
HETATM   12  H   UNL     1      -4.797   2.750 -33.845  1.00  0.00     0.164 HD
HETATM   13  H   UNL     1      -5.806   5.972 -34.547  1.00  0.00     0.170 HD
BRANCH  10  14
HETATM   14  C   UNL     1      -6.555   1.992 -32.999  1.00  0.00     0.167 C 
BRANCH  14  15
HETATM   15  C   UNL     1      -6.399   1.651 -31.561  1.00  0.00     0.009 A 
HETATM   16  C   UNL     1      -5.804   0.480 -31.012  1.00  0.00     0.060 A 
HETATM   17  C   UNL     1      -5.194  -0.664 -31.735  1.00  0.00     0.073 C 
HETATM   18  N   UNL     1      -5.850   0.477 -29.675  1.00  0.00    -0.179 NA
HETATM   19  N   UNL     1      -6.488   1.613 -29.366  1.00  0.00    -0.282 N 
HETATM   20  H   UNL     1      -6.658   1.814 -28.385  1.00  0.00     0.189 HD
HETATM   21  C   UNL     1      -6.847   2.355 -30.454  1.00  0.00     0.034 A 
HETATM   22  C   UNL     1      -7.581   3.635 -30.322  1.00  0.00     0.070 C 
ENDBRANCH  14  15
ENDBRANCH  10  14
ENDBRANCH   3   8
BRANCH   7  23
HETATM   23  C   UNL     1      -1.456   6.094 -31.085  1.00  0.00     0.252 C 
HETATM   24  N   UNL     1      -1.581   7.378 -30.595  1.00  0.00    -0.349 N 
HETATM   25  H   UNL     1      -2.199   7.996 -31.106  1.00  0.00     0.163 HD
HETATM   26  O   UNL     1      -0.973   5.148 -30.481  1.00  0.00    -0.268 OA
BRANCH  24  27
HETATM   27  C   UNL     1      -1.174   7.819 -29.253  1.00  0.00     0.022 C 
HETATM   28  C   UNL     1       0.346   7.694 -29.052  1.00  0.00     0.037 C 
HETATM   29  C   UNL     1      -1.551   9.306 -29.114  1.00  0.00     0.037 C 
HETATM   30  C   UNL     1      -1.918   7.017 -28.177  1.00  0.00     0.037 C 
ENDBRANCH  24  27
ENDBRANCH   7  23
TORSDOF 5
ENDMDL
MODEL 7
REMARK VINA RESULT:      -7.3      6.904      9.488
REMARK  5 active torsions:
REMARK  status: ('A' for Active; 'I' for Inactive)
REMARK    1  A    between atoms: C_3  and  N_4 
REMARK       I    between atoms: N_4  and  C_5 
REMARK       I    between atoms: C_5  and  N_6 
REMARK    2  A    between atoms: N_6  and  C_7 
REMARK    3  A    between atoms: C_7  and  C_8 
REMARK    4  A    between atoms: C_20  and  C_21 
REMARK       I    between atoms: C_21  and  N_22 
REMARK    5  A    between atoms: N_22  and  C_23 
ROOT
HETATM    1  C   UNL     1      -2.684   3.951 -33.143  1.00  0.00     0.052 C 
HETATM    2  C   UNL     1      -4.039   4.518 -32.790  1.00  0.00    -0.020 A 
HETATM    3  C   UNL     1      -4.299   5.908 -32.901  1.00  0.00     0.043 A 
HETATM    4  C   UNL     1      -5.595   6.382 -32.659  1.00  0.00     0.030 A 
HETATM    5  C   UNL     1      -6.632   5.507 -32.323  1.00  0.00     0.003 A 
HETATM    6  C   UNL     1      -6.375   4.152 -32.161  1.00  0.00     0.018 A 
HETATM    7  C   UNL     1      -5.079   3.662 -32.354  1.00  0.00     0.040 A 
ENDROOT
BRANCH   3   8
HETATM    8  N   UNL     1      -3.210   6.767 -33.170  1.00  0.00    -0.309 N 
HETATM    9  C   UNL     1      -2.234   7.335 -32.419  1.00  0.00     0.321 C 
HETATM   10  N   UNL     1      -2.386   7.381 -31.072  1.00  0.00    -0.338 N 
HETATM   11  O   UNL     1      -1.261   7.818 -32.994  1.00  0.00    -0.247 OA
HETATM   12  H   UNL     1      -3.336   7.522 -30.762  1.00  0.00     0.164 HD
HETATM   13  H   UNL     1      -3.010   6.944 -34.146  1.00  0.00     0.170 HD
BRANCH  10  14
HETATM   14  C   UNL     1      -1.363   8.034 -30.286  1.00  0.00     0.167 C 
BRANCH  14  15
HETATM   15  C   UNL     1      -0.807   7.079 -29.293  1.00  0.00     0.009 A 
HETATM   16  C   UNL     1      -0.943   7.132 -27.876  1.00  0.00     0.060 A 
HETATM   17  C   UNL     1      -1.671   8.136 -27.062  1.00  0.00     0.073 C 
HETATM   18  N   UNL     1      -0.295   6.127 -27.276  1.00  0.00    -0.179 NA
HETATM   19  N   UNL     1       0.271   5.452 -28.284  1.00  0.00    -0.282 N 
HETATM   20  H   UNL     1       0.842   4.644 -28.058  1.00  0.00     0.189 HD
HETATM   21  C   UNL     1       0.005   5.979 -29.516  1.00  0.00     0.034 A 
HETATM   22  C   UNL     1       0.558   5.388 -30.757  1.00  0.00     0.070 C 
ENDBRANCH  14  15
ENDBRANCH  10  14
ENDBRANCH   3   8
BRANCH   7  23
HETATM   23  C   UNL     1      -4.866   2.223 -32.029  1.00  0.00     0.252 C 
HETATM   24  N   UNL     1      -5.324   1.347 -32.990  1.00  0.00    -0.349 N 
HETATM   25  H   UNL     1      -5.589   1.752 -33.879  1.00  0.00     0.163 HD
HETATM   26  O   UNL     1      -4.273   1.911 -31.008  1.00  0.00    -0.268 OA
BRANCH  24  27
HETATM   27  C   UNL     1      -5.157  -0.114 -32.958  1.00  0.00     0.022 C 
HETATM   28  C   UNL     1      -5.767  -0.727 -31.687  1.00  0.00     0.037 C 
HETATM   29  C   UNL     1      -5.903  -0.697 -34.173  1.00  0.00     0.037 C 
HETATM   30  C   UNL     1      -3.672  -0.484 -33.064  1.00  0.00     0.037 C 
ENDBRANCH  24  27
ENDBRANCH   7  23
TORSDOF 5
ENDMDL
MODEL 8
REMARK VINA RESULT:      -7.3      5.597      8.562
REMARK  5 active torsions:
REMARK  status: ('A' for Active; 'I' for Inactive)
REMARK    1  A    between atoms: C_3  and  N_4 
REMARK       I    between atoms: N_4  and  C_5 
REMARK       I    between atoms: C_5  and  N_6 
REMARK    2  A    between atoms: N_6  and  C_7 
REMARK    3  A    between atoms: C_7  and  C_8 
REMARK    4  A    between atoms: C_20  and  C_21 
REMARK       I    between atoms: C_21  and  N_22 
REMARK    5  A    between atoms: N_22  and  C_23 
ROOT
HETATM    1  C   UNL     1      -4.937   5.396 -30.823  1.00  0.00     0.052 C 
HETATM    2  C   UNL     1      -4.503   5.285 -32.266  1.00  0.00    -0.020 A 
HETATM    3  C   UNL     1      -5.283   4.568 -33.210  1.00  0.00     0.043 A 
HETATM    4  C   UNL     1      -4.898   4.572 -34.557  1.00  0.00     0.030 A 
HETATM    5  C   UNL     1      -3.769   5.276 -34.983  1.00  0.00     0.003 A 
HETATM    6  C   UNL     1      -2.970   5.935 -34.058  1.00  0.00     0.018 A 
HETATM    7  C   UNL     1      -3.310   5.910 -32.702  1.00  0.00     0.040 A 
ENDROOT
BRANCH   3   8
HETATM    8  N   UNL     1      -6.374   3.811 -32.729  1.00  0.00    -0.309 N 
HETATM    9  C   UNL     1      -6.506   2.598 -32.136  1.00  0.00     0.321 C 
HETATM   10  N   UNL     1      -5.477   1.717 -32.208  1.00  0.00    -0.338 N 
HETATM   11  O   UNL     1      -7.571   2.332 -31.581  1.00  0.00    -0.247 OA
HETATM   12  H   UNL     1      -4.964   1.742 -33.077  1.00  0.00     0.164 HD
HETATM   13  H   UNL     1      -7.270   4.279 -32.707  1.00  0.00     0.170 HD
BRANCH  10  14
HETATM   14  C   UNL     1      -5.649   0.409 -31.615  1.00  0.00     0.167 C 
BRANCH  14  15
HETATM   15  C   UNL     1      -5.383  -0.641 -32.633  1.00  0.00     0.009 A 
HETATM   16  C   UNL     1      -4.209  -1.436 -32.765  1.00  0.00     0.060 A 
HETATM   17  C   UNL     1      -2.988  -1.414 -31.921  1.00  0.00     0.073 C 
HETATM   18  N   UNL     1      -4.287  -2.270 -33.807  1.00  0.00    -0.179 NA
HETATM   19  N   UNL     1      -5.478  -2.000 -34.356  1.00  0.00    -0.282 N 
HETATM   20  H   UNL     1      -5.746  -2.511 -35.191  1.00  0.00     0.189 HD
HETATM   21  C   UNL     1      -6.178  -1.028 -33.700  1.00  0.00     0.034 A 
HETATM   22  C   UNL     1      -7.509  -0.572 -34.163  1.00  0.00     0.070 C 
ENDBRANCH  14  15
ENDBRANCH  10  14
ENDBRANCH   3   8
BRANCH   7  23
HETATM   23  C   UNL     1      -2.327   6.528 -31.767  1.00  0.00     0.252 C 
HETATM   24  N   UNL     1      -1.407   5.645 -31.241  1.00  0.00    -0.349 N 
HETATM   25  H   UNL     1      -1.371   4.727 -31.664  1.00  0.00     0.163 HD
HETATM   26  O   UNL     1      -2.348   7.733 -31.571  1.00  0.00    -0.268 OA
BRANCH  24  27
HETATM   27  C   UNL     1      -0.280   6.012 -30.370  1.00  0.00     0.022 C 
HETATM   28  C   UNL     1       0.544   4.780 -29.960  1.00  0.00     0.037 C 
HETATM   29  C   UNL     1       0.641   6.955 -31.167  1.00  0.00     0.037 C 
HETATM   30  C   UNL     1      -0.785   6.749 -29.123  1.00  0.00     0.037 C 
ENDBRANCH  24  27
ENDBRANCH   7  23
TORSDOF 5
ENDMDL
MODEL 9
REMARK VINA RESULT:      -7.3      4.186      7.945
REMARK  5 active torsions:
REMARK  status: ('A' for Active; 'I' for Inactive)
REMARK    1  A    between atoms: C_3  and  N_4 
REMARK       I    between atoms: N_4  and  C_5 
REMARK       I    between atoms: C_5  and  N_6 
REMARK    2  A    between atoms: N_6  and  C_7 
REMARK    3  A    between atoms: C_7  and  C_8 
REMARK    4  A    between atoms: C_20  and  C_21 
REMARK       I    between atoms: C_21  and  N_22 
REMARK    5  A    between atoms: N_22  and  C_23 
ROOT
HETATM    1  C   UNL     1      -5.370   3.931 -33.835  1.00  0.00     0.052 C 
HETATM    2  C   UNL     1      -5.758   3.363 -32.490  1.00  0.00    -0.020 A 
HETATM    3  C   UNL     1      -6.698   2.305 -32.389  1.00  0.00     0.043 A 
HETATM    4  C   UNL     1      -6.957   1.740 -31.134  1.00  0.00     0.030 A 
HETATM    5  C   UNL     1      -6.298   2.194 -29.988  1.00  0.00     0.003 A 
HETATM    6  C   UNL     1      -5.418   3.264 -30.069  1.00  0.00     0.018 A 
HETATM    7  C   UNL     1      -5.176   3.873 -31.305  1.00  0.00     0.040 A 
ENDROOT
BRANCH   3   8
HETATM    8  N   UNL     1      -7.396   1.924 -33.556  1.00  0.00    -0.309 N 
HETATM    9  C   UNL     1      -7.475   0.788 -34.293  1.00  0.00     0.321 C 
HETATM   10  N   UNL     1      -6.525  -0.168 -34.130  1.00  0.00    -0.338 N 
HETATM   11  O   UNL     1      -8.391   0.681 -35.106  1.00  0.00    -0.247 OA
HETATM   12  H   UNL     1      -5.599   0.190 -33.947  1.00  0.00     0.164 HD
HETATM   13  H   UNL     1      -8.085   2.579 -33.900  1.00  0.00     0.170 HD
BRANCH  10  14
HETATM   14  C   UNL     1      -6.592  -1.352 -34.957  1.00  0.00     0.167 C 
BRANCH  14  15
HETATM   15  C   UNL     1      -5.566  -2.331 -34.514  1.00  0.00     0.009 A 
HETATM   16  C   UNL     1      -5.567  -3.739 -34.729  1.00  0.00     0.060 A 
HETATM   17  C   UNL     1      -6.577  -4.555 -35.448  1.00  0.00     0.073 C 
HETATM   18  N   UNL     1      -4.503  -4.328 -34.174  1.00  0.00    -0.179 NA
HETATM   19  N   UNL     1      -3.840  -3.324 -33.587  1.00  0.00    -0.282 N 
HETATM   20  H   UNL     1      -2.991  -3.546 -33.076  1.00  0.00     0.189 HD
HETATM   21  C   UNL     1      -4.431  -2.104 -33.751  1.00  0.00     0.034 A 
HETATM   22  C   UNL     1      -3.862  -0.871 -33.160  1.00  0.00     0.070 C 
ENDBRANCH  14  15
ENDBRANCH  10  14
ENDBRANCH   3   8
BRANCH   7  23
HETATM   23  C   UNL     1      -4.323   5.095 -31.279  1.00  0.00     0.252 C 
HETATM   24  N   UNL     1      -2.975   4.847 -31.117  1.00  0.00    -0.349 N 
HETATM   25  H   UNL     1      -2.680   3.883 -31.211  1.00  0.00     0.163 HD
HETATM   26  O   UNL     1      -4.827   6.194 -31.453  1.00  0.00    -0.268 OA
BRANCH  24  27
HETATM   27  C   UNL     1      -1.914   5.865 -31.149  1.00  0.00     0.022 C 
HETATM   28  C   UNL     1      -2.114   6.927 -30.056  1.00  0.00     0.037 C 
HETATM   29  C   UNL     1      -0.575   5.153 -30.880  1.00  0.00     0.037 C 
HETATM   30  C   UNL     1      -1.853   6.530 -32.529  1.00  0.00     0.037 C 
ENDBRANCH  24  27
ENDBRANCH   7  23
TORSDOF 5
ENDMDL
MODEL 10
REMARK VINA RESULT:      -7.3      6.452      9.398
REMARK  5 active torsions:
REMARK  status: ('A' for Active; 'I' for Inactive)
REMARK    1  A    between atoms: C_3  and  N_4 
REMARK       I    between atoms: N_4  and  C_5 
REMARK       I    between atoms: C_5  and  N_6 
REMARK    2  A    between atoms: N_6  and  C_7 
REMARK    3  A    between atoms: C_7  and  C_8 
REMARK    4  A    between atoms: C_20  and  C_21 
REMARK       I    between atoms: C_21  and  N_22 
REMARK    5  A    between atoms: N_22  and  C_23 
ROOT
HETATM    1  C   UNL     1      -4.532   6.251 -30.209  1.00  0.00     0.052 C 
HETATM    2  C   UNL     1      -3.506   5.652 -31.141  1.00  0.00    -0.020 A 
HETATM    3  C   UNL     1      -3.857   4.615 -32.043  1.00  0.00     0.043 A 
HETATM    4  C   UNL     1      -2.902   4.154 -32.960  1.00  0.00     0.030 A 
HETATM    5  C   UNL     1      -1.619   4.707 -33.004  1.00  0.00     0.003 A 
HETATM    6  C   UNL     1      -1.250   5.685 -32.090  1.00  0.00     0.018 A 
HETATM    7  C   UNL     1      -2.173   6.130 -31.137  1.00  0.00     0.040 A 
ENDROOT
BRANCH   3   8
HETATM    8  N   UNL     1      -5.138   4.033 -31.919  1.00  0.00    -0.309 N 
HETATM    9  C   UNL     1      -5.607   2.850 -31.448  1.00  0.00     0.321 C 
HETATM   10  N   UNL     1      -4.741   1.819 -31.285  1.00  0.00    -0.338 N 
HETATM   11  O   UNL     1      -6.811   2.749 -31.219  1.00  0.00    -0.247 OA
HETATM   12  H   UNL     1      -4.010   1.772 -31.979  1.00  0.00     0.164 HD
HETATM   13  H   UNL     1      -5.925   4.636 -32.116  1.00  0.00     0.170 HD
BRANCH  10  14
HETATM   14  C   UNL     1      -5.262   0.549 -30.831  1.00  0.00     0.167 C 
BRANCH  14  15
HETATM   15  C   UNL     1      -5.270  -0.420 -31.959  1.00  0.00     0.009 A 
HETATM   16  C   UNL     1      -4.188  -1.230 -32.408  1.00  0.00     0.060 A 
HETATM   17  C   UNL     1      -2.812  -1.308 -31.858  1.00  0.00     0.073 C 
HETATM   18  N   UNL     1      -4.529  -1.973 -33.466  1.00  0.00    -0.179 NA
HETATM   19  N   UNL     1      -5.799  -1.630 -33.714  1.00  0.00    -0.282 N 
HETATM   20  H   UNL     1      -6.266  -2.063 -34.505  1.00  0.00     0.189 HD
HETATM   21  C   UNL     1      -6.296  -0.699 -32.848  1.00  0.00     0.034 A 
HETATM   22  C   UNL     1      -7.676  -0.173 -32.968  1.00  0.00     0.070 C 
ENDBRANCH  14  15
ENDBRANCH  10  14
ENDBRANCH   3   8
BRANCH   7  23
HETATM   23  C   UNL     1      -1.653   7.081 -30.114  1.00  0.00     0.252 C 
HETATM   24  N   UNL     1      -1.188   6.481 -28.962  1.00  0.00    -0.349 N 
HETATM   25  H   UNL     1      -1.077   5.475 -28.991  1.00  0.00     0.163 HD
HETATM   26  O   UNL     1      -1.612   8.277 -30.359  1.00  0.00    -0.268 OA
BRANCH  24  27
HETATM   27  C   UNL     1      -0.543   7.181 -27.841  1.00  0.00     0.022 C 
HETATM   28  C   UNL     1      -1.434   8.304 -27.285  1.00  0.00     0.037 C 
HETATM   29  C   UNL     1      -0.316   6.153 -26.716  1.00  0.00     0.037 C 
HETATM   30  C   UNL     1       0.815   7.748 -28.274  1.00  0.00     0.037 C 
ENDBRANCH  24  27
ENDBRANCH   7  23
TORSDOF 5
ENDMDL
