MODEL 1
REMARK VINA RESULT:      -9.2      0.000      0.000
REMARK  8 active torsions:
REMARK  status: ('A' for Active; 'I' for Inactive)
REMARK    1  A    between atoms: C_2  and  C_3 
REMARK    2  A    between atoms: C_5  and  C_6 
REMARK       I    between atoms: C_6  and  N_7 
REMARK    3  A    between atoms: N_7  and  C_8 
REMARK    4  A    between atoms: C_8  and  C_9 
REMARK    5  A    between atoms: C_9  and  N_10 
REMARK    6  A    between atoms: C_9  and  C_20 
REMARK       I    between atoms: N_10  and  C_11 
REMARK    7  A    between atoms: C_11  and  C_12 
REMARK    8  A    between atoms: C_14  and  C_15 
ROOT
HETATM    1  C   UNL     1      -6.752   1.038 -33.384  1.00  0.00     0.136 C 
ENDROOT
BRANCH   1   2
HETATM    2  C   UNL     1      -7.953   1.093 -32.406  1.00  0.00     0.153 C 
BRANCH   2   3
HETATM    3  N   UNL     1      -9.207   1.435 -33.051  1.00  0.00    -0.353 N 
HETATM    4  C   UNL     1     -10.269   0.562 -33.116  1.00  0.00     0.275 C 
HETATM    5  O   UNL     1     -10.225  -0.557 -32.609  1.00  0.00    -0.265 OA
HETATM    6  H   UNL     1      -9.271   2.304 -33.570  1.00  0.00     0.162 HD
BRANCH   4   7
HETATM    7  C   UNL     1     -11.419   1.078 -33.826  1.00  0.00     0.143 A 
HETATM    8  O   UNL     1     -12.673   0.627 -33.501  1.00  0.00    -0.310 OA
HETATM    9  C   UNL     1     -13.557   1.268 -34.318  1.00  0.00     0.053 A 
HETATM   10  C   UNL     1     -12.886   2.122 -35.167  1.00  0.00     0.036 A 
HETATM   11  C   UNL     1     -11.513   2.004 -34.847  1.00  0.00     0.045 A 
BRANCH   9  12
HETATM   12  C   UNL     1     -14.990   0.933 -34.133  1.00  0.00     0.060 C 
HETATM   13  C   UNL     1     -15.589   1.667 -32.946  1.00  0.00     0.012 C 
ENDBRANCH   9  12
ENDBRANCH   4   7
ENDBRANCH   2   3
ENDBRANCH   1   2
BRANCH   1  14
HETATM   14  N   UNL     1      -5.611   1.887 -33.045  1.00  0.00    -0.345 N 
HETATM   15  C   UNL     1      -5.490   3.227 -33.323  1.00  0.00     0.276 C 
HETATM   16  O   UNL     1      -6.286   3.845 -34.023  1.00  0.00    -0.265 OA
HETATM   17  H   UNL     1      -4.939   1.514 -32.386  1.00  0.00     0.163 HD
BRANCH  15  18
HETATM   18  C   UNL     1      -4.328   3.849 -32.719  1.00  0.00     0.143 A 
HETATM   19  O   UNL     1      -3.332   4.351 -33.520  1.00  0.00    -0.310 OA
HETATM   20  C   UNL     1      -2.377   4.869 -32.697  1.00  0.00     0.053 A 
HETATM   21  C   UNL     1      -2.745   4.709 -31.379  1.00  0.00     0.036 A 
HETATM   22  C   UNL     1      -3.997   4.049 -31.393  1.00  0.00     0.045 A 
BRANCH  20  23
HETATM   23  C   UNL     1      -1.191   5.476 -33.354  1.00  0.00     0.060 C 
HETATM   24  C   UNL     1      -1.295   5.408 -34.869  1.00  0.00     0.012 C 
ENDBRANCH  20  23
ENDBRANCH  15  18
ENDBRANCH   1  14
BRANCH   1  25
HETATM   25  C   UNL     1      -6.305  -0.390 -33.652  1.00  0.00    -0.031 A 
HETATM   26  C   UNL     1      -5.139  -0.884 -33.040  1.00  0.00     0.049 A 
HETATM   27  C   UNL     1      -4.699  -2.183 -33.293  1.00  0.00     0.102 A 
HETATM   28  C   UNL     1      -5.404  -3.002 -34.179  1.00  0.00     0.102 A 
HETATM   29  O   UNL     1      -3.557  -2.582 -32.647  1.00  0.00    -0.346 OA
HETATM   30  O   UNL     1      -5.004  -4.271 -34.510  1.00  0.00    -0.346 OA
HETATM   31  C   UNL     1      -6.574  -2.538 -34.772  1.00  0.00     0.040 A 
HETATM   32  C   UNL     1      -3.637  -4.494 -34.145  1.00  0.00     0.202 C 
HETATM   33  C   UNL     1      -3.376  -4.000 -32.731  1.00  0.00     0.202 C 
HETATM   34  C   UNL     1      -7.022  -1.239 -34.512  1.00  0.00     0.012 A 
ENDBRANCH   1  25
TORSDOF 8
ENDMDL
MODEL 2
REMARK VINA RESULT:      -9.1      0.791      1.427
REMARK  8 active torsions:
REMARK  status: ('A' for Active; 'I' for Inactive)
REMARK    1  A    between atoms: C_2  and  C_3 
REMARK    2  A    between atoms: C_5  and  C_6 
REMARK       I    between atoms: C_6  and  N_7 
REMARK    3  A    between atoms: N_7  and  C_8 
REMARK    4  A    between atoms: C_8  and  C_9 
REMARK    5  A    between atoms: C_9  and  N_10 
REMARK    6  A    between atoms: C_9  and  C_20 
REMARK       I    between atoms: N_10  and  C_11 
REMARK    7  A    between atoms: C_11  and  C_12 
REMARK    8  A    between atoms: C_14  and  C_15 
ROOT
HETATM    1  C   UNL     1      -6.616   1.195 -33.425  1.00  0.00     0.136 C 
ENDROOT
BRANCH   1   2
HETATM    2  C   UNL     1      -7.819   1.079 -32.455  1.00  0.00     0.153 C 
BRANCH   2   3
HETATM    3  N   UNL     1      -9.087   1.436 -33.064  1.00  0.00    -0.353 N 
HETATM    4  C   UNL     1     -10.154   0.568 -33.117  1.00  0.00     0.275 C 
HETATM    5  O   UNL     1     -10.102  -0.560 -32.630  1.00  0.00    -0.265 OA
HETATM    6  H   UNL     1      -9.161   2.314 -33.566  1.00  0.00     0.162 HD
BRANCH   4   7
HETATM    7  C   UNL     1     -11.319   1.099 -33.790  1.00  0.00     0.143 A 
HETATM    8  O   UNL     1     -12.567   0.651 -33.439  1.00  0.00    -0.310 OA
HETATM    9  C   UNL     1     -13.468   1.307 -34.224  1.00  0.00     0.053 A 
HETATM   10  C   UNL     1     -12.815   2.169 -35.079  1.00  0.00     0.036 A 
HETATM   11  C   UNL     1     -11.434   2.039 -34.796  1.00  0.00     0.045 A 
BRANCH   9  12
HETATM   12  C   UNL     1     -14.898   0.978 -34.007  1.00  0.00     0.060 C 
HETATM   13  C   UNL     1     -15.476   1.740 -32.827  1.00  0.00     0.012 C 
ENDBRANCH   9  12
ENDBRANCH   4   7
ENDBRANCH   2   3
ENDBRANCH   1   2
BRANCH   1  14
HETATM   14  N   UNL     1      -5.610   2.197 -33.080  1.00  0.00    -0.345 N 
HETATM   15  C   UNL     1      -5.683   3.543 -33.350  1.00  0.00     0.276 C 
HETATM   16  O   UNL     1      -6.559   4.043 -34.047  1.00  0.00    -0.265 OA
HETATM   17  H   UNL     1      -4.891   1.921 -32.422  1.00  0.00     0.163 HD
BRANCH  15  18
HETATM   18  C   UNL     1      -4.623   4.321 -32.741  1.00  0.00     0.143 A 
HETATM   19  O   UNL     1      -3.510   4.646 -33.475  1.00  0.00    -0.310 OA
HETATM   20  C   UNL     1      -2.689   5.370 -32.663  1.00  0.00     0.053 A 
HETATM   21  C   UNL     1      -3.259   5.518 -31.418  1.00  0.00     0.036 A 
HETATM   22  C   UNL     1      -4.500   4.840 -31.466  1.00  0.00     0.045 A 
BRANCH  20  23
HETATM   23  C   UNL     1      -1.409   5.836 -33.256  1.00  0.00     0.060 C 
HETATM   24  C   UNL     1      -1.274   5.403 -34.707  1.00  0.00     0.012 C 
ENDBRANCH  20  23
ENDBRANCH  15  18
ENDBRANCH   1  14
BRANCH   1  25
HETATM   25  C   UNL     1      -5.970  -0.156 -33.689  1.00  0.00    -0.031 A 
HETATM   26  C   UNL     1      -6.739  -1.207 -34.218  1.00  0.00     0.049 A 
HETATM   27  C   UNL     1      -6.170  -2.460 -34.444  1.00  0.00     0.102 A 
HETATM   28  C   UNL     1      -4.831  -2.690 -34.123  1.00  0.00     0.102 A 
HETATM   29  O   UNL     1      -6.994  -3.423 -34.969  1.00  0.00    -0.346 OA
HETATM   30  O   UNL     1      -4.219  -3.908 -34.274  1.00  0.00    -0.346 OA
HETATM   31  C   UNL     1      -4.048  -1.654 -33.623  1.00  0.00     0.040 A 
HETATM   32  C   UNL     1      -5.184  -4.954 -34.434  1.00  0.00     0.202 C 
HETATM   33  C   UNL     1      -6.247  -4.550 -35.443  1.00  0.00     0.202 C 
HETATM   34  C   UNL     1      -4.614  -0.394 -33.405  1.00  0.00     0.012 A 
ENDBRANCH   1  25
TORSDOF 8
ENDMDL
MODEL 3
REMARK VINA RESULT:      -9.1      1.710      8.656
REMARK  8 active torsions:
REMARK  status: ('A' for Active; 'I' for Inactive)
REMARK    1  A    between atoms: C_2  and  C_3 
REMARK    2  A    between atoms: C_5  and  C_6 
REMARK       I    between atoms: C_6  and  N_7 
REMARK    3  A    between atoms: N_7  and  C_8 
REMARK    4  A    between atoms: C_8  and  C_9 
REMARK    5  A    between atoms: C_9  and  N_10 
REMARK    6  A    between atoms: C_9  and  C_20 
REMARK       I    between atoms: N_10  and  C_11 
REMARK    7  A    between atoms: C_11  and  C_12 
REMARK    8  A    between atoms: C_14  and  C_15 
ROOT
HETATM    1  C   UNL     1      -6.795   1.753 -33.235  1.00  0.00     0.136 C 
ENDROOT
BRANCH   1   2
HETATM    2  C   UNL     1      -6.545   2.990 -32.336  1.00  0.00     0.153 C 
BRANCH   2   3
HETATM    3  N   UNL     1      -5.262   3.626 -32.574  1.00  0.00    -0.353 N 
HETATM    4  C   UNL     1      -4.115   3.251 -31.912  1.00  0.00     0.275 C 
HETATM    5  O   UNL     1      -4.104   2.335 -31.093  1.00  0.00    -0.265 OA
HETATM    6  H   UNL     1      -5.224   4.449 -33.166  1.00  0.00     0.162 HD
BRANCH   4   7
HETATM    7  C   UNL     1      -2.944   4.024 -32.268  1.00  0.00     0.143 A 
HETATM    8  O   UNL     1      -1.955   4.220 -31.339  1.00  0.00    -0.310 OA
HETATM    9  C   UNL     1      -0.988   4.976 -31.932  1.00  0.00     0.053 A 
HETATM   10  C   UNL     1      -1.345   5.272 -33.230  1.00  0.00     0.036 A 
HETATM   11  C   UNL     1      -2.600   4.656 -33.447  1.00  0.00     0.045 A 
BRANCH   9  12
HETATM   12  C   UNL     1       0.195   5.307 -31.100  1.00  0.00     0.060 C 
HETATM   13  C   UNL     1       0.551   6.781 -31.195  1.00  0.00     0.012 C 
ENDBRANCH   9  12
ENDBRANCH   4   7
ENDBRANCH   2   3
ENDBRANCH   1   2
BRANCH   1  14
HETATM   14  N   UNL     1      -6.015   0.560 -32.912  1.00  0.00    -0.345 N 
HETATM   15  C   UNL     1      -5.638  -0.424 -33.795  1.00  0.00     0.276 C 
HETATM   16  O   UNL     1      -6.040  -0.479 -34.953  1.00  0.00    -0.265 OA
HETATM   17  H   UNL     1      -5.548   0.544 -32.014  1.00  0.00     0.163 HD
BRANCH  15  18
HETATM   18  C   UNL     1      -4.726  -1.400 -33.232  1.00  0.00     0.143 A 
HETATM   19  O   UNL     1      -4.671  -2.664 -33.763  1.00  0.00    -0.310 OA
HETATM   20  C   UNL     1      -3.741  -3.360 -33.049  1.00  0.00     0.053 A 
HETATM   21  C   UNL     1      -3.197  -2.561 -32.068  1.00  0.00     0.036 A 
HETATM   22  C   UNL     1      -3.833  -1.302 -32.182  1.00  0.00     0.045 A 
BRANCH  20  23
HETATM   23  C   UNL     1      -3.511  -4.770 -33.454  1.00  0.00     0.060 C 
HETATM   24  C   UNL     1      -4.622  -5.282 -34.357  1.00  0.00     0.012 C 
ENDBRANCH  20  23
ENDBRANCH  15  18
ENDBRANCH   1  14
BRANCH   1  25
HETATM   25  C   UNL     1      -8.274   1.422 -33.344  1.00  0.00    -0.031 A 
HETATM   26  C   UNL     1      -9.122   2.253 -34.097  1.00  0.00     0.049 A 
HETATM   27  C   UNL     1     -10.487   1.980 -34.189  1.00  0.00     0.102 A 
HETATM   28  C   UNL     1     -11.030   0.887 -33.511  1.00  0.00     0.102 A 
HETATM   29  O   UNL     1     -11.236   2.841 -34.951  1.00  0.00    -0.346 OA
HETATM   30  O   UNL     1     -12.368   0.586 -33.519  1.00  0.00    -0.346 OA
HETATM   31  C   UNL     1     -10.201   0.039 -32.783  1.00  0.00     0.040 A 
HETATM   32  C   UNL     1     -13.145   1.700 -33.972  1.00  0.00     0.202 C 
HETATM   33  C   UNL     1     -12.533   2.301 -35.228  1.00  0.00     0.202 C 
HETATM   34  C   UNL     1      -8.831   0.305 -32.698  1.00  0.00     0.012 A 
ENDBRANCH   1  25
TORSDOF 8
ENDMDL
MODEL 4
REMARK VINA RESULT:      -9.1      1.810      6.384
REMARK  8 active torsions:
REMARK  status: ('A' for Active; 'I' for Inactive)
REMARK    1  A    between atoms: C_2  and  C_3 
REMARK    2  A    between atoms: C_5  and  C_6 
REMARK       I    between atoms: C_6  and  N_7 
REMARK    3  A    between atoms: N_7  and  C_8 
REMARK    4  A    between atoms: C_8  and  C_9 
REMARK    5  A    between atoms: C_9  and  N_10 
REMARK    6  A    between atoms: C_9  and  C_20 
REMARK       I    between atoms: N_10  and  C_11 
REMARK    7  A    between atoms: C_11  and  C_12 
REMARK    8  A    between atoms: C_14  and  C_15 
ROOT
HETATM    1  C   UNL     1      -4.612   1.820 -31.062  1.00  0.00     0.136 C 
ENDROOT
BRANCH   1   2
HETATM    2  C   UNL     1      -5.982   2.040 -30.372  1.00  0.00     0.153 C 
BRANCH   2   3
HETATM    3  N   UNL     1      -7.096   1.471 -31.108  1.00  0.00    -0.353 N 
HETATM    4  C   UNL     1      -8.194   2.213 -31.480  1.00  0.00     0.275 C 
HETATM    5  O   UNL     1      -8.286   3.413 -31.230  1.00  0.00    -0.265 OA
HETATM    6  H   UNL     1      -7.124   0.469 -31.259  1.00  0.00     0.162 HD
BRANCH   4   7
HETATM    7  C   UNL     1      -9.210   1.458 -32.181  1.00  0.00     0.143 A 
HETATM    8  O   UNL     1     -10.090   2.111 -33.006  1.00  0.00    -0.310 OA
HETATM    9  C   UNL     1     -10.930   1.172 -33.526  1.00  0.00     0.053 A 
HETATM   10  C   UNL     1     -10.604  -0.077 -33.042  1.00  0.00     0.036 A 
HETATM   11  C   UNL     1      -9.496   0.106 -32.181  1.00  0.00     0.045 A 
BRANCH   9  12
HETATM   12  C   UNL     1     -11.971   1.661 -34.463  1.00  0.00     0.060 C 
HETATM   13  C   UNL     1     -13.260   0.869 -34.330  1.00  0.00     0.012 C 
ENDBRANCH   9  12
ENDBRANCH   4   7
ENDBRANCH   2   3
ENDBRANCH   1   2
BRANCH   1  14
HETATM   14  N   UNL     1      -4.428   0.529 -31.721  1.00  0.00    -0.345 N 
HETATM   15  C   UNL     1      -3.362  -0.323 -31.549  1.00  0.00     0.276 C 
HETATM   16  O   UNL     1      -2.358  -0.024 -30.910  1.00  0.00    -0.265 OA
HETATM   17  H   UNL     1      -5.231   0.134 -32.194  1.00  0.00     0.163 HD
BRANCH  15  18
HETATM   18  C   UNL     1      -3.528  -1.609 -32.197  1.00  0.00     0.143 A 
HETATM   19  O   UNL     1      -4.341  -1.714 -33.298  1.00  0.00    -0.310 OA
HETATM   20  C   UNL     1      -4.312  -3.018 -33.696  1.00  0.00     0.053 A 
HETATM   21  C   UNL     1      -3.491  -3.751 -32.868  1.00  0.00     0.036 A 
HETATM   22  C   UNL     1      -2.991  -2.847 -31.902  1.00  0.00     0.045 A 
BRANCH  20  23
HETATM   23  C   UNL     1      -5.128  -3.368 -34.887  1.00  0.00     0.060 C 
HETATM   24  C   UNL     1      -6.578  -2.944 -34.715  1.00  0.00     0.012 C 
ENDBRANCH  20  23
ENDBRANCH  15  18
ENDBRANCH   1  14
BRANCH   1  25
HETATM   25  C   UNL     1      -4.260   2.963 -32.001  1.00  0.00    -0.031 A 
HETATM   26  C   UNL     1      -2.952   3.479 -32.014  1.00  0.00     0.049 A 
HETATM   27  C   UNL     1      -2.616   4.544 -32.849  1.00  0.00     0.102 A 
HETATM   28  C   UNL     1      -3.586   5.126 -33.668  1.00  0.00     0.102 A 
HETATM   29  O   UNL     1      -1.315   4.976 -32.801  1.00  0.00    -0.346 OA
HETATM   30  O   UNL     1      -3.339   6.203 -34.479  1.00  0.00    -0.346 OA
HETATM   31  C   UNL     1      -4.879   4.611 -33.687  1.00  0.00     0.040 A 
HETATM   32  C   UNL     1      -2.121   6.859 -34.109  1.00  0.00     0.202 C 
HETATM   33  C   UNL     1      -1.010   5.842 -33.900  1.00  0.00     0.202 C 
HETATM   34  C   UNL     1      -5.215   3.537 -32.857  1.00  0.00     0.012 A 
ENDBRANCH   1  25
TORSDOF 8
ENDMDL
MODEL 5
REMARK VINA RESULT:      -9.1      1.551      6.257
REMARK  8 active torsions:
REMARK  status: ('A' for Active; 'I' for Inactive)
REMARK    1  A    between atoms: C_2  and  C_3 
REMARK    2  A    between atoms: C_5  and  C_6 
REMARK       I    between atoms: C_6  and  N_7 
REMARK    3  A    between atoms: N_7  and  C_8 
REMARK    4  A    between atoms: C_8  and  C_9 
REMARK    5  A    between atoms: C_9  and  N_10 
REMARK    6  A    between atoms: C_9  and  C_20 
REMARK       I    between atoms: N_10  and  C_11 
REMARK    7  A    between atoms: C_11  and  C_12 
REMARK    8  A    between atoms: C_14  and  C_15 
ROOT
HETATM    1  C   UNL     1      -5.565   1.749 -31.829  1.00  0.00     0.136 C 
ENDROOT
BRANCH   1   2
HETATM    2  C   UNL     1      -6.753   2.231 -30.957  1.00  0.00     0.153 C 
BRANCH   2   3
HETATM    3  N   UNL     1      -7.958   2.499 -31.721  1.00  0.00    -0.353 N 
HETATM    4  C   UNL     1      -8.900   1.531 -31.982  1.00  0.00     0.275 C 
HETATM    5  O   UNL     1      -8.787   0.381 -31.563  1.00  0.00    -0.265 OA
HETATM    6  H   UNL     1      -8.061   3.401 -32.174  1.00  0.00     0.162 HD
BRANCH   4   7
HETATM    7  C   UNL     1     -10.015   1.988 -32.783  1.00  0.00     0.143 A 
HETATM    8  O   UNL     1     -10.927   1.080 -33.256  1.00  0.00    -0.310 OA
HETATM    9  C   UNL     1     -11.855   1.774 -33.972  1.00  0.00     0.053 A 
HETATM   10  C   UNL     1     -11.549   3.118 -33.971  1.00  0.00     0.036 A 
HETATM   11  C   UNL     1     -10.369   3.256 -33.202  1.00  0.00     0.045 A 
BRANCH   9  12
HETATM   12  C   UNL     1     -12.953   0.981 -34.577  1.00  0.00     0.060 C 
HETATM   13  C   UNL     1     -13.362  -0.180 -33.687  1.00  0.00     0.012 C 
ENDBRANCH   9  12
ENDBRANCH   4   7
ENDBRANCH   2   3
ENDBRANCH   1   2
BRANCH   1  14
HETATM   14  N   UNL     1      -5.821   0.578 -32.665  1.00  0.00    -0.345 N 
HETATM   15  C   UNL     1      -4.877  -0.312 -33.121  1.00  0.00     0.276 C 
HETATM   16  O   UNL     1      -3.670  -0.142 -32.985  1.00  0.00    -0.265 OA
HETATM   17  H   UNL     1      -6.784   0.282 -32.762  1.00  0.00     0.163 HD
BRANCH  15  18
HETATM   18  C   UNL     1      -5.438  -1.472 -33.786  1.00  0.00     0.143 A 
HETATM   19  O   UNL     1      -4.749  -2.659 -33.776  1.00  0.00    -0.310 OA
HETATM   20  C   UNL     1      -5.499  -3.565 -34.467  1.00  0.00     0.053 A 
HETATM   21  C   UNL     1      -6.660  -2.977 -34.919  1.00  0.00     0.036 A 
HETATM   22  C   UNL     1      -6.619  -1.630 -34.486  1.00  0.00     0.045 A 
BRANCH  20  23
HETATM   23  C   UNL     1      -4.943  -4.937 -34.584  1.00  0.00     0.060 C 
HETATM   24  C   UNL     1      -3.794  -5.160 -33.613  1.00  0.00     0.012 C 
ENDBRANCH  20  23
ENDBRANCH  15  18
ENDBRANCH   1  14
BRANCH   1  25
HETATM   25  C   UNL     1      -4.967   2.881 -32.648  1.00  0.00    -0.031 A 
HETATM   26  C   UNL     1      -3.647   3.299 -32.402  1.00  0.00     0.049 A 
HETATM   27  C   UNL     1      -3.089   4.353 -33.126  1.00  0.00     0.102 A 
HETATM   28  C   UNL     1      -3.848   5.021 -34.089  1.00  0.00     0.102 A 
HETATM   29  O   UNL     1      -1.793   4.687 -32.824  1.00  0.00    -0.346 OA
HETATM   30  O   UNL     1      -3.380   6.094 -34.804  1.00  0.00    -0.346 OA
HETATM   31  C   UNL     1      -5.147   4.603 -34.363  1.00  0.00     0.040 A 
HETATM   32  C   UNL     1      -2.210   6.650 -34.194  1.00  0.00     0.202 C 
HETATM   33  C   UNL     1      -1.230   5.550 -33.818  1.00  0.00     0.202 C 
HETATM   34  C   UNL     1      -5.705   3.541 -33.646  1.00  0.00     0.012 A 
ENDBRANCH   1  25
TORSDOF 8
ENDMDL
MODEL 6
REMARK VINA RESULT:      -8.7      1.982      6.543
REMARK  8 active torsions:
REMARK  status: ('A' for Active; 'I' for Inactive)
REMARK    1  A    between atoms: C_2  and  C_3 
REMARK    2  A    between atoms: C_5  and  C_6 
REMARK       I    between atoms: C_6  and  N_7 
REMARK    3  A    between atoms: N_7  and  C_8 
REMARK    4  A    between atoms: C_8  and  C_9 
REMARK    5  A    between atoms: C_9  and  N_10 
REMARK    6  A    between atoms: C_9  and  C_20 
REMARK       I    between atoms: N_10  and  C_11 
REMARK    7  A    between atoms: C_11  and  C_12 
REMARK    8  A    between atoms: C_14  and  C_15 
ROOT
HETATM    1  C   UNL     1      -4.900   3.369 -32.760  1.00  0.00     0.136 C 
ENDROOT
BRANCH   1   2
HETATM    2  C   UNL     1      -5.865   3.747 -33.913  1.00  0.00     0.153 C 
BRANCH   2   3
HETATM    3  N   UNL     1      -7.069   2.937 -33.947  1.00  0.00    -0.353 N 
HETATM    4  C   UNL     1      -8.300   3.424 -33.572  1.00  0.00     0.275 C 
HETATM    5  O   UNL     1      -8.458   4.586 -33.204  1.00  0.00    -0.265 OA
HETATM    6  H   UNL     1      -6.988   1.947 -34.149  1.00  0.00     0.162 HD
BRANCH   4   7
HETATM    7  C   UNL     1      -9.371   2.453 -33.649  1.00  0.00     0.143 A 
HETATM    8  O   UNL     1     -10.401   2.651 -34.533  1.00  0.00    -0.310 OA
HETATM    9  C   UNL     1     -11.259   1.601 -34.395  1.00  0.00     0.053 A 
HETATM   10  C   UNL     1     -10.796   0.732 -33.429  1.00  0.00     0.036 A 
HETATM   11  C   UNL     1      -9.580   1.277 -32.954  1.00  0.00     0.045 A 
BRANCH   9  12
HETATM   12  C   UNL     1     -12.457   1.606 -35.270  1.00  0.00     0.060 C 
HETATM   13  C   UNL     1     -13.742   1.626 -34.460  1.00  0.00     0.012 C 
ENDBRANCH   9  12
ENDBRANCH   4   7
ENDBRANCH   2   3
ENDBRANCH   1   2
BRANCH   1  14
HETATM   14  N   UNL     1      -4.481   1.970 -32.712  1.00  0.00    -0.345 N 
HETATM   15  C   UNL     1      -5.207   0.925 -32.189  1.00  0.00     0.276 C 
HETATM   16  O   UNL     1      -6.255   1.077 -31.570  1.00  0.00    -0.265 OA
HETATM   17  H   UNL     1      -3.682   1.708 -33.275  1.00  0.00     0.163 HD
BRANCH  15  18
HETATM   18  C   UNL     1      -4.618  -0.377 -32.431  1.00  0.00     0.143 A 
HETATM   19  O   UNL     1      -5.073  -1.146 -33.472  1.00  0.00    -0.310 OA
HETATM   20  C   UNL     1      -4.352  -2.303 -33.465  1.00  0.00     0.053 A 
HETATM   21  C   UNL     1      -3.437  -2.287 -32.434  1.00  0.00     0.036 A 
HETATM   22  C   UNL     1      -3.612  -1.052 -31.767  1.00  0.00     0.045 A 
BRANCH  20  23
HETATM   23  C   UNL     1      -4.677  -3.296 -34.519  1.00  0.00     0.060 C 
HETATM   24  C   UNL     1      -6.165  -3.316 -34.830  1.00  0.00     0.012 C 
ENDBRANCH  20  23
ENDBRANCH  15  18
ENDBRANCH   1  14
BRANCH   1  25
HETATM   25  C   UNL     1      -3.699   4.298 -32.699  1.00  0.00    -0.031 A 
HETATM   26  C   UNL     1      -2.666   4.045 -31.779  1.00  0.00     0.049 A 
HETATM   27  C   UNL     1      -1.568   4.900 -31.690  1.00  0.00     0.102 A 
HETATM   28  C   UNL     1      -1.495   6.034 -32.501  1.00  0.00     0.102 A 
HETATM   29  O   UNL     1      -0.606   4.570 -30.769  1.00  0.00    -0.346 OA
HETATM   30  O   UNL     1      -0.470   6.942 -32.435  1.00  0.00    -0.346 OA
HETATM   31  C   UNL     1      -2.496   6.286 -33.435  1.00  0.00     0.040 A 
HETATM   32  C   UNL     1       0.279   6.787 -31.224  1.00  0.00     0.202 C 
HETATM   33  C   UNL     1       0.596   5.320 -30.977  1.00  0.00     0.202 C 
HETATM   34  C   UNL     1      -3.593   5.424 -33.533  1.00  0.00     0.012 A 
ENDBRANCH   1  25
TORSDOF 8
ENDMDL
MODEL 7
REMARK VINA RESULT:      -8.7      1.483      8.334
REMARK  8 active torsions:
REMARK  status: ('A' for Active; 'I' for Inactive)
REMARK    1  A    between atoms: C_2  and  C_3 
REMARK    2  A    between atoms: C_5  and  C_6 
REMARK       I    between atoms: C_6  and  N_7 
REMARK    3  A    between atoms: N_7  and  C_8 
REMARK    4  A    between atoms: C_8  and  C_9 
REMARK    5  A    between atoms: C_9  and  N_10 
REMARK    6  A    between atoms: C_9  and  C_20 
REMARK       I    between atoms: N_10  and  C_11 
REMARK    7  A    between atoms: C_11  and  C_12 
REMARK    8  A    between atoms: C_14  and  C_15 
ROOT
HETATM    1  C   UNL     1      -6.840   1.497 -33.469  1.00  0.00     0.136 C 
ENDROOT
BRANCH   1   2
HETATM    2  C   UNL     1      -6.080   2.665 -34.149  1.00  0.00     0.153 C 
BRANCH   2   3
HETATM    3  N   UNL     1      -4.975   3.172 -33.356  1.00  0.00    -0.353 N 
HETATM    4  C   UNL     1      -4.297   4.324 -33.683  1.00  0.00     0.275 C 
HETATM    5  O   UNL     1      -4.604   5.007 -34.658  1.00  0.00    -0.265 OA
HETATM    6  H   UNL     1      -4.614   2.605 -32.597  1.00  0.00     0.162 HD
BRANCH   4   7
HETATM    7  C   UNL     1      -3.209   4.648 -32.785  1.00  0.00     0.143 A 
HETATM    8  O   UNL     1      -2.475   5.787 -32.994  1.00  0.00    -0.310 OA
HETATM    9  C   UNL     1      -1.526   5.842 -32.017  1.00  0.00     0.053 A 
HETATM   10  C   UNL     1      -1.638   4.748 -31.185  1.00  0.00     0.036 A 
HETATM   11  C   UNL     1      -2.723   3.984 -31.675  1.00  0.00     0.045 A 
BRANCH   9  12
HETATM   12  C   UNL     1      -0.613   7.010 -32.046  1.00  0.00     0.060 C 
HETATM   13  C   UNL     1       0.568   6.822 -31.109  1.00  0.00     0.012 C 
ENDBRANCH   9  12
ENDBRANCH   4   7
ENDBRANCH   2   3
ENDBRANCH   1   2
BRANCH   1  14
HETATM   14  N   UNL     1      -8.266   1.400 -33.774  1.00  0.00    -0.345 N 
HETATM   15  C   UNL     1      -9.267   2.161 -33.216  1.00  0.00     0.276 C 
HETATM   16  O   UNL     1      -9.083   2.933 -32.280  1.00  0.00    -0.265 OA
HETATM   17  H   UNL     1      -8.527   0.869 -34.595  1.00  0.00     0.163 HD
BRANCH  15  18
HETATM   18  C   UNL     1     -10.565   1.965 -33.831  1.00  0.00     0.143 A 
HETATM   19  O   UNL     1     -11.401   0.987 -33.354  1.00  0.00    -0.310 OA
HETATM   20  C   UNL     1     -12.537   1.026 -34.108  1.00  0.00     0.053 A 
HETATM   21  C   UNL     1     -12.442   2.016 -35.062  1.00  0.00     0.036 A 
HETATM   22  C   UNL     1     -11.173   2.616 -34.887  1.00  0.00     0.045 A 
BRANCH  20  23
HETATM   23  C   UNL     1     -13.597   0.044 -33.764  1.00  0.00     0.060 C 
HETATM   24  C   UNL     1     -14.962   0.501 -34.255  1.00  0.00     0.012 C 
ENDBRANCH  20  23
ENDBRANCH  15  18
ENDBRANCH   1  14
BRANCH   1  25
HETATM   25  C   UNL     1      -6.145   0.164 -33.691  1.00  0.00    -0.031 A 
HETATM   26  C   UNL     1      -6.864  -0.917 -34.231  1.00  0.00     0.049 A 
HETATM   27  C   UNL     1      -6.250  -2.156 -34.419  1.00  0.00     0.102 A 
HETATM   28  C   UNL     1      -4.917  -2.341 -34.048  1.00  0.00     0.102 A 
HETATM   29  O   UNL     1      -7.026  -3.150 -34.958  1.00  0.00    -0.346 OA
HETATM   30  O   UNL     1      -4.264  -3.542 -34.160  1.00  0.00    -0.346 OA
HETATM   31  C   UNL     1      -4.183  -1.274 -33.536  1.00  0.00     0.040 A 
HETATM   32  C   UNL     1      -5.192  -4.618 -34.338  1.00  0.00     0.202 C 
HETATM   33  C   UNL     1      -6.230  -4.260 -35.390  1.00  0.00     0.202 C 
HETATM   34  C   UNL     1      -4.794  -0.030 -33.357  1.00  0.00     0.012 A 
ENDBRANCH   1  25
TORSDOF 8
ENDMDL
MODEL 8
REMARK VINA RESULT:      -8.6      1.674      6.371
REMARK  8 active torsions:
REMARK  status: ('A' for Active; 'I' for Inactive)
REMARK    1  A    between atoms: C_2  and  C_3 
REMARK    2  A    between atoms: C_5  and  C_6 
REMARK       I    between atoms: C_6  and  N_7 
REMARK    3  A    between atoms: N_7  and  C_8 
REMARK    4  A    between atoms: C_8  and  C_9 
REMARK    5  A    between atoms: C_9  and  N_10 
REMARK    6  A    between atoms: C_9  and  C_20 
REMARK       I    between atoms: N_10  and  C_11 
REMARK    7  A    between atoms: C_11  and  C_12 
REMARK    8  A    between atoms: C_14  and  C_15 
ROOT
HETATM    1  C   UNL     1      -6.161   2.880 -33.106  1.00  0.00     0.136 C 
ENDROOT
BRANCH   1   2
HETATM    2  C   UNL     1      -7.124   3.709 -33.992  1.00  0.00     0.153 C 
BRANCH   2   3
HETATM    3  N   UNL     1      -8.526   3.462 -33.707  1.00  0.00    -0.353 N 
HETATM    4  C   UNL     1      -9.183   2.334 -34.145  1.00  0.00     0.275 C 
HETATM    5  O   UNL     1      -8.613   1.455 -34.786  1.00  0.00    -0.265 OA
HETATM    6  H   UNL     1      -9.074   4.192 -33.266  1.00  0.00     0.162 HD
BRANCH   4   7
HETATM    7  C   UNL     1     -10.583   2.286 -33.783  1.00  0.00     0.143 A 
HETATM    8  O   UNL     1     -11.407   1.372 -34.389  1.00  0.00    -0.310 OA
HETATM    9  C   UNL     1     -12.656   1.547 -33.870  1.00  0.00     0.053 A 
HETATM   10  C   UNL     1     -12.646   2.566 -32.942  1.00  0.00     0.036 A 
HETATM   11  C   UNL     1     -11.313   3.037 -32.882  1.00  0.00     0.045 A 
BRANCH   9  12
HETATM   12  C   UNL     1     -13.718   0.648 -34.385  1.00  0.00     0.060 C 
HETATM   13  C   UNL     1     -15.088   1.045 -33.864  1.00  0.00     0.012 C 
ENDBRANCH   9  12
ENDBRANCH   4   7
ENDBRANCH   2   3
ENDBRANCH   1   2
BRANCH   1  14
HETATM   14  N   UNL     1      -5.918   1.505 -33.539  1.00  0.00    -0.345 N 
HETATM   15  C   UNL     1      -6.062   0.376 -32.767  1.00  0.00     0.276 C 
HETATM   16  O   UNL     1      -6.287   0.409 -31.561  1.00  0.00    -0.265 OA
HETATM   17  H   UNL     1      -5.822   1.345 -34.534  1.00  0.00     0.163 HD
BRANCH  15  18
HETATM   18  C   UNL     1      -5.919  -0.862 -33.507  1.00  0.00     0.143 A 
HETATM   19  O   UNL     1      -4.855  -1.689 -33.247  1.00  0.00    -0.310 OA
HETATM   20  C   UNL     1      -4.970  -2.765 -34.077  1.00  0.00     0.053 A 
HETATM   21  C   UNL     1      -6.093  -2.642 -34.865  1.00  0.00     0.036 A 
HETATM   22  C   UNL     1      -6.701  -1.417 -34.502  1.00  0.00     0.045 A 
BRANCH  20  23
HETATM   23  C   UNL     1      -3.915  -3.804 -33.967  1.00  0.00     0.060 C 
HETATM   24  C   UNL     1      -4.489  -5.203 -34.126  1.00  0.00     0.012 C 
ENDBRANCH  20  23
ENDBRANCH  15  18
ENDBRANCH   1  14
BRANCH   1  25
HETATM   25  C   UNL     1      -4.851   3.610 -32.856  1.00  0.00    -0.031 A 
HETATM   26  C   UNL     1      -4.515   4.729 -33.638  1.00  0.00     0.049 A 
HETATM   27  C   UNL     1      -3.306   5.397 -33.441  1.00  0.00     0.102 A 
HETATM   28  C   UNL     1      -2.405   4.944 -32.475  1.00  0.00     0.102 A 
HETATM   29  O   UNL     1      -3.066   6.482 -34.245  1.00  0.00    -0.346 OA
HETATM   30  O   UNL     1      -1.180   5.523 -32.259  1.00  0.00    -0.346 OA
HETATM   31  C   UNL     1      -2.733   3.854 -31.674  1.00  0.00     0.040 A 
HETATM   32  C   UNL     1      -0.808   6.367 -33.354  1.00  0.00     0.202 C 
HETATM   33  C   UNL     1      -1.969   7.262 -33.757  1.00  0.00     0.202 C 
HETATM   34  C   UNL     1      -3.948   3.189 -31.864  1.00  0.00     0.012 A 
ENDBRANCH   1  25
TORSDOF 8
ENDMDL
MODEL 9
REMARK VINA RESULT:      -8.3      2.041      6.752
REMARK  8 active torsions:
REMARK  status: ('A' for Active; 'I' for Inactive)
REMARK    1  A    between atoms: C_2  and  C_3 
REMARK    2  A    between atoms: C_5  and  C_6 
REMARK       I    between atoms: C_6  and  N_7 
REMARK    3  A    between atoms: N_7  and  C_8 
REMARK    4  A    between atoms: C_8  and  C_9 
REMARK    5  A    between atoms: C_9  and  N_10 
REMARK    6  A    between atoms: C_9  and  C_20 
REMARK       I    between atoms: N_10  and  C_11 
REMARK    7  A    between atoms: C_11  and  C_12 
REMARK    8  A    between atoms: C_14  and  C_15 
ROOT
HETATM    1  C   UNL     1      -5.879   3.157 -32.526  1.00  0.00     0.136 C 
ENDROOT
BRANCH   1   2
HETATM    2  C   UNL     1      -6.716   3.953 -33.559  1.00  0.00     0.153 C 
BRANCH   2   3
HETATM    3  N   UNL     1      -8.039   3.400 -33.779  1.00  0.00    -0.353 N 
HETATM    4  C   UNL     1      -9.066   4.132 -34.330  1.00  0.00     0.275 C 
HETATM    5  O   UNL     1      -8.916   5.297 -34.690  1.00  0.00    -0.265 OA
HETATM    6  H   UNL     1      -8.253   2.477 -33.416  1.00  0.00     0.162 HD
BRANCH   4   7
HETATM    7  C   UNL     1     -10.316   3.411 -34.440  1.00  0.00     0.143 A 
HETATM    8  O   UNL     1     -10.444   2.182 -33.846  1.00  0.00    -0.310 OA
HETATM    9  C   UNL     1     -11.704   1.735 -34.109  1.00  0.00     0.053 A 
HETATM   10  C   UNL     1     -12.388   2.659 -34.869  1.00  0.00     0.036 A 
HETATM   11  C   UNL     1     -11.498   3.739 -35.078  1.00  0.00     0.045 A 
BRANCH   9  12
HETATM   12  C   UNL     1     -12.066   0.410 -33.549  1.00  0.00     0.060 C 
HETATM   13  C   UNL     1     -13.501   0.035 -33.878  1.00  0.00     0.012 C 
ENDBRANCH   9  12
ENDBRANCH   4   7
ENDBRANCH   2   3
ENDBRANCH   1   2
BRANCH   1  14
HETATM   14  N   UNL     1      -5.581   1.770 -32.876  1.00  0.00    -0.345 N 
HETATM   15  C   UNL     1      -6.401   0.687 -32.662  1.00  0.00     0.276 C 
HETATM   16  O   UNL     1      -7.441   0.748 -32.016  1.00  0.00    -0.265 OA
HETATM   17  H   UNL     1      -4.798   1.610 -33.498  1.00  0.00     0.163 HD
BRANCH  15  18
HETATM   18  C   UNL     1      -5.920  -0.540 -33.266  1.00  0.00     0.143 A 
HETATM   19  O   UNL     1      -6.819  -1.442 -33.779  1.00  0.00    -0.310 OA
HETATM   20  C   UNL     1      -6.100  -2.488 -34.276  1.00  0.00     0.053 A 
HETATM   21  C   UNL     1      -4.752  -2.271 -34.092  1.00  0.00     0.036 A 
HETATM   22  C   UNL     1      -4.637  -1.021 -33.439  1.00  0.00     0.045 A 
BRANCH  20  23
HETATM   23  C   UNL     1      -6.876  -3.596 -34.890  1.00  0.00     0.060 C 
HETATM   24  C   UNL     1      -5.992  -4.794 -35.198  1.00  0.00     0.012 C 
ENDBRANCH  20  23
ENDBRANCH  15  18
ENDBRANCH   1  14
BRANCH   1  25
HETATM   25  C   UNL     1      -4.614   3.901 -32.127  1.00  0.00    -0.031 A 
HETATM   26  C   UNL     1      -4.686   4.954 -31.198  1.00  0.00     0.049 A 
HETATM   27  C   UNL     1      -3.542   5.664 -30.839  1.00  0.00     0.102 A 
HETATM   28  C   UNL     1      -2.311   5.350 -31.419  1.00  0.00     0.102 A 
HETATM   29  O   UNL     1      -3.705   6.670 -29.920  1.00  0.00    -0.346 OA
HETATM   30  O   UNL     1      -1.154   6.036 -31.149  1.00  0.00    -0.346 OA
HETATM   31  C   UNL     1      -2.217   4.294 -32.321  1.00  0.00     0.040 A 
HETATM   32  C   UNL     1      -1.434   7.292 -30.520  1.00  0.00     0.202 C 
HETATM   33  C   UNL     1      -2.447   7.114 -29.400  1.00  0.00     0.202 C 
HETATM   34  C   UNL     1      -3.362   3.575 -32.675  1.00  0.00     0.012 A 
ENDBRANCH   1  25
TORSDOF 8
ENDMDL
MODEL 10
REMARK VINA RESULT:      -8.3      1.917      7.421
REMARK  8 active torsions:
REMARK  status: ('A' for Active; 'I' for Inactive)
REMARK    1  A    between atoms: C_2  and  C_3 
REMARK    2  A    between atoms: C_5  and  C_6 
REMARK       I    between atoms: C_6  and  N_7 
REMARK    3  A    between atoms: N_7  and  C_8 
REMARK    4  A    between atoms: C_8  and  C_9 
REMARK    5  A    between atoms: C_9  and  N_10 
REMARK    6  A    between atoms: C_9  and  C_20 
REMARK       I    between atoms: N_10  and  C_11 
REMARK    7  A    between atoms: C_11  and  C_12 
REMARK    8  A    between atoms: C_14  and  C_15 
ROOT
HETATM    1  C   UNL     1      -6.808   1.111 -33.101  1.00  0.00     0.136 C 
ENDROOT
BRANCH   1   2
HETATM    2  C   UNL     1      -5.996   2.359 -33.530  1.00  0.00     0.153 C 
BRANCH   2   3
HETATM    3  N   UNL     1      -5.784   3.308 -32.452  1.00  0.00    -0.353 N 
HETATM    4  C   UNL     1      -4.663   4.103 -32.374  1.00  0.00     0.275 C 
HETATM    5  O   UNL     1      -3.781   4.072 -33.229  1.00  0.00    -0.265 OA
HETATM    6  H   UNL     1      -6.428   3.313 -31.669  1.00  0.00     0.162 HD
BRANCH   4   7
HETATM    7  C   UNL     1      -4.624   4.963 -31.211  1.00  0.00     0.143 A 
HETATM    8  O   UNL     1      -5.606   4.858 -30.259  1.00  0.00    -0.310 OA
HETATM    9  C   UNL     1      -5.329   5.775 -29.290  1.00  0.00     0.053 A 
HETATM   10  C   UNL     1      -4.183   6.473 -29.609  1.00  0.00     0.036 A 
HETATM   11  C   UNL     1      -3.728   5.946 -30.841  1.00  0.00     0.045 A 
BRANCH   9  12
HETATM   12  C   UNL     1      -6.270   5.833 -28.145  1.00  0.00     0.060 C 
HETATM   13  C   UNL     1      -7.700   5.564 -28.581  1.00  0.00     0.012 C 
ENDBRANCH   9  12
ENDBRANCH   4   7
ENDBRANCH   2   3
ENDBRANCH   1   2
BRANCH   1  14
HETATM   14  N   UNL     1      -8.208   1.085 -33.520  1.00  0.00    -0.345 N 
HETATM   15  C   UNL     1      -9.282   1.527 -32.784  1.00  0.00     0.276 C 
HETATM   16  O   UNL     1      -9.195   1.877 -31.611  1.00  0.00    -0.265 OA
HETATM   17  H   UNL     1      -8.393   0.908 -34.500  1.00  0.00     0.163 HD
BRANCH  15  18
HETATM   18  C   UNL     1     -10.532   1.537 -33.517  1.00  0.00     0.143 A 
HETATM   19  O   UNL     1     -11.504   0.616 -33.215  1.00  0.00    -0.310 OA
HETATM   20  C   UNL     1     -12.556   0.854 -34.048  1.00  0.00     0.053 A 
HETATM   21  C   UNL     1     -12.275   1.915 -34.881  1.00  0.00     0.036 A 
HETATM   22  C   UNL     1     -10.972   2.351 -34.543  1.00  0.00     0.045 A 
BRANCH  20  23
HETATM   23  C   UNL     1     -13.738  -0.033 -33.896  1.00  0.00     0.060 C 
HETATM   24  C   UNL     1     -15.020   0.666 -34.322  1.00  0.00     0.012 C 
ENDBRANCH  20  23
ENDBRANCH  15  18
ENDBRANCH   1  14
BRANCH   1  25
HETATM   25  C   UNL     1      -6.103  -0.181 -33.479  1.00  0.00    -0.031 A 
HETATM   26  C   UNL     1      -6.846  -1.256 -33.998  1.00  0.00     0.049 A 
HETATM   27  C   UNL     1      -6.222  -2.459 -34.328  1.00  0.00     0.102 A 
HETATM   28  C   UNL     1      -4.849  -2.615 -34.122  1.00  0.00     0.102 A 
HETATM   29  O   UNL     1      -7.025  -3.449 -34.834  1.00  0.00    -0.346 OA
HETATM   30  O   UNL     1      -4.178  -3.783 -34.379  1.00  0.00    -0.346 OA
HETATM   31  C   UNL     1      -4.095  -1.553 -33.634  1.00  0.00     0.040 A 
HETATM   32  C   UNL     1      -5.088  -4.881 -34.515  1.00  0.00     0.202 C 
HETATM   33  C   UNL     1      -6.250  -4.503 -35.419  1.00  0.00     0.202 C 
HETATM   34  C   UNL     1      -4.717  -0.343 -33.312  1.00  0.00     0.012 A 
ENDBRANCH   1  25
TORSDOF 8
ENDMDL
