MODEL 1
REMARK VINA RESULT:      -9.3      0.000      0.000
REMARK  5 active torsions:
REMARK  status: ('A' for Active; 'I' for Inactive)
REMARK    1  A    between atoms: C_6  and  O_7 
REMARK    2  A    between atoms: O_7  and  C_8 
REMARK    3  A    between atoms: C_8  and  C_9 
REMARK    4  A    between atoms: C_11  and  C_12 
REMARK       I    between atoms: C_12  and  N_13 
REMARK    5  A    between atoms: N_13  and  C_14 
ROOT
HETATM    1  C   UNL     1      -3.409   2.885 -32.247  1.00  0.00     0.078 A 
HETATM    2  O   UNL     1      -2.451   3.307 -31.376  1.00  0.00    -0.307 OA
HETATM    3  C   UNL     1      -1.961   4.504 -31.829  1.00  0.00     0.143 A 
HETATM    4  C   UNL     1      -2.611   4.833 -33.008  1.00  0.00     0.045 A 
HETATM    5  C   UNL     1      -3.539   3.792 -33.274  1.00  0.00     0.038 A 
ENDROOT
BRANCH   3   6
HETATM    6  C   UNL     1      -0.921   5.137 -31.032  1.00  0.00     0.279 C 
HETATM    7  N   UNL     1      -1.391   5.900 -29.966  1.00  0.00    -0.321 N 
HETATM    8  H   UNL     1      -2.394   5.937 -29.847  1.00  0.00     0.169 HD
HETATM    9  O   UNL     1       0.273   5.008 -31.294  1.00  0.00    -0.265 OA
BRANCH   7  10
HETATM   10  C   UNL     1      -0.627   6.660 -29.054  1.00  0.00     0.035 A 
HETATM   11  C   UNL     1      -0.857   8.012 -28.788  1.00  0.00     0.039 A 
HETATM   12  C   UNL     1      -0.073   8.657 -27.843  1.00  0.00    -0.022 A 
HETATM   13  C   UNL     1       0.939   7.986 -27.159  1.00  0.00    -0.025 A 
HETATM   14  C   UNL     1      -0.187  10.069 -27.383  1.00  0.00     0.274 C 
HETATM   15  C   UNL     1       1.584   8.890 -26.165  1.00  0.00     0.273 C 
HETATM   16  C   UNL     1       1.196   6.651 -27.415  1.00  0.00     0.012 A 
HETATM   17  N   UNL     1       0.994  10.270 -26.439  1.00  0.00    -0.067 N 
HETATM   18  H   UNL     1       1.701  10.783 -26.975  1.00  0.00     0.280 HD
HETATM   19  C   UNL     1       0.662  11.049 -25.215  1.00  0.00     0.270 C 
HETATM   20  C   UNL     1       0.410   5.993 -28.370  1.00  0.00     0.030 A 
ENDBRANCH   7  10
ENDBRANCH   3   6
BRANCH   1  21
HETATM   21  C   UNL     1      -4.081   1.599 -31.923  1.00  0.00     0.240 C 
BRANCH  21  22
HETATM   22  O   UNL     1      -5.064   1.398 -32.934  1.00  0.00    -0.344 OA
BRANCH  22  23
HETATM   23  C   UNL     1      -5.220   0.123 -33.415  1.00  0.00     0.075 A 
HETATM   24  C   UNL     1      -6.295  -0.066 -34.300  1.00  0.00    -0.028 A 
HETATM   25  C   UNL     1      -6.546  -1.349 -34.819  1.00  0.00     0.016 A 
HETATM   26  C   UNL     1      -7.224   1.062 -34.656  1.00  0.00     0.051 C 
HETATM   27  C   UNL     1      -5.733  -2.436 -34.479  1.00  0.00    -0.061 A 
HETATM   28  C   UNL     1      -5.988  -3.791 -35.069  1.00  0.00     0.048 C 
HETATM   29  C   UNL     1      -4.648  -2.226 -33.626  1.00  0.00     0.009 A 
HETATM   30  C   UNL     1      -4.396  -0.959 -33.093  1.00  0.00     0.038 A 
ENDBRANCH  22  23
ENDBRANCH  21  22
ENDBRANCH   1  21
TORSDOF 5
ENDMDL
MODEL 2
REMARK VINA RESULT:      -9.3      1.445      2.303
REMARK  5 active torsions:
REMARK  status: ('A' for Active; 'I' for Inactive)
REMARK    1  A    between atoms: C_6  and  O_7 
REMARK    2  A    between atoms: O_7  and  C_8 
REMARK    3  A    between atoms: C_8  and  C_9 
REMARK    4  A    between atoms: C_11  and  C_12 
REMARK       I    between atoms: C_12  and  N_13 
REMARK    5  A    between atoms: N_13  and  C_14 
ROOT
HETATM    1  C   UNL     1      -5.637   3.149 -33.517  1.00  0.00     0.078 A 
HETATM    2  O   UNL     1      -4.644   3.219 -32.589  1.00  0.00    -0.307 OA
HETATM    3  C   UNL     1      -4.012   4.427 -32.732  1.00  0.00     0.143 A 
HETATM    4  C   UNL     1      -4.608   5.120 -33.773  1.00  0.00     0.045 A 
HETATM    5  C   UNL     1      -5.650   4.298 -34.276  1.00  0.00     0.038 A 
ENDROOT
BRANCH   3   6
HETATM    6  C   UNL     1      -2.911   4.709 -31.822  1.00  0.00     0.279 C 
HETATM    7  N   UNL     1      -2.768   6.052 -31.485  1.00  0.00    -0.321 N 
HETATM    8  H   UNL     1      -3.435   6.693 -31.893  1.00  0.00     0.169 HD
HETATM    9  O   UNL     1      -2.169   3.825 -31.402  1.00  0.00    -0.265 OA
BRANCH   7  10
HETATM   10  C   UNL     1      -1.773   6.628 -30.667  1.00  0.00     0.035 A 
HETATM   11  C   UNL     1      -2.036   7.232 -29.434  1.00  0.00     0.039 A 
HETATM   12  C   UNL     1      -0.979   7.734 -28.689  1.00  0.00    -0.022 A 
HETATM   13  C   UNL     1       0.335   7.649 -29.144  1.00  0.00    -0.025 A 
HETATM   14  C   UNL     1      -1.040   8.366 -27.342  1.00  0.00     0.274 C 
HETATM   15  C   UNL     1       1.275   8.205 -28.130  1.00  0.00     0.273 C 
HETATM   16  C   UNL     1       0.621   7.069 -30.367  1.00  0.00     0.012 A 
HETATM   17  N   UNL     1       0.385   8.834 -27.063  1.00  0.00    -0.067 N 
HETATM   18  H   UNL     1       0.390   9.844 -27.242  1.00  0.00     0.280 HD
HETATM   19  C   UNL     1       0.837   8.592 -25.667  1.00  0.00     0.270 C 
HETATM   20  C   UNL     1      -0.442   6.563 -31.128  1.00  0.00     0.030 A 
ENDBRANCH   7  10
ENDBRANCH   3   6
BRANCH   1  21
HETATM   21  C   UNL     1      -6.459   1.910 -33.518  1.00  0.00     0.240 C 
BRANCH  21  22
HETATM   22  O   UNL     1      -5.613   0.870 -33.038  1.00  0.00    -0.344 OA
BRANCH  22  23
HETATM   23  C   UNL     1      -5.790  -0.381 -33.570  1.00  0.00     0.075 A 
HETATM   24  C   UNL     1      -4.664  -1.221 -33.538  1.00  0.00    -0.028 A 
HETATM   25  C   UNL     1      -4.749  -2.513 -34.087  1.00  0.00     0.016 A 
HETATM   26  C   UNL     1      -3.349  -0.747 -32.983  1.00  0.00     0.051 C 
HETATM   27  C   UNL     1      -5.941  -2.979 -34.654  1.00  0.00    -0.061 A 
HETATM   28  C   UNL     1      -6.030  -4.371 -35.202  1.00  0.00     0.048 C 
HETATM   29  C   UNL     1      -7.061  -2.146 -34.647  1.00  0.00     0.009 A 
HETATM   30  C   UNL     1      -6.987  -0.856 -34.116  1.00  0.00     0.038 A 
ENDBRANCH  22  23
ENDBRANCH  21  22
ENDBRANCH   1  21
TORSDOF 5
ENDMDL
MODEL 3
REMARK VINA RESULT:      -9.0      1.841      2.635
REMARK  5 active torsions:
REMARK  status: ('A' for Active; 'I' for Inactive)
REMARK    1  A    between atoms: C_6  and  O_7 
REMARK    2  A    between atoms: O_7  and  C_8 
REMARK    3  A    between atoms: C_8  and  C_9 
REMARK    4  A    between atoms: C_11  and  C_12 
REMARK       I    between atoms: C_12  and  N_13 
REMARK    5  A    between atoms: N_13  and  C_14 
ROOT
HETATM    1  C   UNL     1      -4.826   5.137 -34.120  1.00  0.00     0.078 A 
HETATM    2  O   UNL     1      -4.254   5.960 -33.198  1.00  0.00    -0.307 OA
HETATM    3  C   UNL     1      -2.985   6.257 -33.622  1.00  0.00     0.143 A 
HETATM    4  C   UNL     1      -2.751   5.601 -34.820  1.00  0.00     0.045 A 
HETATM    5  C   UNL     1      -3.933   4.883 -35.137  1.00  0.00     0.038 A 
ENDROOT
BRANCH   3   6
HETATM    6  C   UNL     1      -2.194   7.138 -32.774  1.00  0.00     0.279 C 
HETATM    7  N   UNL     1      -1.970   6.654 -31.488  1.00  0.00    -0.321 N 
HETATM    8  H   UNL     1      -2.367   5.750 -31.271  1.00  0.00     0.169 HD
HETATM    9  O   UNL     1      -1.774   8.222 -33.170  1.00  0.00    -0.265 OA
BRANCH   7  10
HETATM   10  C   UNL     1      -1.283   7.301 -30.438  1.00  0.00     0.035 A 
HETATM   11  C   UNL     1      -1.823   8.348 -29.686  1.00  0.00     0.039 A 
HETATM   12  C   UNL     1      -1.077   8.889 -28.649  1.00  0.00    -0.022 A 
HETATM   13  C   UNL     1       0.196   8.411 -28.344  1.00  0.00    -0.025 A 
HETATM   14  C   UNL     1      -1.486   9.967 -27.706  1.00  0.00     0.274 C 
HETATM   15  C   UNL     1       0.748   9.121 -27.156  1.00  0.00     0.273 C 
HETATM   16  C   UNL     1       0.759   7.386 -29.082  1.00  0.00     0.012 A 
HETATM   17  N   UNL     1      -0.245  10.243 -26.864  1.00  0.00    -0.067 N 
HETATM   18  H   UNL     1       0.170  11.100 -27.244  1.00  0.00     0.280 HD
HETATM   19  C   UNL     1      -0.530  10.448 -25.418  1.00  0.00     0.270 C 
HETATM   20  C   UNL     1       0.013   6.836 -30.134  1.00  0.00     0.030 A 
ENDBRANCH   7  10
ENDBRANCH   3   6
BRANCH   1  21
HETATM   21  C   UNL     1      -6.223   4.707 -33.851  1.00  0.00     0.240 C 
BRANCH  21  22
HETATM   22  O   UNL     1      -6.139   3.647 -32.904  1.00  0.00    -0.344 OA
BRANCH  22  23
HETATM   23  C   UNL     1      -6.233   2.366 -33.383  1.00  0.00     0.075 A 
HETATM   24  C   UNL     1      -5.282   1.458 -32.888  1.00  0.00    -0.028 A 
HETATM   25  C   UNL     1      -5.288   0.130 -33.348  1.00  0.00     0.016 A 
HETATM   26  C   UNL     1      -4.215   1.893 -31.921  1.00  0.00     0.051 C 
HETATM   27  C   UNL     1      -6.235  -0.307 -34.281  1.00  0.00    -0.061 A 
HETATM   28  C   UNL     1      -6.256  -1.735 -34.735  1.00  0.00     0.048 C 
HETATM   29  C   UNL     1      -7.196   0.597 -34.738  1.00  0.00     0.009 A 
HETATM   30  C   UNL     1      -7.193   1.924 -34.299  1.00  0.00     0.038 A 
ENDBRANCH  22  23
ENDBRANCH  21  22
ENDBRANCH   1  21
TORSDOF 5
ENDMDL
MODEL 4
REMARK VINA RESULT:      -9.0      3.192     10.932
REMARK  5 active torsions:
REMARK  status: ('A' for Active; 'I' for Inactive)
REMARK    1  A    between atoms: C_6  and  O_7 
REMARK    2  A    between atoms: O_7  and  C_8 
REMARK    3  A    between atoms: C_8  and  C_9 
REMARK    4  A    between atoms: C_11  and  C_12 
REMARK       I    between atoms: C_12  and  N_13 
REMARK    5  A    between atoms: N_13  and  C_14 
ROOT
HETATM    1  C   UNL     1      -4.566   5.653 -30.500  1.00  0.00     0.078 A 
HETATM    2  O   UNL     1      -4.597   4.395 -31.021  1.00  0.00    -0.307 OA
HETATM    3  C   UNL     1      -5.491   3.654 -30.292  1.00  0.00     0.143 A 
HETATM    4  C   UNL     1      -6.018   4.453 -29.290  1.00  0.00     0.045 A 
HETATM    5  C   UNL     1      -5.423   5.735 -29.425  1.00  0.00     0.038 A 
ENDROOT
BRANCH   3   6
HETATM    6  C   UNL     1      -5.681   2.267 -30.692  1.00  0.00     0.279 C 
HETATM    7  N   UNL     1      -5.754   2.067 -32.068  1.00  0.00    -0.321 N 
HETATM    8  H   UNL     1      -5.664   2.889 -32.648  1.00  0.00     0.169 HD
HETATM    9  O   UNL     1      -5.777   1.358 -29.871  1.00  0.00    -0.265 OA
BRANCH   7  10
HETATM   10  C   UNL     1      -5.978   0.848 -32.744  1.00  0.00     0.035 A 
HETATM   11  C   UNL     1      -4.970  -0.077 -33.029  1.00  0.00     0.039 A 
HETATM   12  C   UNL     1      -5.303  -1.264 -33.665  1.00  0.00    -0.022 A 
HETATM   13  C   UNL     1      -6.618  -1.550 -34.026  1.00  0.00    -0.025 A 
HETATM   14  C   UNL     1      -4.394  -2.392 -34.011  1.00  0.00     0.274 C 
HETATM   15  C   UNL     1      -6.708  -2.907 -34.635  1.00  0.00     0.273 C 
HETATM   16  C   UNL     1      -7.631  -0.644 -33.769  1.00  0.00     0.012 A 
HETATM   17  N   UNL     1      -5.262  -3.368 -34.798  1.00  0.00    -0.067 N 
HETATM   18  H   UNL     1      -5.025  -3.225 -35.786  1.00  0.00     0.280 HD
HETATM   19  C   UNL     1      -5.031  -4.796 -34.452  1.00  0.00     0.270 C 
HETATM   20  C   UNL     1      -7.303   0.559 -33.130  1.00  0.00     0.030 A 
ENDBRANCH   7  10
ENDBRANCH   3   6
BRANCH   1  21
HETATM   21  C   UNL     1      -3.660   6.625 -31.166  1.00  0.00     0.240 C 
BRANCH  21  22
HETATM   22  O   UNL     1      -2.340   6.115 -31.006  1.00  0.00    -0.344 OA
BRANCH  22  23
HETATM   23  C   UNL     1      -1.498   6.799 -30.168  1.00  0.00     0.075 A 
HETATM   24  C   UNL     1      -0.141   6.441 -30.244  1.00  0.00    -0.028 A 
HETATM   25  C   UNL     1       0.788   7.073 -29.399  1.00  0.00     0.016 A 
HETATM   26  C   UNL     1       0.331   5.350 -31.165  1.00  0.00     0.051 C 
HETATM   27  C   UNL     1       0.386   8.062 -28.495  1.00  0.00    -0.061 A 
HETATM   28  C   UNL     1       1.393   8.755 -27.627  1.00  0.00     0.048 C 
HETATM   29  C   UNL     1      -0.960   8.432 -28.456  1.00  0.00     0.009 A 
HETATM   30  C   UNL     1      -1.896   7.803 -29.280  1.00  0.00     0.038 A 
ENDBRANCH  22  23
ENDBRANCH  21  22
ENDBRANCH   1  21
TORSDOF 5
ENDMDL
MODEL 5
REMARK VINA RESULT:      -8.9      6.918     10.836
REMARK  5 active torsions:
REMARK  status: ('A' for Active; 'I' for Inactive)
REMARK    1  A    between atoms: C_6  and  O_7 
REMARK    2  A    between atoms: O_7  and  C_8 
REMARK    3  A    between atoms: C_8  and  C_9 
REMARK    4  A    between atoms: C_11  and  C_12 
REMARK       I    between atoms: C_12  and  N_13 
REMARK    5  A    between atoms: N_13  and  C_14 
ROOT
HETATM    1  C   UNL     1      -5.976   2.923 -33.299  1.00  0.00     0.078 A 
HETATM    2  O   UNL     1      -7.316   2.689 -33.335  1.00  0.00    -0.307 OA
HETATM    3  C   UNL     1      -7.940   3.842 -33.736  1.00  0.00     0.143 A 
HETATM    4  C   UNL     1      -6.978   4.818 -33.942  1.00  0.00     0.045 A 
HETATM    5  C   UNL     1      -5.719   4.227 -33.660  1.00  0.00     0.038 A 
ENDROOT
BRANCH   3   6
HETATM    6  C   UNL     1      -9.391   3.805 -33.847  1.00  0.00     0.279 C 
HETATM    7  N   UNL     1      -9.978   2.639 -33.364  1.00  0.00    -0.321 N 
HETATM    8  H   UNL     1      -9.352   1.943 -32.983  1.00  0.00     0.169 HD
HETATM    9  O   UNL     1     -10.032   4.730 -34.339  1.00  0.00    -0.265 OA
BRANCH   7  10
HETATM   10  C   UNL     1     -11.349   2.301 -33.379  1.00  0.00     0.035 A 
HETATM   11  C   UNL     1     -12.286   2.823 -32.484  1.00  0.00     0.039 A 
HETATM   12  C   UNL     1     -13.618   2.455 -32.609  1.00  0.00    -0.022 A 
HETATM   13  C   UNL     1     -14.037   1.576 -33.606  1.00  0.00    -0.025 A 
HETATM   14  C   UNL     1     -14.770   2.931 -31.795  1.00  0.00     0.274 C 
HETATM   15  C   UNL     1     -15.516   1.398 -33.556  1.00  0.00     0.273 C 
HETATM   16  C   UNL     1     -13.126   1.034 -34.496  1.00  0.00     0.012 A 
HETATM   17  N   UNL     1     -15.961   2.114 -32.284  1.00  0.00    -0.067 N 
HETATM   18  H   UNL     1     -16.110   1.383 -31.580  1.00  0.00     0.280 HD
HETATM   19  C   UNL     1     -17.214   2.901 -32.430  1.00  0.00     0.270 C 
HETATM   20  C   UNL     1     -11.779   1.398 -34.373  1.00  0.00     0.030 A 
ENDBRANCH   7  10
ENDBRANCH   3   6
BRANCH   1  21
HETATM   21  C   UNL     1      -5.112   1.781 -32.898  1.00  0.00     0.240 C 
BRANCH  21  22
HETATM   22  O   UNL     1      -5.994   0.729 -32.520  1.00  0.00    -0.344 OA
BRANCH  22  23
HETATM   23  C   UNL     1      -5.880  -0.460 -33.194  1.00  0.00     0.075 A 
HETATM   24  C   UNL     1      -7.087  -1.026 -33.639  1.00  0.00    -0.028 A 
HETATM   25  C   UNL     1      -7.064  -2.259 -34.315  1.00  0.00     0.016 A 
HETATM   26  C   UNL     1      -8.411  -0.373 -33.353  1.00  0.00     0.051 C 
HETATM   27  C   UNL     1      -5.859  -2.924 -34.564  1.00  0.00    -0.061 A 
HETATM   28  C   UNL     1      -5.845  -4.219 -35.319  1.00  0.00     0.048 C 
HETATM   29  C   UNL     1      -4.665  -2.332 -34.147  1.00  0.00     0.009 A 
HETATM   30  C   UNL     1      -4.674  -1.114 -33.463  1.00  0.00     0.038 A 
ENDBRANCH  22  23
ENDBRANCH  21  22
ENDBRANCH   1  21
TORSDOF 5
ENDMDL
MODEL 6
REMARK VINA RESULT:      -8.9      4.121     10.386
REMARK  5 active torsions:
REMARK  status: ('A' for Active; 'I' for Inactive)
REMARK    1  A    between atoms: C_6  and  O_7 
REMARK    2  A    between atoms: O_7  and  C_8 
REMARK    3  A    between atoms: C_8  and  C_9 
REMARK    4  A    between atoms: C_11  and  C_12 
REMARK       I    between atoms: C_12  and  N_13 
REMARK    5  A    between atoms: N_13  and  C_14 
ROOT
HETATM    1  C   UNL     1      -6.641   5.694 -31.638  1.00  0.00     0.078 A 
HETATM    2  O   UNL     1      -6.374   4.417 -32.029  1.00  0.00    -0.307 OA
HETATM    3  C   UNL     1      -7.351   3.602 -31.519  1.00  0.00     0.143 A 
HETATM    4  C   UNL     1      -8.237   4.375 -30.785  1.00  0.00     0.045 A 
HETATM    5  C   UNL     1      -7.779   5.716 -30.862  1.00  0.00     0.038 A 
ENDROOT
BRANCH   3   6
HETATM    6  C   UNL     1      -7.256   2.183 -31.829  1.00  0.00     0.279 C 
HETATM    7  N   UNL     1      -6.439   1.881 -32.915  1.00  0.00    -0.321 N 
HETATM    8  H   UNL     1      -5.993   2.663 -33.375  1.00  0.00     0.169 HD
HETATM    9  O   UNL     1      -7.860   1.331 -31.181  1.00  0.00    -0.265 OA
BRANCH   7  10
HETATM   10  C   UNL     1      -6.192   0.608 -33.473  1.00  0.00     0.035 A 
HETATM   11  C   UNL     1      -5.129  -0.214 -33.088  1.00  0.00     0.039 A 
HETATM   12  C   UNL     1      -4.998  -1.466 -33.672  1.00  0.00    -0.022 A 
HETATM   13  C   UNL     1      -5.901  -1.916 -34.633  1.00  0.00    -0.025 A 
HETATM   14  C   UNL     1      -3.974  -2.504 -33.369  1.00  0.00     0.274 C 
HETATM   15  C   UNL     1      -5.568  -3.308 -35.048  1.00  0.00     0.273 C 
HETATM   16  C   UNL     1      -6.953  -1.116 -35.041  1.00  0.00     0.012 A 
HETATM   17  N   UNL     1      -4.229  -3.614 -34.383  1.00  0.00    -0.067 N 
HETATM   18  H   UNL     1      -3.515  -3.503 -35.110  1.00  0.00     0.280 HD
HETATM   19  C   UNL     1      -4.126  -4.985 -33.814  1.00  0.00     0.270 C 
HETATM   20  C   UNL     1      -7.090   0.151 -34.459  1.00  0.00     0.030 A 
ENDBRANCH   7  10
ENDBRANCH   3   6
BRANCH   1  21
HETATM   21  C   UNL     1      -5.698   6.743 -32.105  1.00  0.00     0.240 C 
BRANCH  21  22
HETATM   22  O   UNL     1      -4.675   6.065 -32.829  1.00  0.00    -0.344 OA
BRANCH  22  23
HETATM   23  C   UNL     1      -3.377   6.305 -32.458  1.00  0.00     0.075 A 
HETATM   24  C   UNL     1      -2.527   5.186 -32.458  1.00  0.00    -0.028 A 
HETATM   25  C   UNL     1      -1.186   5.337 -32.064  1.00  0.00     0.016 A 
HETATM   26  C   UNL     1      -3.037   3.816 -32.811  1.00  0.00     0.051 C 
HETATM   27  C   UNL     1      -0.681   6.585 -31.685  1.00  0.00    -0.061 A 
HETATM   28  C   UNL     1       0.761   6.740 -31.304  1.00  0.00     0.048 C 
HETATM   29  C   UNL     1      -1.528   7.695 -31.724  1.00  0.00     0.009 A 
HETATM   30  C   UNL     1      -2.866   7.557 -32.101  1.00  0.00     0.038 A 
ENDBRANCH  22  23
ENDBRANCH  21  22
ENDBRANCH   1  21
TORSDOF 5
ENDMDL
MODEL 7
REMARK VINA RESULT:      -8.8      5.862      9.528
REMARK  5 active torsions:
REMARK  status: ('A' for Active; 'I' for Inactive)
REMARK    1  A    between atoms: C_6  and  O_7 
REMARK    2  A    between atoms: O_7  and  C_8 
REMARK    3  A    between atoms: C_8  and  C_9 
REMARK    4  A    between atoms: C_11  and  C_12 
REMARK       I    between atoms: C_12  and  N_13 
REMARK    5  A    between atoms: N_13  and  C_14 
ROOT
HETATM    1  C   UNL     1      -4.236   2.018 -32.622  1.00  0.00     0.078 A 
HETATM    2  O   UNL     1      -5.563   2.191 -32.878  1.00  0.00    -0.307 OA
HETATM    3  C   UNL     1      -5.793   3.531 -33.050  1.00  0.00     0.143 A 
HETATM    4  C   UNL     1      -4.597   4.212 -32.886  1.00  0.00     0.045 A 
HETATM    5  C   UNL     1      -3.600   3.240 -32.612  1.00  0.00     0.038 A 
ENDROOT
BRANCH   3   6
HETATM    6  C   UNL     1      -7.161   3.934 -33.341  1.00  0.00     0.279 C 
HETATM    7  N   UNL     1      -8.134   3.225 -32.642  1.00  0.00    -0.321 N 
HETATM    8  H   UNL     1      -7.803   2.513 -32.006  1.00  0.00     0.169 HD
HETATM    9  O   UNL     1      -7.422   4.824 -34.148  1.00  0.00    -0.265 OA
BRANCH   7  10
HETATM   10  C   UNL     1      -9.535   3.362 -32.749  1.00  0.00     0.035 A 
HETATM   11  C   UNL     1     -10.377   2.361 -33.242  1.00  0.00     0.039 A 
HETATM   12  C   UNL     1     -11.746   2.583 -33.270  1.00  0.00    -0.022 A 
HETATM   13  C   UNL     1     -12.296   3.781 -32.818  1.00  0.00    -0.025 A 
HETATM   14  C   UNL     1     -12.808   1.636 -33.707  1.00  0.00     0.274 C 
HETATM   15  C   UNL     1     -13.784   3.734 -32.900  1.00  0.00     0.273 C 
HETATM   16  C   UNL     1     -11.484   4.793 -32.339  1.00  0.00     0.012 A 
HETATM   17  N   UNL     1     -14.102   2.440 -33.643  1.00  0.00    -0.067 N 
HETATM   18  H   UNL     1     -14.317   2.709 -34.609  1.00  0.00     0.280 HD
HETATM   19  C   UNL     1     -15.257   1.683 -33.088  1.00  0.00     0.270 C 
HETATM   20  C   UNL     1     -10.099   4.578 -32.311  1.00  0.00     0.030 A 
ENDBRANCH   7  10
ENDBRANCH   3   6
BRANCH   1  21
HETATM   21  C   UNL     1      -3.775   0.620 -32.419  1.00  0.00     0.240 C 
BRANCH  21  22
HETATM   22  O   UNL     1      -4.946  -0.155 -32.178  1.00  0.00    -0.344 OA
BRANCH  22  23
HETATM   23  C   UNL     1      -5.173  -1.225 -33.005  1.00  0.00     0.075 A 
HETATM   24  C   UNL     1      -6.480  -1.339 -33.507  1.00  0.00    -0.028 A 
HETATM   25  C   UNL     1      -6.808  -2.423 -34.340  1.00  0.00     0.016 A 
HETATM   26  C   UNL     1      -7.555  -0.361 -33.123  1.00  0.00     0.051 C 
HETATM   27  C   UNL     1      -5.851  -3.382 -34.688  1.00  0.00    -0.061 A 
HETATM   28  C   UNL     1      -6.203  -4.512 -35.608  1.00  0.00     0.048 C 
HETATM   29  C   UNL     1      -4.547  -3.236 -34.210  1.00  0.00     0.009 A 
HETATM   30  C   UNL     1      -4.211  -2.171 -33.371  1.00  0.00     0.038 A 
ENDBRANCH  22  23
ENDBRANCH  21  22
ENDBRANCH   1  21
TORSDOF 5
ENDMDL
MODEL 8
REMARK VINA RESULT:      -8.8      1.518      2.034
REMARK  5 active torsions:
REMARK  status: ('A' for Active; 'I' for Inactive)
REMARK    1  A    between atoms: C_6  and  O_7 
REMARK    2  A    between atoms: O_7  and  C_8 
REMARK    3  A    between atoms: C_8  and  C_9 
REMARK    4  A    between atoms: C_11  and  C_12 
REMARK       I    between atoms: C_12  and  N_13 
REMARK    5  A    between atoms: N_13  and  C_14 
ROOT
HETATM    1  C   UNL     1      -4.257   3.390 -31.777  1.00  0.00     0.078 A 
HETATM    2  O   UNL     1      -4.025   4.487 -31.006  1.00  0.00    -0.307 OA
HETATM    3  C   UNL     1      -2.816   5.019 -31.373  1.00  0.00     0.143 A 
HETATM    4  C   UNL     1      -2.274   4.236 -32.379  1.00  0.00     0.045 A 
HETATM    5  C   UNL     1      -3.200   3.191 -32.637  1.00  0.00     0.038 A 
ENDROOT
BRANCH   3   6
HETATM    6  C   UNL     1      -2.378   6.214 -30.667  1.00  0.00     0.279 C 
HETATM    7  N   UNL     1      -1.395   5.991 -29.706  1.00  0.00    -0.321 N 
HETATM    8  H   UNL     1      -1.081   5.037 -29.597  1.00  0.00     0.169 HD
HETATM    9  O   UNL     1      -2.853   7.323 -30.902  1.00  0.00    -0.265 OA
BRANCH   7  10
HETATM   10  C   UNL     1      -0.813   6.942 -28.840  1.00  0.00     0.035 A 
HETATM   11  C   UNL     1      -1.466   7.480 -27.728  1.00  0.00     0.039 A 
HETATM   12  C   UNL     1      -0.789   8.380 -26.918  1.00  0.00    -0.022 A 
HETATM   13  C   UNL     1       0.524   8.758 -27.192  1.00  0.00    -0.025 A 
HETATM   14  C   UNL     1      -1.283   9.026 -25.671  1.00  0.00     0.274 C 
HETATM   15  C   UNL     1       1.031   9.682 -26.138  1.00  0.00     0.273 C 
HETATM   16  C   UNL     1       1.188   8.250 -28.295  1.00  0.00     0.012 A 
HETATM   17  N   UNL     1      -0.182  10.002 -25.271  1.00  0.00    -0.067 N 
HETATM   18  H   UNL     1      -0.507  10.930 -25.562  1.00  0.00     0.280 HD
HETATM   19  C   UNL     1       0.098  10.029 -23.810  1.00  0.00     0.270 C 
HETATM   20  C   UNL     1       0.510   7.343 -29.120  1.00  0.00     0.030 A 
ENDBRANCH   7  10
ENDBRANCH   3   6
BRANCH   1  21
HETATM   21  C   UNL     1      -5.537   2.672 -31.543  1.00  0.00     0.240 C 
BRANCH  21  22
HETATM   22  O   UNL     1      -5.186   1.344 -31.166  1.00  0.00    -0.344 OA
BRANCH  22  23
HETATM   23  C   UNL     1      -5.438   0.345 -32.071  1.00  0.00     0.075 A 
HETATM   24  C   UNL     1      -4.397  -0.578 -32.264  1.00  0.00    -0.028 A 
HETATM   25  C   UNL     1      -4.559  -1.619 -33.196  1.00  0.00     0.016 A 
HETATM   26  C   UNL     1      -3.085  -0.442 -31.541  1.00  0.00     0.051 C 
HETATM   27  C   UNL     1      -5.747  -1.758 -33.923  1.00  0.00    -0.061 A 
HETATM   28  C   UNL     1      -5.923  -2.894 -34.885  1.00  0.00     0.048 C 
HETATM   29  C   UNL     1      -6.786  -0.854 -33.695  1.00  0.00     0.009 A 
HETATM   30  C   UNL     1      -6.632   0.193 -32.782  1.00  0.00     0.038 A 
ENDBRANCH  22  23
ENDBRANCH  21  22
ENDBRANCH   1  21
TORSDOF 5
ENDMDL
MODEL 9
REMARK VINA RESULT:      -8.7      2.687      4.848
REMARK  5 active torsions:
REMARK  status: ('A' for Active; 'I' for Inactive)
REMARK    1  A    between atoms: C_6  and  O_7 
REMARK    2  A    between atoms: O_7  and  C_8 
REMARK    3  A    between atoms: C_8  and  C_9 
REMARK    4  A    between atoms: C_11  and  C_12 
REMARK       I    between atoms: C_12  and  N_13 
REMARK    5  A    between atoms: N_13  and  C_14 
ROOT
HETATM    1  C   UNL     1      -8.063   0.731 -32.975  1.00  0.00     0.078 A 
HETATM    2  O   UNL     1      -7.095   1.670 -33.161  1.00  0.00    -0.307 OA
HETATM    3  C   UNL     1      -7.216   2.609 -32.170  1.00  0.00     0.143 A 
HETATM    4  C   UNL     1      -8.284   2.263 -31.358  1.00  0.00     0.045 A 
HETATM    5  C   UNL     1      -8.826   1.058 -31.876  1.00  0.00     0.038 A 
ENDROOT
BRANCH   3   6
HETATM    6  C   UNL     1      -6.263   3.710 -32.182  1.00  0.00     0.279 C 
HETATM    7  N   UNL     1      -4.934   3.326 -32.029  1.00  0.00    -0.321 N 
HETATM    8  H   UNL     1      -4.759   2.335 -31.931  1.00  0.00     0.169 HD
HETATM    9  O   UNL     1      -6.617   4.880 -32.308  1.00  0.00    -0.265 OA
BRANCH   7  10
HETATM   10  C   UNL     1      -3.802   4.167 -31.957  1.00  0.00     0.035 A 
HETATM   11  C   UNL     1      -3.559   5.052 -30.903  1.00  0.00     0.039 A 
HETATM   12  C   UNL     1      -2.396   5.807 -30.910  1.00  0.00    -0.022 A 
HETATM   13  C   UNL     1      -1.468   5.702 -31.945  1.00  0.00    -0.025 A 
HETATM   14  C   UNL     1      -1.930   6.763 -29.867  1.00  0.00     0.274 C 
HETATM   15  C   UNL     1      -0.288   6.572 -31.677  1.00  0.00     0.273 C 
HETATM   16  C   UNL     1      -1.692   4.844 -33.007  1.00  0.00     0.012 A 
HETATM   17  N   UNL     1      -0.667   7.391 -30.447  1.00  0.00    -0.067 N 
HETATM   18  H   UNL     1      -0.943   8.316 -30.791  1.00  0.00     0.280 HD
HETATM   19  C   UNL     1       0.433   7.557 -29.458  1.00  0.00     0.270 C 
HETATM   20  C   UNL     1      -2.867   4.080 -33.009  1.00  0.00     0.030 A 
ENDBRANCH   7  10
ENDBRANCH   3   6
BRANCH   1  21
HETATM   21  C   UNL     1      -8.092  -0.394 -33.945  1.00  0.00     0.240 C 
BRANCH  21  22
HETATM   22  O   UNL     1      -6.804  -0.431 -34.552  1.00  0.00    -0.344 OA
BRANCH  22  23
HETATM   23  C   UNL     1      -6.073  -1.582 -34.406  1.00  0.00     0.075 A 
HETATM   24  C   UNL     1      -4.882  -1.458 -33.670  1.00  0.00    -0.028 A 
HETATM   25  C   UNL     1      -4.057  -2.582 -33.496  1.00  0.00     0.016 A 
HETATM   26  C   UNL     1      -4.438  -0.132 -33.117  1.00  0.00     0.051 C 
HETATM   27  C   UNL     1      -4.408  -3.826 -34.031  1.00  0.00    -0.061 A 
HETATM   28  C   UNL     1      -3.539  -5.027 -33.806  1.00  0.00     0.048 C 
HETATM   29  C   UNL     1      -5.612  -3.942 -34.730  1.00  0.00     0.009 A 
HETATM   30  C   UNL     1      -6.435  -2.830 -34.922  1.00  0.00     0.038 A 
ENDBRANCH  22  23
ENDBRANCH  21  22
ENDBRANCH   1  21
TORSDOF 5
ENDMDL
MODEL 10
REMARK VINA RESULT:      -8.7      7.750     11.860
REMARK  5 active torsions:
REMARK  status: ('A' for Active; 'I' for Inactive)
REMARK    1  A    between atoms: C_6  and  O_7 
REMARK    2  A    between atoms: O_7  and  C_8 
REMARK    3  A    between atoms: C_8  and  C_9 
REMARK    4  A    between atoms: C_11  and  C_12 
REMARK       I    between atoms: C_12  and  N_13 
REMARK    5  A    between atoms: N_13  and  C_14 
ROOT
HETATM    1  C   UNL     1      -8.425   0.330 -34.265  1.00  0.00     0.078 A 
HETATM    2  O   UNL     1      -9.431   1.179 -34.611  1.00  0.00    -0.307 OA
HETATM    3  C   UNL     1     -10.405   1.100 -33.650  1.00  0.00     0.143 A 
HETATM    4  C   UNL     1     -10.013   0.178 -32.694  1.00  0.00     0.045 A 
HETATM    5  C   UNL     1      -8.742  -0.316 -33.091  1.00  0.00     0.038 A 
ENDROOT
BRANCH   3   6
HETATM    6  C   UNL     1     -11.579   1.943 -33.829  1.00  0.00     0.279 C 
HETATM    7  N   UNL     1     -12.187   2.345 -32.643  1.00  0.00    -0.321 N 
HETATM    8  H   UNL     1     -11.760   2.024 -31.785  1.00  0.00     0.169 HD
HETATM    9  O   UNL     1     -11.994   2.257 -34.942  1.00  0.00    -0.265 OA
BRANCH   7  10
HETATM   10  C   UNL     1     -13.358   3.122 -32.502  1.00  0.00     0.035 A 
HETATM   11  C   UNL     1     -14.630   2.578 -32.306  1.00  0.00     0.039 A 
HETATM   12  C   UNL     1     -15.711   3.432 -32.140  1.00  0.00    -0.022 A 
HETATM   13  C   UNL     1     -15.553   4.816 -32.168  1.00  0.00    -0.025 A 
HETATM   14  C   UNL     1     -17.128   3.059 -31.873  1.00  0.00     0.274 C 
HETATM   15  C   UNL     1     -16.854   5.494 -31.905  1.00  0.00     0.273 C 
HETATM   16  C   UNL     1     -14.307   5.379 -32.376  1.00  0.00     0.012 A 
HETATM   17  N   UNL     1     -17.894   4.377 -31.904  1.00  0.00    -0.067 N 
HETATM   18  H   UNL     1     -18.356   4.414 -32.819  1.00  0.00     0.280 HD
HETATM   19  C   UNL     1     -18.926   4.501 -30.841  1.00  0.00     0.270 C 
HETATM   20  C   UNL     1     -13.210   4.524 -32.547  1.00  0.00     0.030 A 
ENDBRANCH   7  10
ENDBRANCH   3   6
BRANCH   1  21
HETATM   21  C   UNL     1      -7.254   0.279 -35.179  1.00  0.00     0.240 C 
BRANCH  21  22
HETATM   22  O   UNL     1      -6.103   0.170 -34.346  1.00  0.00    -0.344 OA
BRANCH  22  23
HETATM   23  C   UNL     1      -5.539  -1.072 -34.212  1.00  0.00     0.075 A 
HETATM   24  C   UNL     1      -4.475  -1.163 -33.299  1.00  0.00    -0.028 A 
HETATM   25  C   UNL     1      -3.820  -2.394 -33.120  1.00  0.00     0.016 A 
HETATM   26  C   UNL     1      -3.979   0.045 -32.553  1.00  0.00     0.051 C 
HETATM   27  C   UNL     1      -4.219  -3.534 -33.826  1.00  0.00    -0.061 A 
HETATM   28  C   UNL     1      -3.538  -4.849 -33.599  1.00  0.00     0.048 C 
HETATM   29  C   UNL     1      -5.301  -3.437 -34.705  1.00  0.00     0.009 A 
HETATM   30  C   UNL     1      -5.952  -2.217 -34.902  1.00  0.00     0.038 A 
ENDBRANCH  22  23
ENDBRANCH  21  22
ENDBRANCH   1  21
TORSDOF 5
ENDMDL
