MODEL 1
REMARK VINA RESULT:      -7.4      0.000      0.000
REMARK  8 active torsions:
REMARK  status: ('A' for Active; 'I' for Inactive)
REMARK    1  A    between atoms: C_2  and  O_3 
REMARK    2  A    between atoms: O_3  and  C_4 
REMARK       I    between atoms: C_4  and  N_5 
REMARK    3  A    between atoms: C_8  and  N_9 
REMARK       I    between atoms: N_9  and  C_10 
REMARK    4  A    between atoms: C_10  and  C_11 
REMARK    5  A    between atoms: C_12  and  C_13 
REMARK    6  A    between atoms: N_18  and  C_19 
REMARK    7  A    between atoms: C_19  and  C_20 
REMARK    8  A    between atoms: C_20  and  O_21 
ROOT
HETATM    1  C   UNL     1      -7.140   3.424 -31.883  1.00  0.00     0.139 C 
HETATM    2  C   UNL     1      -7.232   1.941 -32.301  1.00  0.00     0.145 C 
HETATM    3  N   UNL     1      -8.006   1.764 -33.537  1.00  0.00    -0.335 N 
HETATM    4  C   UNL     1      -9.254   2.380 -33.634  1.00  0.00     0.255 C 
HETATM    5  O   UNL     1     -10.055   2.144 -34.534  1.00  0.00    -0.267 OA
HETATM    6  C   UNL     1      -9.578   3.409 -32.595  1.00  0.00     0.039 A 
HETATM    7  C   UNL     1      -8.569   3.940 -31.763  1.00  0.00    -0.027 A 
HETATM    8  C   UNL     1     -10.892   3.877 -32.488  1.00  0.00     0.017 A 
HETATM    9  C   UNL     1     -11.210   4.861 -31.550  1.00  0.00     0.001 A 
HETATM   10  C   UNL     1     -10.216   5.387 -30.726  1.00  0.00     0.001 A 
HETATM   11  C   UNL     1      -8.900   4.935 -30.831  1.00  0.00     0.009 A 
ENDROOT
BRANCH   1  12
HETATM   12  C   UNL     1      -6.333   4.282 -32.866  1.00  0.00     0.229 C 
HETATM   13  N   UNL     1      -5.220   4.885 -32.302  1.00  0.00    -0.356 N 
HETATM   14  H   UNL     1      -4.978   4.572 -31.371  1.00  0.00     0.162 HD
HETATM   15  O   UNL     1      -6.666   4.452 -34.034  1.00  0.00    -0.273 OA
BRANCH  13  16
HETATM   16  C   UNL     1      -4.102   5.467 -33.058  1.00  0.00     0.087 C 
HETATM   17  C   UNL     1      -3.472   6.761 -32.527  1.00  0.00     0.045 C 
HETATM   18  C   UNL     1      -2.721   6.537 -31.223  1.00  0.00     0.130 C 
HETATM   19  N   UNL     1      -1.736   5.466 -31.365  1.00  0.00    -0.328 N 
HETATM   20  C   UNL     1      -0.553   5.456 -30.637  1.00  0.00     0.362 C 
HETATM   21  C   UNL     1      -2.220   4.210 -31.920  1.00  0.00     0.130 C 
HETATM   22  O   UNL     1       0.179   4.478 -30.539  1.00  0.00    -0.238 OA
HETATM   23  C   UNL     1      -2.994   4.416 -33.221  1.00  0.00     0.045 C 
BRANCH  20  24
HETATM   24  O   UNL     1      -0.291   6.657 -30.056  1.00  0.00    -0.304 OA
BRANCH  24  25
HETATM   25  C   UNL     1       0.062   6.632 -28.667  1.00  0.00     0.176 C 
HETATM   26  C   UNL     1       0.892   7.853 -28.324  1.00  0.00     0.034 C 
ENDBRANCH  24  25
ENDBRANCH  20  24
ENDBRANCH  13  16
ENDBRANCH   1  12
BRANCH   2  27
HETATM   27  C   UNL     1      -5.974   1.099 -32.195  1.00  0.00     0.006 A 
HETATM   28  S   UNL     1      -5.924  -0.428 -31.413  1.00  0.00    -0.104 SA
HETATM   29  C   UNL     1      -4.266  -0.639 -31.751  1.00  0.00     0.050 A 
HETATM   30  C   UNL     1      -3.749   0.413 -32.470  1.00  0.00     0.008 A 
HETATM   31  C   UNL     1      -4.733   1.407 -32.732  1.00  0.00     0.017 A 
ENDBRANCH   2  27
BRANCH   3  32
HETATM   32  C   UNL     1      -7.413   1.234 -34.768  1.00  0.00     0.153 C 
BRANCH  32  33
HETATM   33  C   UNL     1      -7.697  -0.248 -34.999  1.00  0.00     0.187 C 
BRANCH  33  34
HETATM   34  O   UNL     1      -6.456  -0.961 -34.967  1.00  0.00    -0.394 OA
HETATM   35  C   UNL     1      -6.636  -2.319 -34.595  1.00  0.00     0.201 C 
ENDBRANCH  33  34
ENDBRANCH  32  33
ENDBRANCH   3  32
TORSDOF 8
ENDMDL
MODEL 2
REMARK VINA RESULT:      -7.3      2.926      8.622
REMARK  8 active torsions:
REMARK  status: ('A' for Active; 'I' for Inactive)
REMARK    1  A    between atoms: C_2  and  O_3 
REMARK    2  A    between atoms: O_3  and  C_4 
REMARK       I    between atoms: C_4  and  N_5 
REMARK    3  A    between atoms: C_8  and  N_9 
REMARK       I    between atoms: N_9  and  C_10 
REMARK    4  A    between atoms: C_10  and  C_11 
REMARK    5  A    between atoms: C_12  and  C_13 
REMARK    6  A    between atoms: N_18  and  C_19 
REMARK    7  A    between atoms: C_19  and  C_20 
REMARK    8  A    between atoms: C_20  and  O_21 
ROOT
HETATM    1  C   UNL     1      -6.550   2.311 -31.415  1.00  0.00     0.139 C 
HETATM    2  C   UNL     1      -5.743   3.351 -30.610  1.00  0.00     0.145 C 
HETATM    3  N   UNL     1      -4.584   3.850 -31.361  1.00  0.00    -0.335 N 
HETATM    4  C   UNL     1      -3.731   2.924 -31.961  1.00  0.00     0.255 C 
HETATM    5  O   UNL     1      -2.643   3.222 -32.444  1.00  0.00    -0.267 OA
HETATM    6  C   UNL     1      -4.223   1.512 -32.041  1.00  0.00     0.039 A 
HETATM    7  C   UNL     1      -5.580   1.204 -31.807  1.00  0.00    -0.027 A 
HETATM    8  C   UNL     1      -3.327   0.498 -32.398  1.00  0.00     0.017 A 
HETATM    9  C   UNL     1      -3.771  -0.820 -32.513  1.00  0.00     0.001 A 
HETATM   10  C   UNL     1      -5.111  -1.128 -32.282  1.00  0.00     0.001 A 
HETATM   11  C   UNL     1      -6.016  -0.124 -31.934  1.00  0.00     0.009 A 
ENDROOT
BRANCH   1  12
HETATM   12  C   UNL     1      -7.231   2.902 -32.657  1.00  0.00     0.229 C 
HETATM   13  N   UNL     1      -8.591   3.119 -32.502  1.00  0.00    -0.356 N 
HETATM   14  H   UNL     1      -8.945   3.018 -31.559  1.00  0.00     0.162 HD
HETATM   15  O   UNL     1      -6.634   3.123 -33.705  1.00  0.00    -0.273 OA
BRANCH  13  16
HETATM   16  C   UNL     1      -9.414   3.968 -33.374  1.00  0.00     0.087 C 
HETATM   17  C   UNL     1     -10.088   3.314 -34.587  1.00  0.00     0.045 C 
HETATM   18  C   UNL     1     -11.187   2.345 -34.176  1.00  0.00     0.130 C 
HETATM   19  N   UNL     1     -12.156   2.997 -33.296  1.00  0.00    -0.328 N 
HETATM   20  C   UNL     1     -13.493   2.624 -33.275  1.00  0.00     0.362 C 
HETATM   21  C   UNL     1     -11.613   3.702 -32.143  1.00  0.00     0.130 C 
HETATM   22  O   UNL     1     -14.282   2.963 -32.399  1.00  0.00    -0.238 OA
HETATM   23  C   UNL     1     -10.494   4.667 -32.533  1.00  0.00     0.045 C 
BRANCH  20  24
HETATM   24  O   UNL     1     -13.835   1.851 -34.340  1.00  0.00    -0.304 OA
BRANCH  24  25
HETATM   25  C   UNL     1     -14.543   0.639 -34.050  1.00  0.00     0.176 C 
HETATM   26  C   UNL     1     -13.563  -0.447 -33.653  1.00  0.00     0.034 C 
ENDBRANCH  24  25
ENDBRANCH  20  24
ENDBRANCH  13  16
ENDBRANCH   1  12
BRANCH   2  27
HETATM   27  C   UNL     1      -6.519   4.402 -29.836  1.00  0.00     0.006 A 
HETATM   28  S   UNL     1      -5.820   5.380 -28.611  1.00  0.00    -0.104 SA
HETATM   29  C   UNL     1      -7.283   6.205 -28.319  1.00  0.00     0.050 A 
HETATM   30  C   UNL     1      -8.291   5.775 -29.150  1.00  0.00     0.008 A 
HETATM   31  C   UNL     1      -7.848   4.746 -30.027  1.00  0.00     0.017 A 
ENDBRANCH   2  27
BRANCH   3  32
HETATM   32  C   UNL     1      -4.449   5.254 -31.761  1.00  0.00     0.153 C 
BRANCH  32  33
HETATM   33  C   UNL     1      -5.074   5.569 -33.118  1.00  0.00     0.187 C 
BRANCH  33  34
HETATM   34  O   UNL     1      -4.052   6.070 -33.986  1.00  0.00    -0.394 OA
HETATM   35  C   UNL     1      -3.823   5.204 -35.087  1.00  0.00     0.201 C 
ENDBRANCH  33  34
ENDBRANCH  32  33
ENDBRANCH   3  32
TORSDOF 8
ENDMDL
MODEL 3
REMARK VINA RESULT:      -7.2      2.146      5.003
REMARK  8 active torsions:
REMARK  status: ('A' for Active; 'I' for Inactive)
REMARK    1  A    between atoms: C_2  and  O_3 
REMARK    2  A    between atoms: O_3  and  C_4 
REMARK       I    between atoms: C_4  and  N_5 
REMARK    3  A    between atoms: C_8  and  N_9 
REMARK       I    between atoms: N_9  and  C_10 
REMARK    4  A    between atoms: C_10  and  C_11 
REMARK    5  A    between atoms: C_12  and  C_13 
REMARK    6  A    between atoms: N_18  and  C_19 
REMARK    7  A    between atoms: C_19  and  C_20 
REMARK    8  A    between atoms: C_20  and  O_21 
ROOT
HETATM    1  C   UNL     1      -6.644   1.523 -33.260  1.00  0.00     0.139 C 
HETATM    2  C   UNL     1      -7.807   1.278 -32.276  1.00  0.00     0.145 C 
HETATM    3  N   UNL     1      -7.513   1.799 -30.934  1.00  0.00    -0.335 N 
HETATM    4  C   UNL     1      -6.293   1.466 -30.345  1.00  0.00     0.255 C 
HETATM    5  O   UNL     1      -6.029   1.688 -29.167  1.00  0.00    -0.267 OA
HETATM    6  C   UNL     1      -5.260   0.852 -31.239  1.00  0.00     0.039 A 
HETATM    7  C   UNL     1      -5.401   0.894 -32.643  1.00  0.00    -0.027 A 
HETATM    8  C   UNL     1      -4.123   0.273 -30.667  1.00  0.00     0.017 A 
HETATM    9  C   UNL     1      -3.131  -0.275 -31.482  1.00  0.00     0.001 A 
HETATM   10  C   UNL     1      -3.267  -0.236 -32.869  1.00  0.00     0.001 A 
HETATM   11  C   UNL     1      -4.393   0.348 -33.452  1.00  0.00     0.009 A 
ENDROOT
BRANCH   1  12
HETATM   12  C   UNL     1      -6.408   3.009 -33.561  1.00  0.00     0.229 C 
HETATM   13  N   UNL     1      -5.304   3.544 -32.916  1.00  0.00    -0.356 N 
HETATM   14  H   UNL     1      -4.698   2.874 -32.459  1.00  0.00     0.162 HD
HETATM   15  O   UNL     1      -7.152   3.673 -34.274  1.00  0.00    -0.273 OA
BRANCH  13  16
HETATM   16  C   UNL     1      -4.651   4.811 -33.272  1.00  0.00     0.087 C 
HETATM   17  C   UNL     1      -4.486   5.869 -32.173  1.00  0.00     0.045 C 
HETATM   18  C   UNL     1      -3.489   5.435 -31.109  1.00  0.00     0.130 C 
HETATM   19  N   UNL     1      -2.208   5.067 -31.712  1.00  0.00    -0.328 N 
HETATM   20  C   UNL     1      -1.005   5.241 -31.040  1.00  0.00     0.362 C 
HETATM   21  C   UNL     1      -2.259   4.112 -32.810  1.00  0.00     0.130 C 
HETATM   22  O   UNL     1       0.053   4.733 -31.395  1.00  0.00    -0.238 OA
HETATM   23  C   UNL     1      -3.270   4.520 -33.881  1.00  0.00     0.045 C 
BRANCH  20  24
HETATM   24  O   UNL     1      -1.129   6.047 -29.952  1.00  0.00    -0.304 OA
BRANCH  24  25
HETATM   25  C   UNL     1      -0.004   6.100 -29.065  1.00  0.00     0.176 C 
HETATM   26  C   UNL     1       0.529   7.517 -28.993  1.00  0.00     0.034 C 
ENDBRANCH  24  25
ENDBRANCH  20  24
ENDBRANCH  13  16
ENDBRANCH   1  12
BRANCH   2  27
HETATM   27  C   UNL     1      -9.219   1.527 -32.775  1.00  0.00     0.006 A 
HETATM   28  S   UNL     1      -9.919   3.090 -32.885  1.00  0.00    -0.104 SA
HETATM   29  C   UNL     1     -11.389   2.480 -33.496  1.00  0.00     0.050 A 
HETATM   30  C   UNL     1     -11.356   1.113 -33.645  1.00  0.00     0.008 A 
HETATM   31  C   UNL     1     -10.106   0.568 -33.239  1.00  0.00     0.017 A 
ENDBRANCH   2  27
BRANCH   3  32
HETATM   32  C   UNL     1      -8.291   2.878 -30.319  1.00  0.00     0.153 C 
BRANCH  32  33
HETATM   33  C   UNL     1      -7.561   4.218 -30.281  1.00  0.00     0.187 C 
BRANCH  33  34
HETATM   34  O   UNL     1      -7.493   4.663 -28.922  1.00  0.00    -0.394 OA
HETATM   35  C   UNL     1      -6.265   5.318 -28.641  1.00  0.00     0.201 C 
ENDBRANCH  33  34
ENDBRANCH  32  33
ENDBRANCH   3  32
TORSDOF 8
ENDMDL
MODEL 4
REMARK VINA RESULT:      -6.9      2.100      4.775
REMARK  8 active torsions:
REMARK  status: ('A' for Active; 'I' for Inactive)
REMARK    1  A    between atoms: C_2  and  O_3 
REMARK    2  A    between atoms: O_3  and  C_4 
REMARK       I    between atoms: C_4  and  N_5 
REMARK    3  A    between atoms: C_8  and  N_9 
REMARK       I    between atoms: N_9  and  C_10 
REMARK    4  A    between atoms: C_10  and  C_11 
REMARK    5  A    between atoms: C_12  and  C_13 
REMARK    6  A    between atoms: N_18  and  C_19 
REMARK    7  A    between atoms: C_19  and  C_20 
REMARK    8  A    between atoms: C_20  and  O_21 
ROOT
HETATM    1  C   UNL     1      -6.848   2.579 -33.493  1.00  0.00     0.139 C 
HETATM    2  C   UNL     1      -8.267   2.569 -32.888  1.00  0.00     0.145 C 
HETATM    3  N   UNL     1      -8.288   3.113 -31.523  1.00  0.00    -0.335 N 
HETATM    4  C   UNL     1      -7.357   2.632 -30.601  1.00  0.00     0.255 C 
HETATM    5  O   UNL     1      -7.409   2.877 -29.400  1.00  0.00    -0.267 OA
HETATM    6  C   UNL     1      -6.226   1.820 -31.151  1.00  0.00     0.039 A 
HETATM    7  C   UNL     1      -5.951   1.805 -32.536  1.00  0.00    -0.027 A 
HETATM    8  C   UNL     1      -5.408   1.108 -30.268  1.00  0.00     0.017 A 
HETATM    9  C   UNL     1      -4.327   0.372 -30.754  1.00  0.00     0.001 A 
HETATM   10  C   UNL     1      -4.053   0.353 -32.122  1.00  0.00     0.001 A 
HETATM   11  C   UNL     1      -4.856   1.068 -33.012  1.00  0.00     0.009 A 
ENDROOT
BRANCH   1  12
HETATM   12  C   UNL     1      -6.299   3.993 -33.727  1.00  0.00     0.229 C 
HETATM   13  N   UNL     1      -5.061   4.217 -33.147  1.00  0.00    -0.356 N 
HETATM   14  H   UNL     1      -4.594   3.397 -32.781  1.00  0.00     0.162 HD
HETATM   15  O   UNL     1      -6.918   4.859 -34.336  1.00  0.00    -0.273 OA
BRANCH  13  16
HETATM   16  C   UNL     1      -4.161   5.330 -33.482  1.00  0.00     0.087 C 
HETATM   17  C   UNL     1      -3.961   6.434 -32.436  1.00  0.00     0.045 C 
HETATM   18  C   UNL     1      -3.199   5.935 -31.218  1.00  0.00     0.130 C 
HETATM   19  N   UNL     1      -1.932   5.318 -31.611  1.00  0.00    -0.328 N 
HETATM   20  C   UNL     1      -0.815   5.351 -30.788  1.00  0.00     0.362 C 
HETATM   21  C   UNL     1      -2.004   4.296 -32.646  1.00  0.00     0.130 C 
HETATM   22  O   UNL     1       0.178   4.652 -30.960  1.00  0.00    -0.238 OA
HETATM   23  C   UNL     1      -2.783   4.771 -33.871  1.00  0.00     0.045 C 
BRANCH  20  24
HETATM   24  O   UNL     1      -0.938   6.253 -29.778  1.00  0.00    -0.304 OA
BRANCH  24  25
HETATM   25  C   UNL     1       0.098   7.237 -29.670  1.00  0.00     0.176 C 
HETATM   26  C   UNL     1       0.710   7.190 -28.284  1.00  0.00     0.034 C 
ENDBRANCH  24  25
ENDBRANCH  20  24
ENDBRANCH  13  16
ENDBRANCH   1  12
BRANCH   2  27
HETATM   27  C   UNL     1      -9.418   3.001 -33.778  1.00  0.00     0.006 A 
HETATM   28  S   UNL     1     -10.729   1.974 -34.191  1.00  0.00    -0.104 SA
HETATM   29  C   UNL     1     -11.486   3.180 -35.130  1.00  0.00     0.050 A 
HETATM   30  C   UNL     1     -10.780   4.360 -35.118  1.00  0.00     0.008 A 
HETATM   31  C   UNL     1      -9.597   4.259 -34.334  1.00  0.00     0.017 A 
ENDBRANCH   2  27
BRANCH   3  32
HETATM   32  C   UNL     1      -9.025   4.330 -31.171  1.00  0.00     0.153 C 
BRANCH  32  33
HETATM   33  C   UNL     1     -10.410   4.063 -30.588  1.00  0.00     0.187 C 
BRANCH  33  34
HETATM   34  O   UNL     1     -11.342   4.966 -31.191  1.00  0.00    -0.394 OA
HETATM   35  C   UNL     1     -12.503   4.294 -31.658  1.00  0.00     0.201 C 
ENDBRANCH  33  34
ENDBRANCH  32  33
ENDBRANCH   3  32
TORSDOF 8
ENDMDL
MODEL 5
REMARK VINA RESULT:      -6.9      2.735      4.935
REMARK  8 active torsions:
REMARK  status: ('A' for Active; 'I' for Inactive)
REMARK    1  A    between atoms: C_2  and  O_3 
REMARK    2  A    between atoms: O_3  and  C_4 
REMARK       I    between atoms: C_4  and  N_5 
REMARK    3  A    between atoms: C_8  and  N_9 
REMARK       I    between atoms: N_9  and  C_10 
REMARK    4  A    between atoms: C_10  and  C_11 
REMARK    5  A    between atoms: C_12  and  C_13 
REMARK    6  A    between atoms: N_18  and  C_19 
REMARK    7  A    between atoms: C_19  and  C_20 
REMARK    8  A    between atoms: C_20  and  O_21 
ROOT
HETATM    1  C   UNL     1      -5.561   4.024 -34.211  1.00  0.00     0.139 C 
HETATM    2  C   UNL     1      -5.622   2.553 -33.748  1.00  0.00     0.145 C 
HETATM    3  N   UNL     1      -5.159   2.392 -32.363  1.00  0.00    -0.335 N 
HETATM    4  C   UNL     1      -3.945   2.972 -31.996  1.00  0.00     0.255 C 
HETATM    5  O   UNL     1      -3.381   2.741 -30.930  1.00  0.00    -0.267 OA
HETATM    6  C   UNL     1      -3.354   3.958 -32.956  1.00  0.00     0.039 A 
HETATM    7  C   UNL     1      -4.125   4.493 -34.010  1.00  0.00    -0.027 A 
HETATM    8  C   UNL     1      -2.034   4.382 -32.769  1.00  0.00     0.017 A 
HETATM    9  C   UNL     1      -1.474   5.326 -33.631  1.00  0.00     0.001 A 
HETATM   10  C   UNL     1      -2.233   5.856 -34.674  1.00  0.00     0.001 A 
HETATM   11  C   UNL     1      -3.553   5.447 -34.865  1.00  0.00     0.009 A 
ENDROOT
BRANCH   1  12
HETATM   12  C   UNL     1      -6.540   4.936 -33.460  1.00  0.00     0.229 C 
HETATM   13  N   UNL     1      -6.156   5.223 -32.160  1.00  0.00    -0.356 N 
HETATM   14  H   UNL     1      -5.217   4.939 -31.909  1.00  0.00     0.162 HD
HETATM   15  O   UNL     1      -7.587   5.342 -33.953  1.00  0.00    -0.273 OA
BRANCH  13  16
HETATM   16  C   UNL     1      -6.701   6.314 -31.340  1.00  0.00     0.087 C 
HETATM   17  C   UNL     1      -6.799   6.095 -29.825  1.00  0.00     0.045 C 
HETATM   18  C   UNL     1      -5.428   6.032 -29.168  1.00  0.00     0.130 C 
HETATM   19  N   UNL     1      -4.634   7.216 -29.500  1.00  0.00    -0.328 N 
HETATM   20  C   UNL     1      -3.689   7.733 -28.626  1.00  0.00     0.362 C 
HETATM   21  C   UNL     1      -4.530   7.549 -30.914  1.00  0.00     0.130 C 
HETATM   22  O   UNL     1      -2.842   8.559 -28.949  1.00  0.00    -0.238 OA
HETATM   23  C   UNL     1      -5.895   7.597 -31.597  1.00  0.00     0.045 C 
BRANCH  20  24
HETATM   24  O   UNL     1      -3.815   7.232 -27.368  1.00  0.00    -0.304 OA
BRANCH  24  25
HETATM   25  C   UNL     1      -2.834   7.654 -26.411  1.00  0.00     0.176 C 
HETATM   26  C   UNL     1      -2.134   6.444 -25.824  1.00  0.00     0.034 C 
ENDBRANCH  24  25
ENDBRANCH  20  24
ENDBRANCH  13  16
ENDBRANCH   1  12
BRANCH   2  27
HETATM   27  C   UNL     1      -6.852   1.746 -34.121  1.00  0.00     0.006 A 
HETATM   28  S   UNL     1      -8.422   2.084 -33.518  1.00  0.00    -0.104 SA
HETATM   29  C   UNL     1      -9.125   0.799 -34.390  1.00  0.00     0.050 A 
HETATM   30  C   UNL     1      -8.199   0.129 -35.154  1.00  0.00     0.008 A 
HETATM   31  C   UNL     1      -6.895   0.679 -35.006  1.00  0.00     0.017 A 
ENDBRANCH   2  27
BRANCH   3  32
HETATM   32  C   UNL     1      -6.038   1.919 -31.289  1.00  0.00     0.153 C 
BRANCH  32  33
HETATM   33  C   UNL     1      -5.660   0.542 -30.747  1.00  0.00     0.187 C 
BRANCH  33  34
HETATM   34  O   UNL     1      -5.909  -0.433 -31.764  1.00  0.00    -0.394 OA
HETATM   35  C   UNL     1      -4.717  -1.088 -32.171  1.00  0.00     0.201 C 
ENDBRANCH  33  34
ENDBRANCH  32  33
ENDBRANCH   3  32
TORSDOF 8
ENDMDL
MODEL 6
REMARK VINA RESULT:      -6.8      2.373      5.123
REMARK  8 active torsions:
REMARK  status: ('A' for Active; 'I' for Inactive)
REMARK    1  A    between atoms: C_2  and  O_3 
REMARK    2  A    between atoms: O_3  and  C_4 
REMARK       I    between atoms: C_4  and  N_5 
REMARK    3  A    between atoms: C_8  and  N_9 
REMARK       I    between atoms: N_9  and  C_10 
REMARK    4  A    between atoms: C_10  and  C_11 
REMARK    5  A    between atoms: C_12  and  C_13 
REMARK    6  A    between atoms: N_18  and  C_19 
REMARK    7  A    between atoms: C_19  and  C_20 
REMARK    8  A    between atoms: C_20  and  O_21 
ROOT
HETATM    1  C   UNL     1      -7.706   2.456 -34.026  1.00  0.00     0.139 C 
HETATM    2  C   UNL     1      -9.214   2.651 -34.287  1.00  0.00     0.145 C 
HETATM    3  N   UNL     1     -10.040   1.879 -33.349  1.00  0.00    -0.335 N 
HETATM    4  C   UNL     1      -9.745   0.529 -33.159  1.00  0.00     0.255 C 
HETATM    5  O   UNL     1     -10.479  -0.244 -32.551  1.00  0.00    -0.267 OA
HETATM    6  C   UNL     1      -8.434   0.046 -33.698  1.00  0.00     0.039 A 
HETATM    7  C   UNL     1      -7.433   0.959 -34.095  1.00  0.00    -0.027 A 
HETATM    8  C   UNL     1      -8.191  -1.331 -33.763  1.00  0.00     0.017 A 
HETATM    9  C   UNL     1      -6.964  -1.803 -34.230  1.00  0.00     0.001 A 
HETATM   10  C   UNL     1      -5.973  -0.904 -34.624  1.00  0.00     0.001 A 
HETATM   11  C   UNL     1      -6.201   0.471 -34.555  1.00  0.00     0.009 A 
ENDROOT
BRANCH   1  12
HETATM   12  C   UNL     1      -7.244   3.030 -32.680  1.00  0.00     0.229 C 
HETATM   13  N   UNL     1      -6.042   3.717 -32.745  1.00  0.00    -0.356 N 
HETATM   14  H   UNL     1      -5.692   3.898 -33.677  1.00  0.00     0.162 HD
HETATM   15  O   UNL     1      -7.862   2.862 -31.634  1.00  0.00    -0.273 OA
BRANCH  13  16
HETATM   16  C   UNL     1      -5.541   4.640 -31.717  1.00  0.00     0.087 C 
HETATM   17  C   UNL     1      -4.459   4.129 -30.758  1.00  0.00     0.045 C 
HETATM   18  C   UNL     1      -3.132   3.897 -31.466  1.00  0.00     0.130 C 
HETATM   19  N   UNL     1      -2.706   5.099 -32.183  1.00  0.00    -0.328 N 
HETATM   20  C   UNL     1      -1.364   5.405 -32.367  1.00  0.00     0.362 C 
HETATM   21  C   UNL     1      -3.685   5.701 -33.077  1.00  0.00     0.130 C 
HETATM   22  O   UNL     1      -0.961   6.253 -33.156  1.00  0.00    -0.238 OA
HETATM   23  C   UNL     1      -5.031   5.924 -32.389  1.00  0.00     0.045 C 
BRANCH  20  24
HETATM   24  O   UNL     1      -0.548   4.669 -31.566  1.00  0.00    -0.304 OA
BRANCH  24  25
HETATM   25  C   UNL     1       0.502   5.381 -30.897  1.00  0.00     0.176 C 
HETATM   26  C   UNL     1      -0.041   6.046 -29.648  1.00  0.00     0.034 C 
ENDBRANCH  24  25
ENDBRANCH  20  24
ENDBRANCH  13  16
ENDBRANCH   1  12
BRANCH   2  27
HETATM   27  C   UNL     1      -9.704   4.058 -34.580  1.00  0.00     0.006 A 
HETATM   28  S   UNL     1      -9.012   5.463 -33.880  1.00  0.00    -0.104 SA
HETATM   29  C   UNL     1     -10.085   6.502 -34.702  1.00  0.00     0.050 A 
HETATM   30  C   UNL     1     -10.945   5.810 -35.521  1.00  0.00     0.008 A 
HETATM   31  C   UNL     1     -10.720   4.406 -35.457  1.00  0.00     0.017 A 
ENDBRANCH   2  27
BRANCH   3  32
HETATM   32  C   UNL     1     -10.949   2.516 -32.392  1.00  0.00     0.153 C 
BRANCH  32  33
HETATM   33  C   UNL     1     -12.393   2.602 -32.880  1.00  0.00     0.187 C 
BRANCH  33  34
HETATM   34  O   UNL     1     -12.872   3.933 -32.658  1.00  0.00    -0.394 OA
HETATM   35  C   UNL     1     -12.071   4.633 -31.718  1.00  0.00     0.201 C 
ENDBRANCH  33  34
ENDBRANCH  32  33
ENDBRANCH   3  32
TORSDOF 8
ENDMDL
MODEL 7
REMARK VINA RESULT:      -6.7      2.990      7.243
REMARK  8 active torsions:
REMARK  status: ('A' for Active; 'I' for Inactive)
REMARK    1  A    between atoms: C_2  and  O_3 
REMARK    2  A    between atoms: O_3  and  C_4 
REMARK       I    between atoms: C_4  and  N_5 
REMARK    3  A    between atoms: C_8  and  N_9 
REMARK       I    between atoms: N_9  and  C_10 
REMARK    4  A    between atoms: C_10  and  C_11 
REMARK    5  A    between atoms: C_12  and  C_13 
REMARK    6  A    between atoms: N_18  and  C_19 
REMARK    7  A    between atoms: C_19  and  C_20 
REMARK    8  A    between atoms: C_20  and  O_21 
ROOT
HETATM    1  C   UNL     1      -4.965   4.992 -30.890  1.00  0.00     0.139 C 
HETATM    2  C   UNL     1      -6.065   5.730 -31.681  1.00  0.00     0.145 C 
HETATM    3  N   UNL     1      -6.337   5.088 -32.975  1.00  0.00    -0.335 N 
HETATM    4  C   UNL     1      -5.259   4.779 -33.804  1.00  0.00     0.255 C 
HETATM    5  O   UNL     1      -5.385   4.421 -34.971  1.00  0.00    -0.267 OA
HETATM    6  C   UNL     1      -3.895   4.856 -33.189  1.00  0.00     0.039 A 
HETATM    7  C   UNL     1      -3.736   4.932 -31.788  1.00  0.00    -0.027 A 
HETATM    8  C   UNL     1      -2.771   4.804 -34.019  1.00  0.00     0.017 A 
HETATM    9  C   UNL     1      -1.490   4.839 -33.466  1.00  0.00     0.001 A 
HETATM   10  C   UNL     1      -1.329   4.915 -32.083  1.00  0.00     0.001 A 
HETATM   11  C   UNL     1      -2.443   4.958 -31.244  1.00  0.00     0.009 A 
ENDROOT
BRANCH   1  12
HETATM   12  C   UNL     1      -5.380   3.584 -30.443  1.00  0.00     0.229 C 
HETATM   13  N   UNL     1      -4.598   2.572 -30.978  1.00  0.00    -0.356 N 
HETATM   14  H   UNL     1      -3.762   2.875 -31.462  1.00  0.00     0.162 HD
HETATM   15  O   UNL     1      -6.341   3.370 -29.713  1.00  0.00    -0.273 OA
BRANCH  13  16
HETATM   16  C   UNL     1      -4.543   1.193 -30.475  1.00  0.00     0.087 C 
HETATM   17  C   UNL     1      -5.798   0.322 -30.624  1.00  0.00     0.045 C 
HETATM   18  C   UNL     1      -6.086  -0.019 -32.079  1.00  0.00     0.130 C 
HETATM   19  N   UNL     1      -4.918  -0.628 -32.714  1.00  0.00    -0.328 N 
HETATM   20  C   UNL     1      -5.041  -1.560 -33.735  1.00  0.00     0.362 C 
HETATM   21  C   UNL     1      -3.658   0.090 -32.577  1.00  0.00     0.130 C 
HETATM   22  O   UNL     1      -4.112  -1.912 -34.453  1.00  0.00    -0.238 OA
HETATM   23  C   UNL     1      -3.360   0.459 -31.125  1.00  0.00     0.045 C 
BRANCH  20  24
HETATM   24  O   UNL     1      -6.305  -2.050 -33.841  1.00  0.00    -0.304 OA
BRANCH  24  25
HETATM   25  C   UNL     1      -6.631  -2.719 -35.067  1.00  0.00     0.176 C 
HETATM   26  C   UNL     1      -6.741  -4.211 -34.827  1.00  0.00     0.034 C 
ENDBRANCH  24  25
ENDBRANCH  20  24
ENDBRANCH  13  16
ENDBRANCH   1  12
BRANCH   2  27
HETATM   27  C   UNL     1      -7.290   6.199 -30.918  1.00  0.00     0.006 A 
HETATM   28  S   UNL     1      -7.566   7.839 -30.493  1.00  0.00    -0.104 SA
HETATM   29  C   UNL     1      -9.049   7.478 -29.731  1.00  0.00     0.050 A 
HETATM   30  C   UNL     1      -9.357   6.141 -29.814  1.00  0.00     0.008 A 
HETATM   31  C   UNL     1      -8.351   5.409 -30.504  1.00  0.00     0.017 A 
ENDBRANCH   2  27
BRANCH   3  32
HETATM   32  C   UNL     1      -7.636   4.491 -33.300  1.00  0.00     0.153 C 
BRANCH  32  33
HETATM   33  C   UNL     1      -7.654   2.967 -33.203  1.00  0.00     0.187 C 
BRANCH  33  34
HETATM   34  O   UNL     1      -8.849   2.567 -32.525  1.00  0.00    -0.394 OA
HETATM   35  C   UNL     1     -10.000   3.194 -33.069  1.00  0.00     0.201 C 
ENDBRANCH  33  34
ENDBRANCH  32  33
ENDBRANCH   3  32
TORSDOF 8
ENDMDL
MODEL 8
REMARK VINA RESULT:      -6.7      3.304      5.372
REMARK  8 active torsions:
REMARK  status: ('A' for Active; 'I' for Inactive)
REMARK    1  A    between atoms: C_2  and  O_3 
REMARK    2  A    between atoms: O_3  and  C_4 
REMARK       I    between atoms: C_4  and  N_5 
REMARK    3  A    between atoms: C_8  and  N_9 
REMARK       I    between atoms: N_9  and  C_10 
REMARK    4  A    between atoms: C_10  and  C_11 
REMARK    5  A    between atoms: C_12  and  C_13 
REMARK    6  A    between atoms: N_18  and  C_19 
REMARK    7  A    between atoms: C_19  and  C_20 
REMARK    8  A    between atoms: C_20  and  O_21 
ROOT
HETATM    1  C   UNL     1      -4.321   3.177 -31.173  1.00  0.00     0.139 C 
HETATM    2  C   UNL     1      -3.989   3.470 -32.651  1.00  0.00     0.145 C 
HETATM    3  N   UNL     1      -5.200   3.622 -33.468  1.00  0.00    -0.335 N 
HETATM    4  C   UNL     1      -6.194   2.648 -33.372  1.00  0.00     0.255 C 
HETATM    5  O   UNL     1      -7.148   2.579 -34.141  1.00  0.00    -0.267 OA
HETATM    6  C   UNL     1      -6.081   1.683 -32.232  1.00  0.00     0.039 A 
HETATM    7  C   UNL     1      -5.205   1.936 -31.154  1.00  0.00    -0.027 A 
HETATM    8  C   UNL     1      -6.892   0.543 -32.222  1.00  0.00     0.017 A 
HETATM    9  C   UNL     1      -6.828  -0.351 -31.153  1.00  0.00     0.001 A 
HETATM   10  C   UNL     1      -5.963  -0.106 -30.087  1.00  0.00     0.001 A 
HETATM   11  C   UNL     1      -5.156   1.033 -30.082  1.00  0.00     0.009 A 
ENDROOT
BRANCH   1  12
HETATM   12  C   UNL     1      -5.015   4.347 -30.464  1.00  0.00     0.229 C 
HETATM   13  N   UNL     1      -4.138   5.255 -29.890  1.00  0.00    -0.356 N 
HETATM   14  H   UNL     1      -3.163   5.135 -30.133  1.00  0.00     0.162 HD
HETATM   15  O   UNL     1      -6.233   4.449 -30.378  1.00  0.00    -0.273 OA
BRANCH  13  16
HETATM   16  C   UNL     1      -4.494   6.613 -29.456  1.00  0.00     0.087 C 
HETATM   17  C   UNL     1      -5.102   6.785 -28.057  1.00  0.00     0.045 C 
HETATM   18  C   UNL     1      -4.093   6.493 -26.957  1.00  0.00     0.130 C 
HETATM   19  N   UNL     1      -2.883   7.297 -27.131  1.00  0.00    -0.328 N 
HETATM   20  C   UNL     1      -2.120   7.716 -26.050  1.00  0.00     0.362 C 
HETATM   21  C   UNL     1      -2.260   7.253 -28.446  1.00  0.00     0.130 C 
HETATM   22  O   UNL     1      -0.987   8.173 -26.152  1.00  0.00    -0.238 OA
HETATM   23  C   UNL     1      -3.262   7.523 -29.568  1.00  0.00     0.045 C 
BRANCH  20  24
HETATM   24  O   UNL     1      -2.773   7.573 -24.865  1.00  0.00    -0.304 OA
BRANCH  24  25
HETATM   25  C   UNL     1      -3.166   8.782 -24.203  1.00  0.00     0.176 C 
HETATM   26  C   UNL     1      -4.633   9.059 -24.463  1.00  0.00     0.034 C 
ENDBRANCH  24  25
ENDBRANCH  20  24
ENDBRANCH  13  16
ENDBRANCH   1  12
BRANCH   2  27
HETATM   27  C   UNL     1      -2.879   4.464 -32.942  1.00  0.00     0.006 A 
HETATM   28  S   UNL     1      -2.713   5.281 -34.441  1.00  0.00    -0.104 SA
HETATM   29  C   UNL     1      -1.327   6.127 -33.921  1.00  0.00     0.050 A 
HETATM   30  C   UNL     1      -0.998   5.825 -32.621  1.00  0.00     0.008 A 
HETATM   31  C   UNL     1      -1.895   4.876 -32.056  1.00  0.00     0.017 A 
ENDBRANCH   2  27
BRANCH   3  32
HETATM   32  C   UNL     1      -5.545   4.879 -34.139  1.00  0.00     0.153 C 
BRANCH  32  33
HETATM   33  C   UNL     1      -6.616   5.689 -33.414  1.00  0.00     0.187 C 
BRANCH  33  34
HETATM   34  O   UNL     1      -5.981   6.763 -32.713  1.00  0.00    -0.394 OA
HETATM   35  C   UNL     1      -6.921   7.578 -32.030  1.00  0.00     0.201 C 
ENDBRANCH  33  34
ENDBRANCH  32  33
ENDBRANCH   3  32
TORSDOF 8
ENDMDL
MODEL 9
REMARK VINA RESULT:      -6.6      2.663      7.186
REMARK  8 active torsions:
REMARK  status: ('A' for Active; 'I' for Inactive)
REMARK    1  A    between atoms: C_2  and  O_3 
REMARK    2  A    between atoms: O_3  and  C_4 
REMARK       I    between atoms: C_4  and  N_5 
REMARK    3  A    between atoms: C_8  and  N_9 
REMARK       I    between atoms: N_9  and  C_10 
REMARK    4  A    between atoms: C_10  and  C_11 
REMARK    5  A    between atoms: C_12  and  C_13 
REMARK    6  A    between atoms: N_18  and  C_19 
REMARK    7  A    between atoms: C_19  and  C_20 
REMARK    8  A    between atoms: C_20  and  O_21 
ROOT
HETATM    1  C   UNL     1      -6.949   5.273 -32.705  1.00  0.00     0.139 C 
HETATM    2  C   UNL     1      -5.641   6.071 -32.519  1.00  0.00     0.145 C 
HETATM    3  N   UNL     1      -5.662   6.886 -31.296  1.00  0.00    -0.335 N 
HETATM    4  C   UNL     1      -6.771   7.698 -31.058  1.00  0.00     0.255 C 
HETATM    5  O   UNL     1      -6.806   8.550 -30.175  1.00  0.00    -0.267 OA
HETATM    6  C   UNL     1      -7.978   7.455 -31.911  1.00  0.00     0.039 A 
HETATM    7  C   UNL     1      -8.091   6.282 -32.688  1.00  0.00    -0.027 A 
HETATM    8  C   UNL     1      -9.021   8.387 -31.895  1.00  0.00     0.017 A 
HETATM    9  C   UNL     1     -10.169   8.165 -32.656  1.00  0.00     0.001 A 
HETATM   10  C   UNL     1     -10.284   7.008 -33.425  1.00  0.00     0.001 A 
HETATM   11  C   UNL     1      -9.254   6.066 -33.442  1.00  0.00     0.009 A 
ENDROOT
BRANCH   1  12
HETATM   12  C   UNL     1      -7.161   4.197 -31.632  1.00  0.00     0.229 C 
HETATM   13  N   UNL     1      -7.318   2.918 -32.143  1.00  0.00    -0.356 N 
HETATM   14  H   UNL     1      -7.121   2.814 -33.130  1.00  0.00     0.162 HD
HETATM   15  O   UNL     1      -7.225   4.451 -30.434  1.00  0.00    -0.273 OA
BRANCH  13  16
HETATM   16  C   UNL     1      -7.197   1.678 -31.364  1.00  0.00     0.087 C 
HETATM   17  C   UNL     1      -7.949   0.438 -31.866  1.00  0.00     0.045 C 
HETATM   18  C   UNL     1      -7.365  -0.097 -33.165  1.00  0.00     0.130 C 
HETATM   19  N   UNL     1      -5.929  -0.344 -33.030  1.00  0.00    -0.328 N 
HETATM   20  C   UNL     1      -5.287  -1.346 -33.744  1.00  0.00     0.362 C 
HETATM   21  C   UNL     1      -5.130   0.754 -32.502  1.00  0.00     0.130 C 
HETATM   22  O   UNL     1      -4.069  -1.434 -33.850  1.00  0.00    -0.238 OA
HETATM   23  C   UNL     1      -5.712   1.318 -31.206  1.00  0.00     0.045 C 
BRANCH  20  24
HETATM   24  O   UNL     1      -6.160  -2.228 -34.301  1.00  0.00    -0.304 OA
BRANCH  24  25
HETATM   25  C   UNL     1      -5.586  -3.348 -34.988  1.00  0.00     0.176 C 
HETATM   26  C   UNL     1      -6.621  -4.444 -35.140  1.00  0.00     0.034 C 
ENDBRANCH  24  25
ENDBRANCH  20  24
ENDBRANCH  13  16
ENDBRANCH   1  12
BRANCH   2  27
HETATM   27  C   UNL     1      -4.332   5.357 -32.802  1.00  0.00     0.006 A 
HETATM   28  S   UNL     1      -3.194   5.898 -33.966  1.00  0.00    -0.104 SA
HETATM   29  C   UNL     1      -2.121   4.615 -33.636  1.00  0.00     0.050 A 
HETATM   30  C   UNL     1      -2.592   3.794 -32.639  1.00  0.00     0.008 A 
HETATM   31  C   UNL     1      -3.859   4.226 -32.154  1.00  0.00     0.017 A 
ENDBRANCH   2  27
BRANCH   3  32
HETATM   32  C   UNL     1      -4.733   6.663 -30.185  1.00  0.00     0.153 C 
BRANCH  32  33
HETATM   33  C   UNL     1      -3.506   7.572 -30.219  1.00  0.00     0.187 C 
BRANCH  33  34
HETATM   34  O   UNL     1      -2.331   6.754 -30.221  1.00  0.00    -0.394 OA
HETATM   35  C   UNL     1      -1.279   7.342 -30.971  1.00  0.00     0.201 C 
ENDBRANCH  33  34
ENDBRANCH  32  33
ENDBRANCH   3  32
TORSDOF 8
ENDMDL
MODEL 10
REMARK VINA RESULT:      -6.6      3.230      9.349
REMARK  8 active torsions:
REMARK  status: ('A' for Active; 'I' for Inactive)
REMARK    1  A    between atoms: C_2  and  O_3 
REMARK    2  A    between atoms: O_3  and  C_4 
REMARK       I    between atoms: C_4  and  N_5 
REMARK    3  A    between atoms: C_8  and  N_9 
REMARK       I    between atoms: N_9  and  C_10 
REMARK    4  A    between atoms: C_10  and  C_11 
REMARK    5  A    between atoms: C_12  and  C_13 
REMARK    6  A    between atoms: N_18  and  C_19 
REMARK    7  A    between atoms: C_19  and  C_20 
REMARK    8  A    between atoms: C_20  and  O_21 
ROOT
HETATM    1  C   UNL     1      -1.728   7.102 -28.183  1.00  0.00     0.139 C 
HETATM    2  C   UNL     1      -2.944   7.944 -27.744  1.00  0.00     0.145 C 
HETATM    3  N   UNL     1      -2.794   9.360 -28.106  1.00  0.00    -0.335 N 
HETATM    4  C   UNL     1      -1.604  10.008 -27.777  1.00  0.00     0.255 C 
HETATM    5  O   UNL     1      -1.450  11.223 -27.862  1.00  0.00    -0.267 OA
HETATM    6  C   UNL     1      -0.463   9.139 -27.346  1.00  0.00     0.039 A 
HETATM    7  C   UNL     1      -0.495   7.744 -27.558  1.00  0.00    -0.027 A 
HETATM    8  C   UNL     1       0.665   9.733 -26.770  1.00  0.00     0.017 A 
HETATM    9  C   UNL     1       1.754   8.947 -26.392  1.00  0.00     0.001 A 
HETATM   10  C   UNL     1       1.725   7.568 -26.599  1.00  0.00     0.001 A 
HETATM   11  C   UNL     1       0.609   6.965 -27.182  1.00  0.00     0.009 A 
ENDROOT
BRANCH   1  12
HETATM   12  C   UNL     1      -1.576   7.006 -29.707  1.00  0.00     0.229 C 
HETATM   13  N   UNL     1      -2.253   5.937 -30.272  1.00  0.00    -0.356 N 
HETATM   14  H   UNL     1      -2.888   5.446 -29.655  1.00  0.00     0.162 HD
HETATM   15  O   UNL     1      -0.885   7.781 -30.360  1.00  0.00    -0.273 OA
BRANCH  13  16
HETATM   16  C   UNL     1      -2.564   5.796 -31.701  1.00  0.00     0.087 C 
HETATM   17  C   UNL     1      -2.181   4.481 -32.394  1.00  0.00     0.045 C 
HETATM   18  C   UNL     1      -3.020   3.312 -31.902  1.00  0.00     0.130 C 
HETATM   19  N   UNL     1      -4.448   3.603 -32.030  1.00  0.00    -0.328 N 
HETATM   20  C   UNL     1      -5.382   2.603 -32.264  1.00  0.00     0.362 C 
HETATM   21  C   UNL     1      -4.906   4.862 -31.458  1.00  0.00     0.130 C 
HETATM   22  O   UNL     1      -6.592   2.757 -32.139  1.00  0.00    -0.238 OA
HETATM   23  C   UNL     1      -4.063   6.047 -31.925  1.00  0.00     0.045 C 
BRANCH  20  24
HETATM   24  O   UNL     1      -4.807   1.436 -32.661  1.00  0.00    -0.304 OA
BRANCH  24  25
HETATM   25  C   UNL     1      -5.650   0.513 -33.363  1.00  0.00     0.176 C 
HETATM   26  C   UNL     1      -5.554  -0.859 -32.727  1.00  0.00     0.034 C 
ENDBRANCH  24  25
ENDBRANCH  20  24
ENDBRANCH  13  16
ENDBRANCH   1  12
BRANCH   2  27
HETATM   27  C   UNL     1      -4.327   7.359 -27.968  1.00  0.00     0.006 A 
HETATM   28  S   UNL     1      -4.968   6.068 -27.036  1.00  0.00    -0.104 SA
HETATM   29  C   UNL     1      -6.440   6.068 -27.896  1.00  0.00     0.050 A 
HETATM   30  C   UNL     1      -6.471   7.046 -28.863  1.00  0.00     0.008 A 
HETATM   31  C   UNL     1      -5.260   7.793 -28.897  1.00  0.00     0.017 A 
ENDBRANCH   2  27
BRANCH   3  32
HETATM   32  C   UNL     1      -3.694  10.032 -29.048  1.00  0.00     0.153 C 
BRANCH  32  33
HETATM   33  C   UNL     1      -3.097  10.220 -30.441  1.00  0.00     0.187 C 
BRANCH  33  34
HETATM   34  O   UNL     1      -4.165  10.274 -31.392  1.00  0.00    -0.394 OA
HETATM   35  C   UNL     1      -5.252  11.058 -30.923  1.00  0.00     0.201 C 
ENDBRANCH  33  34
ENDBRANCH  32  33
ENDBRANCH   3  32
TORSDOF 8
ENDMDL
