MODEL 1
REMARK VINA RESULT:      -8.6      0.000      0.000
REMARK  8 active torsions:
REMARK  status: ('A' for Active; 'I' for Inactive)
REMARK    1  A    between atoms: C_3  and  N_4 
REMARK       I    between atoms: N_4  and  C_5 
REMARK       I    between atoms: C_5  and  N_6 
REMARK       I    between atoms: N_6  and  C_7 
REMARK    2  A    between atoms: C_7  and  C_8 
REMARK    3  A    between atoms: C_8  and  N_9 
REMARK    4  A    between atoms: N_9  and  C_11 
REMARK    5  A    between atoms: N_9  and  C_17 
REMARK    6  A    between atoms: C_11  and  C_12 
REMARK    7  A    between atoms: C_17  and  C_18 
REMARK    8  A    between atoms: C_19  and  O_20 
ROOT
HETATM    1  N   UNL     1      -6.364   0.488 -31.645  1.00  0.00    -0.053 N 
HETATM    2  H   UNL     1      -6.721  -0.460 -31.457  1.00  0.00     0.281 HD
ENDROOT
BRANCH   1   3
HETATM    3  C   UNL     1      -5.195   0.635 -30.674  1.00  0.00     0.338 C 
BRANCH   3   4
HETATM    4  C   UNL     1      -4.236   1.763 -31.054  1.00  0.00     0.251 C 
HETATM    5  N   UNL     1      -4.780   3.027 -30.970  1.00  0.00    -0.278 N 
HETATM    6  C   UNL     1      -4.119   4.226 -30.889  1.00  0.00     0.323 C 
HETATM    7  H   UNL     1      -5.726   3.145 -30.630  1.00  0.00     0.173 HD
HETATM    8  N   UNL     1      -2.800   4.215 -31.215  1.00  0.00    -0.338 N 
HETATM    9  O   UNL     1      -4.743   5.202 -30.491  1.00  0.00    -0.247 OA
HETATM   10  H   UNL     1      -2.427   3.363 -31.621  1.00  0.00     0.164 HD
HETATM   11  O   UNL     1      -3.094   1.503 -31.436  1.00  0.00    -0.271 OA
BRANCH   8  12
HETATM   12  C   UNL     1      -1.934   5.394 -31.229  1.00  0.00     0.089 C 
HETATM   13  C   UNL     1      -1.425   5.772 -32.640  1.00  0.00     0.004 C 
HETATM   14  C   UNL     1      -2.580   6.020 -33.616  1.00  0.00     0.012 C 
HETATM   15  C   UNL     1      -0.526   7.020 -32.576  1.00  0.00     0.006 C 
HETATM   16  C   UNL     1       0.618   6.849 -31.580  1.00  0.00     0.001 C 
HETATM   17  C   UNL     1       0.102   6.491 -30.191  1.00  0.00     0.002 C 
HETATM   18  C   UNL     1      -0.778   5.247 -30.228  1.00  0.00     0.026 C 
ENDBRANCH   8  12
ENDBRANCH   3   4
ENDBRANCH   1   3
BRANCH   1  19
HETATM   19  C   UNL     1      -7.540   1.402 -31.370  1.00  0.00     0.300 C 
BRANCH  19  20
HETATM   20  C   UNL     1      -8.724   1.182 -32.239  1.00  0.00     0.078 A 
HETATM   21  O   UNL     1      -9.024   2.176 -33.126  1.00  0.00    -0.325 OA
HETATM   22  C   UNL     1     -10.137   1.788 -33.800  1.00  0.00     0.142 A 
HETATM   23  C   UNL     1     -10.555   0.554 -33.362  1.00  0.00     0.027 A 
HETATM   24  C   UNL     1      -9.646   0.161 -32.350  1.00  0.00     0.036 A 
ENDBRANCH  19  20
ENDBRANCH   1  19
BRANCH   1  25
HETATM   25  C   UNL     1      -5.912   0.508 -33.083  1.00  0.00     0.277 C 
BRANCH  25  26
HETATM   26  C   UNL     1      -5.786  -0.870 -33.667  1.00  0.00     0.001 A 
HETATM   27  C   UNL     1      -4.537  -1.493 -33.781  1.00  0.00     0.073 A 
HETATM   28  C   UNL     1      -4.412  -2.768 -34.328  1.00  0.00     0.037 A 
HETATM   29  C   UNL     1      -5.550  -3.441 -34.766  1.00  0.00     0.003 A 
HETATM   30  C   UNL     1      -6.804  -2.843 -34.652  1.00  0.00     0.001 A 
HETATM   31  C   UNL     1      -6.924  -1.565 -34.102  1.00  0.00     0.011 A 
BRANCH  27  32
HETATM   32  O   UNL     1      -3.431  -0.826 -33.336  1.00  0.00    -0.360 OA
HETATM   33  H   UNL     1      -3.657  -0.398 -32.486  1.00  0.00     0.217 HD
ENDBRANCH  27  32
ENDBRANCH  25  26
ENDBRANCH   1  25
TORSDOF 8
ENDMDL
MODEL 2
REMARK VINA RESULT:      -8.3      1.389      2.094
REMARK  8 active torsions:
REMARK  status: ('A' for Active; 'I' for Inactive)
REMARK    1  A    between atoms: C_3  and  N_4 
REMARK       I    between atoms: N_4  and  C_5 
REMARK       I    between atoms: C_5  and  N_6 
REMARK       I    between atoms: N_6  and  C_7 
REMARK    2  A    between atoms: C_7  and  C_8 
REMARK    3  A    between atoms: C_8  and  N_9 
REMARK    4  A    between atoms: N_9  and  C_11 
REMARK    5  A    between atoms: N_9  and  C_17 
REMARK    6  A    between atoms: C_11  and  C_12 
REMARK    7  A    between atoms: C_17  and  C_18 
REMARK    8  A    between atoms: C_19  and  O_20 
ROOT
HETATM    1  N   UNL     1      -6.867   2.044 -32.957  1.00  0.00    -0.053 N 
HETATM    2  H   UNL     1      -5.972   1.833 -32.493  1.00  0.00     0.281 HD
ENDROOT
BRANCH   1   3
HETATM    3  C   UNL     1      -6.867   3.567 -33.070  1.00  0.00     0.338 C 
BRANCH   3   4
HETATM    4  C   UNL     1      -5.710   4.227 -32.320  1.00  0.00     0.251 C 
HETATM    5  N   UNL     1      -4.799   3.341 -31.783  1.00  0.00    -0.278 N 
HETATM    6  C   UNL     1      -3.512   3.594 -31.385  1.00  0.00     0.323 C 
HETATM    7  H   UNL     1      -4.908   2.348 -31.947  1.00  0.00     0.173 HD
HETATM    8  N   UNL     1      -3.172   4.899 -31.221  1.00  0.00    -0.338 N 
HETATM    9  O   UNL     1      -2.753   2.641 -31.249  1.00  0.00    -0.247 OA
HETATM   10  H   UNL     1      -3.919   5.585 -31.272  1.00  0.00     0.164 HD
HETATM   11  O   UNL     1      -5.668   5.452 -32.201  1.00  0.00    -0.271 OA
BRANCH   8  12
HETATM   12  C   UNL     1      -1.864   5.370 -30.765  1.00  0.00     0.089 C 
HETATM   13  C   UNL     1      -1.862   6.850 -30.311  1.00  0.00     0.004 C 
HETATM   14  C   UNL     1      -2.875   7.104 -29.190  1.00  0.00     0.012 C 
HETATM   15  C   UNL     1      -0.458   7.270 -29.845  1.00  0.00     0.006 C 
HETATM   16  C   UNL     1       0.604   6.995 -30.906  1.00  0.00     0.001 C 
HETATM   17  C   UNL     1       0.601   5.532 -31.334  1.00  0.00     0.002 C 
HETATM   18  C   UNL     1      -0.778   5.096 -31.817  1.00  0.00     0.026 C 
ENDBRANCH   8  12
ENDBRANCH   3   4
ENDBRANCH   1   3
BRANCH   1  19
HETATM   19  C   UNL     1      -7.922   1.474 -32.034  1.00  0.00     0.300 C 
BRANCH  19  20
HETATM   20  C   UNL     1      -9.272   1.328 -32.637  1.00  0.00     0.078 A 
HETATM   21  O   UNL     1      -9.990   2.477 -32.810  1.00  0.00    -0.325 OA
HETATM   22  C   UNL     1     -11.186   2.124 -33.350  1.00  0.00     0.142 A 
HETATM   23  C   UNL     1     -11.244   0.762 -33.531  1.00  0.00     0.027 A 
HETATM   24  C   UNL     1     -10.010   0.245 -33.067  1.00  0.00     0.036 A 
ENDBRANCH  19  20
ENDBRANCH   1  19
BRANCH   1  25
HETATM   25  C   UNL     1      -6.827   1.377 -34.309  1.00  0.00     0.277 C 
BRANCH  25  26
HETATM   26  C   UNL     1      -6.295  -0.027 -34.243  1.00  0.00     0.001 A 
HETATM   27  C   UNL     1      -5.090  -0.311 -33.589  1.00  0.00     0.073 A 
HETATM   28  C   UNL     1      -4.588  -1.609 -33.530  1.00  0.00     0.037 A 
HETATM   29  C   UNL     1      -5.299  -2.648 -34.127  1.00  0.00     0.003 A 
HETATM   30  C   UNL     1      -6.507  -2.388 -34.773  1.00  0.00     0.001 A 
HETATM   31  C   UNL     1      -7.005  -1.085 -34.829  1.00  0.00     0.011 A 
BRANCH  27  32
HETATM   32  O   UNL     1      -4.410   0.716 -32.998  1.00  0.00    -0.360 OA
HETATM   33  H   UNL     1      -5.064   1.326 -32.603  1.00  0.00     0.217 HD
ENDBRANCH  27  32
ENDBRANCH  25  26
ENDBRANCH   1  25
TORSDOF 8
ENDMDL
MODEL 3
REMARK VINA RESULT:      -8.3      1.938      2.506
REMARK  8 active torsions:
REMARK  status: ('A' for Active; 'I' for Inactive)
REMARK    1  A    between atoms: C_3  and  N_4 
REMARK       I    between atoms: N_4  and  C_5 
REMARK       I    between atoms: C_5  and  N_6 
REMARK       I    between atoms: N_6  and  C_7 
REMARK    2  A    between atoms: C_7  and  C_8 
REMARK    3  A    between atoms: C_8  and  N_9 
REMARK    4  A    between atoms: N_9  and  C_11 
REMARK    5  A    between atoms: N_9  and  C_17 
REMARK    6  A    between atoms: C_11  and  C_12 
REMARK    7  A    between atoms: C_17  and  C_18 
REMARK    8  A    between atoms: C_19  and  O_20 
ROOT
HETATM    1  N   UNL     1      -6.230  -0.334 -33.183  1.00  0.00    -0.053 N 
HETATM    2  H   UNL     1      -6.491  -1.187 -32.668  1.00  0.00     0.281 HD
ENDROOT
BRANCH   1   3
HETATM    3  C   UNL     1      -6.326   0.769 -32.131  1.00  0.00     0.338 C 
BRANCH   3   4
HETATM    4  C   UNL     1      -5.356   1.923 -32.379  1.00  0.00     0.251 C 
HETATM    5  N   UNL     1      -5.757   2.804 -33.361  1.00  0.00    -0.278 N 
HETATM    6  C   UNL     1      -5.323   4.088 -33.571  1.00  0.00     0.323 C 
HETATM    7  H   UNL     1      -6.653   2.678 -33.814  1.00  0.00     0.173 HD
HETATM    8  N   UNL     1      -4.175   4.452 -32.941  1.00  0.00    -0.338 N 
HETATM    9  O   UNL     1      -6.014   4.824 -34.266  1.00  0.00    -0.247 OA
HETATM   10  H   UNL     1      -3.649   3.720 -32.472  1.00  0.00     0.164 HD
HETATM   11  O   UNL     1      -4.298   1.989 -31.752  1.00  0.00    -0.271 OA
BRANCH   8  12
HETATM   12  C   UNL     1      -3.532   5.759 -33.067  1.00  0.00     0.089 C 
HETATM   13  C   UNL     1      -2.072   5.685 -33.574  1.00  0.00     0.004 C 
HETATM   14  C   UNL     1      -1.974   4.974 -34.929  1.00  0.00     0.012 C 
HETATM   15  C   UNL     1      -1.465   7.094 -33.685  1.00  0.00     0.006 C 
HETATM   16  C   UNL     1      -1.577   7.870 -32.375  1.00  0.00     0.001 C 
HETATM   17  C   UNL     1      -3.022   7.948 -31.894  1.00  0.00     0.002 C 
HETATM   18  C   UNL     1      -3.640   6.560 -31.761  1.00  0.00     0.026 C 
ENDBRANCH   8  12
ENDBRANCH   3   4
ENDBRANCH   1   3
BRANCH   1  19
HETATM   19  C   UNL     1      -7.245  -0.236 -34.303  1.00  0.00     0.300 C 
BRANCH  19  20
HETATM   20  C   UNL     1      -8.482   0.515 -33.966  1.00  0.00     0.078 A 
HETATM   21  O   UNL     1      -8.559   1.799 -34.423  1.00  0.00    -0.325 OA
HETATM   22  C   UNL     1      -9.744   2.305 -33.996  1.00  0.00     0.142 A 
HETATM   23  C   UNL     1     -10.434   1.361 -33.274  1.00  0.00     0.027 A 
HETATM   24  C   UNL     1      -9.619   0.203 -33.250  1.00  0.00     0.036 A 
ENDBRANCH  19  20
ENDBRANCH   1  19
BRANCH   1  25
HETATM   25  C   UNL     1      -4.816  -0.531 -33.670  1.00  0.00     0.277 C 
BRANCH  25  26
HETATM   26  C   UNL     1      -4.291  -1.907 -33.373  1.00  0.00     0.001 A 
HETATM   27  C   UNL     1      -4.559  -2.981 -34.230  1.00  0.00     0.073 A 
HETATM   28  C   UNL     1      -4.081  -4.260 -33.957  1.00  0.00     0.037 A 
HETATM   29  C   UNL     1      -3.317  -4.478 -32.812  1.00  0.00     0.003 A 
HETATM   30  C   UNL     1      -3.030  -3.419 -31.952  1.00  0.00     0.001 A 
HETATM   31  C   UNL     1      -3.511  -2.139 -32.231  1.00  0.00     0.011 A 
BRANCH  27  32
HETATM   32  O   UNL     1      -5.300  -2.750 -35.355  1.00  0.00    -0.360 OA
HETATM   33  H   UNL     1      -5.298  -1.787 -35.526  1.00  0.00     0.217 HD
ENDBRANCH  27  32
ENDBRANCH  25  26
ENDBRANCH   1  25
TORSDOF 8
ENDMDL
MODEL 4
REMARK VINA RESULT:      -8.3      3.431      6.797
REMARK  8 active torsions:
REMARK  status: ('A' for Active; 'I' for Inactive)
REMARK    1  A    between atoms: C_3  and  N_4 
REMARK       I    between atoms: N_4  and  C_5 
REMARK       I    between atoms: C_5  and  N_6 
REMARK       I    between atoms: N_6  and  C_7 
REMARK    2  A    between atoms: C_7  and  C_8 
REMARK    3  A    between atoms: C_8  and  N_9 
REMARK    4  A    between atoms: N_9  and  C_11 
REMARK    5  A    between atoms: N_9  and  C_17 
REMARK    6  A    between atoms: C_11  and  C_12 
REMARK    7  A    between atoms: C_17  and  C_18 
REMARK    8  A    between atoms: C_19  and  O_20 
ROOT
HETATM    1  N   UNL     1      -4.890   0.137 -32.052  1.00  0.00    -0.053 N 
HETATM    2  H   UNL     1      -5.239  -0.025 -33.007  1.00  0.00     0.281 HD
ENDROOT
BRANCH   1   3
HETATM    3  C   UNL     1      -6.128  -0.047 -31.177  1.00  0.00     0.338 C 
BRANCH   3   4
HETATM    4  C   UNL     1      -7.429   0.319 -31.890  1.00  0.00     0.251 C 
HETATM    5  N   UNL     1      -8.210   1.236 -31.218  1.00  0.00    -0.278 N 
HETATM    6  C   UNL     1      -9.215   2.020 -31.725  1.00  0.00     0.323 C 
HETATM    7  H   UNL     1      -7.878   1.640 -30.352  1.00  0.00     0.173 HD
HETATM    8  N   UNL     1      -9.703   1.669 -32.944  1.00  0.00    -0.338 N 
HETATM    9  O   UNL     1      -9.567   2.997 -31.075  1.00  0.00    -0.247 OA
HETATM   10  H   UNL     1      -9.393   0.784 -33.333  1.00  0.00     0.164 HD
HETATM   11  O   UNL     1      -7.724  -0.222 -32.957  1.00  0.00    -0.271 OA
BRANCH   8  12
HETATM   12  C   UNL     1     -10.797   2.353 -33.633  1.00  0.00     0.089 C 
HETATM   13  C   UNL     1     -11.724   1.400 -34.424  1.00  0.00     0.004 C 
HETATM   14  C   UNL     1     -12.332   0.319 -33.524  1.00  0.00     0.012 C 
HETATM   15  C   UNL     1     -12.848   2.189 -35.117  1.00  0.00     0.006 C 
HETATM   16  C   UNL     1     -12.302   3.313 -35.993  1.00  0.00     0.001 C 
HETATM   17  C   UNL     1     -11.402   4.254 -35.198  1.00  0.00     0.002 C 
HETATM   18  C   UNL     1     -10.269   3.495 -34.515  1.00  0.00     0.026 C 
ENDBRANCH   8  12
ENDBRANCH   3   4
ENDBRANCH   1   3
BRANCH   1  19
HETATM   19  C   UNL     1      -4.332   1.544 -32.080  1.00  0.00     0.300 C 
BRANCH  19  20
HETATM   20  C   UNL     1      -5.264   2.580 -32.596  1.00  0.00     0.078 A 
HETATM   21  O   UNL     1      -5.744   3.477 -31.686  1.00  0.00    -0.325 OA
HETATM   22  C   UNL     1      -6.582   4.313 -32.352  1.00  0.00     0.142 A 
HETATM   23  C   UNL     1      -6.642   3.969 -33.682  1.00  0.00     0.027 A 
HETATM   24  C   UNL     1      -5.795   2.846 -33.841  1.00  0.00     0.036 A 
ENDBRANCH  19  20
ENDBRANCH   1  19
BRANCH   1  25
HETATM   25  C   UNL     1      -3.846  -0.918 -31.783  1.00  0.00     0.277 C 
BRANCH  25  26
HETATM   26  C   UNL     1      -3.991  -2.114 -32.681  1.00  0.00     0.001 A 
HETATM   27  C   UNL     1      -3.322  -3.311 -32.400  1.00  0.00     0.073 A 
HETATM   28  C   UNL     1      -3.446  -4.421 -33.232  1.00  0.00     0.037 A 
HETATM   29  C   UNL     1      -4.256  -4.345 -34.362  1.00  0.00     0.003 A 
HETATM   30  C   UNL     1      -4.940  -3.166 -34.654  1.00  0.00     0.001 A 
HETATM   31  C   UNL     1      -4.812  -2.056 -33.816  1.00  0.00     0.011 A 
BRANCH  27  32
HETATM   32  O   UNL     1      -2.540  -3.375 -31.281  1.00  0.00    -0.360 OA
HETATM   33  H   UNL     1      -3.127  -3.342 -30.499  1.00  0.00     0.217 HD
ENDBRANCH  27  32
ENDBRANCH  25  26
ENDBRANCH   1  25
TORSDOF 8
ENDMDL
MODEL 5
REMARK VINA RESULT:      -8.2      2.131      8.216
REMARK  8 active torsions:
REMARK  status: ('A' for Active; 'I' for Inactive)
REMARK    1  A    between atoms: C_3  and  N_4 
REMARK       I    between atoms: N_4  and  C_5 
REMARK       I    between atoms: C_5  and  N_6 
REMARK       I    between atoms: N_6  and  C_7 
REMARK    2  A    between atoms: C_7  and  C_8 
REMARK    3  A    between atoms: C_8  and  N_9 
REMARK    4  A    between atoms: N_9  and  C_11 
REMARK    5  A    between atoms: N_9  and  C_17 
REMARK    6  A    between atoms: C_11  and  C_12 
REMARK    7  A    between atoms: C_17  and  C_18 
REMARK    8  A    between atoms: C_19  and  O_20 
ROOT
HETATM    1  N   UNL     1      -4.233   5.510 -31.272  1.00  0.00    -0.053 N 
HETATM    2  H   UNL     1      -3.725   4.649 -31.519  1.00  0.00     0.281 HD
ENDROOT
BRANCH   1   3
HETATM    3  C   UNL     1      -5.606   5.007 -30.831  1.00  0.00     0.338 C 
BRANCH   3   4
HETATM    4  C   UNL     1      -5.821   3.520 -31.109  1.00  0.00     0.251 C 
HETATM    5  N   UNL     1      -6.228   3.233 -32.395  1.00  0.00    -0.278 N 
HETATM    6  C   UNL     1      -6.160   2.032 -33.053  1.00  0.00     0.323 C 
HETATM    7  H   UNL     1      -6.313   3.980 -33.074  1.00  0.00     0.173 HD
HETATM    8  N   UNL     1      -5.941   0.931 -32.287  1.00  0.00    -0.338 N 
HETATM    9  O   UNL     1      -6.254   2.038 -34.275  1.00  0.00    -0.247 OA
HETATM   10  H   UNL     1      -5.977   1.050 -31.279  1.00  0.00     0.164 HD
HETATM   11  O   UNL     1      -5.667   2.693 -30.209  1.00  0.00    -0.271 OA
BRANCH   8  12
HETATM   12  C   UNL     1      -5.874  -0.439 -32.794  1.00  0.00     0.089 C 
HETATM   13  C   UNL     1      -4.551  -0.764 -33.529  1.00  0.00     0.004 C 
HETATM   14  C   UNL     1      -3.330  -0.529 -32.633  1.00  0.00     0.012 C 
HETATM   15  C   UNL     1      -4.553  -2.218 -34.030  1.00  0.00     0.006 C 
HETATM   16  C   UNL     1      -5.776  -2.525 -34.891  1.00  0.00     0.001 C 
HETATM   17  C   UNL     1      -7.072  -2.214 -34.151  1.00  0.00     0.002 C 
HETATM   18  C   UNL     1      -7.100  -0.771 -33.659  1.00  0.00     0.026 C 
ENDBRANCH   8  12
ENDBRANCH   3   4
ENDBRANCH   1   3
BRANCH   1  19
HETATM   19  C   UNL     1      -4.234   6.334 -32.542  1.00  0.00     0.300 C 
BRANCH  19  20
HETATM   20  C   UNL     1      -3.084   6.090 -33.451  1.00  0.00     0.078 A 
HETATM   21  O   UNL     1      -2.918   4.809 -33.895  1.00  0.00    -0.325 OA
HETATM   22  C   UNL     1      -1.814   4.800 -34.686  1.00  0.00     0.142 A 
HETATM   23  C   UNL     1      -1.270   6.060 -34.761  1.00  0.00     0.027 A 
HETATM   24  C   UNL     1      -2.087   6.895 -33.961  1.00  0.00     0.036 A 
ENDBRANCH  19  20
ENDBRANCH   1  19
BRANCH   1  25
HETATM   25  C   UNL     1      -3.475   6.155 -30.139  1.00  0.00     0.277 C 
BRANCH  25  26
HETATM   26  C   UNL     1      -2.000   6.245 -30.409  1.00  0.00     0.001 A 
HETATM   27  C   UNL     1      -1.272   5.121 -30.817  1.00  0.00     0.073 A 
HETATM   28  C   UNL     1       0.097   5.196 -31.062  1.00  0.00     0.037 A 
HETATM   29  C   UNL     1       0.757   6.413 -30.907  1.00  0.00     0.003 A 
HETATM   30  C   UNL     1       0.048   7.547 -30.513  1.00  0.00     0.001 A 
HETATM   31  C   UNL     1      -1.324   7.466 -30.268  1.00  0.00     0.011 A 
BRANCH  27  32
HETATM   32  O   UNL     1      -1.935   3.936 -30.977  1.00  0.00    -0.360 OA
HETATM   33  H   UNL     1      -1.563   3.484 -31.760  1.00  0.00     0.217 HD
ENDBRANCH  27  32
ENDBRANCH  25  26
ENDBRANCH   1  25
TORSDOF 8
ENDMDL
MODEL 6
REMARK VINA RESULT:      -8.2      1.968      7.024
REMARK  8 active torsions:
REMARK  status: ('A' for Active; 'I' for Inactive)
REMARK    1  A    between atoms: C_3  and  N_4 
REMARK       I    between atoms: N_4  and  C_5 
REMARK       I    between atoms: C_5  and  N_6 
REMARK       I    between atoms: N_6  and  C_7 
REMARK    2  A    between atoms: C_7  and  C_8 
REMARK    3  A    between atoms: C_8  and  N_9 
REMARK    4  A    between atoms: N_9  and  C_11 
REMARK    5  A    between atoms: N_9  and  C_17 
REMARK    6  A    between atoms: C_11  and  C_12 
REMARK    7  A    between atoms: C_17  and  C_18 
REMARK    8  A    between atoms: C_19  and  O_20 
ROOT
HETATM    1  N   UNL     1      -5.617   5.165 -31.964  1.00  0.00    -0.053 N 
HETATM    2  H   UNL     1      -5.610   4.617 -32.836  1.00  0.00     0.281 HD
ENDROOT
BRANCH   1   3
HETATM    3  C   UNL     1      -4.950   4.240 -30.948  1.00  0.00     0.338 C 
BRANCH   3   4
HETATM    4  C   UNL     1      -4.802   2.803 -31.448  1.00  0.00     0.251 C 
HETATM    5  N   UNL     1      -5.694   1.911 -30.892  1.00  0.00    -0.278 N 
HETATM    6  C   UNL     1      -6.060   0.678 -31.367  1.00  0.00     0.323 C 
HETATM    7  H   UNL     1      -6.401   2.242 -30.248  1.00  0.00     0.173 HD
HETATM    8  N   UNL     1      -5.264   0.134 -32.325  1.00  0.00    -0.338 N 
HETATM    9  O   UNL     1      -7.092   0.176 -30.934  1.00  0.00    -0.247 OA
HETATM   10  H   UNL     1      -4.388   0.608 -32.526  1.00  0.00     0.164 HD
HETATM   11  O   UNL     1      -3.915   2.516 -32.253  1.00  0.00    -0.271 OA
BRANCH   8  12
HETATM   12  C   UNL     1      -5.464  -1.183 -32.927  1.00  0.00     0.089 C 
HETATM   13  C   UNL     1      -4.144  -1.906 -33.288  1.00  0.00     0.004 C 
HETATM   14  C   UNL     1      -3.234  -2.076 -32.066  1.00  0.00     0.012 C 
HETATM   15  C   UNL     1      -4.433  -3.282 -33.912  1.00  0.00     0.006 C 
HETATM   16  C   UNL     1      -5.375  -3.180 -35.109  1.00  0.00     0.001 C 
HETATM   17  C   UNL     1      -6.677  -2.480 -34.737  1.00  0.00     0.002 C 
HETATM   18  C   UNL     1      -6.415  -1.105 -34.131  1.00  0.00     0.026 C 
ENDBRANCH   8  12
ENDBRANCH   3   4
ENDBRANCH   1   3
BRANCH   1  19
HETATM   19  C   UNL     1      -7.081   5.449 -31.700  1.00  0.00     0.300 C 
BRANCH  19  20
HETATM   20  C   UNL     1      -8.030   4.490 -32.322  1.00  0.00     0.078 A 
HETATM   21  O   UNL     1      -8.396   3.415 -31.563  1.00  0.00    -0.325 OA
HETATM   22  C   UNL     1      -9.241   2.664 -32.316  1.00  0.00     0.142 A 
HETATM   23  C   UNL     1      -9.428   3.244 -33.548  1.00  0.00     0.027 A 
HETATM   24  C   UNL     1      -8.643   4.423 -33.556  1.00  0.00     0.036 A 
ENDBRANCH  19  20
ENDBRANCH   1  19
BRANCH   1  25
HETATM   25  C   UNL     1      -4.801   6.406 -32.220  1.00  0.00     0.277 C 
BRANCH  25  26
HETATM   26  C   UNL     1      -3.588   6.134 -33.064  1.00  0.00     0.001 A 
HETATM   27  C   UNL     1      -3.693   5.434 -34.272  1.00  0.00     0.073 A 
HETATM   28  C   UNL     1      -2.571   5.172 -35.055  1.00  0.00     0.037 A 
HETATM   29  C   UNL     1      -1.321   5.619 -34.635  1.00  0.00     0.003 A 
HETATM   30  C   UNL     1      -1.197   6.328 -33.441  1.00  0.00     0.001 A 
HETATM   31  C   UNL     1      -2.324   6.588 -32.660  1.00  0.00     0.011 A 
BRANCH  27  32
HETATM   32  O   UNL     1      -4.928   5.012 -34.677  1.00  0.00    -0.360 OA
HETATM   33  H   UNL     1      -5.525   5.035 -33.903  1.00  0.00     0.217 HD
ENDBRANCH  27  32
ENDBRANCH  25  26
ENDBRANCH   1  25
TORSDOF 8
ENDMDL
MODEL 7
REMARK VINA RESULT:      -8.2      1.814      2.368
REMARK  8 active torsions:
REMARK  status: ('A' for Active; 'I' for Inactive)
REMARK    1  A    between atoms: C_3  and  N_4 
REMARK       I    between atoms: N_4  and  C_5 
REMARK       I    between atoms: C_5  and  N_6 
REMARK       I    between atoms: N_6  and  C_7 
REMARK    2  A    between atoms: C_7  and  C_8 
REMARK    3  A    between atoms: C_8  and  N_9 
REMARK    4  A    between atoms: N_9  and  C_11 
REMARK    5  A    between atoms: N_9  and  C_17 
REMARK    6  A    between atoms: C_11  and  C_12 
REMARK    7  A    between atoms: C_17  and  C_18 
REMARK    8  A    between atoms: C_19  and  O_20 
ROOT
HETATM    1  N   UNL     1      -5.135   0.560 -32.256  1.00  0.00    -0.053 N 
HETATM    2  H   UNL     1      -4.525   0.532 -31.427  1.00  0.00     0.281 HD
ENDROOT
BRANCH   1   3
HETATM    3  C   UNL     1      -5.411   2.048 -32.456  1.00  0.00     0.338 C 
BRANCH   3   4
HETATM    4  C   UNL     1      -4.344   2.947 -31.832  1.00  0.00     0.251 C 
HETATM    5  N   UNL     1      -3.716   3.792 -32.723  1.00  0.00    -0.278 N 
HETATM    6  C   UNL     1      -3.005   4.931 -32.446  1.00  0.00     0.323 C 
HETATM    7  H   UNL     1      -4.012   3.811 -33.691  1.00  0.00     0.173 HD
HETATM    8  N   UNL     1      -2.620   5.108 -31.155  1.00  0.00    -0.338 N 
HETATM    9  O   UNL     1      -2.807   5.723 -33.361  1.00  0.00    -0.247 OA
HETATM   10  H   UNL     1      -2.763   4.333 -30.515  1.00  0.00     0.164 HD
HETATM   11  O   UNL     1      -4.079   2.852 -30.632  1.00  0.00    -0.271 OA
BRANCH   8  12
HETATM   12  C   UNL     1      -1.824   6.235 -30.670  1.00  0.00     0.089 C 
HETATM   13  C   UNL     1      -0.424   5.828 -30.152  1.00  0.00     0.004 C 
HETATM   14  C   UNL     1       0.391   5.099 -31.225  1.00  0.00     0.012 C 
HETATM   15  C   UNL     1       0.353   7.062 -29.662  1.00  0.00     0.006 C 
HETATM   16  C   UNL     1      -0.433   7.857 -28.623  1.00  0.00     0.001 C 
HETATM   17  C   UNL     1      -1.804   8.265 -29.150  1.00  0.00     0.002 C 
HETATM   18  C   UNL     1      -2.600   7.054 -29.627  1.00  0.00     0.026 C 
ENDBRANCH   8  12
ENDBRANCH   3   4
ENDBRANCH   1   3
BRANCH   1  19
HETATM   19  C   UNL     1      -6.345  -0.266 -31.870  1.00  0.00     0.300 C 
BRANCH  19  20
HETATM   20  C   UNL     1      -7.610   0.118 -32.547  1.00  0.00     0.078 A 
HETATM   21  O   UNL     1      -8.565   0.705 -31.768  1.00  0.00    -0.325 OA
HETATM   22  C   UNL     1      -9.635   0.956 -32.567  1.00  0.00     0.142 A 
HETATM   23  C   UNL     1      -9.377   0.542 -33.853  1.00  0.00     0.027 A 
HETATM   24  C   UNL     1      -8.071  -0.003 -33.842  1.00  0.00     0.036 A 
ENDBRANCH  19  20
ENDBRANCH   1  19
BRANCH   1  25
HETATM   25  C   UNL     1      -4.347  -0.029 -33.399  1.00  0.00     0.277 C 
BRANCH  25  26
HETATM   26  C   UNL     1      -4.012  -1.477 -33.183  1.00  0.00     0.001 A 
HETATM   27  C   UNL     1      -3.272  -1.886 -32.067  1.00  0.00     0.073 A 
HETATM   28  C   UNL     1      -2.951  -3.227 -31.864  1.00  0.00     0.037 A 
HETATM   29  C   UNL     1      -3.379  -4.182 -32.783  1.00  0.00     0.003 A 
HETATM   30  C   UNL     1      -4.127  -3.796 -33.895  1.00  0.00     0.001 A 
HETATM   31  C   UNL     1      -4.446  -2.452 -34.093  1.00  0.00     0.011 A 
BRANCH  27  32
HETATM   32  O   UNL     1      -2.869  -0.940 -31.168  1.00  0.00    -0.360 OA
HETATM   33  H   UNL     1      -3.199  -1.201 -30.285  1.00  0.00     0.217 HD
ENDBRANCH  27  32
ENDBRANCH  25  26
ENDBRANCH   1  25
TORSDOF 8
ENDMDL
MODEL 8
REMARK VINA RESULT:      -7.9      1.786      2.457
REMARK  8 active torsions:
REMARK  status: ('A' for Active; 'I' for Inactive)
REMARK    1  A    between atoms: C_3  and  N_4 
REMARK       I    between atoms: N_4  and  C_5 
REMARK       I    between atoms: C_5  and  N_6 
REMARK       I    between atoms: N_6  and  C_7 
REMARK    2  A    between atoms: C_7  and  C_8 
REMARK    3  A    between atoms: C_8  and  N_9 
REMARK    4  A    between atoms: N_9  and  C_11 
REMARK    5  A    between atoms: N_9  and  C_17 
REMARK    6  A    between atoms: C_11  and  C_12 
REMARK    7  A    between atoms: C_17  and  C_18 
REMARK    8  A    between atoms: C_19  and  O_20 
ROOT
HETATM    1  N   UNL     1      -7.960   1.303 -33.000  1.00  0.00    -0.053 N 
HETATM    2  H   UNL     1      -7.295   1.404 -32.221  1.00  0.00     0.281 HD
ENDROOT
BRANCH   1   3
HETATM    3  C   UNL     1      -7.230   1.931 -34.185  1.00  0.00     0.338 C 
BRANCH   3   4
HETATM    4  C   UNL     1      -6.388   3.146 -33.798  1.00  0.00     0.251 C 
HETATM    5  N   UNL     1      -5.393   2.881 -32.880  1.00  0.00    -0.278 N 
HETATM    6  C   UNL     1      -4.277   3.630 -32.608  1.00  0.00     0.323 C 
HETATM    7  H   UNL     1      -5.244   1.932 -32.561  1.00  0.00     0.173 HD
HETATM    8  N   UNL     1      -4.276   4.909 -33.067  1.00  0.00    -0.338 N 
HETATM    9  O   UNL     1      -3.350   3.088 -32.016  1.00  0.00    -0.247 OA
HETATM   10  H   UNL     1      -5.143   5.264 -33.457  1.00  0.00     0.164 HD
HETATM   11  O   UNL     1      -6.648   4.255 -34.268  1.00  0.00    -0.271 OA
BRANCH   8  12
HETATM   12  C   UNL     1      -3.199   5.873 -32.846  1.00  0.00     0.089 C 
HETATM   13  C   UNL     1      -1.834   5.420 -33.418  1.00  0.00     0.004 C 
HETATM   14  C   UNL     1      -1.914   5.132 -34.922  1.00  0.00     0.012 C 
HETATM   15  C   UNL     1      -0.755   6.484 -33.151  1.00  0.00     0.006 C 
HETATM   16  C   UNL     1      -0.664   6.847 -31.671  1.00  0.00     0.001 C 
HETATM   17  C   UNL     1      -2.011   7.305 -31.124  1.00  0.00     0.002 C 
HETATM   18  C   UNL     1      -3.094   6.258 -31.363  1.00  0.00     0.026 C 
ENDBRANCH   8  12
ENDBRANCH   3   4
ENDBRANCH   1   3
BRANCH   1  19
HETATM   19  C   UNL     1      -9.198   2.047 -32.547  1.00  0.00     0.300 C 
BRANCH  19  20
HETATM   20  C   UNL     1     -10.248   2.213 -33.585  1.00  0.00     0.078 A 
HETATM   21  O   UNL     1     -10.299   3.424 -34.213  1.00  0.00    -0.325 OA
HETATM   22  C   UNL     1     -11.327   3.372 -35.099  1.00  0.00     0.142 A 
HETATM   23  C   UNL     1     -11.935   2.139 -35.054  1.00  0.00     0.027 A 
HETATM   24  C   UNL     1     -11.241   1.389 -34.073  1.00  0.00     0.036 A 
ENDBRANCH  19  20
ENDBRANCH   1  19
BRANCH   1  25
HETATM   25  C   UNL     1      -8.186  -0.176 -33.194  1.00  0.00     0.277 C 
BRANCH  25  26
HETATM   26  C   UNL     1      -6.912  -0.922 -33.471  1.00  0.00     0.001 A 
HETATM   27  C   UNL     1      -5.801  -0.788 -32.630  1.00  0.00     0.073 A 
HETATM   28  C   UNL     1      -4.614  -1.471 -32.885  1.00  0.00     0.037 A 
HETATM   29  C   UNL     1      -4.529  -2.309 -33.995  1.00  0.00     0.003 A 
HETATM   30  C   UNL     1      -5.628  -2.465 -34.839  1.00  0.00     0.001 A 
HETATM   31  C   UNL     1      -6.815  -1.778 -34.578  1.00  0.00     0.011 A 
BRANCH  27  32
HETATM   32  O   UNL     1      -5.902   0.028 -31.538  1.00  0.00    -0.360 OA
HETATM   33  H   UNL     1      -5.972   0.951 -31.855  1.00  0.00     0.217 HD
ENDBRANCH  27  32
ENDBRANCH  25  26
ENDBRANCH   1  25
TORSDOF 8
ENDMDL
MODEL 9
REMARK VINA RESULT:      -7.9      1.940      7.247
REMARK  8 active torsions:
REMARK  status: ('A' for Active; 'I' for Inactive)
REMARK    1  A    between atoms: C_3  and  N_4 
REMARK       I    between atoms: N_4  and  C_5 
REMARK       I    between atoms: C_5  and  N_6 
REMARK       I    between atoms: N_6  and  C_7 
REMARK    2  A    between atoms: C_7  and  C_8 
REMARK    3  A    between atoms: C_8  and  N_9 
REMARK    4  A    between atoms: N_9  and  C_11 
REMARK    5  A    between atoms: N_9  and  C_17 
REMARK    6  A    between atoms: C_11  and  C_12 
REMARK    7  A    between atoms: C_17  and  C_18 
REMARK    8  A    between atoms: C_19  and  O_20 
ROOT
HETATM    1  N   UNL     1      -5.048   4.956 -30.924  1.00  0.00    -0.053 N 
HETATM    2  H   UNL     1      -4.680   4.483 -31.761  1.00  0.00     0.281 HD
ENDROOT
BRANCH   1   3
HETATM    3  C   UNL     1      -5.233   3.822 -29.917  1.00  0.00     0.338 C 
BRANCH   3   4
HETATM    4  C   UNL     1      -5.071   2.435 -30.537  1.00  0.00     0.251 C 
HETATM    5  N   UNL     1      -6.187   1.630 -30.434  1.00  0.00    -0.278 N 
HETATM    6  C   UNL     1      -6.492   0.514 -31.170  1.00  0.00     0.323 C 
HETATM    7  H   UNL     1      -7.034   1.996 -30.017  1.00  0.00     0.173 HD
HETATM    8  N   UNL     1      -5.476  -0.042 -31.879  1.00  0.00    -0.338 N 
HETATM    9  O   UNL     1      -7.655   0.127 -31.174  1.00  0.00    -0.247 OA
HETATM   10  H   UNL     1      -4.541   0.317 -31.715  1.00  0.00     0.164 HD
HETATM   11  O   UNL     1      -3.997   2.102 -31.038  1.00  0.00    -0.271 OA
BRANCH   8  12
HETATM   12  C   UNL     1      -5.591  -1.253 -32.692  1.00  0.00     0.089 C 
HETATM   13  C   UNL     1      -4.228  -1.816 -33.163  1.00  0.00     0.004 C 
HETATM   14  C   UNL     1      -3.300  -2.122 -31.982  1.00  0.00     0.012 C 
HETATM   15  C   UNL     1      -4.429  -3.086 -34.006  1.00  0.00     0.006 C 
HETATM   16  C   UNL     1      -5.385  -2.853 -35.173  1.00  0.00     0.001 C 
HETATM   17  C   UNL     1      -6.728  -2.313 -34.695  1.00  0.00     0.002 C 
HETATM   18  C   UNL     1      -6.555  -1.042 -33.869  1.00  0.00     0.026 C 
ENDBRANCH   8  12
ENDBRANCH   3   4
ENDBRANCH   1   3
BRANCH   1  19
HETATM   19  C   UNL     1      -6.331   5.613 -31.387  1.00  0.00     0.300 C 
BRANCH  19  20
HETATM   20  C   UNL     1      -7.174   4.782 -32.285  1.00  0.00     0.078 A 
HETATM   21  O   UNL     1      -8.028   3.905 -31.681  1.00  0.00    -0.325 OA
HETATM   22  C   UNL     1      -8.682   3.239 -32.668  1.00  0.00     0.142 A 
HETATM   23  C   UNL     1      -8.264   3.682 -33.900  1.00  0.00     0.027 A 
HETATM   24  C   UNL     1      -7.287   4.677 -33.656  1.00  0.00     0.036 A 
ENDBRANCH  19  20
ENDBRANCH   1  19
BRANCH   1  25
HETATM   25  C   UNL     1      -3.996   5.941 -30.480  1.00  0.00     0.277 C 
BRANCH  25  26
HETATM   26  C   UNL     1      -2.939   6.165 -31.524  1.00  0.00     0.001 A 
HETATM   27  C   UNL     1      -1.931   5.219 -31.744  1.00  0.00     0.073 A 
HETATM   28  C   UNL     1      -0.944   5.424 -32.705  1.00  0.00     0.037 A 
HETATM   29  C   UNL     1      -0.961   6.589 -33.470  1.00  0.00     0.003 A 
HETATM   30  C   UNL     1      -1.964   7.538 -33.274  1.00  0.00     0.001 A 
HETATM   31  C   UNL     1      -2.950   7.327 -32.309  1.00  0.00     0.011 A 
BRANCH  27  32
HETATM   32  O   UNL     1      -1.933   4.076 -30.995  1.00  0.00    -0.360 OA
HETATM   33  H   UNL     1      -1.279   3.460 -31.381  1.00  0.00     0.217 HD
ENDBRANCH  27  32
ENDBRANCH  25  26
ENDBRANCH   1  25
TORSDOF 8
ENDMDL
MODEL 10
REMARK VINA RESULT:      -7.9      3.033      8.133
REMARK  8 active torsions:
REMARK  status: ('A' for Active; 'I' for Inactive)
REMARK    1  A    between atoms: C_3  and  N_4 
REMARK       I    between atoms: N_4  and  C_5 
REMARK       I    between atoms: C_5  and  N_6 
REMARK       I    between atoms: N_6  and  C_7 
REMARK    2  A    between atoms: C_7  and  C_8 
REMARK    3  A    between atoms: C_8  and  N_9 
REMARK    4  A    between atoms: N_9  and  C_11 
REMARK    5  A    between atoms: N_9  and  C_17 
REMARK    6  A    between atoms: C_11  and  C_12 
REMARK    7  A    between atoms: C_17  and  C_18 
REMARK    8  A    between atoms: C_19  and  O_20 
ROOT
HETATM    1  N   UNL     1      -6.484   0.937 -33.560  1.00  0.00    -0.053 N 
HETATM    2  H   UNL     1      -5.611   0.914 -34.106  1.00  0.00     0.281 HD
ENDROOT
BRANCH   1   3
HETATM    3  C   UNL     1      -7.576   1.019 -34.625  1.00  0.00     0.338 C 
BRANCH   3   4
HETATM    4  C   UNL     1      -8.951   1.358 -34.052  1.00  0.00     0.251 C 
HETATM    5  N   UNL     1      -9.540   2.477 -34.603  1.00  0.00    -0.278 N 
HETATM    6  C   UNL     1     -10.864   2.831 -34.580  1.00  0.00     0.323 C 
HETATM    7  H   UNL     1      -9.077   2.967 -35.359  1.00  0.00     0.173 HD
HETATM    8  N   UNL     1     -11.651   2.182 -33.683  1.00  0.00    -0.338 N 
HETATM    9  O   UNL     1     -11.252   3.665 -35.390  1.00  0.00    -0.247 OA
HETATM   10  H   UNL     1     -11.189   1.583 -33.005  1.00  0.00     0.164 HD
HETATM   11  O   UNL     1      -9.429   0.677 -33.143  1.00  0.00    -0.271 OA
BRANCH   8  12
HETATM   12  C   UNL     1     -13.076   2.444 -33.479  1.00  0.00     0.089 C 
HETATM   13  C   UNL     1     -13.383   3.218 -32.174  1.00  0.00     0.004 C 
HETATM   14  C   UNL     1     -12.641   4.557 -32.117  1.00  0.00     0.012 C 
HETATM   15  C   UNL     1     -14.896   3.458 -32.031  1.00  0.00     0.006 C 
HETATM   16  C   UNL     1     -15.693   2.160 -32.128  1.00  0.00     0.001 C 
HETATM   17  C   UNL     1     -15.392   1.415 -33.424  1.00  0.00     0.002 C 
HETATM   18  C   UNL     1     -13.898   1.151 -33.580  1.00  0.00     0.026 C 
ENDBRANCH   8  12
ENDBRANCH   3   4
ENDBRANCH   1   3
BRANCH   1  19
HETATM   19  C   UNL     1      -6.357   2.164 -32.682  1.00  0.00     0.300 C 
BRANCH  19  20
HETATM   20  C   UNL     1      -5.567   3.277 -33.268  1.00  0.00     0.078 A 
HETATM   21  O   UNL     1      -4.283   3.413 -32.825  1.00  0.00    -0.325 OA
HETATM   22  C   UNL     1      -3.751   4.487 -33.464  1.00  0.00     0.142 A 
HETATM   23  C   UNL     1      -4.675   5.041 -34.318  1.00  0.00     0.027 A 
HETATM   24  C   UNL     1      -5.851   4.263 -34.190  1.00  0.00     0.036 A 
ENDBRANCH  19  20
ENDBRANCH   1  19
BRANCH   1  25
HETATM   25  C   UNL     1      -6.548  -0.354 -32.783  1.00  0.00     0.277 C 
BRANCH  25  26
HETATM   26  C   UNL     1      -6.157  -1.545 -33.611  1.00  0.00     0.001 A 
HETATM   27  C   UNL     1      -4.816  -1.795 -33.926  1.00  0.00     0.073 A 
HETATM   28  C   UNL     1      -4.447  -2.893 -34.700  1.00  0.00     0.037 A 
HETATM   29  C   UNL     1      -5.429  -3.765 -35.164  1.00  0.00     0.003 A 
HETATM   30  C   UNL     1      -6.769  -3.541 -34.852  1.00  0.00     0.001 A 
HETATM   31  C   UNL     1      -7.132  -2.439 -34.077  1.00  0.00     0.011 A 
BRANCH  27  32
HETATM   32  O   UNL     1      -3.863  -0.937 -33.453  1.00  0.00    -0.360 OA
HETATM   33  H   UNL     1      -3.470  -0.470 -34.217  1.00  0.00     0.217 HD
ENDBRANCH  27  32
ENDBRANCH  25  26
ENDBRANCH   1  25
TORSDOF 8
ENDMDL
