MODEL 1
REMARK VINA RESULT:      -8.7      0.000      0.000
REMARK  5 active torsions:
REMARK  status: ('A' for Active; 'I' for Inactive)
REMARK    1  A    between atoms: C_7  and  C_8 
REMARK    2  A    between atoms: C_11  and  N_12 
REMARK       I    between atoms: N_12  and  C_13 
REMARK    3  A    between atoms: C_13  and  C_14 
REMARK    4  A    between atoms: C_16  and  O_17 
REMARK    5  A    between atoms: C_20  and  O_21 
ROOT
HETATM    1  C   UNL     1       0.512   7.506 -28.400  1.00  0.00     0.017 A 
HETATM    2  C   UNL     1       1.353   8.621 -28.304  1.00  0.00     0.018 A 
HETATM    3  C   UNL     1       2.003   8.933 -27.102  1.00  0.00     0.030 A 
HETATM    4  C   UNL     1       1.830   8.132 -25.973  1.00  0.00     0.035 A 
HETATM    5  C   UNL     1       0.954   7.045 -26.050  1.00  0.00     0.030 A 
HETATM    6  C   UNL     1       0.302   6.735 -27.249  1.00  0.00     0.018 A 
ENDROOT
BRANCH   4   7
HETATM    7  N   UNL     1       2.523   8.316 -24.758  1.00  0.00    -0.323 N 
HETATM    8  C   UNL     1       2.628   9.485 -24.027  1.00  0.00     0.256 C 
HETATM    9  O   UNL     1       2.061  10.548 -24.242  1.00  0.00    -0.267 OA
HETATM   10  H   UNL     1       3.110   7.542 -24.476  1.00  0.00     0.169 HD
BRANCH   8  11
HETATM   11  C   UNL     1       3.598   9.418 -22.901  1.00  0.00     0.037 A 
HETATM   12  C   UNL     1       3.990   8.154 -22.451  1.00  0.00     0.054 A 
HETATM   13  C   UNL     1       4.847   8.030 -21.359  1.00  0.00     0.071 A 
HETATM   14  C   UNL     1       5.327   9.184 -20.738  1.00  0.00     0.073 A 
HETATM   15  C   UNL     1       4.959  10.456 -21.200  1.00  0.00     0.071 A 
HETATM   16  C   UNL     1       4.093  10.575 -22.287  1.00  0.00     0.054 A 
BRANCH  13  17
HETATM   17  O   UNL     1       5.131   6.743 -20.999  1.00  0.00    -0.356 OA
HETATM   18  C   UNL     1       6.346   6.524 -20.293  1.00  0.00     0.210 C 
ENDBRANCH  13  17
BRANCH  15  19
HETATM   19  O   UNL     1       5.511  11.493 -20.498  1.00  0.00    -0.356 OA
HETATM   20  C   UNL     1       6.820  11.303 -19.972  1.00  0.00     0.210 C 
ENDBRANCH  15  19
ENDBRANCH   8  11
ENDBRANCH   4   7
BRANCH   1  21
HETATM   21  C   UNL     1      -0.102   7.100 -29.662  1.00  0.00     0.180 A 
HETATM   22  O   UNL     1      -0.805   8.063 -30.343  1.00  0.00    -0.289 OA
HETATM   23  C   UNL     1      -1.167   7.447 -31.505  1.00  0.00     0.106 A 
HETATM   24  C   UNL     1      -0.686   6.151 -31.465  1.00  0.00     0.094 A 
HETATM   25  C   UNL     1      -1.875   7.997 -32.564  1.00  0.00     0.040 A 
HETATM   26  C   UNL     1      -0.912   5.308 -32.561  1.00  0.00     0.041 A 
HETATM   27  N   UNL     1      -0.020   5.936 -30.285  1.00  0.00    -0.221 NA
HETATM   28  C   UNL     1      -1.619   5.819 -33.668  1.00  0.00    -0.060 A 
HETATM   29  C   UNL     1      -1.861   4.959 -34.875  1.00  0.00     0.048 C 
HETATM   30  C   UNL     1      -2.089   7.147 -33.657  1.00  0.00     0.009 A 
ENDBRANCH   1  21
TORSDOF 5
ENDMDL
MODEL 2
REMARK VINA RESULT:      -8.5      4.996      8.516
REMARK  5 active torsions:
REMARK  status: ('A' for Active; 'I' for Inactive)
REMARK    1  A    between atoms: C_7  and  C_8 
REMARK    2  A    between atoms: C_11  and  N_12 
REMARK       I    between atoms: N_12  and  C_13 
REMARK    3  A    between atoms: C_13  and  C_14 
REMARK    4  A    between atoms: C_16  and  O_17 
REMARK    5  A    between atoms: C_20  and  O_21 
ROOT
HETATM    1  C   UNL     1      -4.087   2.870 -32.296  1.00  0.00     0.017 A 
HETATM    2  C   UNL     1      -2.885   3.364 -32.815  1.00  0.00     0.018 A 
HETATM    3  C   UNL     1      -2.272   4.497 -32.264  1.00  0.00     0.030 A 
HETATM    4  C   UNL     1      -2.846   5.156 -31.176  1.00  0.00     0.035 A 
HETATM    5  C   UNL     1      -4.072   4.696 -30.684  1.00  0.00     0.030 A 
HETATM    6  C   UNL     1      -4.686   3.567 -31.237  1.00  0.00     0.018 A 
ENDROOT
BRANCH   4   7
HETATM    7  N   UNL     1      -2.246   6.238 -30.499  1.00  0.00    -0.323 N 
HETATM    8  C   UNL     1      -0.973   6.282 -29.960  1.00  0.00     0.256 C 
HETATM    9  O   UNL     1      -0.098   5.432 -30.054  1.00  0.00    -0.267 OA
HETATM   10  H   UNL     1      -2.868   7.004 -30.274  1.00  0.00     0.169 HD
BRANCH   8  11
HETATM   11  C   UNL     1      -0.702   7.483 -29.126  1.00  0.00     0.037 A 
HETATM   12  C   UNL     1       0.549   7.582 -28.510  1.00  0.00     0.054 A 
HETATM   13  C   UNL     1       0.837   8.653 -27.666  1.00  0.00     0.071 A 
HETATM   14  C   UNL     1      -0.132   9.636 -27.463  1.00  0.00     0.073 A 
HETATM   15  C   UNL     1      -1.380   9.559 -28.096  1.00  0.00     0.071 A 
HETATM   16  C   UNL     1      -1.668   8.479 -28.933  1.00  0.00     0.054 A 
BRANCH  13  17
HETATM   17  O   UNL     1       2.082   8.619 -27.104  1.00  0.00    -0.356 OA
HETATM   18  C   UNL     1       2.155   8.307 -25.718  1.00  0.00     0.210 C 
ENDBRANCH  13  17
BRANCH  15  19
HETATM   19  O   UNL     1      -2.225  10.596 -27.808  1.00  0.00    -0.356 OA
HETATM   20  C   UNL     1      -3.579  10.273 -27.513  1.00  0.00     0.210 C 
ENDBRANCH  15  19
ENDBRANCH   8  11
ENDBRANCH   4   7
BRANCH   1  21
HETATM   21  C   UNL     1      -4.700   1.638 -32.786  1.00  0.00     0.180 A 
HETATM   22  O   UNL     1      -5.866   1.770 -33.498  1.00  0.00    -0.289 OA
HETATM   23  C   UNL     1      -6.147   0.501 -33.910  1.00  0.00     0.106 A 
HETATM   24  C   UNL     1      -5.157  -0.332 -33.420  1.00  0.00     0.094 A 
HETATM   25  C   UNL     1      -7.213   0.088 -34.696  1.00  0.00     0.040 A 
HETATM   26  C   UNL     1      -5.208  -1.699 -33.725  1.00  0.00     0.041 A 
HETATM   27  N   UNL     1      -4.248   0.398 -32.697  1.00  0.00    -0.221 NA
HETATM   28  C   UNL     1      -6.266  -2.171 -34.526  1.00  0.00    -0.060 A 
HETATM   29  C   UNL     1      -6.344  -3.624 -34.898  1.00  0.00     0.048 C 
HETATM   30  C   UNL     1      -7.249  -1.280 -34.999  1.00  0.00     0.009 A 
ENDBRANCH   1  21
TORSDOF 5
ENDMDL
MODEL 3
REMARK VINA RESULT:      -8.5      4.929      8.500
REMARK  5 active torsions:
REMARK  status: ('A' for Active; 'I' for Inactive)
REMARK    1  A    between atoms: C_7  and  C_8 
REMARK    2  A    between atoms: C_11  and  N_12 
REMARK       I    between atoms: N_12  and  C_13 
REMARK    3  A    between atoms: C_13  and  C_14 
REMARK    4  A    between atoms: C_16  and  O_17 
REMARK    5  A    between atoms: C_20  and  O_21 
ROOT
HETATM    1  C   UNL     1      -4.133   2.966 -32.218  1.00  0.00     0.017 A 
HETATM    2  C   UNL     1      -2.890   3.379 -32.715  1.00  0.00     0.018 A 
HETATM    3  C   UNL     1      -2.207   4.459 -32.141  1.00  0.00     0.030 A 
HETATM    4  C   UNL     1      -2.750   5.146 -31.054  1.00  0.00     0.035 A 
HETATM    5  C   UNL     1      -4.013   4.769 -30.585  1.00  0.00     0.030 A 
HETATM    6  C   UNL     1      -4.697   3.692 -31.161  1.00  0.00     0.018 A 
ENDROOT
BRANCH   4   7
HETATM    7  N   UNL     1      -2.085   6.175 -30.356  1.00  0.00    -0.323 N 
HETATM    8  C   UNL     1      -0.818   6.125 -29.804  1.00  0.00     0.256 C 
HETATM    9  O   UNL     1      -0.001   5.218 -29.901  1.00  0.00    -0.267 OA
HETATM   10  H   UNL     1      -2.656   6.978 -30.125  1.00  0.00     0.169 HD
BRANCH   8  11
HETATM   11  C   UNL     1      -0.475   7.293 -28.949  1.00  0.00     0.037 A 
HETATM   12  C   UNL     1      -1.422   8.315 -28.829  1.00  0.00     0.054 A 
HETATM   13  C   UNL     1      -1.131   9.462 -28.093  1.00  0.00     0.071 A 
HETATM   14  C   UNL     1       0.107   9.565 -27.458  1.00  0.00     0.073 A 
HETATM   15  C   UNL     1       1.052   8.534 -27.551  1.00  0.00     0.071 A 
HETATM   16  C   UNL     1       0.761   7.391 -28.298  1.00  0.00     0.054 A 
BRANCH  13  17
HETATM   17  O   UNL     1      -2.126  10.399 -28.078  1.00  0.00    -0.356 OA
HETATM   18  C   UNL     1      -2.297  11.176 -29.256  1.00  0.00     0.210 C 
ENDBRANCH  13  17
BRANCH  15  19
HETATM   19  O   UNL     1       2.216   8.771 -26.872  1.00  0.00    -0.356 OA
HETATM   20  C   UNL     1       2.146   8.825 -25.453  1.00  0.00     0.210 C 
ENDBRANCH  15  19
ENDBRANCH   8  11
ENDBRANCH   4   7
BRANCH   1  21
HETATM   21  C   UNL     1      -4.824   1.786 -32.732  1.00  0.00     0.180 A 
HETATM   22  O   UNL     1      -5.872   2.009 -33.590  1.00  0.00    -0.289 OA
HETATM   23  C   UNL     1      -6.249   0.759 -33.983  1.00  0.00     0.106 A 
HETATM   24  C   UNL     1      -5.431  -0.152 -33.340  1.00  0.00     0.094 A 
HETATM   25  C   UNL     1      -7.255   0.427 -34.880  1.00  0.00     0.040 A 
HETATM   26  C   UNL     1      -5.606  -1.519 -33.593  1.00  0.00     0.041 A 
HETATM   27  N   UNL     1      -4.535   0.509 -32.538  1.00  0.00    -0.221 NA
HETATM   28  C   UNL     1      -6.609  -1.912 -34.502  1.00  0.00    -0.060 A 
HETATM   29  C   UNL     1      -6.813  -3.365 -34.823  1.00  0.00     0.048 C 
HETATM   30  C   UNL     1      -7.415  -0.943 -35.129  1.00  0.00     0.009 A 
ENDBRANCH   1  21
TORSDOF 5
ENDMDL
MODEL 4
REMARK VINA RESULT:      -8.4      5.763      9.930
REMARK  5 active torsions:
REMARK  status: ('A' for Active; 'I' for Inactive)
REMARK    1  A    between atoms: C_7  and  C_8 
REMARK    2  A    between atoms: C_11  and  N_12 
REMARK       I    between atoms: N_12  and  C_13 
REMARK    3  A    between atoms: C_13  and  C_14 
REMARK    4  A    between atoms: C_16  and  O_17 
REMARK    5  A    between atoms: C_20  and  O_21 
ROOT
HETATM    1  C   UNL     1      -4.413   1.416 -32.562  1.00  0.00     0.017 A 
HETATM    2  C   UNL     1      -5.023   2.632 -32.892  1.00  0.00     0.018 A 
HETATM    3  C   UNL     1      -4.586   3.836 -32.324  1.00  0.00     0.030 A 
HETATM    4  C   UNL     1      -3.525   3.849 -31.418  1.00  0.00     0.035 A 
HETATM    5  C   UNL     1      -2.943   2.632 -31.048  1.00  0.00     0.030 A 
HETATM    6  C   UNL     1      -3.382   1.429 -31.613  1.00  0.00     0.018 A 
ENDROOT
BRANCH   4   7
HETATM    7  N   UNL     1      -2.958   5.023 -30.879  1.00  0.00    -0.323 N 
HETATM    8  C   UNL     1      -1.638   5.425 -30.961  1.00  0.00     0.256 C 
HETATM    9  O   UNL     1      -0.737   4.891 -31.595  1.00  0.00    -0.267 OA
HETATM   10  H   UNL     1      -3.561   5.546 -30.258  1.00  0.00     0.169 HD
BRANCH   8  11
HETATM   11  C   UNL     1      -1.302   6.601 -30.115  1.00  0.00     0.037 A 
HETATM   12  C   UNL     1      -2.291   7.570 -29.920  1.00  0.00     0.054 A 
HETATM   13  C   UNL     1      -2.014   8.724 -29.190  1.00  0.00     0.071 A 
HETATM   14  C   UNL     1      -0.744   8.888 -28.636  1.00  0.00     0.073 A 
HETATM   15  C   UNL     1       0.246   7.910 -28.804  1.00  0.00     0.071 A 
HETATM   16  C   UNL     1      -0.033   6.760 -29.545  1.00  0.00     0.054 A 
BRANCH  13  17
HETATM   17  O   UNL     1      -3.054   9.605 -29.097  1.00  0.00    -0.356 OA
HETATM   18  C   UNL     1      -3.192  10.553 -30.149  1.00  0.00     0.210 C 
ENDBRANCH  13  17
BRANCH  15  19
HETATM   19  O   UNL     1       1.438   8.204 -28.200  1.00  0.00    -0.356 OA
HETATM   20  C   UNL     1       1.512   8.046 -26.788  1.00  0.00     0.210 C 
ENDBRANCH  15  19
ENDBRANCH   8  11
ENDBRANCH   4   7
BRANCH   1  21
HETATM   21  C   UNL     1      -4.782   0.158 -33.209  1.00  0.00     0.180 A 
HETATM   22  O   UNL     1      -3.873  -0.868 -33.124  1.00  0.00    -0.289 OA
HETATM   23  C   UNL     1      -4.512  -1.922 -33.708  1.00  0.00     0.106 A 
HETATM   24  C   UNL     1      -5.755  -1.485 -34.127  1.00  0.00     0.094 A 
HETATM   25  C   UNL     1      -4.036  -3.217 -33.854  1.00  0.00     0.040 A 
HETATM   26  C   UNL     1      -6.621  -2.395 -34.747  1.00  0.00     0.041 A 
HETATM   27  N   UNL     1      -5.913  -0.158 -33.816  1.00  0.00    -0.221 NA
HETATM   28  C   UNL     1      -6.192  -3.726 -34.915  1.00  0.00    -0.060 A 
HETATM   29  C   UNL     1      -7.098  -4.741 -35.551  1.00  0.00     0.048 C 
HETATM   30  C   UNL     1      -4.914  -4.119 -34.470  1.00  0.00     0.009 A 
ENDBRANCH   1  21
TORSDOF 5
ENDMDL
MODEL 5
REMARK VINA RESULT:      -8.3     12.313     16.938
REMARK  5 active torsions:
REMARK  status: ('A' for Active; 'I' for Inactive)
REMARK    1  A    between atoms: C_7  and  C_8 
REMARK    2  A    between atoms: C_11  and  N_12 
REMARK       I    between atoms: N_12  and  C_13 
REMARK    3  A    between atoms: C_13  and  C_14 
REMARK    4  A    between atoms: C_16  and  O_17 
REMARK    5  A    between atoms: C_20  and  O_21 
ROOT
HETATM    1  C   UNL     1     -12.097   2.232 -32.955  1.00  0.00     0.017 A 
HETATM    2  C   UNL     1     -11.995   0.915 -33.420  1.00  0.00     0.018 A 
HETATM    3  C   UNL     1     -10.746   0.298 -33.571  1.00  0.00     0.030 A 
HETATM    4  C   UNL     1      -9.574   0.983 -33.254  1.00  0.00     0.035 A 
HETATM    5  C   UNL     1      -9.666   2.315 -32.836  1.00  0.00     0.030 A 
HETATM    6  C   UNL     1     -10.913   2.932 -32.689  1.00  0.00     0.018 A 
ENDROOT
BRANCH   4   7
HETATM    7  N   UNL     1      -8.287   0.405 -33.281  1.00  0.00    -0.323 N 
HETATM    8  C   UNL     1      -7.560   0.040 -34.399  1.00  0.00     0.256 C 
HETATM    9  O   UNL     1      -7.851   0.239 -35.571  1.00  0.00    -0.267 OA
HETATM   10  H   UNL     1      -7.929   0.108 -32.382  1.00  0.00     0.169 HD
BRANCH   8  11
HETATM   11  C   UNL     1      -6.327  -0.736 -34.101  1.00  0.00     0.037 A 
HETATM   12  C   UNL     1      -6.254  -2.052 -34.569  1.00  0.00     0.054 A 
HETATM   13  C   UNL     1      -5.151  -2.848 -34.267  1.00  0.00     0.071 A 
HETATM   14  C   UNL     1      -4.110  -2.306 -33.512  1.00  0.00     0.073 A 
HETATM   15  C   UNL     1      -4.162  -0.980 -33.060  1.00  0.00     0.071 A 
HETATM   16  C   UNL     1      -5.274  -0.190 -33.357  1.00  0.00     0.054 A 
BRANCH  13  17
HETATM   17  O   UNL     1      -5.214  -4.122 -34.757  1.00  0.00    -0.356 OA
HETATM   18  C   UNL     1      -6.441  -4.523 -35.353  1.00  0.00     0.210 C 
ENDBRANCH  13  17
BRANCH  15  19
HETATM   19  O   UNL     1      -3.069  -0.586 -32.338  1.00  0.00    -0.356 OA
HETATM   20  C   UNL     1      -3.297   0.253 -31.213  1.00  0.00     0.210 C 
ENDBRANCH  15  19
ENDBRANCH   8  11
ENDBRANCH   4   7
BRANCH   1  21
HETATM   21  C   UNL     1     -13.386   2.869 -32.697  1.00  0.00     0.180 A 
HETATM   22  O   UNL     1     -14.492   2.055 -32.718  1.00  0.00    -0.289 OA
HETATM   23  C   UNL     1     -15.514   2.878 -32.347  1.00  0.00     0.106 A 
HETATM   24  C   UNL     1     -14.988   4.139 -32.137  1.00  0.00     0.094 A 
HETATM   25  C   UNL     1     -16.850   2.539 -32.183  1.00  0.00     0.040 A 
HETATM   26  C   UNL     1     -15.842   5.172 -31.725  1.00  0.00     0.041 A 
HETATM   27  N   UNL     1     -13.636   4.127 -32.372  1.00  0.00    -0.221 NA
HETATM   28  C   UNL     1     -17.207   4.880 -31.535  1.00  0.00    -0.060 A 
HETATM   29  C   UNL     1     -18.152   5.950 -31.069  1.00  0.00     0.048 C 
HETATM   30  C   UNL     1     -17.692   3.578 -31.765  1.00  0.00     0.009 A 
ENDBRANCH   1  21
TORSDOF 5
ENDMDL
MODEL 6
REMARK VINA RESULT:      -8.2      1.226      2.241
REMARK  5 active torsions:
REMARK  status: ('A' for Active; 'I' for Inactive)
REMARK    1  A    between atoms: C_7  and  C_8 
REMARK    2  A    between atoms: C_11  and  N_12 
REMARK       I    between atoms: N_12  and  C_13 
REMARK    3  A    between atoms: C_13  and  C_14 
REMARK    4  A    between atoms: C_16  and  O_17 
REMARK    5  A    between atoms: C_20  and  O_21 
ROOT
HETATM    1  C   UNL     1      -0.083   7.128 -28.643  1.00  0.00     0.017 A 
HETATM    2  C   UNL     1       0.831   8.187 -28.690  1.00  0.00     0.018 A 
HETATM    3  C   UNL     1       1.598   8.529 -27.568  1.00  0.00     0.030 A 
HETATM    4  C   UNL     1       1.470   7.814 -26.377  1.00  0.00     0.035 A 
HETATM    5  C   UNL     1       0.523   6.787 -26.309  1.00  0.00     0.030 A 
HETATM    6  C   UNL     1      -0.245   6.448 -27.429  1.00  0.00     0.018 A 
ENDROOT
BRANCH   4   7
HETATM    7  N   UNL     1       2.273   8.026 -25.236  1.00  0.00    -0.323 N 
HETATM    8  C   UNL     1       2.238   9.113 -24.383  1.00  0.00     0.256 C 
HETATM    9  O   UNL     1       1.443  10.044 -24.398  1.00  0.00    -0.267 OA
HETATM   10  H   UNL     1       3.038   7.375 -25.121  1.00  0.00     0.169 HD
BRANCH   8  11
HETATM   11  C   UNL     1       3.347   9.151 -23.393  1.00  0.00     0.037 A 
HETATM   12  C   UNL     1       4.149  10.296 -23.354  1.00  0.00     0.054 A 
HETATM   13  C   UNL     1       5.242  10.361 -22.492  1.00  0.00     0.071 A 
HETATM   14  C   UNL     1       5.509   9.280 -21.650  1.00  0.00     0.073 A 
HETATM   15  C   UNL     1       4.694   8.140 -21.664  1.00  0.00     0.071 A 
HETATM   16  C   UNL     1       3.607   8.074 -22.537  1.00  0.00     0.054 A 
BRANCH  13  17
HETATM   17  O   UNL     1       5.963  11.519 -22.570  1.00  0.00    -0.356 OA
HETATM   18  C   UNL     1       7.169  11.580 -21.820  1.00  0.00     0.210 C 
ENDBRANCH  13  17
BRANCH  15  19
HETATM   19  O   UNL     1       5.074   7.164 -20.782  1.00  0.00    -0.356 OA
HETATM   20  C   UNL     1       6.251   7.396 -20.018  1.00  0.00     0.210 C 
ENDBRANCH  15  19
ENDBRANCH   8  11
ENDBRANCH   4   7
BRANCH   1  21
HETATM   21  C   UNL     1      -0.826   6.687 -29.821  1.00  0.00     0.180 A 
HETATM   22  O   UNL     1      -2.189   6.854 -29.790  1.00  0.00    -0.289 OA
HETATM   23  C   UNL     1      -2.597   6.464 -31.031  1.00  0.00     0.106 A 
HETATM   24  C   UNL     1      -1.478   6.070 -31.741  1.00  0.00     0.094 A 
HETATM   25  C   UNL     1      -3.892   6.468 -31.530  1.00  0.00     0.040 A 
HETATM   26  C   UNL     1      -1.631   5.639 -33.066  1.00  0.00     0.041 A 
HETATM   27  N   UNL     1      -0.358   6.204 -30.960  1.00  0.00    -0.221 NA
HETATM   28  C   UNL     1      -2.924   5.629 -33.625  1.00  0.00    -0.060 A 
HETATM   29  C   UNL     1      -3.131   5.200 -35.049  1.00  0.00     0.048 C 
HETATM   30  C   UNL     1      -4.031   6.040 -32.857  1.00  0.00     0.009 A 
ENDBRANCH   1  21
TORSDOF 5
ENDMDL
MODEL 7
REMARK VINA RESULT:      -8.1      6.183     10.308
REMARK  5 active torsions:
REMARK  status: ('A' for Active; 'I' for Inactive)
REMARK    1  A    between atoms: C_7  and  C_8 
REMARK    2  A    between atoms: C_11  and  N_12 
REMARK       I    between atoms: N_12  and  C_13 
REMARK    3  A    between atoms: C_13  and  C_14 
REMARK    4  A    between atoms: C_16  and  O_17 
REMARK    5  A    between atoms: C_20  and  O_21 
ROOT
HETATM    1  C   UNL     1      -4.495   1.592 -32.222  1.00  0.00     0.017 A 
HETATM    2  C   UNL     1      -5.447   2.206 -31.400  1.00  0.00     0.018 A 
HETATM    3  C   UNL     1      -5.200   3.457 -30.819  1.00  0.00     0.030 A 
HETATM    4  C   UNL     1      -3.996   4.122 -31.053  1.00  0.00     0.035 A 
HETATM    5  C   UNL     1      -3.022   3.492 -31.834  1.00  0.00     0.030 A 
HETATM    6  C   UNL     1      -3.267   2.241 -32.411  1.00  0.00     0.018 A 
ENDROOT
BRANCH   4   7
HETATM    7  N   UNL     1      -3.708   5.424 -30.592  1.00  0.00    -0.323 N 
HETATM    8  C   UNL     1      -3.600   6.573 -31.353  1.00  0.00     0.256 C 
HETATM    9  O   UNL     1      -3.829   6.696 -32.550  1.00  0.00    -0.267 OA
HETATM   10  H   UNL     1      -3.421   5.484 -29.624  1.00  0.00     0.169 HD
BRANCH   8  11
HETATM   11  C   UNL     1      -3.080   7.753 -30.611  1.00  0.00     0.037 A 
HETATM   12  C   UNL     1      -1.845   7.628 -29.968  1.00  0.00     0.054 A 
HETATM   13  C   UNL     1      -1.338   8.679 -29.206  1.00  0.00     0.071 A 
HETATM   14  C   UNL     1      -2.068   9.864 -29.113  1.00  0.00     0.073 A 
HETATM   15  C   UNL     1      -3.295  10.007 -29.775  1.00  0.00     0.071 A 
HETATM   16  C   UNL     1      -3.804   8.949 -30.530  1.00  0.00     0.054 A 
BRANCH  13  17
HETATM   17  O   UNL     1      -0.138   8.421 -28.605  1.00  0.00    -0.356 OA
HETATM   18  C   UNL     1       0.345   7.086 -28.676  1.00  0.00     0.210 C 
ENDBRANCH  13  17
BRANCH  15  19
HETATM   19  O   UNL     1      -3.893  11.225 -29.598  1.00  0.00    -0.356 OA
HETATM   20  C   UNL     1      -4.933  11.580 -30.501  1.00  0.00     0.210 C 
ENDBRANCH  15  19
ENDBRANCH   8  11
ENDBRANCH   4   7
BRANCH   1  21
HETATM   21  C   UNL     1      -4.760   0.335 -32.918  1.00  0.00     0.180 A 
HETATM   22  O   UNL     1      -3.838  -0.669 -32.752  1.00  0.00    -0.289 OA
HETATM   23  C   UNL     1      -4.384  -1.730 -33.411  1.00  0.00     0.106 A 
HETATM   24  C   UNL     1      -5.589  -1.319 -33.951  1.00  0.00     0.094 A 
HETATM   25  C   UNL     1      -3.861  -3.011 -33.523  1.00  0.00     0.040 A 
HETATM   26  C   UNL     1      -6.362  -2.242 -34.669  1.00  0.00     0.041 A 
HETATM   27  N   UNL     1      -5.815  -0.002 -33.642  1.00  0.00    -0.221 NA
HETATM   28  C   UNL     1      -5.882  -3.559 -34.807  1.00  0.00    -0.060 A 
HETATM   29  C   UNL     1      -6.690  -4.588 -35.545  1.00  0.00     0.048 C 
HETATM   30  C   UNL     1      -4.647  -3.926 -34.237  1.00  0.00     0.009 A 
ENDBRANCH   1  21
TORSDOF 5
ENDMDL
MODEL 8
REMARK VINA RESULT:      -8.1      5.942     13.504
REMARK  5 active torsions:
REMARK  status: ('A' for Active; 'I' for Inactive)
REMARK    1  A    between atoms: C_7  and  C_8 
REMARK    2  A    between atoms: C_11  and  N_12 
REMARK       I    between atoms: N_12  and  C_13 
REMARK    3  A    between atoms: C_13  and  C_14 
REMARK    4  A    between atoms: C_16  and  O_17 
REMARK    5  A    between atoms: C_20  and  O_21 
ROOT
HETATM    1  C   UNL     1      -2.789   5.666 -30.724  1.00  0.00     0.017 A 
HETATM    2  C   UNL     1      -4.175   5.484 -30.643  1.00  0.00     0.018 A 
HETATM    3  C   UNL     1      -4.800   4.406 -31.283  1.00  0.00     0.030 A 
HETATM    4  C   UNL     1      -4.050   3.482 -32.011  1.00  0.00     0.035 A 
HETATM    5  C   UNL     1      -2.672   3.685 -32.136  1.00  0.00     0.030 A 
HETATM    6  C   UNL     1      -2.049   4.765 -31.500  1.00  0.00     0.018 A 
ENDROOT
BRANCH   4   7
HETATM    7  N   UNL     1      -4.585   2.316 -32.599  1.00  0.00    -0.323 N 
HETATM    8  C   UNL     1      -4.570   1.037 -32.075  1.00  0.00     0.256 C 
HETATM    9  O   UNL     1      -4.182   0.693 -30.966  1.00  0.00    -0.267 OA
HETATM   10  H   UNL     1      -4.884   2.417 -33.560  1.00  0.00     0.169 HD
BRANCH   8  11
HETATM   11  C   UNL     1      -5.023  -0.018 -33.021  1.00  0.00     0.037 A 
HETATM   12  C   UNL     1      -6.185   0.222 -33.760  1.00  0.00     0.054 A 
HETATM   13  C   UNL     1      -6.692  -0.755 -34.615  1.00  0.00     0.071 A 
HETATM   14  C   UNL     1      -6.010  -1.966 -34.741  1.00  0.00     0.073 A 
HETATM   15  C   UNL     1      -4.829  -2.205 -34.024  1.00  0.00     0.071 A 
HETATM   16  C   UNL     1      -4.331  -1.228 -33.162  1.00  0.00     0.054 A 
BRANCH  13  17
HETATM   17  O   UNL     1      -7.848  -0.410 -35.257  1.00  0.00    -0.356 OA
HETATM   18  C   UNL     1      -8.638   0.609 -34.657  1.00  0.00     0.210 C 
ENDBRANCH  13  17
BRANCH  15  19
HETATM   19  O   UNL     1      -4.269  -3.432 -34.253  1.00  0.00    -0.356 OA
HETATM   20  C   UNL     1      -5.146  -4.498 -34.596  1.00  0.00     0.210 C 
ENDBRANCH  15  19
ENDBRANCH   8  11
ENDBRANCH   4   7
BRANCH   1  21
HETATM   21  C   UNL     1      -2.098   6.723 -29.990  1.00  0.00     0.180 A 
HETATM   22  O   UNL     1      -2.796   7.888 -29.783  1.00  0.00    -0.289 OA
HETATM   23  C   UNL     1      -1.966   8.635 -29.001  1.00  0.00     0.106 A 
HETATM   24  C   UNL     1      -0.812   7.903 -28.787  1.00  0.00     0.094 A 
HETATM   25  C   UNL     1      -2.211   9.898 -28.481  1.00  0.00     0.040 A 
HETATM   26  C   UNL     1       0.201   8.450 -27.988  1.00  0.00     0.041 A 
HETATM   27  N   UNL     1      -0.901   6.693 -29.429  1.00  0.00    -0.221 NA
HETATM   28  C   UNL     1       0.001   9.727 -27.428  1.00  0.00    -0.060 A 
HETATM   29  C   UNL     1       1.050  10.340 -26.545  1.00  0.00     0.048 C 
HETATM   30  C   UNL     1      -1.193  10.431 -27.679  1.00  0.00     0.009 A 
ENDBRANCH   1  21
TORSDOF 5
ENDMDL
MODEL 9
REMARK VINA RESULT:      -8.0      5.915     10.452
REMARK  5 active torsions:
REMARK  status: ('A' for Active; 'I' for Inactive)
REMARK    1  A    between atoms: C_7  and  C_8 
REMARK    2  A    between atoms: C_11  and  N_12 
REMARK       I    between atoms: N_12  and  C_13 
REMARK    3  A    between atoms: C_13  and  C_14 
REMARK    4  A    between atoms: C_16  and  O_17 
REMARK    5  A    between atoms: C_20  and  O_21 
ROOT
HETATM    1  C   UNL     1      -4.489   1.611 -32.180  1.00  0.00     0.017 A 
HETATM    2  C   UNL     1      -5.391   2.158 -31.259  1.00  0.00     0.018 A 
HETATM    3  C   UNL     1      -5.150   3.404 -30.665  1.00  0.00     0.030 A 
HETATM    4  C   UNL     1      -4.003   4.132 -30.984  1.00  0.00     0.035 A 
HETATM    5  C   UNL     1      -3.075   3.569 -31.866  1.00  0.00     0.030 A 
HETATM    6  C   UNL     1      -3.314   2.323 -32.457  1.00  0.00     0.018 A 
ENDROOT
BRANCH   4   7
HETATM    7  N   UNL     1      -3.734   5.433 -30.510  1.00  0.00    -0.323 N 
HETATM    8  C   UNL     1      -3.934   6.624 -31.185  1.00  0.00     0.256 C 
HETATM    9  O   UNL     1      -4.469   6.779 -32.275  1.00  0.00    -0.267 OA
HETATM   10  H   UNL     1      -3.218   5.477 -29.642  1.00  0.00     0.169 HD
BRANCH   8  11
HETATM   11  C   UNL     1      -3.359   7.816 -30.507  1.00  0.00     0.037 A 
HETATM   12  C   UNL     1      -3.986   9.049 -30.711  1.00  0.00     0.054 A 
HETATM   13  C   UNL     1      -3.454  10.210 -30.153  1.00  0.00     0.071 A 
HETATM   14  C   UNL     1      -2.304  10.121 -29.368  1.00  0.00     0.073 A 
HETATM   15  C   UNL     1      -1.684   8.886 -29.137  1.00  0.00     0.071 A 
HETATM   16  C   UNL     1      -2.213   7.727 -29.706  1.00  0.00     0.054 A 
BRANCH  13  17
HETATM   17  O   UNL     1      -4.142  11.353 -30.450  1.00  0.00    -0.356 OA
HETATM   18  C   UNL     1      -5.403  11.530 -29.817  1.00  0.00     0.210 C 
ENDBRANCH  13  17
BRANCH  15  19
HETATM   19  O   UNL     1      -0.570   8.952 -28.344  1.00  0.00    -0.356 OA
HETATM   20  C   UNL     1      -0.751   8.764 -26.946  1.00  0.00     0.210 C 
ENDBRANCH  15  19
ENDBRANCH   8  11
ENDBRANCH   4   7
BRANCH   1  21
HETATM   21  C   UNL     1      -4.759   0.362 -32.888  1.00  0.00     0.180 A 
HETATM   22  O   UNL     1      -3.835  -0.643 -32.739  1.00  0.00    -0.289 OA
HETATM   23  C   UNL     1      -4.385  -1.697 -33.406  1.00  0.00     0.106 A 
HETATM   24  C   UNL     1      -5.595  -1.281 -33.933  1.00  0.00     0.094 A 
HETATM   25  C   UNL     1      -3.862  -2.976 -33.536  1.00  0.00     0.040 A 
HETATM   26  C   UNL     1      -6.372  -2.197 -34.655  1.00  0.00     0.041 A 
HETATM   27  N   UNL     1      -5.819   0.032 -33.608  1.00  0.00    -0.221 NA
HETATM   28  C   UNL     1      -5.891  -3.512 -34.810  1.00  0.00    -0.060 A 
HETATM   29  C   UNL     1      -6.704  -4.533 -35.554  1.00  0.00     0.048 C 
HETATM   30  C   UNL     1      -4.652  -3.884 -34.254  1.00  0.00     0.009 A 
ENDBRANCH   1  21
TORSDOF 5
ENDMDL
MODEL 10
REMARK VINA RESULT:      -7.8      6.243     10.262
REMARK  5 active torsions:
REMARK  status: ('A' for Active; 'I' for Inactive)
REMARK    1  A    between atoms: C_7  and  C_8 
REMARK    2  A    between atoms: C_11  and  N_12 
REMARK       I    between atoms: N_12  and  C_13 
REMARK    3  A    between atoms: C_13  and  C_14 
REMARK    4  A    between atoms: C_16  and  O_17 
REMARK    5  A    between atoms: C_20  and  O_21 
ROOT
HETATM    1  C   UNL     1      -4.859   1.741 -32.395  1.00  0.00     0.017 A 
HETATM    2  C   UNL     1      -3.583   2.213 -32.065  1.00  0.00     0.018 A 
HETATM    3  C   UNL     1      -3.418   3.400 -31.338  1.00  0.00     0.030 A 
HETATM    4  C   UNL     1      -4.528   4.135 -30.920  1.00  0.00     0.035 A 
HETATM    5  C   UNL     1      -5.803   3.694 -31.288  1.00  0.00     0.030 A 
HETATM    6  C   UNL     1      -5.967   2.511 -32.018  1.00  0.00     0.018 A 
ENDROOT
BRANCH   4   7
HETATM    7  N   UNL     1      -4.455   5.281 -30.100  1.00  0.00    -0.323 N 
HETATM    8  C   UNL     1      -3.899   6.505 -30.426  1.00  0.00     0.256 C 
HETATM    9  O   UNL     1      -3.456   6.854 -31.513  1.00  0.00    -0.267 OA
HETATM   10  H   UNL     1      -4.717   5.138 -29.134  1.00  0.00     0.169 HD
BRANCH   8  11
HETATM   11  C   UNL     1      -3.784   7.449 -29.283  1.00  0.00     0.037 A 
HETATM   12  C   UNL     1      -4.926   7.681 -28.509  1.00  0.00     0.054 A 
HETATM   13  C   UNL     1      -4.894   8.603 -27.465  1.00  0.00     0.071 A 
HETATM   14  C   UNL     1      -3.702   9.273 -27.187  1.00  0.00     0.073 A 
HETATM   15  C   UNL     1      -2.546   9.028 -27.940  1.00  0.00     0.071 A 
HETATM   16  C   UNL     1      -2.584   8.111 -28.992  1.00  0.00     0.054 A 
BRANCH  13  17
HETATM   17  O   UNL     1      -6.081   8.761 -26.806  1.00  0.00    -0.356 OA
HETATM   18  C   UNL     1      -7.265   8.712 -27.591  1.00  0.00     0.210 C 
ENDBRANCH  13  17
BRANCH  15  19
HETATM   19  O   UNL     1      -1.453   9.752 -27.549  1.00  0.00    -0.356 OA
HETATM   20  C   UNL     1      -0.187   9.105 -27.600  1.00  0.00     0.210 C 
ENDBRANCH  15  19
ENDBRANCH   8  11
ENDBRANCH   4   7
BRANCH   1  21
HETATM   21  C   UNL     1      -5.066   0.461 -33.068  1.00  0.00     0.180 A 
HETATM   22  O   UNL     1      -4.062  -0.468 -32.948  1.00  0.00    -0.289 OA
HETATM   23  C   UNL     1      -4.560  -1.575 -33.569  1.00  0.00     0.106 A 
HETATM   24  C   UNL     1      -5.822  -1.262 -34.043  1.00  0.00     0.094 A 
HETATM   25  C   UNL     1      -3.947  -2.813 -33.703  1.00  0.00     0.040 A 
HETATM   26  C   UNL     1      -6.560  -2.249 -34.710  1.00  0.00     0.041 A 
HETATM   27  N   UNL     1      -6.130   0.037 -33.729  1.00  0.00    -0.221 NA
HETATM   28  C   UNL     1      -5.988  -3.527 -34.867  1.00  0.00    -0.060 A 
HETATM   29  C   UNL     1      -6.755  -4.622 -35.552  1.00  0.00     0.048 C 
HETATM   30  C   UNL     1      -4.699  -3.792 -34.366  1.00  0.00     0.009 A 
ENDBRANCH   1  21
TORSDOF 5
ENDMDL
