MODEL 1
REMARK VINA RESULT:      -8.6      0.000      0.000
REMARK  6 active torsions:
REMARK  status: ('A' for Active; 'I' for Inactive)
REMARK    1  A    between atoms: C_2  and  O_3 
REMARK    2  A    between atoms: O_3  and  C_4 
REMARK    3  A    between atoms: C_5  and  O_6 
REMARK    4  A    between atoms: C_9  and  C_10 
REMARK    5  A    between atoms: C_19  and  C_20 
REMARK    6  A    between atoms: C_22  and  O_23 
ROOT
HETATM    1  C   UNL     1      -5.210   2.641 -31.057  1.00  0.00     0.156 A 
HETATM    2  N   UNL     1      -5.742   3.558 -30.028  1.00  0.00    -0.343 N 
HETATM    3  C   UNL     1      -7.104   3.418 -29.786  1.00  0.00     0.271 A 
HETATM    4  O   UNL     1      -7.793   4.076 -29.029  1.00  0.00    -0.266 OA
HETATM    5  C   UNL     1      -7.475   2.340 -30.617  1.00  0.00     0.128 A 
HETATM    6  C   UNL     1      -6.431   1.864 -31.359  1.00  0.00     0.034 A 
HETATM    7  N   UNL     1      -8.552   1.586 -30.879  1.00  0.00    -0.272 N 
HETATM    8  H   UNL     1      -9.495   1.661 -30.511  1.00  0.00     0.189 HD
HETATM    9  N   UNL     1      -8.246   0.567 -31.718  1.00  0.00    -0.173 NA
HETATM   10  C   UNL     1      -6.930   0.720 -32.005  1.00  0.00     0.098 A 
HETATM   11  H   UNL     1      -5.214   4.310 -29.613  1.00  0.00     0.163 HD
ENDROOT
BRANCH   1  12
HETATM   12  C   UNL     1      -4.759   3.401 -32.284  1.00  0.00    -0.028 A 
HETATM   13  C   UNL     1      -5.664   3.860 -33.262  1.00  0.00     0.012 A 
HETATM   14  C   UNL     1      -5.227   4.624 -34.342  1.00  0.00     0.040 A 
HETATM   15  C   UNL     1      -3.881   4.939 -34.448  1.00  0.00     0.099 A 
HETATM   16  C   UNL     1      -2.949   4.496 -33.505  1.00  0.00     0.102 A 
HETATM   17  C   UNL     1      -3.393   3.731 -32.423  1.00  0.00     0.049 A 
BRANCH  15  18
HETATM   18  O   UNL     1      -3.480   5.707 -35.506  1.00  0.00    -0.358 OA
HETATM   19  H   UNL     1      -4.288   6.166 -35.809  1.00  0.00     0.218 HD
ENDBRANCH  15  18
BRANCH  16  20
HETATM   20  O   UNL     1      -1.659   4.895 -33.744  1.00  0.00    -0.349 OA
BRANCH  20  21
HETATM   21  C   UNL     1      -1.032   5.697 -32.746  1.00  0.00     0.171 C 
HETATM   22  C   UNL     1      -1.148   7.147 -33.179  1.00  0.00     0.034 C 
ENDBRANCH  20  21
ENDBRANCH  16  20
ENDBRANCH   1  12
BRANCH  10  23
HETATM   23  C   UNL     1      -6.219  -0.277 -32.802  1.00  0.00    -0.002 A 
HETATM   24  C   UNL     1      -6.958  -1.231 -33.524  1.00  0.00     0.050 A 
HETATM   25  C   UNL     1      -6.311  -2.216 -34.273  1.00  0.00     0.069 A 
HETATM   26  C   UNL     1      -4.916  -2.243 -34.301  1.00  0.00     0.037 A 
HETATM   27  C   UNL     1      -4.172  -1.291 -33.604  1.00  0.00     0.004 A 
HETATM   28  C   UNL     1      -4.823  -0.306 -32.857  1.00  0.00     0.014 A 
BRANCH  25  29
HETATM   29  O   UNL     1      -6.921  -3.197 -35.006  1.00  0.00    -0.356 OA
HETATM   30  C   UNL     1      -6.300  -4.478 -35.004  1.00  0.00     0.210 C 
ENDBRANCH  25  29
ENDBRANCH  10  23
TORSDOF 6
ENDMDL
MODEL 2
REMARK VINA RESULT:      -8.6      1.560      2.015
REMARK  6 active torsions:
REMARK  status: ('A' for Active; 'I' for Inactive)
REMARK    1  A    between atoms: C_2  and  O_3 
REMARK    2  A    between atoms: O_3  and  C_4 
REMARK    3  A    between atoms: C_5  and  O_6 
REMARK    4  A    between atoms: C_9  and  C_10 
REMARK    5  A    between atoms: C_19  and  C_20 
REMARK    6  A    between atoms: C_22  and  O_23 
ROOT
HETATM    1  C   UNL     1      -6.718   2.372 -31.246  1.00  0.00     0.156 A 
HETATM    2  N   UNL     1      -7.653   3.215 -30.474  1.00  0.00    -0.343 N 
HETATM    3  C   UNL     1      -8.996   2.919 -30.680  1.00  0.00     0.271 A 
HETATM    4  O   UNL     1      -9.961   3.488 -30.208  1.00  0.00    -0.266 OA
HETATM    5  C   UNL     1      -8.955   1.810 -31.553  1.00  0.00     0.128 A 
HETATM    6  C   UNL     1      -7.681   1.462 -31.902  1.00  0.00     0.034 A 
HETATM    7  N   UNL     1      -9.798   0.940 -32.125  1.00  0.00    -0.272 N 
HETATM    8  H   UNL     1     -10.812   0.903 -32.084  1.00  0.00     0.189 HD
HETATM    9  N   UNL     1      -9.126  -0.033 -32.788  1.00  0.00    -0.173 NA
HETATM   10  C   UNL     1      -7.814   0.273 -32.638  1.00  0.00     0.098 A 
HETATM   11  H   UNL     1      -7.375   4.021 -29.933  1.00  0.00     0.163 HD
ENDROOT
BRANCH   1  12
HETATM   12  C   UNL     1      -5.980   3.186 -32.283  1.00  0.00    -0.028 A 
HETATM   13  C   UNL     1      -6.649   4.009 -33.212  1.00  0.00     0.012 A 
HETATM   14  C   UNL     1      -5.938   4.806 -34.107  1.00  0.00     0.040 A 
HETATM   15  C   UNL     1      -4.552   4.792 -34.074  1.00  0.00     0.099 A 
HETATM   16  C   UNL     1      -3.850   3.984 -33.175  1.00  0.00     0.102 A 
HETATM   17  C   UNL     1      -4.568   3.186 -32.280  1.00  0.00     0.049 A 
BRANCH  15  18
HETATM   18  O   UNL     1      -3.877   5.599 -34.948  1.00  0.00    -0.358 OA
HETATM   19  H   UNL     1      -4.263   6.487 -34.824  1.00  0.00     0.218 HD
ENDBRANCH  15  18
BRANCH  16  20
HETATM   20  O   UNL     1      -2.485   4.084 -33.260  1.00  0.00    -0.349 OA
BRANCH  20  21
HETATM   21  C   UNL     1      -1.810   4.705 -32.168  1.00  0.00     0.171 C 
HETATM   22  C   UNL     1      -1.098   5.934 -32.705  1.00  0.00     0.034 C 
ENDBRANCH  20  21
ENDBRANCH  16  20
ENDBRANCH   1  12
BRANCH  10  23
HETATM   23  C   UNL     1      -6.777  -0.631 -33.131  1.00  0.00    -0.002 A 
HETATM   24  C   UNL     1      -5.573  -0.751 -32.412  1.00  0.00     0.050 A 
HETATM   25  C   UNL     1      -4.550  -1.583 -32.868  1.00  0.00     0.069 A 
HETATM   26  C   UNL     1      -4.734  -2.302 -34.051  1.00  0.00     0.037 A 
HETATM   27  C   UNL     1      -5.930  -2.206 -34.763  1.00  0.00     0.004 A 
HETATM   28  C   UNL     1      -6.952  -1.374 -34.302  1.00  0.00     0.014 A 
BRANCH  25  29
HETATM   29  O   UNL     1      -3.338  -1.772 -32.262  1.00  0.00    -0.356 OA
HETATM   30  C   UNL     1      -3.012  -3.105 -31.881  1.00  0.00     0.210 C 
ENDBRANCH  25  29
ENDBRANCH  10  23
TORSDOF 6
ENDMDL
MODEL 3
REMARK VINA RESULT:      -8.4      2.178      3.350
REMARK  6 active torsions:
REMARK  status: ('A' for Active; 'I' for Inactive)
REMARK    1  A    between atoms: C_2  and  O_3 
REMARK    2  A    between atoms: O_3  and  C_4 
REMARK    3  A    between atoms: C_5  and  O_6 
REMARK    4  A    between atoms: C_9  and  C_10 
REMARK    5  A    between atoms: C_19  and  C_20 
REMARK    6  A    between atoms: C_22  and  O_23 
ROOT
HETATM    1  C   UNL     1      -8.267   1.250 -31.624  1.00  0.00     0.156 A 
HETATM    2  N   UNL     1      -9.581   1.917 -31.524  1.00  0.00    -0.343 N 
HETATM    3  C   UNL     1     -10.248   2.054 -32.736  1.00  0.00     0.271 A 
HETATM    4  O   UNL     1     -11.314   2.603 -32.936  1.00  0.00    -0.266 OA
HETATM    5  C   UNL     1      -9.395   1.404 -33.653  1.00  0.00     0.128 A 
HETATM    6  C   UNL     1      -8.255   0.930 -33.067  1.00  0.00     0.034 A 
HETATM    7  N   UNL     1      -9.375   1.056 -34.947  1.00  0.00    -0.272 N 
HETATM    8  H   UNL     1     -10.055   1.248 -35.676  1.00  0.00     0.189 HD
HETATM    9  N   UNL     1      -8.292   0.294 -35.235  1.00  0.00    -0.173 NA
HETATM   10  C   UNL     1      -7.603   0.194 -34.072  1.00  0.00     0.098 A 
HETATM   11  H   UNL     1      -9.931   2.354 -30.684  1.00  0.00     0.163 HD
ENDROOT
BRANCH   1  12
HETATM   12  C   UNL     1      -7.144   2.207 -31.294  1.00  0.00    -0.028 A 
HETATM   13  C   UNL     1      -6.335   2.056 -30.150  1.00  0.00     0.012 A 
HETATM   14  C   UNL     1      -5.259   2.909 -29.913  1.00  0.00     0.040 A 
HETATM   15  C   UNL     1      -4.980   3.917 -30.824  1.00  0.00     0.099 A 
HETATM   16  C   UNL     1      -5.763   4.107 -31.966  1.00  0.00     0.102 A 
HETATM   17  C   UNL     1      -6.840   3.248 -32.199  1.00  0.00     0.049 A 
BRANCH  15  18
HETATM   18  O   UNL     1      -3.907   4.728 -30.580  1.00  0.00    -0.358 OA
HETATM   19  H   UNL     1      -4.049   5.514 -31.143  1.00  0.00     0.218 HD
ENDBRANCH  15  18
BRANCH  16  20
HETATM   20  O   UNL     1      -5.358   5.140 -32.772  1.00  0.00    -0.349 OA
BRANCH  20  21
HETATM   21  C   UNL     1      -5.271   4.877 -34.171  1.00  0.00     0.171 C 
HETATM   22  C   UNL     1      -3.871   5.250 -34.625  1.00  0.00     0.034 C 
ENDBRANCH  20  21
ENDBRANCH  16  20
ENDBRANCH   1  12
BRANCH  10  23
HETATM   23  C   UNL     1      -6.423  -0.660 -33.974  1.00  0.00    -0.002 A 
HETATM   24  C   UNL     1      -6.455  -1.942 -34.553  1.00  0.00     0.050 A 
HETATM   25  C   UNL     1      -5.355  -2.796 -34.454  1.00  0.00     0.069 A 
HETATM   26  C   UNL     1      -4.215  -2.363 -33.775  1.00  0.00     0.037 A 
HETATM   27  C   UNL     1      -4.165  -1.087 -33.213  1.00  0.00     0.004 A 
HETATM   28  C   UNL     1      -5.266  -0.235 -33.315  1.00  0.00     0.014 A 
BRANCH  25  29
HETATM   29  O   UNL     1      -5.273  -4.062 -34.966  1.00  0.00    -0.356 OA
HETATM   30  C   UNL     1      -6.492  -4.664 -35.388  1.00  0.00     0.210 C 
ENDBRANCH  25  29
ENDBRANCH  10  23
TORSDOF 6
ENDMDL
MODEL 4
REMARK VINA RESULT:      -8.3      1.931      6.803
REMARK  6 active torsions:
REMARK  status: ('A' for Active; 'I' for Inactive)
REMARK    1  A    between atoms: C_2  and  O_3 
REMARK    2  A    between atoms: O_3  and  C_4 
REMARK    3  A    between atoms: C_5  and  O_6 
REMARK    4  A    between atoms: C_9  and  C_10 
REMARK    5  A    between atoms: C_19  and  C_20 
REMARK    6  A    between atoms: C_22  and  O_23 
ROOT
HETATM    1  C   UNL     1      -6.076   1.584 -33.233  1.00  0.00     0.156 A 
HETATM    2  N   UNL     1      -7.463   1.181 -32.925  1.00  0.00    -0.343 N 
HETATM    3  C   UNL     1      -8.081   1.952 -31.948  1.00  0.00     0.271 A 
HETATM    4  O   UNL     1      -9.194   1.802 -31.480  1.00  0.00    -0.266 OA
HETATM    5  C   UNL     1      -7.113   2.934 -31.647  1.00  0.00     0.128 A 
HETATM    6  C   UNL     1      -5.956   2.767 -32.353  1.00  0.00     0.034 A 
HETATM    7  N   UNL     1      -6.989   4.038 -30.897  1.00  0.00    -0.272 N 
HETATM    8  H   UNL     1      -7.651   4.454 -30.248  1.00  0.00     0.189 HD
HETATM    9  N   UNL     1      -5.811   4.664 -31.135  1.00  0.00    -0.173 NA
HETATM   10  C   UNL     1      -5.173   3.894 -32.050  1.00  0.00     0.098 A 
HETATM   11  H   UNL     1      -7.903   0.348 -33.287  1.00  0.00     0.163 HD
ENDROOT
BRANCH   1  12
HETATM   12  C   UNL     1      -5.091   0.518 -32.810  1.00  0.00    -0.028 A 
HETATM   13  C   UNL     1      -4.228   0.683 -31.707  1.00  0.00     0.012 A 
HETATM   14  C   UNL     1      -3.386  -0.347 -31.296  1.00  0.00     0.040 A 
HETATM   15  C   UNL     1      -3.405  -1.553 -31.980  1.00  0.00     0.099 A 
HETATM   16  C   UNL     1      -4.239  -1.755 -33.084  1.00  0.00     0.102 A 
HETATM   17  C   UNL     1      -5.082  -0.718 -33.493  1.00  0.00     0.049 A 
BRANCH  15  18
HETATM   18  O   UNL     1      -2.584  -2.556 -31.544  1.00  0.00    -0.358 OA
HETATM   19  H   UNL     1      -1.739  -2.416 -32.014  1.00  0.00     0.218 HD
ENDBRANCH  15  18
BRANCH  16  20
HETATM   20  O   UNL     1      -4.148  -3.000 -33.650  1.00  0.00    -0.349 OA
BRANCH  20  21
HETATM   21  C   UNL     1      -4.779  -3.186 -34.915  1.00  0.00     0.171 C 
HETATM   22  C   UNL     1      -5.858  -4.240 -34.742  1.00  0.00     0.034 C 
ENDBRANCH  20  21
ENDBRANCH  16  20
ENDBRANCH   1  12
BRANCH  10  23
HETATM   23  C   UNL     1      -3.907   4.325 -32.635  1.00  0.00    -0.002 A 
HETATM   24  C   UNL     1      -2.747   4.323 -31.838  1.00  0.00     0.050 A 
HETATM   25  C   UNL     1      -1.525   4.755 -32.356  1.00  0.00     0.069 A 
HETATM   26  C   UNL     1      -1.464   5.190 -33.681  1.00  0.00     0.037 A 
HETATM   27  C   UNL     1      -2.602   5.180 -34.487  1.00  0.00     0.004 A 
HETATM   28  C   UNL     1      -3.823   4.745 -33.966  1.00  0.00     0.014 A 
BRANCH  25  29
HETATM   29  O   UNL     1      -0.338   4.806 -31.678  1.00  0.00    -0.356 OA
HETATM   30  C   UNL     1      -0.013   6.039 -31.046  1.00  0.00     0.210 C 
ENDBRANCH  25  29
ENDBRANCH  10  23
TORSDOF 6
ENDMDL
MODEL 5
REMARK VINA RESULT:      -8.0      2.146      6.638
REMARK  6 active torsions:
REMARK  status: ('A' for Active; 'I' for Inactive)
REMARK    1  A    between atoms: C_2  and  O_3 
REMARK    2  A    between atoms: O_3  and  C_4 
REMARK    3  A    between atoms: C_5  and  O_6 
REMARK    4  A    between atoms: C_9  and  C_10 
REMARK    5  A    between atoms: C_19  and  C_20 
REMARK    6  A    between atoms: C_22  and  O_23 
ROOT
HETATM    1  C   UNL     1      -7.350   0.789 -33.463  1.00  0.00     0.156 A 
HETATM    2  N   UNL     1      -8.517  -0.094 -33.661  1.00  0.00    -0.343 N 
HETATM    3  C   UNL     1      -9.528   0.072 -32.722  1.00  0.00     0.271 A 
HETATM    4  O   UNL     1     -10.565  -0.557 -32.631  1.00  0.00    -0.266 OA
HETATM    5  C   UNL     1      -9.058   1.135 -31.921  1.00  0.00     0.128 A 
HETATM    6  C   UNL     1      -7.823   1.576 -32.304  1.00  0.00     0.034 A 
HETATM    7  N   UNL     1      -9.477   1.898 -30.902  1.00  0.00    -0.272 N 
HETATM    8  H   UNL     1     -10.342   1.847 -30.373  1.00  0.00     0.189 HD
HETATM    9  N   UNL     1      -8.595   2.892 -30.637  1.00  0.00    -0.173 NA
HETATM   10  C   UNL     1      -7.576   2.711 -31.513  1.00  0.00     0.098 A 
HETATM   11  H   UNL     1      -8.551  -0.844 -34.336  1.00  0.00     0.163 HD
ENDROOT
BRANCH   1  12
HETATM   12  C   UNL     1      -6.122  -0.008 -33.084  1.00  0.00    -0.028 A 
HETATM   13  C   UNL     1      -5.448   0.180 -31.860  1.00  0.00     0.012 A 
HETATM   14  C   UNL     1      -4.365  -0.622 -31.507  1.00  0.00     0.040 A 
HETATM   15  C   UNL     1      -3.953  -1.624 -32.372  1.00  0.00     0.099 A 
HETATM   16  C   UNL     1      -4.588  -1.838 -33.599  1.00  0.00     0.102 A 
HETATM   17  C   UNL     1      -5.674  -1.031 -33.949  1.00  0.00     0.049 A 
BRANCH  15  18
HETATM   18  O   UNL     1      -2.901  -2.411 -31.994  1.00  0.00    -0.358 OA
HETATM   19  H   UNL     1      -3.308  -3.208 -31.602  1.00  0.00     0.218 HD
ENDBRANCH  15  18
BRANCH  16  20
HETATM   20  O   UNL     1      -4.069  -2.869 -34.340  1.00  0.00    -0.349 OA
BRANCH  20  21
HETATM   21  C   UNL     1      -4.868  -4.042 -34.469  1.00  0.00     0.171 C 
HETATM   22  C   UNL     1      -4.137  -5.177 -33.774  1.00  0.00     0.034 C 
ENDBRANCH  20  21
ENDBRANCH  16  20
ENDBRANCH   1  12
BRANCH  10  23
HETATM   23  C   UNL     1      -6.484   3.677 -31.597  1.00  0.00    -0.002 A 
HETATM   24  C   UNL     1      -6.103   4.175 -32.856  1.00  0.00     0.050 A 
HETATM   25  C   UNL     1      -5.045   5.077 -32.976  1.00  0.00     0.069 A 
HETATM   26  C   UNL     1      -4.366   5.486 -31.827  1.00  0.00     0.037 A 
HETATM   27  C   UNL     1      -4.745   5.014 -30.571  1.00  0.00     0.004 A 
HETATM   28  C   UNL     1      -5.805   4.112 -30.455  1.00  0.00     0.014 A 
BRANCH  25  29
HETATM   29  O   UNL     1      -4.581   5.620 -34.143  1.00  0.00    -0.356 OA
HETATM   30  C   UNL     1      -3.190   5.918 -34.204  1.00  0.00     0.210 C 
ENDBRANCH  25  29
ENDBRANCH  10  23
TORSDOF 6
ENDMDL
MODEL 6
REMARK VINA RESULT:      -7.9      2.246      6.014
REMARK  6 active torsions:
REMARK  status: ('A' for Active; 'I' for Inactive)
REMARK    1  A    between atoms: C_2  and  O_3 
REMARK    2  A    between atoms: O_3  and  C_4 
REMARK    3  A    between atoms: C_5  and  O_6 
REMARK    4  A    between atoms: C_9  and  C_10 
REMARK    5  A    between atoms: C_19  and  C_20 
REMARK    6  A    between atoms: C_22  and  O_23 
ROOT
HETATM    1  C   UNL     1      -7.991   1.117 -34.362  1.00  0.00     0.156 A 
HETATM    2  N   UNL     1      -9.387   0.713 -34.626  1.00  0.00    -0.343 N 
HETATM    3  C   UNL     1     -10.269   0.981 -33.585  1.00  0.00     0.271 A 
HETATM    4  O   UNL     1     -11.452   0.708 -33.528  1.00  0.00    -0.266 OA
HETATM    5  C   UNL     1      -9.460   1.641 -32.635  1.00  0.00     0.128 A 
HETATM    6  C   UNL     1      -8.157   1.743 -33.032  1.00  0.00     0.034 A 
HETATM    7  N   UNL     1      -9.586   2.258 -31.452  1.00  0.00    -0.272 N 
HETATM    8  H   UNL     1     -10.409   2.368 -30.867  1.00  0.00     0.189 HD
HETATM    9  N   UNL     1      -8.422   2.840 -31.075  1.00  0.00    -0.173 NA
HETATM   10  C   UNL     1      -7.537   2.543 -32.057  1.00  0.00     0.098 A 
HETATM   11  H   UNL     1      -9.678   0.177 -35.430  1.00  0.00     0.163 HD
ENDROOT
BRANCH   1  12
HETATM   12  C   UNL     1      -7.085  -0.088 -34.261  1.00  0.00    -0.028 A 
HETATM   13  C   UNL     1      -7.479  -1.368 -34.701  1.00  0.00     0.012 A 
HETATM   14  C   UNL     1      -6.594  -2.443 -34.665  1.00  0.00     0.040 A 
HETATM   15  C   UNL     1      -5.305  -2.244 -34.194  1.00  0.00     0.099 A 
HETATM   16  C   UNL     1      -4.876  -0.994 -33.740  1.00  0.00     0.102 A 
HETATM   17  C   UNL     1      -5.768   0.082 -33.779  1.00  0.00     0.049 A 
BRANCH  15  18
HETATM   18  O   UNL     1      -4.448  -3.311 -34.188  1.00  0.00    -0.358 OA
HETATM   19  H   UNL     1      -3.833  -3.147 -34.930  1.00  0.00     0.218 HD
ENDBRANCH  15  18
BRANCH  16  20
HETATM   20  O   UNL     1      -3.574  -0.955 -33.313  1.00  0.00    -0.349 OA
BRANCH  20  21
HETATM   21  C   UNL     1      -3.172   0.188 -32.560  1.00  0.00     0.171 C 
HETATM   22  C   UNL     1      -3.318  -0.154 -31.088  1.00  0.00     0.034 C 
ENDBRANCH  20  21
ENDBRANCH  16  20
ENDBRANCH   1  12
BRANCH  10  23
HETATM   23  C   UNL     1      -6.190   3.108 -32.045  1.00  0.00    -0.002 A 
HETATM   24  C   UNL     1      -5.715   3.773 -33.191  1.00  0.00     0.050 A 
HETATM   25  C   UNL     1      -4.423   4.301 -33.225  1.00  0.00     0.069 A 
HETATM   26  C   UNL     1      -3.603   4.165 -32.103  1.00  0.00     0.037 A 
HETATM   27  C   UNL     1      -4.069   3.525 -30.955  1.00  0.00     0.004 A 
HETATM   28  C   UNL     1      -5.362   2.999 -30.924  1.00  0.00     0.014 A 
BRANCH  25  29
HETATM   29  O   UNL     1      -3.851   4.956 -34.280  1.00  0.00    -0.356 OA
HETATM   30  C   UNL     1      -3.054   6.094 -33.973  1.00  0.00     0.210 C 
ENDBRANCH  25  29
ENDBRANCH  10  23
TORSDOF 6
ENDMDL
MODEL 7
REMARK VINA RESULT:      -7.9      2.829      5.323
REMARK  6 active torsions:
REMARK  status: ('A' for Active; 'I' for Inactive)
REMARK    1  A    between atoms: C_2  and  O_3 
REMARK    2  A    between atoms: O_3  and  C_4 
REMARK    3  A    between atoms: C_5  and  O_6 
REMARK    4  A    between atoms: C_9  and  C_10 
REMARK    5  A    between atoms: C_19  and  C_20 
REMARK    6  A    between atoms: C_22  and  O_23 
ROOT
HETATM    1  C   UNL     1      -5.547   2.744 -33.134  1.00  0.00     0.156 A 
HETATM    2  N   UNL     1      -4.817   3.939 -32.662  1.00  0.00    -0.343 N 
HETATM    3  C   UNL     1      -3.781   3.666 -31.777  1.00  0.00     0.271 A 
HETATM    4  O   UNL     1      -3.062   4.465 -31.209  1.00  0.00    -0.266 OA
HETATM    5  C   UNL     1      -3.773   2.256 -31.710  1.00  0.00     0.128 A 
HETATM    6  C   UNL     1      -4.759   1.687 -32.465  1.00  0.00     0.034 A 
HETATM    7  N   UNL     1      -3.050   1.272 -31.157  1.00  0.00    -0.272 N 
HETATM    8  H   UNL     1      -2.249   1.333 -30.535  1.00  0.00     0.189 HD
HETATM    9  N   UNL     1      -3.471   0.055 -31.579  1.00  0.00    -0.173 NA
HETATM   10  C   UNL     1      -4.517   0.304 -32.405  1.00  0.00     0.098 A 
HETATM   11  H   UNL     1      -5.103   4.888 -32.853  1.00  0.00     0.163 HD
ENDROOT
BRANCH   1  12
HETATM   12  C   UNL     1      -6.969   2.737 -32.622  1.00  0.00    -0.028 A 
HETATM   13  C   UNL     1      -7.277   2.836 -31.250  1.00  0.00     0.012 A 
HETATM   14  C   UNL     1      -8.599   2.903 -30.815  1.00  0.00     0.040 A 
HETATM   15  C   UNL     1      -9.623   2.878 -31.749  1.00  0.00     0.099 A 
HETATM   16  C   UNL     1      -9.361   2.772 -33.118  1.00  0.00     0.102 A 
HETATM   17  C   UNL     1      -8.033   2.705 -33.550  1.00  0.00     0.049 A 
BRANCH  15  18
HETATM   18  O   UNL     1     -10.911   2.966 -31.299  1.00  0.00    -0.358 OA
HETATM   19  H   UNL     1     -11.009   2.228 -30.665  1.00  0.00     0.218 HD
ENDBRANCH  15  18
BRANCH  16  20
HETATM   20  O   UNL     1     -10.476   2.766 -33.916  1.00  0.00    -0.349 OA
BRANCH  20  21
HETATM   21  C   UNL     1     -10.919   1.502 -34.404  1.00  0.00     0.171 C 
HETATM   22  C   UNL     1     -12.209   1.730 -35.171  1.00  0.00     0.034 C 
ENDBRANCH  20  21
ENDBRANCH  16  20
ENDBRANCH   1  12
BRANCH  10  23
HETATM   23  C   UNL     1      -5.157  -0.780 -33.145  1.00  0.00    -0.002 A 
HETATM   24  C   UNL     1      -4.403  -1.919 -33.483  1.00  0.00     0.050 A 
HETATM   25  C   UNL     1      -4.975  -2.962 -34.214  1.00  0.00     0.069 A 
HETATM   26  C   UNL     1      -6.311  -2.864 -34.607  1.00  0.00     0.037 A 
HETATM   27  C   UNL     1      -7.074  -1.749 -34.262  1.00  0.00     0.004 A 
HETATM   28  C   UNL     1      -6.499  -0.709 -33.529  1.00  0.00     0.014 A 
BRANCH  25  29
HETATM   29  O   UNL     1      -4.341  -4.109 -34.607  1.00  0.00    -0.356 OA
HETATM   30  C   UNL     1      -3.632  -4.826 -33.602  1.00  0.00     0.210 C 
ENDBRANCH  25  29
ENDBRANCH  10  23
TORSDOF 6
ENDMDL
MODEL 8
REMARK VINA RESULT:      -7.8      3.653      5.802
REMARK  6 active torsions:
REMARK  status: ('A' for Active; 'I' for Inactive)
REMARK    1  A    between atoms: C_2  and  O_3 
REMARK    2  A    between atoms: O_3  and  C_4 
REMARK    3  A    between atoms: C_5  and  O_6 
REMARK    4  A    between atoms: C_9  and  C_10 
REMARK    5  A    between atoms: C_19  and  C_20 
REMARK    6  A    between atoms: C_22  and  O_23 
ROOT
HETATM    1  C   UNL     1      -7.198   2.058 -33.793  1.00  0.00     0.156 A 
HETATM    2  N   UNL     1      -7.050   3.419 -33.239  1.00  0.00    -0.343 N 
HETATM    3  C   UNL     1      -6.299   3.485 -32.072  1.00  0.00     0.271 A 
HETATM    4  O   UNL     1      -6.067   4.467 -31.394  1.00  0.00    -0.266 OA
HETATM    5  C   UNL     1      -5.878   2.151 -31.879  1.00  0.00     0.128 A 
HETATM    6  C   UNL     1      -6.364   1.303 -32.833  1.00  0.00     0.034 A 
HETATM    7  N   UNL     1      -5.091   1.446 -31.055  1.00  0.00    -0.272 N 
HETATM    8  H   UNL     1      -4.575   1.754 -30.237  1.00  0.00     0.189 HD
HETATM    9  N   UNL     1      -4.969   0.162 -31.471  1.00  0.00    -0.173 NA
HETATM   10  C   UNL     1      -5.739   0.070 -32.583  1.00  0.00     0.098 A 
HETATM   11  H   UNL     1      -7.542   4.229 -33.588  1.00  0.00     0.163 HD
ENDROOT
BRANCH   1  12
HETATM   12  C   UNL     1      -8.634   1.591 -33.715  1.00  0.00    -0.028 A 
HETATM   13  C   UNL     1      -9.019   0.454 -32.977  1.00  0.00     0.012 A 
HETATM   14  C   UNL     1     -10.359   0.093 -32.862  1.00  0.00     0.040 A 
HETATM   15  C   UNL     1     -11.326   0.871 -33.479  1.00  0.00     0.099 A 
HETATM   16  C   UNL     1     -10.987   2.002 -34.227  1.00  0.00     0.102 A 
HETATM   17  C   UNL     1      -9.641   2.360 -34.340  1.00  0.00     0.049 A 
BRANCH  15  18
HETATM   18  O   UNL     1     -12.637   0.508 -33.333  1.00  0.00    -0.358 OA
HETATM   19  H   UNL     1     -12.931   0.252 -34.229  1.00  0.00     0.218 HD
ENDBRANCH  15  18
BRANCH  16  20
HETATM   20  O   UNL     1     -12.054   2.671 -34.770  1.00  0.00    -0.349 OA
BRANCH  20  21
HETATM   21  C   UNL     1     -11.762   3.740 -35.667  1.00  0.00     0.171 C 
HETATM   22  C   UNL     1     -12.728   4.872 -35.365  1.00  0.00     0.034 C 
ENDBRANCH  20  21
ENDBRANCH  16  20
ENDBRANCH   1  12
BRANCH  10  23
HETATM   23  C   UNL     1      -5.760  -1.156 -33.376  1.00  0.00    -0.002 A 
HETATM   24  C   UNL     1      -4.588  -1.928 -33.477  1.00  0.00     0.050 A 
HETATM   25  C   UNL     1      -4.564  -3.091 -34.250  1.00  0.00     0.069 A 
HETATM   26  C   UNL     1      -5.721  -3.484 -34.924  1.00  0.00     0.037 A 
HETATM   27  C   UNL     1      -6.895  -2.737 -34.817  1.00  0.00     0.004 A 
HETATM   28  C   UNL     1      -6.916  -1.576 -34.042  1.00  0.00     0.014 A 
BRANCH  25  29
HETATM   29  O   UNL     1      -3.486  -3.913 -34.429  1.00  0.00    -0.356 OA
HETATM   30  C   UNL     1      -3.302  -4.948 -33.470  1.00  0.00     0.210 C 
ENDBRANCH  25  29
ENDBRANCH  10  23
TORSDOF 6
ENDMDL
MODEL 9
REMARK VINA RESULT:      -7.7      1.790      2.410
REMARK  6 active torsions:
REMARK  status: ('A' for Active; 'I' for Inactive)
REMARK    1  A    between atoms: C_2  and  O_3 
REMARK    2  A    between atoms: O_3  and  C_4 
REMARK    3  A    between atoms: C_5  and  O_6 
REMARK    4  A    between atoms: C_9  and  C_10 
REMARK    5  A    between atoms: C_19  and  C_20 
REMARK    6  A    between atoms: C_22  and  O_23 
ROOT
HETATM    1  C   UNL     1      -6.785   2.078 -30.661  1.00  0.00     0.156 A 
HETATM    2  N   UNL     1      -7.845   2.877 -30.013  1.00  0.00    -0.343 N 
HETATM    3  C   UNL     1      -9.114   2.685 -30.544  1.00  0.00     0.271 A 
HETATM    4  O   UNL     1     -10.144   3.249 -30.227  1.00  0.00    -0.266 OA
HETATM    5  C   UNL     1      -8.911   1.685 -31.520  1.00  0.00     0.128 A 
HETATM    6  C   UNL     1      -7.602   1.308 -31.623  1.00  0.00     0.034 A 
HETATM    7  N   UNL     1      -9.629   0.937 -32.369  1.00  0.00    -0.272 N 
HETATM    8  H   UNL     1     -10.627   0.954 -32.557  1.00  0.00     0.189 HD
HETATM    9  N   UNL     1      -8.854   0.012 -32.986  1.00  0.00    -0.173 NA
HETATM   10  C   UNL     1      -7.601   0.223 -32.515  1.00  0.00     0.098 A 
HETATM   11  H   UNL     1      -7.671   3.597 -29.326  1.00  0.00     0.163 HD
ENDROOT
BRANCH   1  12
HETATM   12  C   UNL     1      -5.809   2.965 -31.399  1.00  0.00    -0.028 A 
HETATM   13  C   UNL     1      -4.538   2.512 -31.808  1.00  0.00     0.012 A 
HETATM   14  C   UNL     1      -3.691   3.329 -32.553  1.00  0.00     0.040 A 
HETATM   15  C   UNL     1      -4.111   4.603 -32.902  1.00  0.00     0.099 A 
HETATM   16  C   UNL     1      -5.360   5.094 -32.510  1.00  0.00     0.102 A 
HETATM   17  C   UNL     1      -6.206   4.271 -31.762  1.00  0.00     0.049 A 
BRANCH  15  18
HETATM   18  O   UNL     1      -3.270   5.378 -33.652  1.00  0.00    -0.358 OA
HETATM   19  H   UNL     1      -3.158   4.892 -34.492  1.00  0.00     0.218 HD
ENDBRANCH  15  18
BRANCH  16  20
HETATM   20  O   UNL     1      -5.634   6.368 -32.937  1.00  0.00    -0.349 OA
BRANCH  20  21
HETATM   21  C   UNL     1      -6.703   7.054 -32.289  1.00  0.00     0.171 C 
HETATM   22  C   UNL     1      -6.092   8.053 -31.323  1.00  0.00     0.034 C 
ENDBRANCH  20  21
ENDBRANCH  16  20
ENDBRANCH   1  12
BRANCH  10  23
HETATM   23  C   UNL     1      -6.507  -0.675 -32.878  1.00  0.00    -0.002 A 
HETATM   24  C   UNL     1      -6.645  -1.502 -34.008  1.00  0.00     0.050 A 
HETATM   25  C   UNL     1      -5.632  -2.392 -34.368  1.00  0.00     0.069 A 
HETATM   26  C   UNL     1      -4.472  -2.452 -33.594  1.00  0.00     0.037 A 
HETATM   27  C   UNL     1      -4.315  -1.624 -32.482  1.00  0.00     0.004 A 
HETATM   28  C   UNL     1      -5.330  -0.734 -32.126  1.00  0.00     0.014 A 
BRANCH  25  29
HETATM   29  O   UNL     1      -5.657  -3.248 -35.435  1.00  0.00    -0.356 OA
HETATM   30  C   UNL     1      -6.403  -4.450 -35.276  1.00  0.00     0.210 C 
ENDBRANCH  25  29
ENDBRANCH  10  23
TORSDOF 6
ENDMDL
MODEL 10
REMARK VINA RESULT:      -7.6      2.811      6.018
REMARK  6 active torsions:
REMARK  status: ('A' for Active; 'I' for Inactive)
REMARK    1  A    between atoms: C_2  and  O_3 
REMARK    2  A    between atoms: O_3  and  C_4 
REMARK    3  A    between atoms: C_5  and  O_6 
REMARK    4  A    between atoms: C_9  and  C_10 
REMARK    5  A    between atoms: C_19  and  C_20 
REMARK    6  A    between atoms: C_22  and  O_23 
ROOT
HETATM    1  C   UNL     1      -4.808   2.437 -31.397  1.00  0.00     0.156 A 
HETATM    2  N   UNL     1      -3.694   3.269 -30.899  1.00  0.00    -0.343 N 
HETATM    3  C   UNL     1      -3.318   4.297 -31.755  1.00  0.00     0.271 A 
HETATM    4  O   UNL     1      -2.408   5.089 -31.607  1.00  0.00    -0.266 OA
HETATM    5  C   UNL     1      -4.245   4.194 -32.815  1.00  0.00     0.128 A 
HETATM    6  C   UNL     1      -5.112   3.151 -32.656  1.00  0.00     0.034 A 
HETATM    7  N   UNL     1      -4.577   4.847 -33.937  1.00  0.00    -0.272 N 
HETATM    8  H   UNL     1      -4.144   5.661 -34.361  1.00  0.00     0.189 HD
HETATM    9  N   UNL     1      -5.692   4.321 -34.500  1.00  0.00    -0.173 NA
HETATM   10  C   UNL     1      -6.042   3.282 -33.702  1.00  0.00     0.098 A 
HETATM   11  H   UNL     1      -3.156   3.056 -30.072  1.00  0.00     0.163 HD
ENDROOT
BRANCH   1  12
HETATM   12  C   UNL     1      -4.345   1.029 -31.696  1.00  0.00    -0.028 A 
HETATM   13  C   UNL     1      -3.077   0.553 -31.307  1.00  0.00     0.012 A 
HETATM   14  C   UNL     1      -2.709  -0.772 -31.529  1.00  0.00     0.040 A 
HETATM   15  C   UNL     1      -3.609  -1.633 -32.137  1.00  0.00     0.099 A 
HETATM   16  C   UNL     1      -4.873  -1.200 -32.546  1.00  0.00     0.102 A 
HETATM   17  C   UNL     1      -5.238   0.130 -32.321  1.00  0.00     0.049 A 
BRANCH  15  18
HETATM   18  O   UNL     1      -3.232  -2.934 -32.325  1.00  0.00    -0.358 OA
HETATM   19  H   UNL     1      -2.782  -3.191 -31.497  1.00  0.00     0.218 HD
ENDBRANCH  15  18
BRANCH  16  20
HETATM   20  O   UNL     1      -5.652  -2.169 -33.125  1.00  0.00    -0.349 OA
BRANCH  20  21
HETATM   21  C   UNL     1      -5.808  -2.116 -34.541  1.00  0.00     0.171 C 
HETATM   22  C   UNL     1      -6.292  -3.479 -35.003  1.00  0.00     0.034 C 
ENDBRANCH  20  21
ENDBRANCH  16  20
ENDBRANCH   1  12
BRANCH  10  23
HETATM   23  C   UNL     1      -7.279   2.542 -33.939  1.00  0.00    -0.002 A 
HETATM   24  C   UNL     1      -8.499   3.086 -33.498  1.00  0.00     0.050 A 
HETATM   25  C   UNL     1      -9.697   2.394 -33.682  1.00  0.00     0.069 A 
HETATM   26  C   UNL     1      -9.672   1.150 -34.315  1.00  0.00     0.037 A 
HETATM   27  C   UNL     1      -8.472   0.608 -34.774  1.00  0.00     0.004 A 
HETATM   28  C   UNL     1      -7.276   1.305 -34.589  1.00  0.00     0.014 A 
BRANCH  25  29
HETATM   29  O   UNL     1     -10.937   2.816 -33.289  1.00  0.00    -0.356 OA
HETATM   30  C   UNL     1     -12.018   1.914 -33.498  1.00  0.00     0.210 C 
ENDBRANCH  25  29
ENDBRANCH  10  23
TORSDOF 6
ENDMDL
