MODEL 1
REMARK VINA RESULT:      -8.3      0.000      0.000
REMARK  3 active torsions:
REMARK  status: ('A' for Active; 'I' for Inactive)
REMARK    1  A    between atoms: C_4  and  N_5 
REMARK       I    between atoms: N_5  and  C_6 
REMARK    2  A    between atoms: C_6  and  C_7 
REMARK    3  A    between atoms: C_7  and  C_8 
ROOT
HETATM    1  C   UNL     1      -6.996   0.258 -31.143  1.00  0.00     0.286 C 
HETATM    2  N   UNL     1      -7.980   0.151 -32.303  1.00  0.00    -0.056 N 
HETATM    3  H   UNL     1      -7.589   0.753 -33.058  1.00  0.00     0.278 HD
HETATM    4  H   UNL     1      -7.999  -0.804 -32.676  1.00  0.00     0.278 HD
HETATM    5  C   UNL     1      -9.361   0.619 -31.916  1.00  0.00     0.209 C 
HETATM    6  C   UNL     1      -9.283   2.097 -31.452  1.00  0.00     0.115 C 
HETATM    7  N   UNL     1      -8.222   2.312 -30.466  1.00  0.00    -0.353 N 
HETATM    8  C   UNL     1      -7.021   1.642 -30.460  1.00  0.00     0.249 C 
HETATM    9  O   UNL     1      -6.065   2.094 -29.841  1.00  0.00    -0.271 OA
HETATM   10  C   UNL     1     -10.314   0.407 -33.092  1.00  0.00     0.035 C 
HETATM   11  C   UNL     1     -10.094   1.398 -34.231  1.00  0.00     0.002 C 
HETATM   12  C   UNL     1     -10.130   2.836 -33.729  1.00  0.00     0.002 C 
HETATM   13  C   UNL     1      -9.105   3.071 -32.626  1.00  0.00     0.027 C 
HETATM   14  H   UNL     1      -8.185   3.212 -29.990  1.00  0.00     0.163 HD
ENDROOT
BRANCH   1  15
HETATM   15  C   UNL     1      -5.581  -0.140 -31.578  1.00  0.00     0.146 C 
BRANCH  15  16
HETATM   16  C   UNL     1      -5.279   0.389 -32.958  1.00  0.00     0.224 C 
HETATM   17  N   UNL     1      -5.083  -0.433 -34.020  1.00  0.00    -0.327 N 
HETATM   18  H   UNL     1      -4.729   0.067 -34.831  1.00  0.00     0.169 HD
HETATM   19  O   UNL     1      -5.226   1.616 -33.117  1.00  0.00    -0.273 OA
BRANCH  17  20
HETATM   20  C   UNL     1      -5.247  -1.821 -34.207  1.00  0.00     0.035 A 
HETATM   21  C   UNL     1      -4.273  -2.788 -33.948  1.00  0.00     0.036 A 
HETATM   22  C   UNL     1      -4.534  -4.154 -34.157  1.00  0.00    -0.060 A 
HETATM   23  C   UNL     1      -3.495  -5.190 -33.840  1.00  0.00     0.048 C 
HETATM   24  C   UNL     1      -5.799  -4.551 -34.597  1.00  0.00     0.007 A 
HETATM   25  C   UNL     1      -6.786  -3.599 -34.835  1.00  0.00     0.003 A 
HETATM   26  C   UNL     1      -6.512  -2.245 -34.634  1.00  0.00     0.029 A 
ENDBRANCH  17  20
ENDBRANCH  15  16
ENDBRANCH   1  15
TORSDOF 3
ENDMDL
MODEL 2
REMARK VINA RESULT:      -8.0      2.346      3.828
REMARK  3 active torsions:
REMARK  status: ('A' for Active; 'I' for Inactive)
REMARK    1  A    between atoms: C_4  and  N_5 
REMARK       I    between atoms: N_5  and  C_6 
REMARK    2  A    between atoms: C_6  and  C_7 
REMARK    3  A    between atoms: C_7  and  C_8 
ROOT
HETATM    1  C   UNL     1      -7.459   1.606 -31.524  1.00  0.00     0.286 C 
HETATM    2  N   UNL     1      -6.775   2.723 -32.303  1.00  0.00    -0.056 N 
HETATM    3  H   UNL     1      -6.234   2.248 -33.056  1.00  0.00     0.278 HD
HETATM    4  H   UNL     1      -7.468   3.314 -32.775  1.00  0.00     0.278 HD
HETATM    5  C   UNL     1      -5.858   3.541 -31.429  1.00  0.00     0.209 C 
HETATM    6  C   UNL     1      -4.776   2.611 -30.820  1.00  0.00     0.115 C 
HETATM    7  N   UNL     1      -5.356   1.411 -30.213  1.00  0.00    -0.353 N 
HETATM    8  C   UNL     1      -6.471   0.763 -30.689  1.00  0.00     0.249 C 
HETATM    9  O   UNL     1      -6.700  -0.395 -30.360  1.00  0.00    -0.271 OA
HETATM   10  C   UNL     1      -5.271   4.691 -32.248  1.00  0.00     0.035 C 
HETATM   11  C   UNL     1      -4.216   4.238 -33.252  1.00  0.00     0.002 C 
HETATM   12  C   UNL     1      -3.126   3.414 -32.576  1.00  0.00     0.002 C 
HETATM   13  C   UNL     1      -3.706   2.209 -31.845  1.00  0.00     0.027 C 
HETATM   14  H   UNL     1      -4.746   0.812 -29.659  1.00  0.00     0.163 HD
ENDROOT
BRANCH   1  15
HETATM   15  C   UNL     1      -8.320   0.734 -32.445  1.00  0.00     0.146 C 
BRANCH  15  16
HETATM   16  C   UNL     1      -8.103   1.109 -33.890  1.00  0.00     0.224 C 
HETATM   17  N   UNL     1      -7.216   0.454 -34.681  1.00  0.00    -0.327 N 
HETATM   18  H   UNL     1      -7.070   0.929 -35.568  1.00  0.00     0.169 HD
HETATM   19  O   UNL     1      -8.774   2.036 -34.362  1.00  0.00    -0.273 OA
BRANCH  17  20
HETATM   20  C   UNL     1      -6.455  -0.720 -34.508  1.00  0.00     0.035 A 
HETATM   21  C   UNL     1      -6.840  -1.997 -34.925  1.00  0.00     0.036 A 
HETATM   22  C   UNL     1      -6.006  -3.110 -34.715  1.00  0.00    -0.060 A 
HETATM   23  C   UNL     1      -6.410  -4.473 -35.199  1.00  0.00     0.048 C 
HETATM   24  C   UNL     1      -4.759  -2.929 -34.111  1.00  0.00     0.007 A 
HETATM   25  C   UNL     1      -4.354  -1.659 -33.715  1.00  0.00     0.003 A 
HETATM   26  C   UNL     1      -5.194  -0.563 -33.918  1.00  0.00     0.029 A 
ENDBRANCH  17  20
ENDBRANCH  15  16
ENDBRANCH   1  15
TORSDOF 3
ENDMDL
MODEL 3
REMARK VINA RESULT:      -8.0     13.594     16.543
REMARK  3 active torsions:
REMARK  status: ('A' for Active; 'I' for Inactive)
REMARK    1  A    between atoms: C_4  and  N_5 
REMARK       I    between atoms: N_5  and  C_6 
REMARK    2  A    between atoms: C_6  and  C_7 
REMARK    3  A    between atoms: C_7  and  C_8 
ROOT
HETATM    1  C   UNL     1      -4.036 -13.929 -39.977  1.00  0.00     0.286 C 
HETATM    2  N   UNL     1      -2.948 -14.113 -38.925  1.00  0.00    -0.056 N 
HETATM    3  H   UNL     1      -2.327 -13.282 -39.016  1.00  0.00     0.278 HD
HETATM    4  H   UNL     1      -3.345 -14.072 -37.980  1.00  0.00     0.278 HD
HETATM    5  C   UNL     1      -2.164 -15.384 -39.139  1.00  0.00     0.209 C 
HETATM    6  C   UNL     1      -1.509 -15.344 -40.544  1.00  0.00     0.115 C 
HETATM    7  N   UNL     1      -2.468 -14.985 -41.591  1.00  0.00    -0.353 N 
HETATM    8  C   UNL     1      -3.514 -14.110 -41.419  1.00  0.00     0.249 C 
HETATM    9  O   UNL     1      -4.057 -13.597 -42.389  1.00  0.00    -0.271 OA
HETATM   10  C   UNL     1      -1.151 -15.550 -38.007  1.00  0.00     0.035 C 
HETATM   11  C   UNL     1       0.027 -14.586 -38.108  1.00  0.00     0.002 C 
HETATM   12  C   UNL     1       0.693 -14.666 -39.477  1.00  0.00     0.002 C 
HETATM   13  C   UNL     1      -0.301 -14.398 -40.601  1.00  0.00     0.027 C 
HETATM   14  H   UNL     1      -2.174 -15.076 -42.562  1.00  0.00     0.163 HD
ENDROOT
BRANCH   1  15
HETATM   15  C   UNL     1      -4.764 -12.593 -39.794  1.00  0.00     0.146 C 
BRANCH  15  16
HETATM   16  C   UNL     1      -5.063 -12.343 -38.338  1.00  0.00     0.224 C 
HETATM   17  N   UNL     1      -6.315 -12.465 -37.826  1.00  0.00    -0.327 N 
HETATM   18  H   UNL     1      -6.378 -12.106 -36.878  1.00  0.00     0.169 HD
HETATM   19  O   UNL     1      -4.126 -12.034 -37.590  1.00  0.00    -0.273 OA
BRANCH  17  20
HETATM   20  C   UNL     1      -7.526 -12.961 -38.352  1.00  0.00     0.035 A 
HETATM   21  C   UNL     1      -8.465 -12.204 -39.057  1.00  0.00     0.036 A 
HETATM   22  C   UNL     1      -9.643 -12.791 -39.552  1.00  0.00    -0.060 A 
HETATM   23  C   UNL     1     -10.630 -11.980 -40.342  1.00  0.00     0.048 C 
HETATM   24  C   UNL     1      -9.860 -14.158 -39.366  1.00  0.00     0.007 A 
HETATM   25  C   UNL     1      -8.920 -14.928 -38.688  1.00  0.00     0.003 A 
HETATM   26  C   UNL     1      -7.759 -14.333 -38.191  1.00  0.00     0.029 A 
ENDBRANCH  17  20
ENDBRANCH  15  16
ENDBRANCH   1  15
TORSDOF 3
ENDMDL
MODEL 4
REMARK VINA RESULT:      -7.8      1.878      2.907
REMARK  3 active torsions:
REMARK  status: ('A' for Active; 'I' for Inactive)
REMARK    1  A    between atoms: C_4  and  N_5 
REMARK       I    between atoms: N_5  and  C_6 
REMARK    2  A    between atoms: C_6  and  C_7 
REMARK    3  A    between atoms: C_7  and  C_8 
ROOT
HETATM    1  C   UNL     1      -8.988   0.798 -31.616  1.00  0.00     0.286 C 
HETATM    2  N   UNL     1      -9.688   2.143 -31.777  1.00  0.00    -0.056 N 
HETATM    3  H   UNL     1      -9.201   2.619 -32.565  1.00  0.00     0.278 HD
HETATM    4  H   UNL     1     -10.660   2.012 -32.077  1.00  0.00     0.278 HD
HETATM    5  C   UNL     1      -9.605   2.977 -30.523  1.00  0.00     0.209 C 
HETATM    6  C   UNL     1      -8.113   3.220 -30.176  1.00  0.00     0.115 C 
HETATM    7  N   UNL     1      -7.333   1.981 -30.187  1.00  0.00    -0.353 N 
HETATM    8  C   UNL     1      -7.561   0.929 -31.043  1.00  0.00     0.249 C 
HETATM    9  O   UNL     1      -6.689   0.090 -31.236  1.00  0.00    -0.271 OA
HETATM   10  C   UNL     1     -10.394   4.270 -30.723  1.00  0.00     0.035 C 
HETATM   11  C   UNL     1      -9.701   5.262 -31.652  1.00  0.00     0.002 C 
HETATM   12  C   UNL     1      -8.272   5.538 -31.201  1.00  0.00     0.002 C 
HETATM   13  C   UNL     1      -7.457   4.254 -31.102  1.00  0.00     0.027 C 
HETATM   14  H   UNL     1      -6.380   2.011 -29.829  1.00  0.00     0.163 HD
ENDROOT
BRANCH   1  15
HETATM   15  C   UNL     1      -9.009   0.001 -32.925  1.00  0.00     0.146 C 
BRANCH  15  16
HETATM   16  C   UNL     1      -8.329   0.771 -34.029  1.00  0.00     0.224 C 
HETATM   17  N   UNL     1      -7.166   0.354 -34.590  1.00  0.00    -0.327 N 
HETATM   18  H   UNL     1      -6.757   1.061 -35.196  1.00  0.00     0.169 HD
HETATM   19  O   UNL     1      -8.868   1.808 -34.439  1.00  0.00    -0.273 OA
BRANCH  17  20
HETATM   20  C   UNL     1      -6.416  -0.834 -34.481  1.00  0.00     0.035 A 
HETATM   21  C   UNL     1      -6.829  -2.090 -34.933  1.00  0.00     0.036 A 
HETATM   22  C   UNL     1      -6.005  -3.220 -34.787  1.00  0.00    -0.060 A 
HETATM   23  C   UNL     1      -6.439  -4.559 -35.309  1.00  0.00     0.048 C 
HETATM   24  C   UNL     1      -4.739  -3.076 -34.212  1.00  0.00     0.007 A 
HETATM   25  C   UNL     1      -4.306  -1.827 -33.781  1.00  0.00     0.003 A 
HETATM   26  C   UNL     1      -5.137  -0.714 -33.921  1.00  0.00     0.029 A 
ENDBRANCH  17  20
ENDBRANCH  15  16
ENDBRANCH   1  15
TORSDOF 3
ENDMDL
MODEL 5
REMARK VINA RESULT:      -7.8      4.927      6.783
REMARK  3 active torsions:
REMARK  status: ('A' for Active; 'I' for Inactive)
REMARK    1  A    between atoms: C_4  and  N_5 
REMARK       I    between atoms: N_5  and  C_6 
REMARK    2  A    between atoms: C_6  and  C_7 
REMARK    3  A    between atoms: C_7  and  C_8 
ROOT
HETATM    1  C   UNL     1      -3.618   4.258 -33.543  1.00  0.00     0.286 C 
HETATM    2  N   UNL     1      -2.898   4.666 -32.263  1.00  0.00    -0.056 N 
HETATM    3  H   UNL     1      -3.401   5.511 -31.917  1.00  0.00     0.278 HD
HETATM    4  H   UNL     1      -3.010   3.948 -31.539  1.00  0.00     0.278 HD
HETATM    5  C   UNL     1      -1.444   4.980 -32.508  1.00  0.00     0.209 C 
HETATM    6  C   UNL     1      -1.343   6.136 -33.537  1.00  0.00     0.115 C 
HETATM    7  N   UNL     1      -2.166   5.895 -34.724  1.00  0.00    -0.353 N 
HETATM    8  C   UNL     1      -3.376   5.242 -34.708  1.00  0.00     0.249 C 
HETATM    9  O   UNL     1      -4.159   5.369 -35.642  1.00  0.00    -0.271 OA
HETATM   10  C   UNL     1      -0.764   5.299 -31.176  1.00  0.00     0.035 C 
HETATM   11  C   UNL     1      -1.156   6.661 -30.611  1.00  0.00     0.002 C 
HETATM   12  C   UNL     1      -0.938   7.769 -31.634  1.00  0.00     0.002 C 
HETATM   13  C   UNL     1      -1.701   7.498 -32.925  1.00  0.00     0.027 C 
HETATM   14  H   UNL     1      -2.054   6.520 -35.520  1.00  0.00     0.163 HD
ENDROOT
BRANCH   1  15
HETATM   15  C   UNL     1      -5.112   4.026 -33.290  1.00  0.00     0.146 C 
BRANCH  15  16
HETATM   16  C   UNL     1      -5.348   3.568 -31.873  1.00  0.00     0.224 C 
HETATM   17  N   UNL     1      -5.378   2.253 -31.535  1.00  0.00    -0.327 N 
HETATM   18  H   UNL     1      -5.709   2.110 -30.584  1.00  0.00     0.169 HD
HETATM   19  O   UNL     1      -5.502   4.428 -30.996  1.00  0.00    -0.273 OA
BRANCH  17  20
HETATM   20  C   UNL     1      -5.069   1.071 -32.237  1.00  0.00     0.035 A 
HETATM   21  C   UNL     1      -5.986   0.300 -32.956  1.00  0.00     0.036 A 
HETATM   22  C   UNL     1      -5.580  -0.863 -33.635  1.00  0.00    -0.060 A 
HETATM   23  C   UNL     1      -6.564  -1.666 -34.436  1.00  0.00     0.048 C 
HETATM   24  C   UNL     1      -4.233  -1.232 -33.618  1.00  0.00     0.007 A 
HETATM   25  C   UNL     1      -3.306  -0.459 -32.927  1.00  0.00     0.003 A 
HETATM   26  C   UNL     1      -3.721   0.687 -32.248  1.00  0.00     0.029 A 
ENDBRANCH  17  20
ENDBRANCH  15  16
ENDBRANCH   1  15
TORSDOF 3
ENDMDL
MODEL 6
REMARK VINA RESULT:      -7.8      2.010      2.791
REMARK  3 active torsions:
REMARK  status: ('A' for Active; 'I' for Inactive)
REMARK    1  A    between atoms: C_4  and  N_5 
REMARK       I    between atoms: N_5  and  C_6 
REMARK    2  A    between atoms: C_6  and  C_7 
REMARK    3  A    between atoms: C_7  and  C_8 
ROOT
HETATM    1  C   UNL     1      -9.706   0.979 -32.315  1.00  0.00     0.286 C 
HETATM    2  N   UNL     1     -10.510   0.883 -33.607  1.00  0.00    -0.056 N 
HETATM    3  H   UNL     1      -9.976   1.437 -34.309  1.00  0.00     0.278 HD
HETATM    4  H   UNL     1     -10.526  -0.082 -33.953  1.00  0.00     0.278 HD
HETATM    5  C   UNL     1     -11.904   1.435 -33.447  1.00  0.00     0.209 C 
HETATM    6  C   UNL     1     -11.813   2.922 -33.016  1.00  0.00     0.115 C 
HETATM    7  N   UNL     1     -10.903   3.116 -31.886  1.00  0.00    -0.353 N 
HETATM    8  C   UNL     1      -9.756   2.386 -31.679  1.00  0.00     0.249 C 
HETATM    9  O   UNL     1      -8.880   2.808 -30.935  1.00  0.00    -0.271 OA
HETATM   10  C   UNL     1     -12.680   1.232 -34.748  1.00  0.00     0.035 C 
HETATM   11  C   UNL     1     -12.236   2.170 -35.866  1.00  0.00     0.002 C 
HETATM   12  C   UNL     1     -12.265   3.625 -35.414  1.00  0.00     0.002 C 
HETATM   13  C   UNL     1     -11.406   3.844 -34.174  1.00  0.00     0.027 C 
HETATM   14  H   UNL     1     -10.887   4.029 -31.433  1.00  0.00     0.163 HD
ENDROOT
BRANCH   1  15
HETATM   15  C   UNL     1      -8.267   0.494 -32.519  1.00  0.00     0.146 C 
BRANCH  15  16
HETATM   16  C   UNL     1      -7.680   1.080 -33.778  1.00  0.00     0.224 C 
HETATM   17  N   UNL     1      -6.699   0.454 -34.478  1.00  0.00    -0.327 N 
HETATM   18  H   UNL     1      -6.302   1.051 -35.198  1.00  0.00     0.169 HD
HETATM   19  O   UNL     1      -8.128   2.160 -34.186  1.00  0.00    -0.273 OA
BRANCH  17  20
HETATM   20  C   UNL     1      -6.118  -0.827 -34.385  1.00  0.00     0.035 A 
HETATM   21  C   UNL     1      -6.670  -2.000 -34.906  1.00  0.00     0.036 A 
HETATM   22  C   UNL     1      -6.009  -3.233 -34.771  1.00  0.00    -0.060 A 
HETATM   23  C   UNL     1      -6.591  -4.484 -35.367  1.00  0.00     0.048 C 
HETATM   24  C   UNL     1      -4.765  -3.280 -34.137  1.00  0.00     0.007 A 
HETATM   25  C   UNL     1      -4.193  -2.115 -33.637  1.00  0.00     0.003 A 
HETATM   26  C   UNL     1      -4.862  -0.897 -33.767  1.00  0.00     0.029 A 
ENDBRANCH  17  20
ENDBRANCH  15  16
ENDBRANCH   1  15
TORSDOF 3
ENDMDL
MODEL 7
REMARK VINA RESULT:      -7.8      3.385      4.735
REMARK  3 active torsions:
REMARK  status: ('A' for Active; 'I' for Inactive)
REMARK    1  A    between atoms: C_4  and  N_5 
REMARK       I    between atoms: N_5  and  C_6 
REMARK    2  A    between atoms: C_6  and  C_7 
REMARK    3  A    between atoms: C_7  and  C_8 
ROOT
HETATM    1  C   UNL     1      -5.726   3.112 -32.118  1.00  0.00     0.286 C 
HETATM    2  N   UNL     1      -4.861   3.683 -33.237  1.00  0.00    -0.056 N 
HETATM    3  H   UNL     1      -4.054   3.030 -33.327  1.00  0.00     0.278 HD
HETATM    4  H   UNL     1      -5.359   3.651 -34.133  1.00  0.00     0.278 HD
HETATM    5  C   UNL     1      -4.380   5.078 -32.923  1.00  0.00     0.209 C 
HETATM    6  C   UNL     1      -3.555   5.044 -31.610  1.00  0.00     0.115 C 
HETATM    7  N   UNL     1      -4.254   4.339 -30.534  1.00  0.00    -0.353 N 
HETATM    8  C   UNL     1      -5.076   3.253 -30.725  1.00  0.00     0.249 C 
HETATM    9  O   UNL     1      -5.350   2.513 -29.788  1.00  0.00    -0.271 OA
HETATM   10  C   UNL     1      -3.593   5.621 -34.115  1.00  0.00     0.035 C 
HETATM   11  C   UNL     1      -2.217   4.981 -34.271  1.00  0.00     0.002 C 
HETATM   12  C   UNL     1      -1.415   5.070 -32.978  1.00  0.00     0.002 C 
HETATM   13  C   UNL     1      -2.160   4.434 -31.810  1.00  0.00     0.027 C 
HETATM   14  H   UNL     1      -3.864   4.390 -29.594  1.00  0.00     0.163 HD
ENDROOT
BRANCH   1  15
HETATM   15  C   UNL     1      -6.134   1.665 -32.416  1.00  0.00     0.146 C 
BRANCH  15  16
HETATM   16  C   UNL     1      -6.885   1.580 -33.720  1.00  0.00     0.224 C 
HETATM   17  N   UNL     1      -6.776   0.511 -34.550  1.00  0.00    -0.327 N 
HETATM   18  H   UNL     1      -7.211   0.680 -35.453  1.00  0.00     0.169 HD
HETATM   19  O   UNL     1      -7.637   2.516 -34.026  1.00  0.00    -0.273 OA
BRANCH  17  20
HETATM   20  C   UNL     1      -6.168  -0.754 -34.415  1.00  0.00     0.035 A 
HETATM   21  C   UNL     1      -6.711  -1.959 -34.866  1.00  0.00     0.036 A 
HETATM   22  C   UNL     1      -6.024  -3.173 -34.693  1.00  0.00    -0.060 A 
HETATM   23  C   UNL     1      -6.596  -4.460 -35.215  1.00  0.00     0.048 C 
HETATM   24  C   UNL     1      -4.763  -3.168 -34.091  1.00  0.00     0.007 A 
HETATM   25  C   UNL     1      -4.200  -1.972 -33.660  1.00  0.00     0.003 A 
HETATM   26  C   UNL     1      -4.896  -0.773 -33.827  1.00  0.00     0.029 A 
ENDBRANCH  17  20
ENDBRANCH  15  16
ENDBRANCH   1  15
TORSDOF 3
ENDMDL
MODEL 8
REMARK VINA RESULT:      -7.5      4.953      7.600
REMARK  3 active torsions:
REMARK  status: ('A' for Active; 'I' for Inactive)
REMARK    1  A    between atoms: C_4  and  N_5 
REMARK       I    between atoms: N_5  and  C_6 
REMARK    2  A    between atoms: C_6  and  C_7 
REMARK    3  A    between atoms: C_7  and  C_8 
ROOT
HETATM    1  C   UNL     1      -5.197   2.971 -32.751  1.00  0.00     0.286 C 
HETATM    2  N   UNL     1      -5.189   1.447 -32.728  1.00  0.00    -0.056 N 
HETATM    3  H   UNL     1      -4.742   1.157 -33.623  1.00  0.00     0.278 HD
HETATM    4  H   UNL     1      -4.584   1.098 -31.978  1.00  0.00     0.278 HD
HETATM    5  C   UNL     1      -6.582   0.877 -32.624  1.00  0.00     0.209 C 
HETATM    6  C   UNL     1      -7.419   1.362 -33.836  1.00  0.00     0.115 C 
HETATM    7  N   UNL     1      -7.321   2.810 -34.032  1.00  0.00    -0.353 N 
HETATM    8  C   UNL     1      -6.191   3.552 -33.779  1.00  0.00     0.249 C 
HETATM    9  O   UNL     1      -6.059   4.665 -34.274  1.00  0.00    -0.271 OA
HETATM   10  C   UNL     1      -6.498  -0.645 -32.521  1.00  0.00     0.035 C 
HETATM   11  C   UNL     1      -6.121  -1.318 -33.837  1.00  0.00     0.002 C 
HETATM   12  C   UNL     1      -7.043  -0.879 -34.968  1.00  0.00     0.002 C 
HETATM   13  C   UNL     1      -7.045   0.636 -35.135  1.00  0.00     0.027 C 
HETATM   14  H   UNL     1      -7.948   3.246 -34.706  1.00  0.00     0.163 HD
ENDROOT
BRANCH   1  15
HETATM   15  C   UNL     1      -3.782   3.530 -32.944  1.00  0.00     0.146 C 
BRANCH  15  16
HETATM   16  C   UNL     1      -2.954   3.324 -31.701  1.00  0.00     0.224 C 
HETATM   17  N   UNL     1      -2.260   4.336 -31.119  1.00  0.00    -0.327 N 
HETATM   18  H   UNL     1      -1.628   4.001 -30.397  1.00  0.00     0.169 HD
HETATM   19  O   UNL     1      -2.926   2.195 -31.195  1.00  0.00    -0.273 OA
BRANCH  17  20
HETATM   20  C   UNL     1      -2.227   5.729 -31.334  1.00  0.00     0.035 A 
HETATM   21  C   UNL     1      -3.056   6.659 -30.701  1.00  0.00     0.036 A 
HETATM   22  C   UNL     1      -2.942   8.034 -30.975  1.00  0.00    -0.060 A 
HETATM   23  C   UNL     1      -3.810   9.031 -30.262  1.00  0.00     0.048 C 
HETATM   24  C   UNL     1      -1.963   8.478 -31.866  1.00  0.00     0.007 A 
HETATM   25  C   UNL     1      -1.115   7.564 -32.483  1.00  0.00     0.003 A 
HETATM   26  C   UNL     1      -1.243   6.200 -32.213  1.00  0.00     0.029 A 
ENDBRANCH  17  20
ENDBRANCH  15  16
ENDBRANCH   1  15
TORSDOF 3
ENDMDL
MODEL 9
REMARK VINA RESULT:      -7.5      4.606      7.110
REMARK  3 active torsions:
REMARK  status: ('A' for Active; 'I' for Inactive)
REMARK    1  A    between atoms: C_4  and  N_5 
REMARK       I    between atoms: N_5  and  C_6 
REMARK    2  A    between atoms: C_6  and  C_7 
REMARK    3  A    between atoms: C_7  and  C_8 
ROOT
HETATM    1  C   UNL     1      -5.093   2.752 -30.629  1.00  0.00     0.286 C 
HETATM    2  N   UNL     1      -4.266   1.722 -31.390  1.00  0.00    -0.056 N 
HETATM    3  H   UNL     1      -4.591   1.778 -32.378  1.00  0.00     0.278 HD
HETATM    4  H   UNL     1      -3.275   1.986 -31.398  1.00  0.00     0.278 HD
HETATM    5  C   UNL     1      -4.461   0.328 -30.847  1.00  0.00     0.209 C 
HETATM    6  C   UNL     1      -5.961  -0.050 -30.951  1.00  0.00     0.115 C 
HETATM    7  N   UNL     1      -6.833   0.991 -30.403  1.00  0.00    -0.353 N 
HETATM    8  C   UNL     1      -6.573   2.339 -30.475  1.00  0.00     0.249 C 
HETATM    9  O   UNL     1      -7.475   3.153 -30.313  1.00  0.00    -0.271 OA
HETATM   10  C   UNL     1      -3.544  -0.638 -31.596  1.00  0.00     0.035 C 
HETATM   11  C   UNL     1      -4.007  -0.927 -33.020  1.00  0.00     0.002 C 
HETATM   12  C   UNL     1      -5.458  -1.392 -33.048  1.00  0.00     0.002 C 
HETATM   13  C   UNL     1      -6.385  -0.376 -32.391  1.00  0.00     0.027 C 
HETATM   14  H   UNL     1      -7.823   0.776 -30.288  1.00  0.00     0.163 HD
ENDROOT
BRANCH   1  15
HETATM   15  C   UNL     1      -4.948   4.147 -31.248  1.00  0.00     0.146 C 
BRANCH  15  16
HETATM   16  C   UNL     1      -4.647   4.047 -32.722  1.00  0.00     0.224 C 
HETATM   17  N   UNL     1      -3.607   4.707 -33.293  1.00  0.00    -0.327 N 
HETATM   18  H   UNL     1      -3.640   4.669 -34.308  1.00  0.00     0.169 HD
HETATM   19  O   UNL     1      -5.369   3.324 -33.421  1.00  0.00    -0.273 OA
BRANCH  17  20
HETATM   20  C   UNL     1      -2.526   5.441 -32.764  1.00  0.00     0.035 A 
HETATM   21  C   UNL     1      -1.453   4.894 -32.056  1.00  0.00     0.036 A 
HETATM   22  C   UNL     1      -0.413   5.709 -31.573  1.00  0.00    -0.060 A 
HETATM   23  C   UNL     1       0.756   5.109 -30.846  1.00  0.00     0.048 C 
HETATM   24  C   UNL     1      -0.436   7.080 -31.838  1.00  0.00     0.007 A 
HETATM   25  C   UNL     1      -1.486   7.633 -32.564  1.00  0.00     0.003 A 
HETATM   26  C   UNL     1      -2.519   6.817 -33.028  1.00  0.00     0.029 A 
ENDBRANCH  17  20
ENDBRANCH  15  16
ENDBRANCH   1  15
TORSDOF 3
ENDMDL
MODEL 10
REMARK VINA RESULT:      -7.5      4.699      6.445
REMARK  3 active torsions:
REMARK  status: ('A' for Active; 'I' for Inactive)
REMARK    1  A    between atoms: C_4  and  N_5 
REMARK       I    between atoms: N_5  and  C_6 
REMARK    2  A    between atoms: C_6  and  C_7 
REMARK    3  A    between atoms: C_7  and  C_8 
ROOT
HETATM    1  C   UNL     1      -4.507   4.540 -32.676  1.00  0.00     0.286 C 
HETATM    2  N   UNL     1      -3.933   5.952 -32.724  1.00  0.00    -0.056 N 
HETATM    3  H   UNL     1      -3.254   5.950 -33.514  1.00  0.00     0.278 HD
HETATM    4  H   UNL     1      -4.661   6.631 -32.973  1.00  0.00     0.278 HD
HETATM    5  C   UNL     1      -3.246   6.326 -31.435  1.00  0.00     0.209 C 
HETATM    6  C   UNL     1      -2.096   5.321 -31.165  1.00  0.00     0.115 C 
HETATM    7  N   UNL     1      -2.537   3.930 -31.287  1.00  0.00    -0.353 N 
HETATM    8  C   UNL     1      -3.485   3.493 -32.182  1.00  0.00     0.249 C 
HETATM    9  O   UNL     1      -3.562   2.305 -32.471  1.00  0.00    -0.271 OA
HETATM   10  C   UNL     1      -2.769   7.776 -31.520  1.00  0.00     0.035 C 
HETATM   11  C   UNL     1      -1.563   7.962 -32.435  1.00  0.00     0.002 C 
HETATM   12  C   UNL     1      -0.429   7.017 -32.055  1.00  0.00     0.002 C 
HETATM   13  C   UNL     1      -0.881   5.562 -32.072  1.00  0.00     0.027 C 
HETATM   14  H   UNL     1      -1.899   3.196 -30.985  1.00  0.00     0.163 HD
ENDROOT
BRANCH   1  15
HETATM   15  C   UNL     1      -5.126   4.146 -34.022  1.00  0.00     0.146 C 
BRANCH  15  16
HETATM   16  C   UNL     1      -6.630   4.103 -33.925  1.00  0.00     0.224 C 
HETATM   17  N   UNL     1      -7.300   2.973 -33.582  1.00  0.00    -0.327 N 
HETATM   18  H   UNL     1      -8.302   3.064 -33.723  1.00  0.00     0.169 HD
HETATM   19  O   UNL     1      -7.263   5.143 -34.152  1.00  0.00    -0.273 OA
BRANCH  17  20
HETATM   20  C   UNL     1      -6.883   1.715 -33.102  1.00  0.00     0.035 A 
HETATM   21  C   UNL     1      -6.439   0.657 -33.899  1.00  0.00     0.036 A 
HETATM   22  C   UNL     1      -6.034  -0.562 -33.326  1.00  0.00    -0.060 A 
HETATM   23  C   UNL     1      -5.522  -1.681 -34.187  1.00  0.00     0.048 C 
HETATM   24  C   UNL     1      -6.042  -0.703 -31.937  1.00  0.00     0.007 A 
HETATM   25  C   UNL     1      -6.457   0.352 -31.131  1.00  0.00     0.003 A 
HETATM   26  C   UNL     1      -6.868   1.553 -31.710  1.00  0.00     0.029 A 
ENDBRANCH  17  20
ENDBRANCH  15  16
ENDBRANCH   1  15
TORSDOF 3
ENDMDL
