MODEL 1
REMARK VINA RESULT:      -8.1      0.000      0.000
REMARK  8 active torsions:
REMARK  status: ('A' for Active; 'I' for Inactive)
REMARK    1  A    between atoms: O_2  and  C_3 
REMARK    2  A    between atoms: C_4  and  O_5 
REMARK    3  A    between atoms: O_5  and  C_6 
REMARK    4  A    between atoms: C_6  and  C_7 
REMARK       I    between atoms: C_7  and  N_8 
REMARK    5  A    between atoms: N_8  and  C_9 
REMARK    6  A    between atoms: C_9  and  N_10 
REMARK    7  A    between atoms: N_10  and  N_11 
REMARK       I    between atoms: N_11  and  C_12 
REMARK       I    between atoms: C_12  and  N_13 
REMARK    8  A    between atoms: N_13  and  C_14 
ROOT
HETATM    1  C   UNL     1      -5.247   1.845 -31.722  1.00  0.00     0.189 C 
HETATM    2  S   UNL     1      -6.179   1.914 -30.342  1.00  0.00    -0.039 SA
ENDROOT
BRANCH   1   3
HETATM    3  N   UNL     1      -4.581   0.744 -32.233  1.00  0.00    -0.301 N 
HETATM    4  C   UNL     1      -3.539   0.003 -31.664  1.00  0.00     0.248 C 
HETATM    5  O   UNL     1      -2.643   0.470 -30.971  1.00  0.00    -0.271 OA
HETATM    6  H   UNL     1      -5.026   0.341 -33.039  1.00  0.00     0.171 HD
BRANCH   4   7
HETATM    7  C   UNL     1      -3.605  -1.475 -32.075  1.00  0.00     0.278 C 
BRANCH   7   8
HETATM    8  O   UNL     1      -3.729  -1.621 -33.479  1.00  0.00    -0.339 OA
BRANCH   8   9
HETATM    9  C   UNL     1      -4.650  -2.507 -33.968  1.00  0.00     0.102 A 
HETATM   10  C   UNL     1      -5.960  -2.049 -34.199  1.00  0.00     0.101 A 
HETATM   11  C   UNL     1      -6.934  -2.947 -34.661  1.00  0.00     0.039 A 
HETATM   12  C   UNL     1      -6.625  -4.283 -34.910  1.00  0.00     0.003 A 
HETATM   13  C   UNL     1      -5.332  -4.738 -34.685  1.00  0.00     0.003 A 
HETATM   14  C   UNL     1      -4.355  -3.859 -34.209  1.00  0.00     0.039 A 
BRANCH  10  15
HETATM   15  O   UNL     1      -6.466  -0.787 -34.017  1.00  0.00    -0.353 OA
HETATM   16  C   UNL     1      -6.913  -0.062 -35.154  1.00  0.00     0.210 C 
ENDBRANCH  10  15
ENDBRANCH   8   9
ENDBRANCH   7   8
ENDBRANCH   4   7
ENDBRANCH   1   3
BRANCH   1  17
HETATM   17  N   UNL     1      -5.150   2.986 -32.491  1.00  0.00    -0.289 N 
HETATM   18  H   UNL     1      -4.262   3.490 -32.469  1.00  0.00     0.183 HD
BRANCH  17  19
HETATM   19  N   UNL     1      -6.037   3.289 -33.545  1.00  0.00    -0.153 NA
HETATM   20  C   UNL     1      -6.287   4.594 -33.868  1.00  0.00     0.317 C 
HETATM   21  N   UNL     1      -5.345   5.558 -33.747  1.00  0.00    -0.312 N 
HETATM   22  O   UNL     1      -7.440   4.903 -34.177  1.00  0.00    -0.252 OA
HETATM   23  H   UNL     1      -5.770   6.479 -33.743  1.00  0.00     0.170 HD
HETATM   24  H   UNL     1      -6.939   2.827 -33.487  1.00  0.00     0.157 HD
BRANCH  21  25
HETATM   25  C   UNL     1      -3.942   5.551 -33.814  1.00  0.00     0.035 A 
HETATM   26  C   UNL     1      -3.212   5.158 -34.935  1.00  0.00     0.029 A 
HETATM   27  C   UNL     1      -1.815   5.192 -34.914  1.00  0.00     0.002 A 
HETATM   28  C   UNL     1      -1.138   5.638 -33.780  1.00  0.00     0.000 A 
HETATM   29  C   UNL     1      -1.858   6.063 -32.669  1.00  0.00     0.002 A 
HETATM   30  C   UNL     1      -3.254   6.029 -32.690  1.00  0.00     0.029 A 
ENDBRANCH  21  25
ENDBRANCH  17  19
ENDBRANCH   1  17
TORSDOF 8
ENDMDL
MODEL 2
REMARK VINA RESULT:      -7.9      1.123      2.345
REMARK  8 active torsions:
REMARK  status: ('A' for Active; 'I' for Inactive)
REMARK    1  A    between atoms: O_2  and  C_3 
REMARK    2  A    between atoms: C_4  and  O_5 
REMARK    3  A    between atoms: O_5  and  C_6 
REMARK    4  A    between atoms: C_6  and  C_7 
REMARK       I    between atoms: C_7  and  N_8 
REMARK    5  A    between atoms: N_8  and  C_9 
REMARK    6  A    between atoms: C_9  and  N_10 
REMARK    7  A    between atoms: N_10  and  N_11 
REMARK       I    between atoms: N_11  and  C_12 
REMARK       I    between atoms: C_12  and  N_13 
REMARK    8  A    between atoms: N_13  and  C_14 
ROOT
HETATM    1  C   UNL     1      -4.868   2.080 -32.197  1.00  0.00     0.189 C 
HETATM    2  S   UNL     1      -3.395   2.269 -31.441  1.00  0.00    -0.039 SA
ENDROOT
BRANCH   1   3
HETATM    3  N   UNL     1      -5.412   0.911 -32.701  1.00  0.00    -0.301 N 
HETATM    4  C   UNL     1      -6.465   0.140 -32.196  1.00  0.00     0.248 C 
HETATM    5  O   UNL     1      -6.700  -0.030 -31.005  1.00  0.00    -0.271 OA
HETATM    6  H   UNL     1      -5.110   0.694 -33.635  1.00  0.00     0.171 HD
BRANCH   4   7
HETATM    7  C   UNL     1      -7.260  -0.540 -33.319  1.00  0.00     0.278 C 
BRANCH   7   8
HETATM    8  O   UNL     1      -6.416  -0.958 -34.377  1.00  0.00    -0.339 OA
BRANCH   8   9
HETATM    9  C   UNL     1      -5.976  -2.253 -34.394  1.00  0.00     0.102 A 
HETATM   10  C   UNL     1      -4.674  -2.522 -33.934  1.00  0.00     0.101 A 
HETATM   11  C   UNL     1      -4.183  -3.837 -33.979  1.00  0.00     0.039 A 
HETATM   12  C   UNL     1      -4.968  -4.884 -34.457  1.00  0.00     0.003 A 
HETATM   13  C   UNL     1      -6.255  -4.623 -34.909  1.00  0.00     0.003 A 
HETATM   14  C   UNL     1      -6.752  -3.316 -34.885  1.00  0.00     0.039 A 
BRANCH  10  15
HETATM   15  O   UNL     1      -3.747  -1.643 -33.434  1.00  0.00    -0.353 OA
HETATM   16  C   UNL     1      -3.264  -1.841 -32.112  1.00  0.00     0.210 C 
ENDBRANCH  10  15
ENDBRANCH   8   9
ENDBRANCH   7   8
ENDBRANCH   4   7
ENDBRANCH   1   3
BRANCH   1  17
HETATM   17  N   UNL     1      -5.683   3.188 -32.305  1.00  0.00    -0.289 N 
HETATM   18  H   UNL     1      -5.509   3.961 -31.660  1.00  0.00     0.183 HD
BRANCH  17  19
HETATM   19  N   UNL     1      -6.474   3.462 -33.441  1.00  0.00    -0.153 NA
HETATM   20  C   UNL     1      -6.646   4.754 -33.852  1.00  0.00     0.317 C 
HETATM   21  N   UNL     1      -5.678   5.689 -33.711  1.00  0.00    -0.312 N 
HETATM   22  O   UNL     1      -7.759   5.086 -34.268  1.00  0.00    -0.252 OA
HETATM   23  H   UNL     1      -6.065   6.624 -33.791  1.00  0.00     0.170 HD
HETATM   24  H   UNL     1      -7.397   3.037 -33.429  1.00  0.00     0.157 HD
BRANCH  21  25
HETATM   25  C   UNL     1      -4.275   5.628 -33.667  1.00  0.00     0.035 A 
HETATM   26  C   UNL     1      -3.516   5.878 -32.524  1.00  0.00     0.029 A 
HETATM   27  C   UNL     1      -2.122   5.785 -32.570  1.00  0.00     0.002 A 
HETATM   28  C   UNL     1      -1.479   5.422 -33.753  1.00  0.00     0.000 A 
HETATM   29  C   UNL     1      -2.230   5.139 -34.888  1.00  0.00     0.002 A 
HETATM   30  C   UNL     1      -3.623   5.233 -34.842  1.00  0.00     0.029 A 
ENDBRANCH  21  25
ENDBRANCH  17  19
ENDBRANCH   1  17
TORSDOF 8
ENDMDL
MODEL 3
REMARK VINA RESULT:      -7.7      2.654      3.900
REMARK  8 active torsions:
REMARK  status: ('A' for Active; 'I' for Inactive)
REMARK    1  A    between atoms: O_2  and  C_3 
REMARK    2  A    between atoms: C_4  and  O_5 
REMARK    3  A    between atoms: O_5  and  C_6 
REMARK    4  A    between atoms: C_6  and  C_7 
REMARK       I    between atoms: C_7  and  N_8 
REMARK    5  A    between atoms: N_8  and  C_9 
REMARK    6  A    between atoms: C_9  and  N_10 
REMARK    7  A    between atoms: N_10  and  N_11 
REMARK       I    between atoms: N_11  and  C_12 
REMARK       I    between atoms: C_12  and  N_13 
REMARK    8  A    between atoms: N_13  and  C_14 
ROOT
HETATM    1  C   UNL     1      -4.334   4.366 -32.722  1.00  0.00     0.189 C 
HETATM    2  S   UNL     1      -5.314   5.557 -33.352  1.00  0.00    -0.039 SA
ENDROOT
BRANCH   1   3
HETATM    3  N   UNL     1      -4.690   3.068 -32.398  1.00  0.00    -0.301 N 
HETATM    4  C   UNL     1      -4.092   2.193 -31.484  1.00  0.00     0.248 C 
HETATM    5  O   UNL     1      -2.889   2.128 -31.259  1.00  0.00    -0.271 OA
HETATM    6  H   UNL     1      -5.591   2.795 -32.750  1.00  0.00     0.171 HD
BRANCH   4   7
HETATM    7  C   UNL     1      -5.123   1.255 -30.839  1.00  0.00     0.278 C 
BRANCH   7   8
HETATM    8  O   UNL     1      -4.793  -0.107 -31.049  1.00  0.00    -0.339 OA
BRANCH   8   9
HETATM    9  C   UNL     1      -5.230  -0.719 -32.191  1.00  0.00     0.102 A 
HETATM   10  C   UNL     1      -4.374  -1.639 -32.826  1.00  0.00     0.101 A 
HETATM   11  C   UNL     1      -4.781  -2.250 -34.022  1.00  0.00     0.039 A 
HETATM   12  C   UNL     1      -6.026  -1.976 -34.586  1.00  0.00     0.003 A 
HETATM   13  C   UNL     1      -6.874  -1.071 -33.961  1.00  0.00     0.003 A 
HETATM   14  C   UNL     1      -6.476  -0.442 -32.778  1.00  0.00     0.039 A 
BRANCH  10  15
HETATM   15  O   UNL     1      -3.120  -2.041 -32.441  1.00  0.00    -0.353 OA
HETATM   16  C   UNL     1      -2.975  -3.304 -31.807  1.00  0.00     0.210 C 
ENDBRANCH  10  15
ENDBRANCH   8   9
ENDBRANCH   7   8
ENDBRANCH   4   7
ENDBRANCH   1   3
BRANCH   1  17
HETATM   17  N   UNL     1      -2.999   4.660 -32.539  1.00  0.00    -0.289 N 
HETATM   18  H   UNL     1      -2.686   4.832 -31.582  1.00  0.00     0.183 HD
BRANCH  17  19
HETATM   19  N   UNL     1      -2.005   4.392 -33.504  1.00  0.00    -0.153 NA
HETATM   20  C   UNL     1      -1.382   5.428 -34.142  1.00  0.00     0.317 C 
HETATM   21  N   UNL     1      -1.142   6.611 -33.528  1.00  0.00    -0.312 N 
HETATM   22  O   UNL     1      -1.129   5.301 -35.342  1.00  0.00    -0.252 OA
HETATM   23  H   UNL     1      -0.951   7.338 -34.209  1.00  0.00     0.170 HD
HETATM   24  H   UNL     1      -2.280   3.732 -34.225  1.00  0.00     0.157 HD
BRANCH  21  25
HETATM   25  C   UNL     1      -0.927   6.979 -32.190  1.00  0.00     0.035 A 
HETATM   26  C   UNL     1       0.167   6.566 -31.429  1.00  0.00     0.029 A 
HETATM   27  C   UNL     1       0.304   6.990 -30.104  1.00  0.00     0.002 A 
HETATM   28  C   UNL     1      -0.642   7.844 -29.537  1.00  0.00     0.000 A 
HETATM   29  C   UNL     1      -1.718   8.286 -30.298  1.00  0.00     0.002 A 
HETATM   30  C   UNL     1      -1.855   7.863 -31.621  1.00  0.00     0.029 A 
ENDBRANCH  21  25
ENDBRANCH  17  19
ENDBRANCH   1  17
TORSDOF 8
ENDMDL
MODEL 4
REMARK VINA RESULT:      -7.7      2.808      4.496
REMARK  8 active torsions:
REMARK  status: ('A' for Active; 'I' for Inactive)
REMARK    1  A    between atoms: O_2  and  C_3 
REMARK    2  A    between atoms: C_4  and  O_5 
REMARK    3  A    between atoms: O_5  and  C_6 
REMARK    4  A    between atoms: C_6  and  C_7 
REMARK       I    between atoms: C_7  and  N_8 
REMARK    5  A    between atoms: N_8  and  C_9 
REMARK    6  A    between atoms: C_9  and  N_10 
REMARK    7  A    between atoms: N_10  and  N_11 
REMARK       I    between atoms: N_11  and  C_12 
REMARK       I    between atoms: C_12  and  N_13 
REMARK    8  A    between atoms: N_13  and  C_14 
ROOT
HETATM    1  C   UNL     1      -4.576   2.056 -32.144  1.00  0.00     0.189 C 
HETATM    2  S   UNL     1      -3.889   3.572 -32.054  1.00  0.00    -0.039 SA
ENDROOT
BRANCH   1   3
HETATM    3  N   UNL     1      -3.964   0.877 -32.535  1.00  0.00    -0.301 N 
HETATM    4  C   UNL     1      -3.202  -0.015 -31.773  1.00  0.00     0.248 C 
HETATM    5  O   UNL     1      -2.443   0.309 -30.867  1.00  0.00    -0.271 OA
HETATM    6  H   UNL     1      -4.253   0.553 -33.442  1.00  0.00     0.171 HD
BRANCH   4   7
HETATM    7  C   UNL     1      -3.369  -1.461 -32.258  1.00  0.00     0.278 C 
BRANCH   7   8
HETATM    8  O   UNL     1      -3.680  -1.517 -33.639  1.00  0.00    -0.339 OA
BRANCH   8   9
HETATM    9  C   UNL     1      -4.698  -2.333 -34.049  1.00  0.00     0.102 A 
HETATM   10  C   UNL     1      -5.996  -1.795 -34.123  1.00  0.00     0.101 A 
HETATM   11  C   UNL     1      -7.066  -2.621 -34.502  1.00  0.00     0.039 A 
HETATM   12  C   UNL     1      -6.865  -3.962 -34.822  1.00  0.00     0.003 A 
HETATM   13  C   UNL     1      -5.584  -4.496 -34.753  1.00  0.00     0.003 A 
HETATM   14  C   UNL     1      -4.511  -3.690 -34.361  1.00  0.00     0.039 A 
BRANCH  10  15
HETATM   15  O   UNL     1      -6.406  -0.514 -33.850  1.00  0.00    -0.353 OA
HETATM   16  C   UNL     1      -6.738   0.341 -34.935  1.00  0.00     0.210 C 
ENDBRANCH  10  15
ENDBRANCH   8   9
ENDBRANCH   7   8
ENDBRANCH   4   7
ENDBRANCH   1   3
BRANCH   1  17
HETATM   17  N   UNL     1      -5.888   1.919 -31.742  1.00  0.00    -0.289 N 
HETATM   18  H   UNL     1      -6.505   1.367 -32.341  1.00  0.00     0.183 HD
BRANCH  17  19
HETATM   19  N   UNL     1      -6.328   2.175 -30.426  1.00  0.00    -0.153 NA
HETATM   20  C   UNL     1      -7.350   3.057 -30.212  1.00  0.00     0.317 C 
HETATM   21  N   UNL     1      -8.369   3.205 -31.091  1.00  0.00    -0.312 N 
HETATM   22  O   UNL     1      -7.273   3.807 -29.236  1.00  0.00    -0.252 OA
HETATM   23  H   UNL     1      -8.861   4.077 -30.930  1.00  0.00     0.170 HD
HETATM   24  H   UNL     1      -5.590   2.422 -29.773  1.00  0.00     0.157 HD
BRANCH  21  25
HETATM   25  C   UNL     1      -8.975   2.343 -32.020  1.00  0.00     0.035 A 
HETATM   26  C   UNL     1      -9.237   0.994 -31.783  1.00  0.00     0.029 A 
HETATM   27  C   UNL     1      -9.854   0.213 -32.764  1.00  0.00     0.002 A 
HETATM   28  C   UNL     1     -10.230   0.780 -33.982  1.00  0.00     0.000 A 
HETATM   29  C   UNL     1     -10.002   2.131 -34.214  1.00  0.00     0.002 A 
HETATM   30  C   UNL     1      -9.386   2.911 -33.234  1.00  0.00     0.029 A 
ENDBRANCH  21  25
ENDBRANCH  17  19
ENDBRANCH   1  17
TORSDOF 8
ENDMDL
MODEL 5
REMARK VINA RESULT:      -7.6      2.549      4.227
REMARK  8 active torsions:
REMARK  status: ('A' for Active; 'I' for Inactive)
REMARK    1  A    between atoms: O_2  and  C_3 
REMARK    2  A    between atoms: C_4  and  O_5 
REMARK    3  A    between atoms: O_5  and  C_6 
REMARK    4  A    between atoms: C_6  and  C_7 
REMARK       I    between atoms: C_7  and  N_8 
REMARK    5  A    between atoms: N_8  and  C_9 
REMARK    6  A    between atoms: C_9  and  N_10 
REMARK    7  A    between atoms: N_10  and  N_11 
REMARK       I    between atoms: N_11  and  C_12 
REMARK       I    between atoms: C_12  and  N_13 
REMARK    8  A    between atoms: N_13  and  C_14 
ROOT
HETATM    1  C   UNL     1      -4.563   4.629 -31.880  1.00  0.00     0.189 C 
HETATM    2  S   UNL     1      -4.836   6.130 -31.211  1.00  0.00    -0.039 SA
ENDROOT
BRANCH   1   3
HETATM    3  N   UNL     1      -5.491   3.792 -32.477  1.00  0.00    -0.301 N 
HETATM    4  C   UNL     1      -6.174   3.955 -33.687  1.00  0.00     0.248 C 
HETATM    5  O   UNL     1      -6.561   5.029 -34.134  1.00  0.00    -0.271 OA
HETATM    6  H   UNL     1      -5.543   2.881 -32.055  1.00  0.00     0.171 HD
BRANCH   4   7
HETATM    7  C   UNL     1      -6.455   2.607 -34.366  1.00  0.00     0.278 C 
BRANCH   7   8
HETATM    8  O   UNL     1      -6.671   1.579 -33.416  1.00  0.00    -0.339 OA
BRANCH   8   9
HETATM    9  C   UNL     1      -6.058   0.371 -33.606  1.00  0.00     0.102 A 
HETATM   10  C   UNL     1      -4.763   0.190 -33.087  1.00  0.00     0.101 A 
HETATM   11  C   UNL     1      -4.095  -1.026 -33.304  1.00  0.00     0.039 A 
HETATM   12  C   UNL     1      -4.698  -2.064 -34.011  1.00  0.00     0.003 A 
HETATM   13  C   UNL     1      -5.977  -1.890 -34.522  1.00  0.00     0.003 A 
HETATM   14  C   UNL     1      -6.648  -0.679 -34.329  1.00  0.00     0.039 A 
BRANCH  10  15
HETATM   15  O   UNL     1      -3.999   1.078 -32.372  1.00  0.00    -0.353 OA
HETATM   16  C   UNL     1      -3.238   0.592 -31.275  1.00  0.00     0.210 C 
ENDBRANCH  10  15
ENDBRANCH   8   9
ENDBRANCH   7   8
ENDBRANCH   4   7
ENDBRANCH   1   3
BRANCH   1  17
HETATM   17  N   UNL     1      -3.265   4.160 -31.903  1.00  0.00    -0.289 N 
HETATM   18  H   UNL     1      -2.894   3.772 -31.034  1.00  0.00     0.183 HD
BRANCH  17  19
HETATM   19  N   UNL     1      -2.569   3.860 -33.093  1.00  0.00    -0.153 NA
HETATM   20  C   UNL     1      -1.903   4.851 -33.757  1.00  0.00     0.317 C 
HETATM   21  N   UNL     1      -1.311   5.880 -33.108  1.00  0.00    -0.312 N 
HETATM   22  O   UNL     1      -1.938   4.847 -34.990  1.00  0.00    -0.252 OA
HETATM   23  H   UNL     1      -1.128   6.650 -33.743  1.00  0.00     0.170 HD
HETATM   24  H   UNL     1      -3.115   3.360 -33.789  1.00  0.00     0.157 HD
BRANCH  21  25
HETATM   25  C   UNL     1      -0.752   6.021 -31.827  1.00  0.00     0.035 A 
HETATM   26  C   UNL     1       0.124   5.101 -31.249  1.00  0.00     0.029 A 
HETATM   27  C   UNL     1       0.639   5.328 -29.970  1.00  0.00     0.002 A 
HETATM   28  C   UNL     1       0.299   6.484 -29.268  1.00  0.00     0.000 A 
HETATM   29  C   UNL     1      -0.547   7.421 -29.849  1.00  0.00     0.002 A 
HETATM   30  C   UNL     1      -1.063   7.195 -31.127  1.00  0.00     0.029 A 
ENDBRANCH  21  25
ENDBRANCH  17  19
ENDBRANCH   1  17
TORSDOF 8
ENDMDL
MODEL 6
REMARK VINA RESULT:      -7.6      2.403      3.025
REMARK  8 active torsions:
REMARK  status: ('A' for Active; 'I' for Inactive)
REMARK    1  A    between atoms: O_2  and  C_3 
REMARK    2  A    between atoms: C_4  and  O_5 
REMARK    3  A    between atoms: O_5  and  C_6 
REMARK    4  A    between atoms: C_6  and  C_7 
REMARK       I    between atoms: C_7  and  N_8 
REMARK    5  A    between atoms: N_8  and  C_9 
REMARK    6  A    between atoms: C_9  and  N_10 
REMARK    7  A    between atoms: N_10  and  N_11 
REMARK       I    between atoms: N_11  and  C_12 
REMARK       I    between atoms: C_12  and  N_13 
REMARK    8  A    between atoms: N_13  and  C_14 
ROOT
HETATM    1  C   UNL     1      -4.089   2.937 -31.506  1.00  0.00     0.189 C 
HETATM    2  S   UNL     1      -5.337   3.698 -30.707  1.00  0.00    -0.039 SA
ENDROOT
BRANCH   1   3
HETATM    3  N   UNL     1      -4.099   1.673 -32.071  1.00  0.00    -0.301 N 
HETATM    4  C   UNL     1      -3.519   0.491 -31.597  1.00  0.00     0.248 C 
HETATM    5  O   UNL     1      -2.456   0.426 -30.990  1.00  0.00    -0.271 OA
HETATM    6  H   UNL     1      -4.749   1.576 -32.832  1.00  0.00     0.171 HD
BRANCH   4   7
HETATM    7  C   UNL     1      -4.341  -0.743 -31.995  1.00  0.00     0.278 C 
BRANCH   7   8
HETATM    8  O   UNL     1      -4.183  -1.054 -33.368  1.00  0.00    -0.339 OA
BRANCH   8   9
HETATM    9  C   UNL     1      -4.828  -2.151 -33.871  1.00  0.00     0.102 A 
HETATM   10  C   UNL     1      -6.182  -2.023 -34.230  1.00  0.00     0.101 A 
HETATM   11  C   UNL     1      -6.879  -3.144 -34.709  1.00  0.00     0.039 A 
HETATM   12  C   UNL     1      -6.249  -4.379 -34.850  1.00  0.00     0.003 A 
HETATM   13  C   UNL     1      -4.912  -4.508 -34.499  1.00  0.00     0.003 A 
HETATM   14  C   UNL     1      -4.209  -3.405 -34.005  1.00  0.00     0.039 A 
BRANCH  10  15
HETATM   15  O   UNL     1      -6.980  -0.909 -34.166  1.00  0.00    -0.353 OA
HETATM   16  C   UNL     1      -7.014  -0.030 -35.282  1.00  0.00     0.210 C 
ENDBRANCH  10  15
ENDBRANCH   8   9
ENDBRANCH   7   8
ENDBRANCH   4   7
ENDBRANCH   1   3
BRANCH   1  17
HETATM   17  N   UNL     1      -2.915   3.639 -31.684  1.00  0.00    -0.289 N 
HETATM   18  H   UNL     1      -2.378   3.872 -30.847  1.00  0.00     0.183 HD
BRANCH  17  19
HETATM   19  N   UNL     1      -2.250   3.736 -32.925  1.00  0.00    -0.153 NA
HETATM   20  C   UNL     1      -1.785   4.948 -33.352  1.00  0.00     0.317 C 
HETATM   21  N   UNL     1      -1.325   5.887 -32.492  1.00  0.00    -0.312 N 
HETATM   22  O   UNL     1      -1.890   5.219 -34.550  1.00  0.00    -0.252 OA
HETATM   23  H   UNL     1      -1.301   6.800 -32.932  1.00  0.00     0.170 HD
HETATM   24  H   UNL     1      -2.749   3.325 -33.708  1.00  0.00     0.157 HD
BRANCH  21  25
HETATM   25  C   UNL     1      -0.722   5.822 -31.224  1.00  0.00     0.035 A 
HETATM   26  C   UNL     1       0.393   5.039 -30.926  1.00  0.00     0.029 A 
HETATM   27  C   UNL     1       0.932   5.044 -29.636  1.00  0.00     0.002 A 
HETATM   28  C   UNL     1       0.373   5.846 -28.642  1.00  0.00     0.000 A 
HETATM   29  C   UNL     1      -0.718   6.655 -28.939  1.00  0.00     0.002 A 
HETATM   30  C   UNL     1      -1.257   6.650 -30.228  1.00  0.00     0.029 A 
ENDBRANCH  21  25
ENDBRANCH  17  19
ENDBRANCH   1  17
TORSDOF 8
ENDMDL
MODEL 7
REMARK VINA RESULT:      -7.6      3.319      4.763
REMARK  8 active torsions:
REMARK  status: ('A' for Active; 'I' for Inactive)
REMARK    1  A    between atoms: O_2  and  C_3 
REMARK    2  A    between atoms: C_4  and  O_5 
REMARK    3  A    between atoms: O_5  and  C_6 
REMARK    4  A    between atoms: C_6  and  C_7 
REMARK       I    between atoms: C_7  and  N_8 
REMARK    5  A    between atoms: N_8  and  C_9 
REMARK    6  A    between atoms: C_9  and  N_10 
REMARK    7  A    between atoms: N_10  and  N_11 
REMARK       I    between atoms: N_11  and  C_12 
REMARK       I    between atoms: C_12  and  N_13 
REMARK    8  A    between atoms: N_13  and  C_14 
ROOT
HETATM    1  C   UNL     1      -2.357   4.555 -32.877  1.00  0.00     0.189 C 
HETATM    2  S   UNL     1      -1.548   5.386 -34.074  1.00  0.00    -0.039 SA
ENDROOT
BRANCH   1   3
HETATM    3  N   UNL     1      -3.241   3.501 -33.034  1.00  0.00    -0.301 N 
HETATM    4  C   UNL     1      -3.651   2.548 -32.096  1.00  0.00     0.248 C 
HETATM    5  O   UNL     1      -2.936   2.076 -31.218  1.00  0.00    -0.271 OA
HETATM    6  H   UNL     1      -3.771   3.542 -33.888  1.00  0.00     0.171 HD
BRANCH   4   7
HETATM    7  C   UNL     1      -5.097   2.097 -32.340  1.00  0.00     0.278 C 
BRANCH   7   8
HETATM    8  O   UNL     1      -5.325   0.786 -31.853  1.00  0.00    -0.339 OA
BRANCH   8   9
HETATM    9  C   UNL     1      -5.695  -0.188 -32.739  1.00  0.00     0.102 A 
HETATM   10  C   UNL     1      -4.701  -1.052 -33.235  1.00  0.00     0.101 A 
HETATM   11  C   UNL     1      -5.046  -2.034 -34.178  1.00  0.00     0.039 A 
HETATM   12  C   UNL     1      -6.359  -2.180 -34.620  1.00  0.00     0.003 A 
HETATM   13  C   UNL     1      -7.343  -1.331 -34.131  1.00  0.00     0.003 A 
HETATM   14  C   UNL     1      -7.012  -0.337 -33.205  1.00  0.00     0.039 A 
BRANCH  10  15
HETATM   15  O   UNL     1      -3.362  -1.074 -32.935  1.00  0.00    -0.353 OA
HETATM   16  C   UNL     1      -2.923  -1.869 -31.842  1.00  0.00     0.210 C 
ENDBRANCH  10  15
ENDBRANCH   8   9
ENDBRANCH   7   8
ENDBRANCH   4   7
ENDBRANCH   1   3
BRANCH   1  17
HETATM   17  N   UNL     1      -2.098   4.900 -31.567  1.00  0.00    -0.289 N 
HETATM   18  H   UNL     1      -2.877   5.271 -31.019  1.00  0.00     0.183 HD
BRANCH  17  19
HETATM   19  N   UNL     1      -0.965   4.452 -30.855  1.00  0.00    -0.153 NA
HETATM   20  C   UNL     1       0.202   5.160 -30.923  1.00  0.00     0.317 C 
HETATM   21  N   UNL     1       0.220   6.508 -31.046  1.00  0.00    -0.312 N 
HETATM   22  O   UNL     1       1.260   4.528 -30.977  1.00  0.00    -0.252 OA
HETATM   23  H   UNL     1       1.126   6.828 -31.370  1.00  0.00     0.170 HD
HETATM   24  H   UNL     1      -0.723   3.478 -31.011  1.00  0.00     0.157 HD
BRANCH  21  25
HETATM   25  C   UNL     1      -0.664   7.526 -30.651  1.00  0.00     0.035 A 
HETATM   26  C   UNL     1      -1.534   8.187 -31.518  1.00  0.00     0.029 A 
HETATM   27  C   UNL     1      -2.387   9.183 -31.035  1.00  0.00     0.002 A 
HETATM   28  C   UNL     1      -2.390   9.511 -29.679  1.00  0.00     0.000 A 
HETATM   29  C   UNL     1      -1.550   8.834 -28.803  1.00  0.00     0.002 A 
HETATM   30  C   UNL     1      -0.697   7.839 -29.286  1.00  0.00     0.029 A 
ENDBRANCH  21  25
ENDBRANCH  17  19
ENDBRANCH   1  17
TORSDOF 8
ENDMDL
MODEL 8
REMARK VINA RESULT:      -7.5      5.339      7.421
REMARK  8 active torsions:
REMARK  status: ('A' for Active; 'I' for Inactive)
REMARK    1  A    between atoms: O_2  and  C_3 
REMARK    2  A    between atoms: C_4  and  O_5 
REMARK    3  A    between atoms: O_5  and  C_6 
REMARK    4  A    between atoms: C_6  and  C_7 
REMARK       I    between atoms: C_7  and  N_8 
REMARK    5  A    between atoms: N_8  and  C_9 
REMARK    6  A    between atoms: C_9  and  N_10 
REMARK    7  A    between atoms: N_10  and  N_11 
REMARK       I    between atoms: N_11  and  C_12 
REMARK       I    between atoms: C_12  and  N_13 
REMARK    8  A    between atoms: N_13  and  C_14 
ROOT
HETATM    1  C   UNL     1      -9.918   3.382 -30.586  1.00  0.00     0.189 C 
HETATM    2  S   UNL     1      -9.273   4.859 -30.164  1.00  0.00    -0.039 SA
ENDROOT
BRANCH   1   3
HETATM    3  N   UNL     1      -9.274   2.156 -30.602  1.00  0.00    -0.301 N 
HETATM    4  C   UNL     1      -9.037   1.299 -31.683  1.00  0.00     0.248 C 
HETATM    5  O   UNL     1      -9.804   1.131 -32.624  1.00  0.00    -0.271 OA
HETATM    6  H   UNL     1      -8.775   1.950 -29.754  1.00  0.00     0.171 HD
BRANCH   4   7
HETATM    7  C   UNL     1      -7.722   0.525 -31.516  1.00  0.00     0.278 C 
BRANCH   7   8
HETATM    8  O   UNL     1      -6.888   0.662 -32.653  1.00  0.00    -0.339 OA
BRANCH   8   9
HETATM    9  C   UNL     1      -6.406  -0.469 -33.253  1.00  0.00     0.102 A 
HETATM   10  C   UNL     1      -5.024  -0.723 -33.187  1.00  0.00     0.101 A 
HETATM   11  C   UNL     1      -4.498  -1.855 -33.831  1.00  0.00     0.039 A 
HETATM   12  C   UNL     1      -5.323  -2.741 -34.521  1.00  0.00     0.003 A 
HETATM   13  C   UNL     1      -6.688  -2.495 -34.585  1.00  0.00     0.003 A 
HETATM   14  C   UNL     1      -7.224  -1.364 -33.963  1.00  0.00     0.039 A 
BRANCH  10  15
HETATM   15  O   UNL     1      -4.049   0.018 -32.569  1.00  0.00    -0.353 OA
HETATM   16  C   UNL     1      -3.795  -0.208 -31.189  1.00  0.00     0.210 C 
ENDBRANCH  10  15
ENDBRANCH   8   9
ENDBRANCH   7   8
ENDBRANCH   4   7
ENDBRANCH   1   3
BRANCH   1  17
HETATM   17  N   UNL     1     -11.257   3.333 -30.914  1.00  0.00    -0.289 N 
HETATM   18  H   UNL     1     -11.515   2.802 -31.747  1.00  0.00     0.183 HD
BRANCH  17  19
HETATM   19  N   UNL     1     -12.290   3.652 -30.007  1.00  0.00    -0.153 NA
HETATM   20  C   UNL     1     -13.352   4.404 -30.425  1.00  0.00     0.317 C 
HETATM   21  N   UNL     1     -13.835   4.327 -31.688  1.00  0.00    -0.312 N 
HETATM   22  O   UNL     1     -13.807   5.246 -29.649  1.00  0.00    -0.252 OA
HETATM   23  H   UNL     1     -14.407   5.136 -31.905  1.00  0.00     0.170 HD
HETATM   24  H   UNL     1     -11.975   4.058 -29.131  1.00  0.00     0.157 HD
BRANCH  21  25
HETATM   25  C   UNL     1     -13.858   3.306 -32.653  1.00  0.00     0.035 A 
HETATM   26  C   UNL     1     -13.092   3.314 -33.819  1.00  0.00     0.029 A 
HETATM   27  C   UNL     1     -13.172   2.249 -34.721  1.00  0.00     0.002 A 
HETATM   28  C   UNL     1     -14.003   1.161 -34.454  1.00  0.00     0.000 A 
HETATM   29  C   UNL     1     -14.745   1.130 -33.279  1.00  0.00     0.002 A 
HETATM   30  C   UNL     1     -14.665   2.195 -32.378  1.00  0.00     0.029 A 
ENDBRANCH  21  25
ENDBRANCH  17  19
ENDBRANCH   1  17
TORSDOF 8
ENDMDL
MODEL 9
REMARK VINA RESULT:      -7.5      3.331      4.587
REMARK  8 active torsions:
REMARK  status: ('A' for Active; 'I' for Inactive)
REMARK    1  A    between atoms: O_2  and  C_3 
REMARK    2  A    between atoms: C_4  and  O_5 
REMARK    3  A    between atoms: O_5  and  C_6 
REMARK    4  A    between atoms: C_6  and  C_7 
REMARK       I    between atoms: C_7  and  N_8 
REMARK    5  A    between atoms: N_8  and  C_9 
REMARK    6  A    between atoms: C_9  and  N_10 
REMARK    7  A    between atoms: N_10  and  N_11 
REMARK       I    between atoms: N_11  and  C_12 
REMARK       I    between atoms: C_12  and  N_13 
REMARK    8  A    between atoms: N_13  and  C_14 
ROOT
HETATM    1  C   UNL     1      -2.320   4.430 -32.818  1.00  0.00     0.189 C 
HETATM    2  S   UNL     1      -1.534   5.257 -34.032  1.00  0.00    -0.039 SA
ENDROOT
BRANCH   1   3
HETATM    3  N   UNL     1      -3.202   3.372 -32.956  1.00  0.00    -0.301 N 
HETATM    4  C   UNL     1      -3.596   2.424 -32.005  1.00  0.00     0.248 C 
HETATM    5  O   UNL     1      -2.868   1.961 -31.134  1.00  0.00    -0.271 OA
HETATM    6  H   UNL     1      -3.743   3.404 -33.803  1.00  0.00     0.171 HD
BRANCH   4   7
HETATM    7  C   UNL     1      -5.044   1.965 -32.227  1.00  0.00     0.278 C 
BRANCH   7   8
HETATM    8  O   UNL     1      -5.248   0.640 -31.769  1.00  0.00    -0.339 OA
BRANCH   8   9
HETATM    9  C   UNL     1      -5.440  -0.351 -32.691  1.00  0.00     0.102 A 
HETATM   10  C   UNL     1      -6.756  -0.643 -33.094  1.00  0.00     0.101 A 
HETATM   11  C   UNL     1      -6.984  -1.684 -34.008  1.00  0.00     0.039 A 
HETATM   12  C   UNL     1      -5.929  -2.424 -34.537  1.00  0.00     0.003 A 
HETATM   13  C   UNL     1      -4.628  -2.137 -34.144  1.00  0.00     0.003 A 
HETATM   14  C   UNL     1      -4.386  -1.114 -33.222  1.00  0.00     0.039 A 
BRANCH  10  15
HETATM   15  O   UNL     1      -7.923  -0.043 -32.695  1.00  0.00    -0.353 OA
HETATM   16  C   UNL     1      -8.461   0.999 -33.497  1.00  0.00     0.210 C 
ENDBRANCH  10  15
ENDBRANCH   8   9
ENDBRANCH   7   8
ENDBRANCH   4   7
ENDBRANCH   1   3
BRANCH   1  17
HETATM   17  N   UNL     1      -2.043   4.784 -31.514  1.00  0.00    -0.289 N 
HETATM   18  H   UNL     1      -2.818   5.141 -30.952  1.00  0.00     0.183 HD
BRANCH  17  19
HETATM   19  N   UNL     1      -0.888   4.360 -30.823  1.00  0.00    -0.153 NA
HETATM   20  C   UNL     1       0.253   5.108 -30.887  1.00  0.00     0.317 C 
HETATM   21  N   UNL     1       0.225   6.458 -30.980  1.00  0.00    -0.312 N 
HETATM   22  O   UNL     1       1.331   4.515 -30.964  1.00  0.00    -0.252 OA
HETATM   23  H   UNL     1       1.116   6.817 -31.306  1.00  0.00     0.170 HD
HETATM   24  H   UNL     1      -0.615   3.398 -31.003  1.00  0.00     0.157 HD
BRANCH  21  25
HETATM   25  C   UNL     1      -0.690   7.437 -30.555  1.00  0.00     0.035 A 
HETATM   26  C   UNL     1      -0.841   7.845 -29.230  1.00  0.00     0.029 A 
HETATM   27  C   UNL     1      -1.772   8.834 -28.900  1.00  0.00     0.002 A 
HETATM   28  C   UNL     1      -2.544   9.434 -29.893  1.00  0.00     0.000 A 
HETATM   29  C   UNL     1      -2.377   9.056 -31.221  1.00  0.00     0.002 A 
HETATM   30  C   UNL     1      -1.447   8.068 -31.551  1.00  0.00     0.029 A 
ENDBRANCH  21  25
ENDBRANCH  17  19
ENDBRANCH   1  17
TORSDOF 8
ENDMDL
MODEL 10
REMARK VINA RESULT:      -7.4      2.127      3.041
REMARK  8 active torsions:
REMARK  status: ('A' for Active; 'I' for Inactive)
REMARK    1  A    between atoms: O_2  and  C_3 
REMARK    2  A    between atoms: C_4  and  O_5 
REMARK    3  A    between atoms: O_5  and  C_6 
REMARK    4  A    between atoms: C_6  and  C_7 
REMARK       I    between atoms: C_7  and  N_8 
REMARK    5  A    between atoms: N_8  and  C_9 
REMARK    6  A    between atoms: C_9  and  N_10 
REMARK    7  A    between atoms: N_10  and  N_11 
REMARK       I    between atoms: N_11  and  C_12 
REMARK       I    between atoms: C_12  and  N_13 
REMARK    8  A    between atoms: N_13  and  C_14 
ROOT
HETATM    1  C   UNL     1      -4.322   2.159 -32.017  1.00  0.00     0.189 C 
HETATM    2  S   UNL     1      -5.787   2.658 -31.399  1.00  0.00    -0.039 SA
ENDROOT
BRANCH   1   3
HETATM    3  N   UNL     1      -3.971   0.882 -32.421  1.00  0.00    -0.301 N 
HETATM    4  C   UNL     1      -3.240  -0.091 -31.730  1.00  0.00     0.248 C 
HETATM    5  O   UNL     1      -2.302   0.141 -30.976  1.00  0.00    -0.271 OA
HETATM    6  H   UNL     1      -4.451   0.573 -33.249  1.00  0.00     0.171 HD
BRANCH   4   7
HETATM    7  C   UNL     1      -3.704  -1.510 -32.088  1.00  0.00     0.278 C 
BRANCH   7   8
HETATM    8  O   UNL     1      -3.760  -1.702 -33.491  1.00  0.00    -0.339 OA
BRANCH   8   9
HETATM    9  C   UNL     1      -4.574  -2.684 -33.986  1.00  0.00     0.102 A 
HETATM   10  C   UNL     1      -5.854  -2.322 -34.445  1.00  0.00     0.101 A 
HETATM   11  C   UNL     1      -6.724  -3.317 -34.919  1.00  0.00     0.039 A 
HETATM   12  C   UNL     1      -6.339  -4.655 -34.959  1.00  0.00     0.003 A 
HETATM   13  C   UNL     1      -5.075  -5.015 -34.509  1.00  0.00     0.003 A 
HETATM   14  C   UNL     1      -4.203  -4.039 -34.019  1.00  0.00     0.039 A 
BRANCH  10  15
HETATM   15  O   UNL     1      -6.424  -1.075 -34.488  1.00  0.00    -0.353 OA
HETATM   16  C   UNL     1      -7.154  -0.621 -33.357  1.00  0.00     0.210 C 
ENDBRANCH  10  15
ENDBRANCH   8   9
ENDBRANCH   7   8
ENDBRANCH   4   7
ENDBRANCH   1   3
BRANCH   1  17
HETATM   17  N   UNL     1      -3.344   3.113 -32.206  1.00  0.00    -0.289 N 
HETATM   18  H   UNL     1      -3.501   3.803 -32.942  1.00  0.00     0.183 HD
BRANCH  17  19
HETATM   19  N   UNL     1      -2.351   3.406 -31.248  1.00  0.00    -0.153 NA
HETATM   20  C   UNL     1      -1.807   4.659 -31.197  1.00  0.00     0.317 C 
HETATM   21  N   UNL     1      -2.525   5.768 -31.491  1.00  0.00    -0.312 N 
HETATM   22  O   UNL     1      -0.598   4.757 -30.974  1.00  0.00    -0.252 OA
HETATM   23  H   UNL     1      -1.913   6.553 -31.686  1.00  0.00     0.170 HD
HETATM   24  H   UNL     1      -1.574   2.752 -31.227  1.00  0.00     0.157 HD
BRANCH  21  25
HETATM   25  C   UNL     1      -3.890   6.087 -31.402  1.00  0.00     0.035 A 
HETATM   26  C   UNL     1      -4.709   6.342 -32.502  1.00  0.00     0.029 A 
HETATM   27  C   UNL     1      -6.061   6.643 -32.319  1.00  0.00     0.002 A 
HETATM   28  C   UNL     1      -6.609   6.672 -31.037  1.00  0.00     0.000 A 
HETATM   29  C   UNL     1      -5.808   6.386 -29.937  1.00  0.00     0.002 A 
HETATM   30  C   UNL     1      -4.456   6.086 -30.120  1.00  0.00     0.029 A 
ENDBRANCH  21  25
ENDBRANCH  17  19
ENDBRANCH   1  17
TORSDOF 8
ENDMDL
