MODEL 1
REMARK VINA RESULT:     -10.0      0.000      0.000
REMARK  9 active torsions:
REMARK  status: ('A' for Active; 'I' for Inactive)
REMARK    1  A    between atoms: C_2  and  C_3 
REMARK    2  A    between atoms: C_4  and  N_5 
REMARK       I    between atoms: N_5  and  C_6 
REMARK    3  A    between atoms: C_6  and  C_7 
REMARK    4  A    between atoms: C_7  and  S_8 
REMARK    5  A    between atoms: S_8  and  C_9 
REMARK    6  A    between atoms: C_13  and  C_14 
REMARK       I    between atoms: C_14  and  N_15 
REMARK    7  A    between atoms: N_15  and  C_16 
REMARK    8  A    between atoms: C_17  and  O_18 
REMARK    9  A    between atoms: C_25  and  C_26 
ROOT
HETATM    1  C   UNL     1      -6.199   3.701 -30.534  1.00  0.00     0.087 C 
HETATM    2  N   UNL     1      -5.019   3.069 -30.883  1.00  0.00    -0.353 N 
HETATM    3  C   UNL     1      -4.949   1.999 -31.757  1.00  0.00     0.019 C 
HETATM    4  C   UNL     1      -3.583   1.696 -32.321  1.00  0.00     0.069 C 
HETATM    5  C   UNL     1      -6.081   1.331 -32.073  1.00  0.00     0.046 C 
HETATM    6  C   UNL     1      -7.427   1.712 -31.455  1.00  0.00     0.104 C 
HETATM    7  C   UNL     1      -7.385   3.079 -30.757  1.00  0.00     0.055 C 
HETATM    8  C   UNL     1      -8.685   3.803 -30.445  1.00  0.00     0.019 C 
HETATM    9  N   UNL     1      -9.763   4.403 -30.187  1.00  0.00    -0.096 N 
HETATM   10  H   UNL     1      -4.191   3.653 -30.793  1.00  0.00     0.166 HD
ENDROOT
BRANCH   1  11
HETATM   11  S   UNL     1      -6.109   5.336 -29.887  1.00  0.00    -0.102 SA
BRANCH  11  12
HETATM   12  C   UNL     1      -4.399   5.742 -30.396  1.00  0.00     0.184 C 
BRANCH  12  13
HETATM   13  C   UNL     1      -4.376   6.857 -31.432  1.00  0.00     0.231 C 
HETATM   14  N   UNL     1      -3.200   7.190 -32.064  1.00  0.00    -0.326 N 
HETATM   15  H   UNL     1      -3.282   8.124 -32.451  1.00  0.00     0.169 HD
HETATM   16  O   UNL     1      -5.385   7.501 -31.732  1.00  0.00    -0.272 OA
BRANCH  14  17
HETATM   17  C   UNL     1      -1.912   6.755 -31.709  1.00  0.00     0.041 A 
HETATM   18  C   UNL     1      -1.320   5.586 -32.220  1.00  0.00    -0.032 A 
HETATM   19  C   UNL     1      -0.051   5.214 -31.735  1.00  0.00     0.009 A 
HETATM   20  C   UNL     1       0.623   6.002 -30.802  1.00  0.00     0.001 A 
HETATM   21  C   UNL     1       0.055   7.190 -30.357  1.00  0.00     0.002 A 
HETATM   22  C   UNL     1      -1.203   7.572 -30.820  1.00  0.00     0.030 A 
BRANCH  18  23
HETATM   23  C   UNL     1      -1.911   4.767 -33.347  1.00  0.00     0.036 C 
HETATM   24  C   UNL     1      -1.525   5.320 -34.713  1.00  0.00     0.010 C 
ENDBRANCH  18  23
ENDBRANCH  14  17
ENDBRANCH  12  13
ENDBRANCH  11  12
ENDBRANCH   1  11
BRANCH   6  25
HETATM   25  C   UNL     1      -8.589   1.607 -32.442  1.00  0.00    -0.044 A 
HETATM   26  C   UNL     1      -9.490   0.533 -32.345  1.00  0.00     0.008 A 
HETATM   27  C   UNL     1     -10.556   0.419 -33.238  1.00  0.00     0.001 A 
HETATM   28  C   UNL     1     -10.736   1.372 -34.236  1.00  0.00     0.000 A 
HETATM   29  C   UNL     1      -9.852   2.444 -34.342  1.00  0.00     0.001 A 
HETATM   30  C   UNL     1      -8.787   2.566 -33.450  1.00  0.00     0.008 A 
ENDBRANCH   6  25
BRANCH   5  31
HETATM   31  C   UNL     1      -6.029   0.343 -33.179  1.00  0.00     0.255 C 
HETATM   32  N   UNL     1      -5.939  -0.956 -32.746  1.00  0.00    -0.321 N 
HETATM   33  H   UNL     1      -5.868  -1.138 -31.750  1.00  0.00     0.169 HD
HETATM   34  O   UNL     1      -6.011   0.750 -34.335  1.00  0.00    -0.268 OA
BRANCH  32  35
HETATM   35  C   UNL     1      -5.861  -2.119 -33.547  1.00  0.00     0.068 A 
HETATM   36  C   UNL     1      -4.626  -2.800 -33.578  1.00  0.00     0.095 A 
HETATM   37  C   UNL     1      -4.492  -3.957 -34.355  1.00  0.00     0.039 A 
HETATM   38  C   UNL     1      -5.571  -4.434 -35.101  1.00  0.00     0.003 A 
HETATM   39  C   UNL     1      -6.790  -3.764 -35.070  1.00  0.00     0.002 A 
HETATM   40  C   UNL     1      -6.935  -2.612 -34.294  1.00  0.00     0.032 A 
BRANCH  36  41
HETATM   41  O   UNL     1      -3.625  -2.245 -32.813  1.00  0.00    -0.354 OA
HETATM   42  C   UNL     1      -2.981  -3.108 -31.882  1.00  0.00     0.210 C 
ENDBRANCH  36  41
ENDBRANCH  32  35
ENDBRANCH   5  31
TORSDOF 9
ENDMDL
MODEL 2
REMARK VINA RESULT:      -9.8      0.825      1.746
REMARK  9 active torsions:
REMARK  status: ('A' for Active; 'I' for Inactive)
REMARK    1  A    between atoms: C_2  and  C_3 
REMARK    2  A    between atoms: C_4  and  N_5 
REMARK       I    between atoms: N_5  and  C_6 
REMARK    3  A    between atoms: C_6  and  C_7 
REMARK    4  A    between atoms: C_7  and  S_8 
REMARK    5  A    between atoms: S_8  and  C_9 
REMARK    6  A    between atoms: C_13  and  C_14 
REMARK       I    between atoms: C_14  and  N_15 
REMARK    7  A    between atoms: N_15  and  C_16 
REMARK    8  A    between atoms: C_17  and  O_18 
REMARK    9  A    between atoms: C_25  and  C_26 
ROOT
HETATM    1  C   UNL     1      -6.190   4.013 -30.795  1.00  0.00     0.087 C 
HETATM    2  N   UNL     1      -5.011   3.402 -31.183  1.00  0.00    -0.353 N 
HETATM    3  C   UNL     1      -4.955   2.299 -32.016  1.00  0.00     0.019 C 
HETATM    4  C   UNL     1      -3.612   2.013 -32.642  1.00  0.00     0.069 C 
HETATM    5  C   UNL     1      -6.081   1.586 -32.242  1.00  0.00     0.046 C 
HETATM    6  C   UNL     1      -7.403   1.953 -31.566  1.00  0.00     0.104 C 
HETATM    7  C   UNL     1      -7.366   3.348 -30.926  1.00  0.00     0.055 C 
HETATM    8  C   UNL     1      -8.669   4.046 -30.572  1.00  0.00     0.019 C 
HETATM    9  N   UNL     1      -9.750   4.625 -30.279  1.00  0.00    -0.096 N 
HETATM   10  H   UNL     1      -4.198   4.013 -31.162  1.00  0.00     0.166 HD
ENDROOT
BRANCH   1  11
HETATM   11  S   UNL     1      -6.116   5.676 -30.219  1.00  0.00    -0.102 SA
BRANCH  11  12
HETATM   12  C   UNL     1      -4.299   5.893 -30.233  1.00  0.00     0.184 C 
BRANCH  12  13
HETATM   13  C   UNL     1      -3.913   7.333 -30.541  1.00  0.00     0.231 C 
HETATM   14  N   UNL     1      -3.363   7.655 -31.761  1.00  0.00    -0.326 N 
HETATM   15  H   UNL     1      -2.876   8.542 -31.683  1.00  0.00     0.169 HD
HETATM   16  O   UNL     1      -4.063   8.247 -29.726  1.00  0.00    -0.272 OA
BRANCH  14  17
HETATM   17  C   UNL     1      -2.894   6.750 -32.727  1.00  0.00     0.041 A 
HETATM   18  C   UNL     1      -1.531   6.463 -32.924  1.00  0.00    -0.032 A 
HETATM   19  C   UNL     1      -1.177   5.591 -33.972  1.00  0.00     0.009 A 
HETATM   20  C   UNL     1      -2.151   4.992 -34.772  1.00  0.00     0.001 A 
HETATM   21  C   UNL     1      -3.498   5.231 -34.522  1.00  0.00     0.002 A 
HETATM   22  C   UNL     1      -3.868   6.096 -33.493  1.00  0.00     0.030 A 
BRANCH  18  23
HETATM   23  C   UNL     1      -0.429   6.942 -32.004  1.00  0.00     0.036 C 
HETATM   24  C   UNL     1       0.172   5.799 -31.196  1.00  0.00     0.010 C 
ENDBRANCH  18  23
ENDBRANCH  14  17
ENDBRANCH  12  13
ENDBRANCH  11  12
ENDBRANCH   1  11
BRANCH   6  25
HETATM   25  C   UNL     1      -8.612   1.772 -32.482  1.00  0.00    -0.044 A 
HETATM   26  C   UNL     1      -9.431   0.639 -32.341  1.00  0.00     0.008 A 
HETATM   27  C   UNL     1     -10.539   0.456 -33.169  1.00  0.00     0.001 A 
HETATM   28  C   UNL     1     -10.843   1.399 -34.146  1.00  0.00     0.000 A 
HETATM   29  C   UNL     1     -10.042   2.530 -34.296  1.00  0.00     0.001 A 
HETATM   30  C   UNL     1      -8.936   2.720 -33.468  1.00  0.00     0.008 A 
ENDBRANCH   6  25
BRANCH   5  31
HETATM   31  C   UNL     1      -6.058   0.554 -33.309  1.00  0.00     0.255 C 
HETATM   32  N   UNL     1      -5.917  -0.723 -32.829  1.00  0.00    -0.321 N 
HETATM   33  H   UNL     1      -5.796  -0.863 -31.831  1.00  0.00     0.169 HD
HETATM   34  O   UNL     1      -6.103   0.914 -34.480  1.00  0.00    -0.268 OA
BRANCH  32  35
HETATM   35  C   UNL     1      -5.850  -1.917 -33.585  1.00  0.00     0.068 A 
HETATM   36  C   UNL     1      -4.598  -2.561 -33.666  1.00  0.00     0.095 A 
HETATM   37  C   UNL     1      -4.473  -3.745 -34.403  1.00  0.00     0.039 A 
HETATM   38  C   UNL     1      -5.580  -4.286 -35.060  1.00  0.00     0.003 A 
HETATM   39  C   UNL     1      -6.816  -3.652 -34.981  1.00  0.00     0.002 A 
HETATM   40  C   UNL     1      -6.951  -2.473 -34.244  1.00  0.00     0.032 A 
BRANCH  36  41
HETATM   41  O   UNL     1      -3.571  -1.944 -32.987  1.00  0.00    -0.354 OA
HETATM   42  C   UNL     1      -3.046  -2.636 -31.859  1.00  0.00     0.210 C 
ENDBRANCH  36  41
ENDBRANCH  32  35
ENDBRANCH   5  31
TORSDOF 9
ENDMDL
MODEL 3
REMARK VINA RESULT:      -9.5      1.531      2.191
REMARK  9 active torsions:
REMARK  status: ('A' for Active; 'I' for Inactive)
REMARK    1  A    between atoms: C_2  and  C_3 
REMARK    2  A    between atoms: C_4  and  N_5 
REMARK       I    between atoms: N_5  and  C_6 
REMARK    3  A    between atoms: C_6  and  C_7 
REMARK    4  A    between atoms: C_7  and  S_8 
REMARK    5  A    between atoms: S_8  and  C_9 
REMARK    6  A    between atoms: C_13  and  C_14 
REMARK       I    between atoms: C_14  and  N_15 
REMARK    7  A    between atoms: N_15  and  C_16 
REMARK    8  A    between atoms: C_17  and  O_18 
REMARK    9  A    between atoms: C_25  and  C_26 
ROOT
HETATM    1  C   UNL     1      -5.199   4.232 -31.330  1.00  0.00     0.087 C 
HETATM    2  N   UNL     1      -4.233   3.289 -31.024  1.00  0.00    -0.353 N 
HETATM    3  C   UNL     1      -4.426   1.924 -31.145  1.00  0.00     0.019 C 
HETATM    4  C   UNL     1      -3.175   1.080 -31.153  1.00  0.00     0.069 C 
HETATM    5  C   UNL     1      -5.682   1.446 -31.281  1.00  0.00     0.046 C 
HETATM    6  C   UNL     1      -6.894   2.379 -31.267  1.00  0.00     0.104 C 
HETATM    7  C   UNL     1      -6.499   3.854 -31.426  1.00  0.00     0.055 C 
HETATM    8  C   UNL     1      -7.550   4.872 -31.836  1.00  0.00     0.019 C 
HETATM    9  N   UNL     1      -8.421   5.717 -32.177  1.00  0.00    -0.096 N 
HETATM   10  H   UNL     1      -3.278   3.633 -31.092  1.00  0.00     0.166 HD
ENDROOT
BRANCH   1  11
HETATM   11  S   UNL     1      -4.677   5.880 -31.665  1.00  0.00    -0.102 SA
BRANCH  11  12
HETATM   12  C   UNL     1      -3.014   5.514 -32.337  1.00  0.00     0.184 C 
BRANCH  12  13
HETATM   13  C   UNL     1      -2.561   6.586 -33.317  1.00  0.00     0.231 C 
HETATM   14  N   UNL     1      -1.810   7.652 -32.876  1.00  0.00    -0.326 N 
HETATM   15  H   UNL     1      -1.877   8.408 -33.550  1.00  0.00     0.169 HD
HETATM   16  O   UNL     1      -2.851   6.551 -34.516  1.00  0.00    -0.272 OA
BRANCH  14  17
HETATM   17  C   UNL     1      -1.573   8.006 -31.538  1.00  0.00     0.041 A 
HETATM   18  C   UNL     1      -0.613   7.374 -30.727  1.00  0.00    -0.032 A 
HETATM   19  C   UNL     1      -0.516   7.768 -29.378  1.00  0.00     0.009 A 
HETATM   20  C   UNL     1      -1.319   8.788 -28.865  1.00  0.00     0.001 A 
HETATM   21  C   UNL     1      -2.215   9.450 -29.696  1.00  0.00     0.002 A 
HETATM   22  C   UNL     1      -2.331   9.070 -31.032  1.00  0.00     0.030 A 
BRANCH  18  23
HETATM   23  C   UNL     1       0.401   6.378 -31.245  1.00  0.00     0.036 C 
HETATM   24  C   UNL     1       0.583   5.205 -30.290  1.00  0.00     0.010 C 
ENDBRANCH  18  23
ENDBRANCH  14  17
ENDBRANCH  12  13
ENDBRANCH  11  12
ENDBRANCH   1  11
BRANCH   6  25
HETATM   25  C   UNL     1      -7.979   1.964 -32.259  1.00  0.00    -0.044 A 
HETATM   26  C   UNL     1      -7.790   2.193 -33.633  1.00  0.00     0.008 A 
HETATM   27  C   UNL     1      -8.770   1.823 -34.555  1.00  0.00     0.001 A 
HETATM   28  C   UNL     1      -9.948   1.221 -34.119  1.00  0.00     0.000 A 
HETATM   29  C   UNL     1     -10.147   0.986 -32.760  1.00  0.00     0.001 A 
HETATM   30  C   UNL     1      -9.169   1.350 -31.834  1.00  0.00     0.008 A 
ENDBRANCH   6  25
BRANCH   5  31
HETATM   31  C   UNL     1      -5.856   0.016 -31.639  1.00  0.00     0.255 C 
HETATM   32  N   UNL     1      -5.594  -0.251 -32.959  1.00  0.00    -0.321 N 
HETATM   33  H   UNL     1      -5.360   0.517 -33.578  1.00  0.00     0.169 HD
HETATM   34  O   UNL     1      -6.258  -0.763 -30.782  1.00  0.00    -0.268 OA
BRANCH  32  35
HETATM   35  C   UNL     1      -5.679  -1.505 -33.609  1.00  0.00     0.068 A 
HETATM   36  C   UNL     1      -4.536  -2.332 -33.569  1.00  0.00     0.095 A 
HETATM   37  C   UNL     1      -4.563  -3.582 -34.196  1.00  0.00     0.039 A 
HETATM   38  C   UNL     1      -5.711  -4.012 -34.864  1.00  0.00     0.003 A 
HETATM   39  C   UNL     1      -6.839  -3.198 -34.903  1.00  0.00     0.002 A 
HETATM   40  C   UNL     1      -6.824  -1.950 -34.276  1.00  0.00     0.032 A 
BRANCH  36  41
HETATM   41  O   UNL     1      -3.455  -1.814 -32.890  1.00  0.00    -0.354 OA
HETATM   42  C   UNL     1      -2.918  -2.613 -31.842  1.00  0.00     0.210 C 
ENDBRANCH  36  41
ENDBRANCH  32  35
ENDBRANCH   5  31
TORSDOF 9
ENDMDL
MODEL 4
REMARK VINA RESULT:      -9.2      0.588      1.739
REMARK  9 active torsions:
REMARK  status: ('A' for Active; 'I' for Inactive)
REMARK    1  A    between atoms: C_2  and  C_3 
REMARK    2  A    between atoms: C_4  and  N_5 
REMARK       I    between atoms: N_5  and  C_6 
REMARK    3  A    between atoms: C_6  and  C_7 
REMARK    4  A    between atoms: C_7  and  S_8 
REMARK    5  A    between atoms: S_8  and  C_9 
REMARK    6  A    between atoms: C_13  and  C_14 
REMARK       I    between atoms: C_14  and  N_15 
REMARK    7  A    between atoms: N_15  and  C_16 
REMARK    8  A    between atoms: C_17  and  O_18 
REMARK    9  A    between atoms: C_25  and  C_26 
ROOT
HETATM    1  C   UNL     1      -6.441   3.914 -30.518  1.00  0.00     0.087 C 
HETATM    2  N   UNL     1      -5.233   3.332 -30.859  1.00  0.00    -0.353 N 
HETATM    3  C   UNL     1      -5.111   2.269 -31.736  1.00  0.00     0.019 C 
HETATM    4  C   UNL     1      -3.729   2.025 -32.289  1.00  0.00     0.069 C 
HETATM    5  C   UNL     1      -6.212   1.555 -32.061  1.00  0.00     0.046 C 
HETATM    6  C   UNL     1      -7.577   1.878 -31.453  1.00  0.00     0.104 C 
HETATM    7  C   UNL     1      -7.598   3.243 -30.751  1.00  0.00     0.055 C 
HETATM    8  C   UNL     1      -8.929   3.911 -30.447  1.00  0.00     0.019 C 
HETATM    9  N   UNL     1     -10.033   4.466 -30.196  1.00  0.00    -0.096 N 
HETATM   10  H   UNL     1      -4.430   3.951 -30.762  1.00  0.00     0.166 HD
ENDROOT
BRANCH   1  11
HETATM   11  S   UNL     1      -6.423   5.549 -29.866  1.00  0.00    -0.102 SA
BRANCH  11  12
HETATM   12  C   UNL     1      -4.697   5.995 -30.280  1.00  0.00     0.184 C 
BRANCH  12  13
HETATM   13  C   UNL     1      -4.639   6.979 -31.439  1.00  0.00     0.231 C 
HETATM   14  N   UNL     1      -3.436   7.264 -32.044  1.00  0.00    -0.326 N 
HETATM   15  H   UNL     1      -3.515   8.143 -32.544  1.00  0.00     0.169 HD
HETATM   16  O   UNL     1      -5.642   7.557 -31.866  1.00  0.00    -0.272 OA
BRANCH  14  17
HETATM   17  C   UNL     1      -2.162   6.906 -31.573  1.00  0.00     0.041 A 
HETATM   18  C   UNL     1      -1.477   7.622 -30.574  1.00  0.00    -0.032 A 
HETATM   19  C   UNL     1      -0.174   7.210 -30.234  1.00  0.00     0.009 A 
HETATM   20  C   UNL     1       0.412   6.096 -30.838  1.00  0.00     0.001 A 
HETATM   21  C   UNL     1      -0.304   5.359 -31.774  1.00  0.00     0.002 A 
HETATM   22  C   UNL     1      -1.593   5.754 -32.129  1.00  0.00     0.030 A 
BRANCH  18  23
HETATM   23  C   UNL     1      -2.099   8.735 -29.760  1.00  0.00     0.036 C 
HETATM   24  C   UNL     1      -2.303   9.998 -30.588  1.00  0.00     0.010 C 
ENDBRANCH  18  23
ENDBRANCH  14  17
ENDBRANCH  12  13
ENDBRANCH  11  12
ENDBRANCH   1  11
BRANCH   6  25
HETATM   25  C   UNL     1      -8.726   1.727 -32.449  1.00  0.00    -0.044 A 
HETATM   26  C   UNL     1      -8.916   2.699 -33.446  1.00  0.00     0.008 A 
HETATM   27  C   UNL     1      -9.961   2.580 -34.363  1.00  0.00     0.001 A 
HETATM   28  C   UNL     1     -10.827   1.491 -34.298  1.00  0.00     0.000 A 
HETATM   29  C   UNL     1     -10.648   0.518 -33.317  1.00  0.00     0.001 A 
HETATM   30  C   UNL     1      -9.603   0.630 -32.400  1.00  0.00     0.008 A 
ENDBRANCH   6  25
BRANCH   5  31
HETATM   31  C   UNL     1      -6.111   0.573 -33.170  1.00  0.00     0.255 C 
HETATM   32  N   UNL     1      -6.021  -0.727 -32.739  1.00  0.00    -0.321 N 
HETATM   33  H   UNL     1      -5.981  -0.913 -31.743  1.00  0.00     0.169 HD
HETATM   34  O   UNL     1      -6.058   0.986 -34.323  1.00  0.00    -0.268 OA
BRANCH  32  35
HETATM   35  C   UNL     1      -5.902  -1.885 -33.543  1.00  0.00     0.068 A 
HETATM   36  C   UNL     1      -4.627  -2.482 -33.631  1.00  0.00     0.095 A 
HETATM   37  C   UNL     1      -4.451  -3.629 -34.413  1.00  0.00     0.039 A 
HETATM   38  C   UNL     1      -5.529  -4.181 -35.107  1.00  0.00     0.003 A 
HETATM   39  C   UNL     1      -6.788  -3.594 -35.020  1.00  0.00     0.002 A 
HETATM   40  C   UNL     1      -6.974  -2.452 -34.239  1.00  0.00     0.032 A 
BRANCH  36  41
HETATM   41  O   UNL     1      -3.631  -1.858 -32.914  1.00  0.00    -0.354 OA
HETATM   42  C   UNL     1      -3.023  -2.617 -31.874  1.00  0.00     0.210 C 
ENDBRANCH  36  41
ENDBRANCH  32  35
ENDBRANCH   5  31
TORSDOF 9
ENDMDL
MODEL 5
REMARK VINA RESULT:      -9.1      1.414      1.877
REMARK  9 active torsions:
REMARK  status: ('A' for Active; 'I' for Inactive)
REMARK    1  A    between atoms: C_2  and  C_3 
REMARK    2  A    between atoms: C_4  and  N_5 
REMARK       I    between atoms: N_5  and  C_6 
REMARK    3  A    between atoms: C_6  and  C_7 
REMARK    4  A    between atoms: C_7  and  S_8 
REMARK    5  A    between atoms: S_8  and  C_9 
REMARK    6  A    between atoms: C_13  and  C_14 
REMARK       I    between atoms: C_14  and  N_15 
REMARK    7  A    between atoms: N_15  and  C_16 
REMARK    8  A    between atoms: C_17  and  O_18 
REMARK    9  A    between atoms: C_25  and  C_26 
ROOT
HETATM    1  C   UNL     1      -5.914   4.629 -29.804  1.00  0.00     0.087 C 
HETATM    2  N   UNL     1      -4.776   3.901 -30.103  1.00  0.00    -0.353 N 
HETATM    3  C   UNL     1      -4.740   2.879 -31.035  1.00  0.00     0.019 C 
HETATM    4  C   UNL     1      -3.368   2.472 -31.514  1.00  0.00     0.069 C 
HETATM    5  C   UNL     1      -5.902   2.347 -31.474  1.00  0.00     0.046 C 
HETATM    6  C   UNL     1      -7.250   2.827 -30.934  1.00  0.00     0.104 C 
HETATM    7  C   UNL     1      -7.133   4.142 -30.151  1.00  0.00     0.055 C 
HETATM    8  C   UNL     1      -8.377   4.975 -29.892  1.00  0.00     0.019 C 
HETATM    9  N   UNL     1      -9.410   5.666 -29.677  1.00  0.00    -0.096 N 
HETATM   10  H   UNL     1      -3.905   4.394 -29.916  1.00  0.00     0.166 HD
ENDROOT
BRANCH   1  11
HETATM   11  S   UNL     1      -5.719   6.209 -29.051  1.00  0.00    -0.102 SA
BRANCH  11  12
HETATM   12  C   UNL     1      -3.957   6.495 -29.459  1.00  0.00     0.184 C 
BRANCH  12  13
HETATM   13  C   UNL     1      -3.806   7.456 -30.628  1.00  0.00     0.231 C 
HETATM   14  N   UNL     1      -2.610   8.105 -30.840  1.00  0.00    -0.326 N 
HETATM   15  H   UNL     1      -2.772   8.920 -31.422  1.00  0.00     0.169 HD
HETATM   16  O   UNL     1      -4.729   7.698 -31.410  1.00  0.00    -0.272 OA
BRANCH  14  17
HETATM   17  C   UNL     1      -1.524   8.158 -29.951  1.00  0.00     0.041 A 
HETATM   18  C   UNL     1      -0.392   7.330 -30.059  1.00  0.00    -0.032 A 
HETATM   19  C   UNL     1       0.602   7.424 -29.067  1.00  0.00     0.009 A 
HETATM   20  C   UNL     1       0.493   8.344 -28.022  1.00  0.00     0.001 A 
HETATM   21  C   UNL     1      -0.598   9.203 -27.966  1.00  0.00     0.002 A 
HETATM   22  C   UNL     1      -1.596   9.120 -28.936  1.00  0.00     0.030 A 
BRANCH  18  23
HETATM   23  C   UNL     1      -0.122   6.425 -31.242  1.00  0.00     0.036 C 
HETATM   24  C   UNL     1       0.719   5.217 -30.852  1.00  0.00     0.010 C 
ENDBRANCH  18  23
ENDBRANCH  14  17
ENDBRANCH  12  13
ENDBRANCH  11  12
ENDBRANCH   1  11
BRANCH   6  25
HETATM   25  C   UNL     1      -8.334   2.893 -32.009  1.00  0.00    -0.044 A 
HETATM   26  C   UNL     1      -9.356   1.927 -32.028  1.00  0.00     0.008 A 
HETATM   27  C   UNL     1     -10.354   1.970 -33.002  1.00  0.00     0.001 A 
HETATM   28  C   UNL     1     -10.346   2.974 -33.967  1.00  0.00     0.000 A 
HETATM   29  C   UNL     1      -9.341   3.940 -33.957  1.00  0.00     0.001 A 
HETATM   30  C   UNL     1      -8.344   3.905 -32.984  1.00  0.00     0.008 A 
ENDBRANCH   6  25
BRANCH   5  31
HETATM   31  C   UNL     1      -5.858   1.420 -32.632  1.00  0.00     0.255 C 
HETATM   32  N   UNL     1      -5.920   0.097 -32.274  1.00  0.00    -0.321 N 
HETATM   33  H   UNL     1      -5.940  -0.145 -31.290  1.00  0.00     0.169 HD
HETATM   34  O   UNL     1      -5.716   1.886 -33.757  1.00  0.00    -0.268 OA
BRANCH  32  35
HETATM   35  C   UNL     1      -5.889  -1.023 -33.138  1.00  0.00     0.068 A 
HETATM   36  C   UNL     1      -4.647  -1.669 -33.314  1.00  0.00     0.095 A 
HETATM   37  C   UNL     1      -4.557  -2.781 -34.159  1.00  0.00     0.039 A 
HETATM   38  C   UNL     1      -5.688  -3.250 -34.829  1.00  0.00     0.003 A 
HETATM   39  C   UNL     1      -6.914  -2.614 -34.656  1.00  0.00     0.002 A 
HETATM   40  C   UNL     1      -7.014  -1.506 -33.812  1.00  0.00     0.032 A 
BRANCH  36  41
HETATM   41  O   UNL     1      -3.593  -1.126 -32.613  1.00  0.00    -0.354 OA
HETATM   42  C   UNL     1      -2.824  -2.024 -31.820  1.00  0.00     0.210 C 
ENDBRANCH  36  41
ENDBRANCH  32  35
ENDBRANCH   5  31
TORSDOF 9
ENDMDL
MODEL 6
REMARK VINA RESULT:      -9.0      2.959      7.678
REMARK  9 active torsions:
REMARK  status: ('A' for Active; 'I' for Inactive)
REMARK    1  A    between atoms: C_2  and  C_3 
REMARK    2  A    between atoms: C_4  and  N_5 
REMARK       I    between atoms: N_5  and  C_6 
REMARK    3  A    between atoms: C_6  and  C_7 
REMARK    4  A    between atoms: C_7  and  S_8 
REMARK    5  A    between atoms: S_8  and  C_9 
REMARK    6  A    between atoms: C_13  and  C_14 
REMARK       I    between atoms: C_14  and  N_15 
REMARK    7  A    between atoms: N_15  and  C_16 
REMARK    8  A    between atoms: C_17  and  O_18 
REMARK    9  A    between atoms: C_25  and  C_26 
ROOT
HETATM    1  C   UNL     1      -9.574   3.697 -31.770  1.00  0.00     0.087 C 
HETATM    2  N   UNL     1     -10.018   2.452 -32.177  1.00  0.00    -0.353 N 
HETATM    3  C   UNL     1      -9.253   1.564 -32.913  1.00  0.00     0.019 C 
HETATM    4  C   UNL     1      -9.734   0.134 -32.928  1.00  0.00     0.069 C 
HETATM    5  C   UNL     1      -8.135   2.011 -33.527  1.00  0.00     0.046 C 
HETATM    6  C   UNL     1      -7.721   3.481 -33.453  1.00  0.00     0.104 C 
HETATM    7  C   UNL     1      -8.493   4.254 -32.373  1.00  0.00     0.055 C 
HETATM    8  C   UNL     1      -7.957   5.586 -31.876  1.00  0.00     0.019 C 
HETATM    9  N   UNL     1      -7.512   6.691 -31.464  1.00  0.00    -0.096 N 
HETATM   10  H   UNL     1     -10.755   2.060 -31.593  1.00  0.00     0.166 HD
ENDROOT
BRANCH   1  11
HETATM   11  S   UNL     1     -10.391   4.472 -30.416  1.00  0.00    -0.102 SA
BRANCH  11  12
HETATM   12  C   UNL     1     -12.121   4.126 -30.902  1.00  0.00     0.184 C 
BRANCH  12  13
HETATM   13  C   UNL     1     -12.603   5.093 -31.973  1.00  0.00     0.231 C 
HETATM   14  N   UNL     1     -13.261   4.621 -33.086  1.00  0.00    -0.326 N 
HETATM   15  H   UNL     1     -13.215   5.319 -33.822  1.00  0.00     0.169 HD
HETATM   16  O   UNL     1     -12.419   6.311 -31.896  1.00  0.00    -0.272 OA
BRANCH  14  17
HETATM   17  C   UNL     1     -13.365   3.278 -33.484  1.00  0.00     0.041 A 
HETATM   18  C   UNL     1     -14.256   2.362 -32.894  1.00  0.00    -0.032 A 
HETATM   19  C   UNL     1     -14.220   1.023 -33.328  1.00  0.00     0.009 A 
HETATM   20  C   UNL     1     -13.355   0.617 -34.345  1.00  0.00     0.001 A 
HETATM   21  C   UNL     1     -12.529   1.548 -34.966  1.00  0.00     0.002 A 
HETATM   22  C   UNL     1     -12.545   2.877 -34.546  1.00  0.00     0.030 A 
BRANCH  18  23
HETATM   23  C   UNL     1     -15.332   2.753 -31.905  1.00  0.00     0.036 C 
HETATM   24  C   UNL     1     -16.725   2.408 -32.416  1.00  0.00     0.010 C 
ENDBRANCH  18  23
ENDBRANCH  14  17
ENDBRANCH  12  13
ENDBRANCH  11  12
ENDBRANCH   1  11
BRANCH   6  25
HETATM   25  C   UNL     1      -6.211   3.671 -33.327  1.00  0.00    -0.044 A 
HETATM   26  C   UNL     1      -5.517   4.409 -34.301  1.00  0.00     0.008 A 
HETATM   27  C   UNL     1      -4.138   4.593 -34.204  1.00  0.00     0.001 A 
HETATM   28  C   UNL     1      -3.434   4.044 -33.135  1.00  0.00     0.000 A 
HETATM   29  C   UNL     1      -4.109   3.312 -32.160  1.00  0.00     0.001 A 
HETATM   30  C   UNL     1      -5.488   3.129 -32.250  1.00  0.00     0.008 A 
ENDBRANCH   6  25
BRANCH   5  31
HETATM   31  C   UNL     1      -7.208   1.011 -34.114  1.00  0.00     0.255 C 
HETATM   32  N   UNL     1      -6.852   0.018 -33.238  1.00  0.00    -0.321 N 
HETATM   33  H   UNL     1      -7.190   0.060 -32.283  1.00  0.00     0.169 HD
HETATM   34  O   UNL     1      -6.807   1.179 -35.260  1.00  0.00    -0.268 OA
BRANCH  32  35
HETATM   35  C   UNL     1      -5.980  -1.068 -33.488  1.00  0.00     0.068 A 
HETATM   36  C   UNL     1      -4.818  -1.160 -32.694  1.00  0.00     0.095 A 
HETATM   37  C   UNL     1      -3.919  -2.213 -32.899  1.00  0.00     0.039 A 
HETATM   38  C   UNL     1      -4.167  -3.169 -33.886  1.00  0.00     0.003 A 
HETATM   39  C   UNL     1      -5.314  -3.080 -34.670  1.00  0.00     0.002 A 
HETATM   40  C   UNL     1      -6.218  -2.035 -34.470  1.00  0.00     0.032 A 
BRANCH  36  41
HETATM   41  O   UNL     1      -4.664  -0.166 -31.753  1.00  0.00    -0.354 OA
HETATM   42  C   UNL     1      -3.405  -0.103 -31.093  1.00  0.00     0.210 C 
ENDBRANCH  36  41
ENDBRANCH  32  35
ENDBRANCH   5  31
TORSDOF 9
ENDMDL
MODEL 7
REMARK VINA RESULT:      -8.9      2.448      8.903
REMARK  9 active torsions:
REMARK  status: ('A' for Active; 'I' for Inactive)
REMARK    1  A    between atoms: C_2  and  C_3 
REMARK    2  A    between atoms: C_4  and  N_5 
REMARK       I    between atoms: N_5  and  C_6 
REMARK    3  A    between atoms: C_6  and  C_7 
REMARK    4  A    between atoms: C_7  and  S_8 
REMARK    5  A    between atoms: S_8  and  C_9 
REMARK    6  A    between atoms: C_13  and  C_14 
REMARK       I    between atoms: C_14  and  N_15 
REMARK    7  A    between atoms: N_15  and  C_16 
REMARK    8  A    between atoms: C_17  and  O_18 
REMARK    9  A    between atoms: C_25  and  C_26 
ROOT
HETATM    1  C   UNL     1      -5.140   4.635 -33.210  1.00  0.00     0.087 C 
HETATM    2  N   UNL     1      -3.816   4.734 -33.599  1.00  0.00    -0.353 N 
HETATM    3  C   UNL     1      -2.935   5.675 -33.097  1.00  0.00     0.019 C 
HETATM    4  C   UNL     1      -1.470   5.395 -33.325  1.00  0.00     0.069 C 
HETATM    5  C   UNL     1      -3.423   6.740 -32.422  1.00  0.00     0.046 C 
HETATM    6  C   UNL     1      -4.927   6.941 -32.235  1.00  0.00     0.104 C 
HETATM    7  C   UNL     1      -5.734   5.681 -32.580  1.00  0.00     0.055 C 
HETATM    8  C   UNL     1      -7.165   5.546 -32.085  1.00  0.00     0.019 C 
HETATM    9  N   UNL     1      -8.351   5.434 -31.673  1.00  0.00    -0.096 N 
HETATM   10  H   UNL     1      -3.420   3.866 -33.953  1.00  0.00     0.166 HD
ENDROOT
BRANCH   1  11
HETATM   11  S   UNL     1      -5.977   3.110 -33.481  1.00  0.00    -0.102 SA
BRANCH  11  12
HETATM   12  C   UNL     1      -4.928   2.030 -32.440  1.00  0.00     0.184 C 
BRANCH  12  13
HETATM   13  C   UNL     1      -5.738   1.363 -31.338  1.00  0.00     0.231 C 
HETATM   14  N   UNL     1      -5.974   0.007 -31.377  1.00  0.00    -0.326 N 
HETATM   15  H   UNL     1      -6.770  -0.209 -30.785  1.00  0.00     0.169 HD
HETATM   16  O   UNL     1      -6.214   1.996 -30.392  1.00  0.00    -0.272 OA
BRANCH  14  17
HETATM   17  C   UNL     1      -5.732  -0.848 -32.464  1.00  0.00     0.041 A 
HETATM   18  C   UNL     1      -6.668  -1.085 -33.487  1.00  0.00    -0.032 A 
HETATM   19  C   UNL     1      -6.340  -2.020 -34.488  1.00  0.00     0.009 A 
HETATM   20  C   UNL     1      -5.102  -2.666 -34.494  1.00  0.00     0.001 A 
HETATM   21  C   UNL     1      -4.161  -2.370 -33.515  1.00  0.00     0.002 A 
HETATM   22  C   UNL     1      -4.470  -1.453 -32.511  1.00  0.00     0.030 A 
BRANCH  18  23
HETATM   23  C   UNL     1      -7.958  -0.311 -33.643  1.00  0.00     0.036 C 
HETATM   24  C   UNL     1      -8.095   0.289 -35.036  1.00  0.00     0.010 C 
ENDBRANCH  18  23
ENDBRANCH  14  17
ENDBRANCH  12  13
ENDBRANCH  11  12
ENDBRANCH   1  11
BRANCH   6  25
HETATM   25  C   UNL     1      -5.290   7.495 -30.858  1.00  0.00    -0.044 A 
HETATM   26  C   UNL     1      -5.247   6.653 -29.734  1.00  0.00     0.008 A 
HETATM   27  C   UNL     1      -5.576   7.140 -28.469  1.00  0.00     0.001 A 
HETATM   28  C   UNL     1      -5.950   8.472 -28.309  1.00  0.00     0.000 A 
HETATM   29  C   UNL     1      -5.994   9.320 -29.414  1.00  0.00     0.001 A 
HETATM   30  C   UNL     1      -5.662   8.839 -30.681  1.00  0.00     0.008 A 
ENDBRANCH   6  25
BRANCH   5  31
HETATM   31  C   UNL     1      -2.466   7.612 -31.696  1.00  0.00     0.255 C 
HETATM   32  N   UNL     1      -2.113   7.126 -30.463  1.00  0.00    -0.321 N 
HETATM   33  H   UNL     1      -2.547   6.272 -30.129  1.00  0.00     0.169 HD
HETATM   34  O   UNL     1      -2.131   8.675 -32.207  1.00  0.00    -0.268 OA
BRANCH  32  35
HETATM   35  C   UNL     1      -1.235   7.724 -29.529  1.00  0.00     0.068 A 
HETATM   36  C   UNL     1       0.080   7.218 -29.464  1.00  0.00     0.095 A 
HETATM   37  C   UNL     1       0.992   7.771 -28.557  1.00  0.00     0.039 A 
HETATM   38  C   UNL     1       0.604   8.816 -27.717  1.00  0.00     0.003 A 
HETATM   39  C   UNL     1      -0.693   9.317 -27.780  1.00  0.00     0.002 A 
HETATM   40  C   UNL     1      -1.608   8.774 -28.685  1.00  0.00     0.032 A 
BRANCH  36  41
HETATM   41  O   UNL     1       0.360   6.185 -30.331  1.00  0.00    -0.354 OA
HETATM   42  C   UNL     1       0.742   4.946 -29.743  1.00  0.00     0.210 C 
ENDBRANCH  36  41
ENDBRANCH  32  35
ENDBRANCH   5  31
TORSDOF 9
ENDMDL
MODEL 8
REMARK VINA RESULT:      -8.8      2.986      7.068
REMARK  9 active torsions:
REMARK  status: ('A' for Active; 'I' for Inactive)
REMARK    1  A    between atoms: C_2  and  C_3 
REMARK    2  A    between atoms: C_4  and  N_5 
REMARK       I    between atoms: N_5  and  C_6 
REMARK    3  A    between atoms: C_6  and  C_7 
REMARK    4  A    between atoms: C_7  and  S_8 
REMARK    5  A    between atoms: S_8  and  C_9 
REMARK    6  A    between atoms: C_13  and  C_14 
REMARK       I    between atoms: C_14  and  N_15 
REMARK    7  A    between atoms: N_15  and  C_16 
REMARK    8  A    between atoms: C_17  and  O_18 
REMARK    9  A    between atoms: C_25  and  C_26 
ROOT
HETATM    1  C   UNL     1      -9.990   3.696 -31.757  1.00  0.00     0.087 C 
HETATM    2  N   UNL     1     -10.426   2.464 -32.211  1.00  0.00    -0.353 N 
HETATM    3  C   UNL     1      -9.653   1.607 -32.974  1.00  0.00     0.019 C 
HETATM    4  C   UNL     1     -10.126   0.176 -33.043  1.00  0.00     0.069 C 
HETATM    5  C   UNL     1      -8.534   2.081 -33.566  1.00  0.00     0.046 C 
HETATM    6  C   UNL     1      -8.128   3.550 -33.438  1.00  0.00     0.104 C 
HETATM    7  C   UNL     1      -8.909   4.279 -32.335  1.00  0.00     0.055 C 
HETATM    8  C   UNL     1      -8.382   5.596 -31.788  1.00  0.00     0.019 C 
HETATM    9  N   UNL     1      -7.945   6.687 -31.334  1.00  0.00    -0.096 N 
HETATM   10  H   UNL     1     -11.163   2.048 -31.645  1.00  0.00     0.166 HD
ENDROOT
BRANCH   1  11
HETATM   11  S   UNL     1     -10.818   4.418 -30.381  1.00  0.00    -0.102 SA
BRANCH  11  12
HETATM   12  C   UNL     1     -12.517   3.847 -30.749  1.00  0.00     0.184 C 
BRANCH  12  13
HETATM   13  C   UNL     1     -13.363   4.963 -31.344  1.00  0.00     0.231 C 
HETATM   14  N   UNL     1     -13.703   4.936 -32.678  1.00  0.00    -0.326 N 
HETATM   15  H   UNL     1     -13.965   5.871 -32.973  1.00  0.00     0.169 HD
HETATM   16  O   UNL     1     -13.760   5.921 -30.675  1.00  0.00    -0.272 OA
BRANCH  14  17
HETATM   17  C   UNL     1     -13.170   4.081 -33.656  1.00  0.00     0.041 A 
HETATM   18  C   UNL     1     -12.186   4.478 -34.579  1.00  0.00    -0.032 A 
HETATM   19  C   UNL     1     -11.779   3.553 -35.560  1.00  0.00     0.009 A 
HETATM   20  C   UNL     1     -12.305   2.260 -35.594  1.00  0.00     0.001 A 
HETATM   21  C   UNL     1     -13.225   1.860 -34.632  1.00  0.00     0.002 A 
HETATM   22  C   UNL     1     -13.645   2.764 -33.657  1.00  0.00     0.030 A 
BRANCH  18  23
HETATM   23  C   UNL     1     -11.453   5.800 -34.512  1.00  0.00     0.036 C 
HETATM   24  C   UNL     1     -10.248   5.829 -35.444  1.00  0.00     0.010 C 
ENDBRANCH  18  23
ENDBRANCH  14  17
ENDBRANCH  12  13
ENDBRANCH  11  12
ENDBRANCH   1  11
BRANCH   6  25
HETATM   25  C   UNL     1      -6.619   3.743 -33.297  1.00  0.00    -0.044 A 
HETATM   26  C   UNL     1      -5.955   3.240 -32.165  1.00  0.00     0.008 A 
HETATM   27  C   UNL     1      -4.578   3.408 -32.018  1.00  0.00     0.001 A 
HETATM   28  C   UNL     1      -3.847   4.077 -32.996  1.00  0.00     0.000 A 
HETATM   29  C   UNL     1      -4.492   4.578 -34.125  1.00  0.00     0.001 A 
HETATM   30  C   UNL     1      -5.868   4.410 -34.280  1.00  0.00     0.008 A 
ENDBRANCH   6  25
BRANCH   5  31
HETATM   31  C   UNL     1      -7.599   1.108 -34.185  1.00  0.00     0.255 C 
HETATM   32  N   UNL     1      -7.142   0.159 -33.307  1.00  0.00    -0.321 N 
HETATM   33  H   UNL     1      -7.421   0.214 -32.333  1.00  0.00     0.169 HD
HETATM   34  O   UNL     1      -7.279   1.260 -35.358  1.00  0.00    -0.268 OA
BRANCH  32  35
HETATM   35  C   UNL     1      -6.237  -0.894 -33.583  1.00  0.00     0.068 A 
HETATM   36  C   UNL     1      -5.100  -1.002 -32.755  1.00  0.00     0.095 A 
HETATM   37  C   UNL     1      -4.171  -2.023 -32.983  1.00  0.00     0.039 A 
HETATM   38  C   UNL     1      -4.363  -2.930 -34.027  1.00  0.00     0.003 A 
HETATM   39  C   UNL     1      -5.484  -2.825 -34.844  1.00  0.00     0.002 A 
HETATM   40  C   UNL     1      -6.419  -1.812 -34.621  1.00  0.00     0.032 A 
BRANCH  36  41
HETATM   41  O   UNL     1      -5.002  -0.056 -31.759  1.00  0.00    -0.354 OA
HETATM   42  C   UNL     1      -3.784  -0.031 -31.022  1.00  0.00     0.210 C 
ENDBRANCH  36  41
ENDBRANCH  32  35
ENDBRANCH   5  31
TORSDOF 9
ENDMDL
MODEL 9
REMARK VINA RESULT:      -8.7      2.647      5.363
REMARK  9 active torsions:
REMARK  status: ('A' for Active; 'I' for Inactive)
REMARK    1  A    between atoms: C_2  and  C_3 
REMARK    2  A    between atoms: C_4  and  N_5 
REMARK       I    between atoms: N_5  and  C_6 
REMARK    3  A    between atoms: C_6  and  C_7 
REMARK    4  A    between atoms: C_7  and  S_8 
REMARK    5  A    between atoms: S_8  and  C_9 
REMARK    6  A    between atoms: C_13  and  C_14 
REMARK       I    between atoms: C_14  and  N_15 
REMARK    7  A    between atoms: N_15  and  C_16 
REMARK    8  A    between atoms: C_17  and  O_18 
REMARK    9  A    between atoms: C_25  and  C_26 
ROOT
HETATM    1  C   UNL     1      -6.468   4.545 -31.594  1.00  0.00     0.087 C 
HETATM    2  N   UNL     1      -7.631   5.290 -31.678  1.00  0.00    -0.353 N 
HETATM    3  C   UNL     1      -8.750   4.892 -32.387  1.00  0.00     0.019 C 
HETATM    4  C   UNL     1     -10.033   5.612 -32.054  1.00  0.00     0.069 C 
HETATM    5  C   UNL     1      -8.638   3.886 -33.284  1.00  0.00     0.046 C 
HETATM    6  C   UNL     1      -7.294   3.209 -33.554  1.00  0.00     0.104 C 
HETATM    7  C   UNL     1      -6.240   3.553 -32.493  1.00  0.00     0.055 C 
HETATM    8  C   UNL     1      -5.000   2.685 -32.356  1.00  0.00     0.019 C 
HETATM    9  N   UNL     1      -3.973   1.964 -32.242  1.00  0.00    -0.096 N 
HETATM   10  H   UNL     1      -7.775   5.928 -30.898  1.00  0.00     0.166 HD
ENDROOT
BRANCH   1  11
HETATM   11  S   UNL     1      -5.365   4.870 -30.260  1.00  0.00    -0.102 SA
BRANCH  11  12
HETATM   12  C   UNL     1      -4.001   5.637 -31.209  1.00  0.00     0.184 C 
BRANCH  12  13
HETATM   13  C   UNL     1      -4.234   7.127 -31.412  1.00  0.00     0.231 C 
HETATM   14  N   UNL     1      -3.171   8.001 -31.400  1.00  0.00    -0.326 N 
HETATM   15  H   UNL     1      -3.513   8.940 -31.220  1.00  0.00     0.169 HD
HETATM   16  O   UNL     1      -5.360   7.603 -31.581  1.00  0.00    -0.272 OA
BRANCH  14  17
HETATM   17  C   UNL     1      -1.858   7.709 -30.996  1.00  0.00     0.041 A 
HETATM   18  C   UNL     1      -0.877   7.195 -31.863  1.00  0.00    -0.032 A 
HETATM   19  C   UNL     1       0.385   6.873 -31.326  1.00  0.00     0.009 A 
HETATM   20  C   UNL     1       0.674   7.097 -29.979  1.00  0.00     0.001 A 
HETATM   21  C   UNL     1      -0.284   7.670 -29.150  1.00  0.00     0.002 A 
HETATM   22  C   UNL     1      -1.541   7.989 -29.661  1.00  0.00     0.030 A 
BRANCH  18  23
HETATM   23  C   UNL     1      -1.056   7.075 -33.360  1.00  0.00     0.036 C 
HETATM   24  C   UNL     1      -1.305   5.634 -33.788  1.00  0.00     0.010 C 
ENDBRANCH  18  23
ENDBRANCH  14  17
ENDBRANCH  12  13
ENDBRANCH  11  12
ENDBRANCH   1  11
BRANCH   6  25
HETATM   25  C   UNL     1      -7.418   1.702 -33.772  1.00  0.00    -0.044 A 
HETATM   26  C   UNL     1      -7.789   0.871 -32.701  1.00  0.00     0.008 A 
HETATM   27  C   UNL     1      -7.907  -0.508 -32.880  1.00  0.00     0.001 A 
HETATM   28  C   UNL     1      -7.656  -1.074 -34.127  1.00  0.00     0.000 A 
HETATM   29  C   UNL     1      -7.290  -0.262 -35.199  1.00  0.00     0.001 A 
HETATM   30  C   UNL     1      -7.175   1.117 -35.027  1.00  0.00     0.008 A 
ENDBRANCH   6  25
BRANCH   5  31
HETATM   31  C   UNL     1      -9.881   3.319 -33.863  1.00  0.00     0.255 C 
HETATM   32  N   UNL     1     -10.615   2.585 -32.966  1.00  0.00    -0.321 N 
HETATM   33  H   UNL     1     -10.251   2.447 -32.029  1.00  0.00     0.169 HD
HETATM   34  O   UNL     1     -10.111   3.492 -35.055  1.00  0.00    -0.268 OA
BRANCH  32  35
HETATM   35  C   UNL     1     -11.834   1.911 -33.209  1.00  0.00     0.068 A 
HETATM   36  C   UNL     1     -13.026   2.643 -33.020  1.00  0.00     0.095 A 
HETATM   37  C   UNL     1     -14.262   2.025 -33.246  1.00  0.00     0.039 A 
HETATM   38  C   UNL     1     -14.319   0.691 -33.651  1.00  0.00     0.003 A 
HETATM   39  C   UNL     1     -13.145  -0.032 -33.839  1.00  0.00     0.002 A 
HETATM   40  C   UNL     1     -11.907   0.577 -33.621  1.00  0.00     0.032 A 
BRANCH  36  41
HETATM   41  O   UNL     1     -12.860   3.948 -32.615  1.00  0.00    -0.354 OA
HETATM   42  C   UNL     1     -13.426   4.952 -33.451  1.00  0.00     0.210 C 
ENDBRANCH  36  41
ENDBRANCH  32  35
ENDBRANCH   5  31
TORSDOF 9
ENDMDL
MODEL 10
REMARK VINA RESULT:      -8.6      2.464      8.698
REMARK  9 active torsions:
REMARK  status: ('A' for Active; 'I' for Inactive)
REMARK    1  A    between atoms: C_2  and  C_3 
REMARK    2  A    between atoms: C_4  and  N_5 
REMARK       I    between atoms: N_5  and  C_6 
REMARK    3  A    between atoms: C_6  and  C_7 
REMARK    4  A    between atoms: C_7  and  S_8 
REMARK    5  A    between atoms: S_8  and  C_9 
REMARK    6  A    between atoms: C_13  and  C_14 
REMARK       I    between atoms: C_14  and  N_15 
REMARK    7  A    between atoms: N_15  and  C_16 
REMARK    8  A    between atoms: C_17  and  O_18 
REMARK    9  A    between atoms: C_25  and  C_26 
ROOT
HETATM    1  C   UNL     1      -6.945   4.630 -31.269  1.00  0.00     0.087 C 
HETATM    2  N   UNL     1      -6.969   5.487 -30.184  1.00  0.00    -0.353 N 
HETATM    3  C   UNL     1      -5.895   6.267 -29.795  1.00  0.00     0.019 C 
HETATM    4  C   UNL     1      -6.212   7.408 -28.861  1.00  0.00     0.069 C 
HETATM    5  C   UNL     1      -4.667   5.990 -30.290  1.00  0.00     0.046 C 
HETATM    6  C   UNL     1      -4.440   4.813 -31.238  1.00  0.00     0.104 C 
HETATM    7  C   UNL     1      -5.754   4.246 -31.795  1.00  0.00     0.055 C 
HETATM    8  C   UNL     1      -5.726   3.367 -33.034  1.00  0.00     0.019 C 
HETATM    9  N   UNL     1      -5.704   2.638 -34.062  1.00  0.00    -0.096 N 
HETATM   10  H   UNL     1      -7.899   5.815 -29.932  1.00  0.00     0.166 HD
ENDROOT
BRANCH   1  11
HETATM   11  S   UNL     1      -8.481   4.137 -31.976  1.00  0.00    -0.102 SA
BRANCH  11  12
HETATM   12  C   UNL     1      -8.673   2.528 -31.126  1.00  0.00     0.184 C 
BRANCH  12  13
HETATM   13  C   UNL     1      -9.226   1.465 -32.064  1.00  0.00     0.231 C 
HETATM   14  N   UNL     1      -8.489   0.337 -32.342  1.00  0.00    -0.326 N 
HETATM   15  H   UNL     1      -8.833  -0.083 -33.200  1.00  0.00     0.169 HD
HETATM   16  O   UNL     1     -10.328   1.574 -32.611  1.00  0.00    -0.272 OA
BRANCH  14  17
HETATM   17  C   UNL     1      -7.138   0.126 -32.022  1.00  0.00     0.041 A 
HETATM   18  C   UNL     1      -6.232  -0.528 -32.876  1.00  0.00    -0.032 A 
HETATM   19  C   UNL     1      -4.918  -0.745 -32.416  1.00  0.00     0.009 A 
HETATM   20  C   UNL     1      -4.509  -0.287 -31.163  1.00  0.00     0.001 A 
HETATM   21  C   UNL     1      -5.396   0.418 -30.358  1.00  0.00     0.002 A 
HETATM   22  C   UNL     1      -6.702   0.637 -30.793  1.00  0.00     0.030 A 
BRANCH  18  23
HETATM   23  C   UNL     1      -6.549  -0.910 -34.306  1.00  0.00     0.036 C 
HETATM   24  C   UNL     1      -6.814  -2.404 -34.449  1.00  0.00     0.010 C 
ENDBRANCH  18  23
ENDBRANCH  14  17
ENDBRANCH  12  13
ENDBRANCH  11  12
ENDBRANCH   1  11
BRANCH   6  25
HETATM   25  C   UNL     1      -3.433   5.123 -32.345  1.00  0.00    -0.044 A 
HETATM   26  C   UNL     1      -3.810   5.946 -33.420  1.00  0.00     0.008 A 
HETATM   27  C   UNL     1      -2.905   6.240 -34.440  1.00  0.00     0.001 A 
HETATM   28  C   UNL     1      -1.616   5.717 -34.402  1.00  0.00     0.000 A 
HETATM   29  C   UNL     1      -1.227   4.901 -33.341  1.00  0.00     0.001 A 
HETATM   30  C   UNL     1      -2.125   4.608 -32.316  1.00  0.00     0.008 A 
ENDBRANCH   6  25
BRANCH   5  31
HETATM   31  C   UNL     1      -3.576   6.967 -30.049  1.00  0.00     0.255 C 
HETATM   32  N   UNL     1      -2.690   6.566 -29.082  1.00  0.00    -0.321 N 
HETATM   33  H   UNL     1      -2.861   5.697 -28.588  1.00  0.00     0.169 HD
HETATM   34  O   UNL     1      -3.587   8.029 -30.661  1.00  0.00    -0.268 OA
BRANCH  32  35
HETATM   35  C   UNL     1      -1.555   7.273 -28.618  1.00  0.00     0.068 A 
HETATM   36  C   UNL     1      -0.288   6.740 -28.934  1.00  0.00     0.095 A 
HETATM   37  C   UNL     1       0.869   7.398 -28.499  1.00  0.00     0.039 A 
HETATM   38  C   UNL     1       0.772   8.573 -27.752  1.00  0.00     0.003 A 
HETATM   39  C   UNL     1      -0.477   9.100 -27.440  1.00  0.00     0.002 A 
HETATM   40  C   UNL     1      -1.636   8.454 -27.873  1.00  0.00     0.032 A 
BRANCH  36  41
HETATM   41  O   UNL     1      -0.303   5.576 -29.669  1.00  0.00    -0.354 OA
HETATM   42  C   UNL     1       0.886   4.794 -29.648  1.00  0.00     0.210 C 
ENDBRANCH  36  41
ENDBRANCH  32  35
ENDBRANCH   5  31
TORSDOF 9
ENDMDL
