MODEL 1
REMARK VINA RESULT:      -8.4      0.000      0.000
REMARK  7 active torsions:
REMARK  status: ('A' for Active; 'I' for Inactive)
REMARK    1  A    between atoms: C_6  and  C_7 
REMARK    2  A    between atoms: N_13  and  C_15 
REMARK    3  A    between atoms: C_15  and  C_16 
REMARK    4  A    between atoms: C_16  and  N_17 
REMARK       I    between atoms: N_17  and  C_18 
REMARK    5  A    between atoms: C_18  and  C_19 
REMARK    6  A    between atoms: C_19  and  N_20 
REMARK    7  A    between atoms: C_19  and  C_27 
ROOT
HETATM    1  C   UNL     1      -7.874   1.158 -34.643  1.00  0.00     0.150 C 
ENDROOT
BRANCH   1   2
HETATM    2  C   UNL     1      -6.783   1.660 -33.670  1.00  0.00     0.255 C 
BRANCH   2   3
HETATM    3  N   UNL     1      -7.161   1.486 -32.207  1.00  0.00    -0.063 N 
HETATM    4  C   UNL     1      -6.746   2.568 -31.224  1.00  0.00     0.272 C 
HETATM    5  C   UNL     1      -5.230   2.741 -30.956  1.00  0.00     0.188 C 
HETATM    6  O   UNL     1      -4.592   1.592 -30.369  1.00  0.00    -0.339 OA
HETATM    7  C   UNL     1      -4.346   0.498 -31.138  1.00  0.00     0.077 A 
HETATM    8  C   UNL     1      -5.331  -0.221 -31.816  1.00  0.00     0.001 A 
HETATM    9  C   UNL     1      -3.022   0.047 -31.137  1.00  0.00     0.037 A 
HETATM   10  C   UNL     1      -4.948  -1.342 -32.577  1.00  0.00     0.012 A 
HETATM   11  C   UNL     1      -6.781   0.116 -31.685  1.00  0.00     0.276 C 
HETATM   12  C   UNL     1      -3.614  -1.751 -32.624  1.00  0.00     0.001 A 
HETATM   13  C   UNL     1      -2.653  -1.064 -31.892  1.00  0.00     0.003 A 
HETATM   14  H   UNL     1      -8.188   1.475 -32.176  1.00  0.00     0.280 HD
BRANCH   5  15
HETATM   15  C   UNL     1      -4.481   3.509 -32.041  1.00  0.00    -0.020 A 
HETATM   16  C   UNL     1      -5.081   4.519 -32.782  1.00  0.00     0.059 A 
HETATM   17  S   UNL     1      -4.051   5.212 -33.954  1.00  0.00    -0.113 SA
HETATM   18  C   UNL     1      -2.745   4.245 -33.448  1.00  0.00     0.050 A 
HETATM   19  C   UNL     1      -3.105   3.380 -32.437  1.00  0.00     0.017 A 
ENDBRANCH   5  15
ENDBRANCH   2   3
ENDBRANCH   1   2
BRANCH   1  20
HETATM   20  N   UNL     1      -9.160   1.864 -34.597  1.00  0.00    -0.357 N 
HETATM   21  C   UNL     1     -10.162   1.530 -33.702  1.00  0.00     0.253 C 
HETATM   22  O   UNL     1     -10.110   0.491 -33.049  1.00  0.00    -0.271 OA
HETATM   23  H   UNL     1      -9.146   2.811 -34.971  1.00  0.00     0.162 HD
BRANCH  21  24
HETATM   24  C   UNL     1     -11.353   2.541 -33.572  1.00  0.00     0.314 C 
BRANCH  24  25
HETATM   25  N   UNL     1     -12.718   1.893 -33.252  1.00  0.00    -0.050 N 
HETATM   26  H   UNL     1     -12.543   1.248 -32.470  1.00  0.00     0.281 HD
HETATM   27  C   UNL     1     -13.753   2.906 -32.773  1.00  0.00     0.262 C 
HETATM   28  C   UNL     1     -15.037   2.176 -32.364  1.00  0.00     0.195 C 
HETATM   29  O   UNL     1     -15.548   1.408 -33.456  1.00  0.00    -0.388 OA
HETATM   30  C   UNL     1     -14.626   0.395 -33.875  1.00  0.00     0.195 C 
HETATM   31  C   UNL     1     -13.316   1.025 -34.367  1.00  0.00     0.262 C 
ENDBRANCH  24  25
BRANCH  24  32
HETATM   32  C   UNL     1     -11.036   3.684 -32.635  1.00  0.00    -0.001 A 
HETATM   33  C   UNL     1     -11.205   5.016 -33.009  1.00  0.00     0.126 A 
HETATM   34  N   UNL     1     -10.904   6.063 -32.220  1.00  0.00    -0.272 NA
HETATM   35  C   UNL     1     -10.401   5.800 -30.995  1.00  0.00     0.116 A 
HETATM   36  C   UNL     1     -10.187   4.517 -30.527  1.00  0.00     0.020 A 
HETATM   37  C   UNL     1     -10.507   3.445 -31.359  1.00  0.00     0.012 A 
ENDBRANCH  24  32
ENDBRANCH  21  24
ENDBRANCH   1  20
TORSDOF 7
ENDMDL
MODEL 2
REMARK VINA RESULT:      -8.1      3.990      6.885
REMARK  7 active torsions:
REMARK  status: ('A' for Active; 'I' for Inactive)
REMARK    1  A    between atoms: C_6  and  C_7 
REMARK    2  A    between atoms: N_13  and  C_15 
REMARK    3  A    between atoms: C_15  and  C_16 
REMARK    4  A    between atoms: C_16  and  N_17 
REMARK       I    between atoms: N_17  and  C_18 
REMARK    5  A    between atoms: C_18  and  C_19 
REMARK    6  A    between atoms: C_19  and  N_20 
REMARK    7  A    between atoms: C_19  and  C_27 
ROOT
HETATM    1  C   UNL     1      -3.215   1.255 -31.501  1.00  0.00     0.150 C 
ENDROOT
BRANCH   1   2
HETATM    2  C   UNL     1      -3.229   2.800 -31.520  1.00  0.00     0.255 C 
BRANCH   2   3
HETATM    3  N   UNL     1      -4.038   3.377 -32.672  1.00  0.00    -0.063 N 
HETATM    4  C   UNL     1      -3.452   4.543 -33.449  1.00  0.00     0.272 C 
HETATM    5  C   UNL     1      -3.299   5.891 -32.699  1.00  0.00     0.188 C 
HETATM    6  O   UNL     1      -4.538   6.469 -32.249  1.00  0.00    -0.339 OA
HETATM    7  C   UNL     1      -5.178   5.928 -31.178  1.00  0.00     0.077 A 
HETATM    8  C   UNL     1      -5.609   4.602 -31.109  1.00  0.00     0.001 A 
HETATM    9  C   UNL     1      -5.487   6.822 -30.148  1.00  0.00     0.037 A 
HETATM   10  C   UNL     1      -6.266   4.165 -29.943  1.00  0.00     0.012 A 
HETATM   11  C   UNL     1      -5.468   3.669 -32.267  1.00  0.00     0.276 C 
HETATM   12  C   UNL     1      -6.516   5.046 -28.890  1.00  0.00     0.001 A 
HETATM   13  C   UNL     1      -6.139   6.379 -28.999  1.00  0.00     0.003 A 
HETATM   14  H   UNL     1      -4.137   2.619 -33.360  1.00  0.00     0.280 HD
BRANCH   5  15
HETATM   15  C   UNL     1      -2.089   5.964 -31.773  1.00  0.00    -0.020 A 
HETATM   16  C   UNL     1      -0.875   5.368 -32.092  1.00  0.00     0.059 A 
HETATM   17  S   UNL     1       0.320   5.563 -30.888  1.00  0.00    -0.113 SA
HETATM   18  C   UNL     1      -0.719   6.524 -29.944  1.00  0.00     0.050 A 
HETATM   19  C   UNL     1      -1.966   6.653 -30.517  1.00  0.00     0.017 A 
ENDBRANCH   5  15
ENDBRANCH   2   3
ENDBRANCH   1   2
BRANCH   1  20
HETATM   20  N   UNL     1      -3.834   0.585 -32.652  1.00  0.00    -0.357 N 
HETATM   21  C   UNL     1      -4.343  -0.700 -32.581  1.00  0.00     0.253 C 
HETATM   22  O   UNL     1      -4.109  -1.423 -31.616  1.00  0.00    -0.271 OA
HETATM   23  H   UNL     1      -4.203   1.209 -33.367  1.00  0.00     0.162 HD
BRANCH  21  24
HETATM   24  C   UNL     1      -5.222  -1.174 -33.789  1.00  0.00     0.314 C 
BRANCH  24  25
HETATM   25  N   UNL     1      -5.392  -2.705 -33.902  1.00  0.00    -0.050 N 
HETATM   26  H   UNL     1      -5.741  -3.014 -32.985  1.00  0.00     0.281 HD
HETATM   27  C   UNL     1      -6.440  -3.107 -34.935  1.00  0.00     0.262 C 
HETATM   28  C   UNL     1      -6.637  -4.627 -34.905  1.00  0.00     0.195 C 
HETATM   29  O   UNL     1      -5.400  -5.299 -35.151  1.00  0.00    -0.388 OA
HETATM   30  C   UNL     1      -4.422  -5.001 -34.149  1.00  0.00     0.195 C 
HETATM   31  C   UNL     1      -4.101  -3.500 -34.134  1.00  0.00     0.262 C 
ENDBRANCH  24  25
BRANCH  24  32
HETATM   32  C   UNL     1      -6.548  -0.452 -33.853  1.00  0.00    -0.001 A 
HETATM   33  C   UNL     1      -7.374  -0.323 -32.738  1.00  0.00     0.126 A 
HETATM   34  N   UNL     1      -8.576   0.281 -32.758  1.00  0.00    -0.272 NA
HETATM   35  C   UNL     1      -9.004   0.785 -33.935  1.00  0.00     0.116 A 
HETATM   36  C   UNL     1      -8.268   0.706 -35.103  1.00  0.00     0.020 A 
HETATM   37  C   UNL     1      -7.024   0.077 -35.061  1.00  0.00     0.012 A 
ENDBRANCH  24  32
ENDBRANCH  21  24
ENDBRANCH   1  20
TORSDOF 7
ENDMDL
MODEL 3
REMARK VINA RESULT:      -8.1      3.632      8.198
REMARK  7 active torsions:
REMARK  status: ('A' for Active; 'I' for Inactive)
REMARK    1  A    between atoms: C_6  and  C_7 
REMARK    2  A    between atoms: N_13  and  C_15 
REMARK    3  A    between atoms: C_15  and  C_16 
REMARK    4  A    between atoms: C_16  and  N_17 
REMARK       I    between atoms: N_17  and  C_18 
REMARK    5  A    between atoms: C_18  and  C_19 
REMARK    6  A    between atoms: C_19  and  N_20 
REMARK    7  A    between atoms: C_19  and  C_27 
ROOT
HETATM    1  C   UNL     1      -5.552   4.186 -34.033  1.00  0.00     0.150 C 
ENDROOT
BRANCH   1   2
HETATM    2  C   UNL     1      -6.281   2.912 -33.548  1.00  0.00     0.255 C 
BRANCH   2   3
HETATM    3  N   UNL     1      -6.798   3.024 -32.122  1.00  0.00    -0.063 N 
HETATM    4  C   UNL     1      -6.584   1.847 -31.185  1.00  0.00     0.272 C 
HETATM    5  C   UNL     1      -7.346   0.536 -31.506  1.00  0.00     0.188 C 
HETATM    6  O   UNL     1      -8.780   0.652 -31.461  1.00  0.00    -0.339 OA
HETATM    7  C   UNL     1      -9.430   1.295 -32.468  1.00  0.00     0.077 A 
HETATM    8  C   UNL     1      -9.194   2.620 -32.835  1.00  0.00     0.001 A 
HETATM    9  C   UNL     1     -10.458   0.569 -33.079  1.00  0.00     0.037 A 
HETATM   10  C   UNL     1      -9.940   3.172 -33.894  1.00  0.00     0.012 A 
HETATM   11  C   UNL     1      -8.240   3.486 -32.079  1.00  0.00     0.276 C 
HETATM   12  C   UNL     1     -10.922   2.423 -34.543  1.00  0.00     0.001 A 
HETATM   13  C   UNL     1     -11.191   1.125 -34.125  1.00  0.00     0.003 A 
HETATM   14  H   UNL     1      -6.286   3.805 -31.693  1.00  0.00     0.280 HD
BRANCH   5  15
HETATM   15  C   UNL     1      -6.722  -0.300 -32.619  1.00  0.00    -0.020 A 
HETATM   16  C   UNL     1      -5.436  -0.816 -32.525  1.00  0.00     0.059 A 
HETATM   17  S   UNL     1      -4.949  -1.695 -33.906  1.00  0.00    -0.113 SA
HETATM   18  C   UNL     1      -6.473  -1.489 -34.634  1.00  0.00     0.050 A 
HETATM   19  C   UNL     1      -7.317  -0.725 -33.856  1.00  0.00     0.017 A 
ENDBRANCH   5  15
ENDBRANCH   2   3
ENDBRANCH   1   2
BRANCH   1  20
HETATM   20  N   UNL     1      -4.751   4.897 -33.029  1.00  0.00    -0.357 N 
HETATM   21  C   UNL     1      -3.804   5.848 -33.368  1.00  0.00     0.253 C 
HETATM   22  O   UNL     1      -3.434   5.989 -34.531  1.00  0.00    -0.271 OA
HETATM   23  H   UNL     1      -5.163   4.941 -32.099  1.00  0.00     0.162 HD
BRANCH  21  24
HETATM   24  C   UNL     1      -3.236   6.722 -32.198  1.00  0.00     0.314 C 
BRANCH  24  25
HETATM   25  N   UNL     1      -4.194   6.898 -30.999  1.00  0.00    -0.050 N 
HETATM   26  H   UNL     1      -4.669   5.992 -30.888  1.00  0.00     0.281 HD
HETATM   27  C   UNL     1      -3.459   7.179 -29.693  1.00  0.00     0.262 C 
HETATM   28  C   UNL     1      -4.462   7.224 -28.535  1.00  0.00     0.195 C 
HETATM   29  O   UNL     1      -5.464   8.214 -28.776  1.00  0.00    -0.388 OA
HETATM   30  C   UNL     1      -6.224   7.930 -29.957  1.00  0.00     0.195 C 
HETATM   31  C   UNL     1      -5.318   7.923 -31.196  1.00  0.00     0.262 C 
ENDBRANCH  24  25
BRANCH  24  32
HETATM   32  C   UNL     1      -1.861   6.271 -31.760  1.00  0.00    -0.001 A 
HETATM   33  C   UNL     1      -1.611   4.967 -31.334  1.00  0.00     0.126 A 
HETATM   34  N   UNL     1      -0.412   4.534 -30.904  1.00  0.00    -0.272 NA
HETATM   35  C   UNL     1       0.604   5.423 -30.881  1.00  0.00     0.116 A 
HETATM   36  C   UNL     1       0.463   6.741 -31.274  1.00  0.00     0.020 A 
HETATM   37  C   UNL     1      -0.786   7.170 -31.718  1.00  0.00     0.012 A 
ENDBRANCH  24  32
ENDBRANCH  21  24
ENDBRANCH   1  20
TORSDOF 7
ENDMDL
MODEL 4
REMARK VINA RESULT:      -8.1      3.629      7.267
REMARK  7 active torsions:
REMARK  status: ('A' for Active; 'I' for Inactive)
REMARK    1  A    between atoms: C_6  and  C_7 
REMARK    2  A    between atoms: N_13  and  C_15 
REMARK    3  A    between atoms: C_15  and  C_16 
REMARK    4  A    between atoms: C_16  and  N_17 
REMARK       I    between atoms: N_17  and  C_18 
REMARK    5  A    between atoms: C_18  and  C_19 
REMARK    6  A    between atoms: C_19  and  N_20 
REMARK    7  A    between atoms: C_19  and  C_27 
ROOT
HETATM    1  C   UNL     1      -4.276   3.687 -31.414  1.00  0.00     0.150 C 
ENDROOT
BRANCH   1   2
HETATM    2  C   UNL     1      -2.885   4.330 -31.613  1.00  0.00     0.255 C 
BRANCH   2   3
HETATM    3  N   UNL     1      -2.713   4.975 -32.980  1.00  0.00    -0.063 N 
HETATM    4  C   UNL     1      -1.325   5.440 -33.386  1.00  0.00     0.272 C 
HETATM    5  C   UNL     1      -0.714   6.625 -32.595  1.00  0.00     0.188 C 
HETATM    6  O   UNL     1      -1.449   7.858 -32.704  1.00  0.00    -0.339 OA
HETATM    7  C   UNL     1      -2.624   7.998 -32.034  1.00  0.00     0.077 A 
HETATM    8  C   UNL     1      -3.728   7.161 -32.204  1.00  0.00     0.001 A 
HETATM    9  C   UNL     1      -2.714   9.122 -31.207  1.00  0.00     0.037 A 
HETATM   10  C   UNL     1      -4.891   7.415 -31.453  1.00  0.00     0.012 A 
HETATM   11  C   UNL     1      -3.735   6.067 -33.221  1.00  0.00     0.276 C 
HETATM   12  C   UNL     1      -4.955   8.503 -30.580  1.00  0.00     0.001 A 
HETATM   13  C   UNL     1      -3.870   9.365 -30.468  1.00  0.00     0.003 A 
HETATM   14  H   UNL     1      -2.967   4.256 -33.669  1.00  0.00     0.280 HD
BRANCH   5  15
HETATM   15  C   UNL     1      -0.135   6.246 -31.236  1.00  0.00    -0.020 A 
HETATM   16  C   UNL     1       0.485   5.023 -31.010  1.00  0.00     0.059 A 
HETATM   17  S   UNL     1       1.028   4.818 -29.405  1.00  0.00    -0.113 SA
HETATM   18  C   UNL     1       0.532   6.390 -28.985  1.00  0.00     0.050 A 
HETATM   19  C   UNL     1      -0.077   7.038 -30.038  1.00  0.00     0.017 A 
ENDBRANCH   5  15
ENDBRANCH   2   3
ENDBRANCH   1   2
BRANCH   1  20
HETATM   20  N   UNL     1      -4.701   2.728 -32.441  1.00  0.00    -0.357 N 
HETATM   21  C   UNL     1      -5.389   1.566 -32.137  1.00  0.00     0.253 C 
HETATM   22  O   UNL     1      -5.488   1.172 -30.977  1.00  0.00    -0.271 OA
HETATM   23  H   UNL     1      -4.804   3.115 -33.378  1.00  0.00     0.162 HD
BRANCH  21  24
HETATM   24  C   UNL     1      -6.023   0.790 -33.341  1.00  0.00     0.314 C 
BRANCH  24  25
HETATM   25  N   UNL     1      -5.600  -0.692 -33.449  1.00  0.00    -0.050 N 
HETATM   26  H   UNL     1      -6.057  -1.170 -32.661  1.00  0.00     0.281 HD
HETATM   27  C   UNL     1      -6.103  -1.357 -34.726  1.00  0.00     0.262 C 
HETATM   28  C   UNL     1      -5.747  -2.848 -34.706  1.00  0.00     0.195 C 
HETATM   29  O   UNL     1      -4.336  -3.026 -34.565  1.00  0.00    -0.388 OA
HETATM   30  C   UNL     1      -3.850  -2.480 -33.333  1.00  0.00     0.195 C 
HETATM   31  C   UNL     1      -4.101  -0.967 -33.275  1.00  0.00     0.262 C 
ENDBRANCH  24  25
BRANCH  24  32
HETATM   32  C   UNL     1      -7.524   0.954 -33.404  1.00  0.00    -0.001 A 
HETATM   33  C   UNL     1      -8.132   1.880 -34.251  1.00  0.00     0.126 A 
HETATM   34  N   UNL     1      -9.461   2.084 -34.313  1.00  0.00    -0.272 NA
HETATM   35  C   UNL     1     -10.246   1.347 -33.498  1.00  0.00     0.116 A 
HETATM   36  C   UNL     1      -9.747   0.407 -32.615  1.00  0.00     0.020 A 
HETATM   37  C   UNL     1      -8.368   0.210 -32.567  1.00  0.00     0.012 A 
ENDBRANCH  24  32
ENDBRANCH  21  24
ENDBRANCH   1  20
TORSDOF 7
ENDMDL
MODEL 5
REMARK VINA RESULT:      -8.1      2.377      3.801
REMARK  7 active torsions:
REMARK  status: ('A' for Active; 'I' for Inactive)
REMARK    1  A    between atoms: C_6  and  C_7 
REMARK    2  A    between atoms: N_13  and  C_15 
REMARK    3  A    between atoms: C_15  and  C_16 
REMARK    4  A    between atoms: C_16  and  N_17 
REMARK       I    between atoms: N_17  and  C_18 
REMARK    5  A    between atoms: C_18  and  C_19 
REMARK    6  A    between atoms: C_19  and  N_20 
REMARK    7  A    between atoms: C_19  and  C_27 
ROOT
HETATM    1  C   UNL     1      -8.240   3.635 -33.820  1.00  0.00     0.150 C 
ENDROOT
BRANCH   1   2
HETATM    2  C   UNL     1      -7.703   2.187 -33.754  1.00  0.00     0.255 C 
BRANCH   2   3
HETATM    3  N   UNL     1      -8.277   1.389 -32.593  1.00  0.00    -0.063 N 
HETATM    4  C   UNL     1      -7.703   1.623 -31.207  1.00  0.00     0.272 C 
HETATM    5  C   UNL     1      -6.235   1.188 -30.962  1.00  0.00     0.188 C 
HETATM    6  O   UNL     1      -5.998  -0.224 -31.112  1.00  0.00    -0.339 OA
HETATM    7  C   UNL     1      -5.968  -0.768 -32.357  1.00  0.00     0.077 A 
HETATM    8  C   UNL     1      -7.025  -0.708 -33.266  1.00  0.00     0.001 A 
HETATM    9  C   UNL     1      -4.821  -1.508 -32.662  1.00  0.00     0.037 A 
HETATM   10  C   UNL     1      -6.871  -1.318 -34.525  1.00  0.00     0.012 A 
HETATM   11  C   UNL     1      -8.338  -0.093 -32.903  1.00  0.00     0.276 C 
HETATM   12  C   UNL     1      -5.698  -2.002 -34.849  1.00  0.00     0.001 A 
HETATM   13  C   UNL     1      -4.678  -2.109 -33.911  1.00  0.00     0.003 A 
HETATM   14  H   UNL     1      -9.267   1.657 -32.523  1.00  0.00     0.280 HD
BRANCH   5  15
HETATM   15  C   UNL     1      -5.191   2.159 -31.504  1.00  0.00    -0.020 A 
HETATM   16  C   UNL     1      -5.316   3.535 -31.365  1.00  0.00     0.059 A 
HETATM   17  S   UNL     1      -4.036   4.414 -32.076  1.00  0.00    -0.113 SA
HETATM   18  C   UNL     1      -3.231   2.980 -32.514  1.00  0.00     0.050 A 
HETATM   19  C   UNL     1      -3.950   1.858 -32.164  1.00  0.00     0.017 A 
ENDBRANCH   5  15
ENDBRANCH   2   3
ENDBRANCH   1   2
BRANCH   1  20
HETATM   20  N   UNL     1      -9.681   3.783 -34.058  1.00  0.00    -0.357 N 
HETATM   21  C   UNL     1     -10.584   4.020 -33.036  1.00  0.00     0.253 C 
HETATM   22  O   UNL     1     -10.255   3.904 -31.858  1.00  0.00    -0.271 OA
HETATM   23  H   UNL     1      -9.937   4.072 -35.001  1.00  0.00     0.162 HD
BRANCH  21  24
HETATM   24  C   UNL     1     -12.033   4.438 -33.463  1.00  0.00     0.314 C 
BRANCH  24  25
HETATM   25  N   UNL     1     -12.098   5.425 -34.649  1.00  0.00    -0.050 N 
HETATM   26  H   UNL     1     -11.799   4.888 -35.474  1.00  0.00     0.281 HD
HETATM   27  C   UNL     1     -13.513   5.919 -34.928  1.00  0.00     0.262 C 
HETATM   28  C   UNL     1     -13.515   6.796 -36.185  1.00  0.00     0.195 C 
HETATM   29  O   UNL     1     -12.617   7.896 -36.032  1.00  0.00    -0.388 OA
HETATM   30  C   UNL     1     -11.265   7.460 -35.847  1.00  0.00     0.195 C 
HETATM   31  C   UNL     1     -11.137   6.617 -34.571  1.00  0.00     0.262 C 
ENDBRANCH  24  25
BRANCH  24  32
HETATM   32  C   UNL     1     -12.937   3.244 -33.671  1.00  0.00    -0.001 A 
HETATM   33  C   UNL     1     -12.871   2.459 -34.821  1.00  0.00     0.126 A 
HETATM   34  N   UNL     1     -13.679   1.409 -35.062  1.00  0.00    -0.272 NA
HETATM   35  C   UNL     1     -14.610   1.110 -34.133  1.00  0.00     0.116 A 
HETATM   36  C   UNL     1     -14.766   1.827 -32.961  1.00  0.00     0.020 A 
HETATM   37  C   UNL     1     -13.920   2.910 -32.729  1.00  0.00     0.012 A 
ENDBRANCH  24  32
ENDBRANCH  21  24
ENDBRANCH   1  20
TORSDOF 7
ENDMDL
MODEL 6
REMARK VINA RESULT:      -7.9      1.691      2.139
REMARK  7 active torsions:
REMARK  status: ('A' for Active; 'I' for Inactive)
REMARK    1  A    between atoms: C_6  and  C_7 
REMARK    2  A    between atoms: N_13  and  C_15 
REMARK    3  A    between atoms: C_15  and  C_16 
REMARK    4  A    between atoms: C_16  and  N_17 
REMARK       I    between atoms: N_17  and  C_18 
REMARK    5  A    between atoms: C_18  and  C_19 
REMARK    6  A    between atoms: C_19  and  N_20 
REMARK    7  A    between atoms: C_19  and  C_27 
ROOT
HETATM    1  C   UNL     1      -7.950   3.736 -33.469  1.00  0.00     0.150 C 
ENDROOT
BRANCH   1   2
HETATM    2  C   UNL     1      -7.125   2.480 -33.109  1.00  0.00     0.255 C 
BRANCH   2   3
HETATM    3  N   UNL     1      -7.644   1.757 -31.875  1.00  0.00    -0.063 N 
HETATM    4  C   UNL     1      -7.094   2.164 -30.519  1.00  0.00     0.272 C 
HETATM    5  C   UNL     1      -5.600   1.861 -30.239  1.00  0.00     0.188 C 
HETATM    6  O   UNL     1      -5.261   0.462 -30.253  1.00  0.00    -0.339 OA
HETATM    7  C   UNL     1      -5.187  -0.196 -31.441  1.00  0.00     0.077 A 
HETATM    8  C   UNL     1      -6.243  -0.299 -32.348  1.00  0.00     0.001 A 
HETATM    9  C   UNL     1      -3.989  -0.878 -31.677  1.00  0.00     0.037 A 
HETATM   10  C   UNL     1      -6.041  -1.014 -33.543  1.00  0.00     0.012 A 
HETATM   11  C   UNL     1      -7.598   0.252 -32.042  1.00  0.00     0.276 C 
HETATM   12  C   UNL     1      -4.821  -1.640 -33.804  1.00  0.00     0.001 A 
HETATM   13  C   UNL     1      -3.799  -1.584 -32.863  1.00  0.00     0.003 A 
HETATM   14  H   UNL     1      -8.651   1.959 -31.828  1.00  0.00     0.280 HD
BRANCH   5  15
HETATM   15  C   UNL     1      -4.626   2.847 -30.874  1.00  0.00    -0.020 A 
HETATM   16  C   UNL     1      -4.838   4.220 -30.845  1.00  0.00     0.059 A 
HETATM   17  S   UNL     1      -3.625   5.117 -31.645  1.00  0.00    -0.113 SA
HETATM   18  C   UNL     1      -2.734   3.705 -31.978  1.00  0.00     0.050 A 
HETATM   19  C   UNL     1      -3.375   2.572 -31.527  1.00  0.00     0.017 A 
ENDBRANCH   5  15
ENDBRANCH   2   3
ENDBRANCH   1   2
BRANCH   1  20
HETATM   20  N   UNL     1      -9.250   3.498 -34.108  1.00  0.00    -0.357 N 
HETATM   21  C   UNL     1     -10.416   3.320 -33.382  1.00  0.00     0.253 C 
HETATM   22  O   UNL     1     -10.386   3.138 -32.168  1.00  0.00    -0.271 OA
HETATM   23  H   UNL     1      -9.328   3.832 -35.067  1.00  0.00     0.162 HD
BRANCH  21  24
HETATM   24  C   UNL     1     -11.759   3.363 -34.189  1.00  0.00     0.314 C 
BRANCH  24  25
HETATM   25  N   UNL     1     -12.897   2.506 -33.594  1.00  0.00    -0.050 N 
HETATM   26  H   UNL     1     -12.442   1.853 -32.941  1.00  0.00     0.281 HD
HETATM   27  C   UNL     1     -13.890   3.329 -32.780  1.00  0.00     0.262 C 
HETATM   28  C   UNL     1     -14.918   2.398 -32.126  1.00  0.00     0.195 C 
HETATM   29  O   UNL     1     -15.596   1.623 -33.117  1.00  0.00    -0.388 OA
HETATM   30  C   UNL     1     -14.694   0.779 -33.844  1.00  0.00     0.195 C 
HETATM   31  C   UNL     1     -13.651   1.620 -34.593  1.00  0.00     0.262 C 
ENDBRANCH  24  25
BRANCH  24  32
HETATM   32  C   UNL     1     -12.208   4.776 -34.481  1.00  0.00    -0.001 A 
HETATM   33  C   UNL     1     -12.896   5.107 -35.648  1.00  0.00     0.126 A 
HETATM   34  N   UNL     1     -13.284   6.356 -35.964  1.00  0.00    -0.272 NA
HETATM   35  C   UNL     1     -12.980   7.344 -35.096  1.00  0.00     0.116 A 
HETATM   36  C   UNL     1     -12.295   7.128 -33.914  1.00  0.00     0.020 A 
HETATM   37  C   UNL     1     -11.903   5.826 -33.605  1.00  0.00     0.012 A 
ENDBRANCH  24  32
ENDBRANCH  21  24
ENDBRANCH   1  20
TORSDOF 7
ENDMDL
MODEL 7
REMARK VINA RESULT:      -7.8      4.136      8.904
REMARK  7 active torsions:
REMARK  status: ('A' for Active; 'I' for Inactive)
REMARK    1  A    between atoms: C_6  and  C_7 
REMARK    2  A    between atoms: N_13  and  C_15 
REMARK    3  A    between atoms: C_15  and  C_16 
REMARK    4  A    between atoms: C_16  and  N_17 
REMARK       I    between atoms: N_17  and  C_18 
REMARK    5  A    between atoms: C_18  and  C_19 
REMARK    6  A    between atoms: C_19  and  N_20 
REMARK    7  A    between atoms: C_19  and  C_27 
ROOT
HETATM    1  C   UNL     1      -6.356   6.523 -31.163  1.00  0.00     0.150 C 
ENDROOT
BRANCH   1   2
HETATM    2  C   UNL     1      -6.521   5.032 -31.534  1.00  0.00     0.255 C 
BRANCH   2   3
HETATM    3  N   UNL     1      -5.497   4.551 -32.551  1.00  0.00    -0.063 N 
HETATM    4  C   UNL     1      -5.978   4.210 -33.950  1.00  0.00     0.272 C 
HETATM    5  C   UNL     1      -6.910   2.980 -34.101  1.00  0.00     0.188 C 
HETATM    6  O   UNL     1      -6.314   1.728 -33.713  1.00  0.00    -0.339 OA
HETATM    7  C   UNL     1      -6.137   1.452 -32.394  1.00  0.00     0.077 A 
HETATM    8  C   UNL     1      -5.386   2.240 -31.521  1.00  0.00     0.001 A 
HETATM    9  C   UNL     1      -6.680   0.240 -31.955  1.00  0.00     0.037 A 
HETATM   10  C   UNL     1      -5.275   1.842 -30.175  1.00  0.00     0.012 A 
HETATM   11  C   UNL     1      -4.631   3.439 -31.997  1.00  0.00     0.276 C 
HETATM   12  C   UNL     1      -5.872   0.664 -29.727  1.00  0.00     0.001 A 
HETATM   13  C   UNL     1      -6.564  -0.145 -30.621  1.00  0.00     0.003 A 
HETATM   14  H   UNL     1      -4.834   5.327 -32.677  1.00  0.00     0.280 HD
BRANCH   5  15
HETATM   15  C   UNL     1      -8.363   3.238 -33.717  1.00  0.00    -0.020 A 
HETATM   16  C   UNL     1      -9.014   4.423 -34.037  1.00  0.00     0.059 A 
HETATM   17  S   UNL     1     -10.627   4.490 -33.479  1.00  0.00    -0.113 SA
HETATM   18  C   UNL     1     -10.533   2.904 -32.870  1.00  0.00     0.050 A 
HETATM   19  C   UNL     1      -9.281   2.355 -33.050  1.00  0.00     0.017 A 
ENDBRANCH   5  15
ENDBRANCH   2   3
ENDBRANCH   1   2
BRANCH   1  20
HETATM   20  N   UNL     1      -4.980   7.030 -31.108  1.00  0.00    -0.357 N 
HETATM   21  C   UNL     1      -4.125   6.754 -30.055  1.00  0.00     0.253 C 
HETATM   22  O   UNL     1      -4.542   6.252 -29.014  1.00  0.00    -0.271 OA
HETATM   23  H   UNL     1      -4.570   7.266 -32.010  1.00  0.00     0.162 HD
BRANCH  21  24
HETATM   24  C   UNL     1      -2.614   7.115 -30.263  1.00  0.00     0.314 C 
BRANCH  24  25
HETATM   25  N   UNL     1      -1.661   6.552 -29.186  1.00  0.00    -0.050 N 
HETATM   26  H   UNL     1      -1.973   5.587 -29.015  1.00  0.00     0.281 HD
HETATM   27  C   UNL     1      -0.214   6.475 -29.663  1.00  0.00     0.262 C 
HETATM   28  C   UNL     1       0.647   5.800 -28.589  1.00  0.00     0.195 C 
HETATM   29  O   UNL     1       0.559   6.512 -27.353  1.00  0.00    -0.388 OA
HETATM   30  C   UNL     1      -0.779   6.532 -26.842  1.00  0.00     0.195 C 
HETATM   31  C   UNL     1      -1.722   7.246 -27.820  1.00  0.00     0.262 C 
ENDBRANCH  24  25
BRANCH  24  32
HETATM   32  C   UNL     1      -2.136   6.800 -31.662  1.00  0.00    -0.001 A 
HETATM   33  C   UNL     1      -1.891   7.799 -32.603  1.00  0.00     0.126 A 
HETATM   34  N   UNL     1      -1.498   7.561 -33.868  1.00  0.00    -0.272 NA
HETATM   35  C   UNL     1      -1.341   6.274 -34.242  1.00  0.00     0.116 A 
HETATM   36  C   UNL     1      -1.564   5.207 -33.392  1.00  0.00     0.020 A 
HETATM   37  C   UNL     1      -1.969   5.474 -32.085  1.00  0.00     0.012 A 
ENDBRANCH  24  32
ENDBRANCH  21  24
ENDBRANCH   1  20
TORSDOF 7
ENDMDL
MODEL 8
REMARK VINA RESULT:      -7.6      5.475     10.001
REMARK  7 active torsions:
REMARK  status: ('A' for Active; 'I' for Inactive)
REMARK    1  A    between atoms: C_6  and  C_7 
REMARK    2  A    between atoms: N_13  and  C_15 
REMARK    3  A    between atoms: C_15  and  C_16 
REMARK    4  A    between atoms: C_16  and  N_17 
REMARK       I    between atoms: N_17  and  C_18 
REMARK    5  A    between atoms: C_18  and  C_19 
REMARK    6  A    between atoms: C_19  and  N_20 
REMARK    7  A    between atoms: C_19  and  C_27 
ROOT
HETATM    1  C   UNL     1      -4.959   5.871 -29.149  1.00  0.00     0.150 C 
ENDROOT
BRANCH   1   2
HETATM    2  C   UNL     1      -5.445   5.052 -30.366  1.00  0.00     0.255 C 
BRANCH   2   3
HETATM    3  N   UNL     1      -6.449   5.800 -31.229  1.00  0.00    -0.063 N 
HETATM    4  C   UNL     1      -7.492   4.993 -31.983  1.00  0.00     0.272 C 
HETATM    5  C   UNL     1      -6.990   4.071 -33.122  1.00  0.00     0.188 C 
HETATM    6  O   UNL     1      -6.352   4.761 -34.212  1.00  0.00    -0.339 OA
HETATM    7  C   UNL     1      -5.099   5.262 -34.045  1.00  0.00     0.077 A 
HETATM    8  C   UNL     1      -4.751   6.194 -33.066  1.00  0.00     0.001 A 
HETATM    9  C   UNL     1      -4.158   4.861 -34.999  1.00  0.00     0.037 A 
HETATM   10  C   UNL     1      -3.417   6.639 -33.000  1.00  0.00     0.012 A 
HETATM   11  C   UNL     1      -5.771   6.791 -32.152  1.00  0.00     0.276 C 
HETATM   12  C   UNL     1      -2.466   6.187 -33.916  1.00  0.00     0.001 A 
HETATM   13  C   UNL     1      -2.841   5.308 -34.925  1.00  0.00     0.003 A 
HETATM   14  H   UNL     1      -6.985   6.401 -30.590  1.00  0.00     0.280 HD
BRANCH   5  15
HETATM   15  C   UNL     1      -6.385   2.754 -32.648  1.00  0.00    -0.020 A 
HETATM   16  C   UNL     1      -7.157   1.743 -32.088  1.00  0.00     0.059 A 
HETATM   17  S   UNL     1      -6.253   0.376 -31.610  1.00  0.00    -0.113 SA
HETATM   18  C   UNL     1      -4.815   1.055 -32.217  1.00  0.00     0.050 A 
HETATM   19  C   UNL     1      -5.018   2.318 -32.731  1.00  0.00     0.017 A 
ENDBRANCH   5  15
ENDBRANCH   2   3
ENDBRANCH   1   2
BRANCH   1  20
HETATM   20  N   UNL     1      -3.569   6.340 -29.196  1.00  0.00    -0.357 N 
HETATM   21  C   UNL     1      -3.237   7.680 -29.297  1.00  0.00     0.253 C 
HETATM   22  O   UNL     1      -4.085   8.526 -29.570  1.00  0.00    -0.271 OA
HETATM   23  H   UNL     1      -2.884   5.706 -28.787  1.00  0.00     0.162 HD
BRANCH  21  24
HETATM   24  C   UNL     1      -1.734   8.052 -29.049  1.00  0.00     0.314 C 
BRANCH  24  25
HETATM   25  N   UNL     1      -1.417   8.535 -27.617  1.00  0.00    -0.050 N 
HETATM   26  H   UNL     1      -0.561   8.037 -27.339  1.00  0.00     0.281 HD
HETATM   27  C   UNL     1      -1.104  10.027 -27.554  1.00  0.00     0.262 C 
HETATM   28  C   UNL     1      -0.685  10.407 -26.129  1.00  0.00     0.195 C 
HETATM   29  O   UNL     1      -1.711  10.065 -25.196  1.00  0.00    -0.388 OA
HETATM   30  C   UNL     1      -1.970   8.656 -25.177  1.00  0.00     0.195 C 
HETATM   31  C   UNL     1      -2.459   8.177 -26.551  1.00  0.00     0.262 C 
ENDBRANCH  24  25
BRANCH  24  32
HETATM   32  C   UNL     1      -0.791   6.961 -29.500  1.00  0.00    -0.001 A 
HETATM   33  C   UNL     1      -0.114   6.147 -28.593  1.00  0.00     0.126 A 
HETATM   34  N   UNL     1       0.759   5.187 -28.949  1.00  0.00    -0.272 NA
HETATM   35  C   UNL     1       0.995   5.013 -30.267  1.00  0.00     0.116 A 
HETATM   36  C   UNL     1       0.383   5.770 -31.250  1.00  0.00     0.020 A 
HETATM   37  C   UNL     1      -0.520   6.758 -30.860  1.00  0.00     0.012 A 
ENDBRANCH  24  32
ENDBRANCH  21  24
ENDBRANCH   1  20
TORSDOF 7
ENDMDL
MODEL 9
REMARK VINA RESULT:      -7.5      3.656      7.141
REMARK  7 active torsions:
REMARK  status: ('A' for Active; 'I' for Inactive)
REMARK    1  A    between atoms: C_6  and  C_7 
REMARK    2  A    between atoms: N_13  and  C_15 
REMARK    3  A    between atoms: C_15  and  C_16 
REMARK    4  A    between atoms: C_16  and  N_17 
REMARK       I    between atoms: N_17  and  C_18 
REMARK    5  A    between atoms: C_18  and  C_19 
REMARK    6  A    between atoms: C_19  and  N_20 
REMARK    7  A    between atoms: C_19  and  C_27 
ROOT
HETATM    1  C   UNL     1      -4.514   4.366 -31.068  1.00  0.00     0.150 C 
ENDROOT
BRANCH   1   2
HETATM    2  C   UNL     1      -3.032   4.668 -31.386  1.00  0.00     0.255 C 
BRANCH   2   3
HETATM    3  N   UNL     1      -2.831   5.305 -32.752  1.00  0.00    -0.063 N 
HETATM    4  C   UNL     1      -1.416   5.655 -33.180  1.00  0.00     0.272 C 
HETATM    5  C   UNL     1      -0.694   6.780 -32.396  1.00  0.00     0.188 C 
HETATM    6  O   UNL     1      -1.325   8.071 -32.486  1.00  0.00    -0.339 OA
HETATM    7  C   UNL     1      -2.472   8.304 -31.794  1.00  0.00     0.077 A 
HETATM    8  C   UNL     1      -3.646   7.564 -31.949  1.00  0.00     0.001 A 
HETATM    9  C   UNL     1      -2.454   9.427 -30.960  1.00  0.00     0.037 A 
HETATM   10  C   UNL     1      -4.770   7.910 -31.175  1.00  0.00     0.012 A 
HETATM   11  C   UNL     1      -3.762   6.480 -32.970  1.00  0.00     0.276 C 
HETATM   12  C   UNL     1      -4.727   8.994 -30.297  1.00  0.00     0.001 A 
HETATM   13  C   UNL     1      -3.573   9.761 -30.200  1.00  0.00     0.003 A 
HETATM   14  H   UNL     1      -3.156   4.614 -33.440  1.00  0.00     0.280 HD
BRANCH   5  15
HETATM   15  C   UNL     1      -0.126   6.346 -31.049  1.00  0.00    -0.020 A 
HETATM   16  C   UNL     1       0.569   5.153 -30.888  1.00  0.00     0.059 A 
HETATM   17  S   UNL     1       1.084   4.872 -29.285  1.00  0.00    -0.113 SA
HETATM   18  C   UNL     1       0.473   6.376 -28.774  1.00  0.00     0.050 A 
HETATM   19  C   UNL     1      -0.151   7.054 -29.799  1.00  0.00     0.017 A 
ENDBRANCH   5  15
ENDBRANCH   2   3
ENDBRANCH   1   2
BRANCH   1  20
HETATM   20  N   UNL     1      -4.980   3.008 -31.377  1.00  0.00    -0.357 N 
HETATM   21  C   UNL     1      -6.037   2.413 -30.710  1.00  0.00     0.253 C 
HETATM   22  O   UNL     1      -6.498   2.905 -29.684  1.00  0.00    -0.271 OA
HETATM   23  H   UNL     1      -4.756   2.677 -32.314  1.00  0.00     0.162 HD
BRANCH  21  24
HETATM   24  C   UNL     1      -6.604   1.090 -31.331  1.00  0.00     0.314 C 
BRANCH  24  25
HETATM   25  N   UNL     1      -7.741   1.293 -32.357  1.00  0.00    -0.050 N 
HETATM   26  H   UNL     1      -7.416   0.846 -33.224  1.00  0.00     0.281 HD
HETATM   27  C   UNL     1      -9.032   0.592 -31.950  1.00  0.00     0.262 C 
HETATM   28  C   UNL     1     -10.072   0.738 -33.067  1.00  0.00     0.195 C 
HETATM   29  O   UNL     1     -10.314   2.118 -33.351  1.00  0.00    -0.388 OA
HETATM   30  C   UNL     1      -9.132   2.783 -33.812  1.00  0.00     0.195 C 
HETATM   31  C   UNL     1      -8.037   2.749 -32.737  1.00  0.00     0.262 C 
ENDBRANCH  24  25
BRANCH  24  32
HETATM   32  C   UNL     1      -5.511   0.195 -31.870  1.00  0.00    -0.001 A 
HETATM   33  C   UNL     1      -5.572  -0.362 -33.146  1.00  0.00     0.126 A 
HETATM   34  N   UNL     1      -4.640  -1.190 -33.651  1.00  0.00    -0.272 NA
HETATM   35  C   UNL     1      -3.587  -1.501 -32.865  1.00  0.00     0.116 A 
HETATM   36  C   UNL     1      -3.432  -1.011 -31.582  1.00  0.00     0.020 A 
HETATM   37  C   UNL     1      -4.408  -0.153 -31.077  1.00  0.00     0.012 A 
ENDBRANCH  24  32
ENDBRANCH  21  24
ENDBRANCH   1  20
TORSDOF 7
ENDMDL
MODEL 10
REMARK VINA RESULT:      -7.5      3.400      7.317
REMARK  7 active torsions:
REMARK  status: ('A' for Active; 'I' for Inactive)
REMARK    1  A    between atoms: C_6  and  C_7 
REMARK    2  A    between atoms: N_13  and  C_15 
REMARK    3  A    between atoms: C_15  and  C_16 
REMARK    4  A    between atoms: C_16  and  N_17 
REMARK       I    between atoms: N_17  and  C_18 
REMARK    5  A    between atoms: C_18  and  C_19 
REMARK    6  A    between atoms: C_19  and  N_20 
REMARK    7  A    between atoms: C_19  and  C_27 
ROOT
HETATM    1  C   UNL     1      -7.585   5.220 -33.676  1.00  0.00     0.150 C 
ENDROOT
BRANCH   1   2
HETATM    2  C   UNL     1      -7.673   3.682 -33.807  1.00  0.00     0.255 C 
BRANCH   2   3
HETATM    3  N   UNL     1      -9.086   3.147 -33.632  1.00  0.00    -0.063 N 
HETATM    4  C   UNL     1      -9.600   2.923 -32.221  1.00  0.00     0.272 C 
HETATM    5  C   UNL     1      -8.924   1.805 -31.387  1.00  0.00     0.188 C 
HETATM    6  O   UNL     1      -9.069   0.482 -31.934  1.00  0.00    -0.339 OA
HETATM    7  C   UNL     1      -8.343   0.127 -33.027  1.00  0.00     0.077 A 
HETATM    8  C   UNL     1      -8.395   0.791 -34.253  1.00  0.00     0.001 A 
HETATM    9  C   UNL     1      -7.585  -1.042 -32.892  1.00  0.00     0.037 A 
HETATM   10  C   UNL     1      -7.595   0.321 -35.312  1.00  0.00     0.012 A 
HETATM   11  C   UNL     1      -9.337   1.926 -34.492  1.00  0.00     0.276 C 
HETATM   12  C   UNL     1      -6.792  -0.809 -35.153  1.00  0.00     0.001 A 
HETATM   13  C   UNL     1      -6.798  -1.499 -33.947  1.00  0.00     0.003 A 
HETATM   14  H   UNL     1      -9.712   3.855 -34.037  1.00  0.00     0.280 HD
BRANCH   5  15
HETATM   15  C   UNL     1      -7.580   2.194 -30.782  1.00  0.00    -0.020 A 
HETATM   16  C   UNL     1      -7.356   3.443 -30.215  1.00  0.00     0.059 A 
HETATM   17  S   UNL     1      -5.766   3.654 -29.629  1.00  0.00    -0.113 SA
HETATM   18  C   UNL     1      -5.353   2.053 -30.034  1.00  0.00     0.050 A 
HETATM   19  C   UNL     1      -6.396   1.391 -30.646  1.00  0.00     0.017 A 
ENDBRANCH   5  15
ENDBRANCH   2   3
ENDBRANCH   1   2
BRANCH   1  20
HETATM   20  N   UNL     1      -6.581   5.734 -32.737  1.00  0.00    -0.357 N 
HETATM   21  C   UNL     1      -5.278   6.012 -33.115  1.00  0.00     0.253 C 
HETATM   22  O   UNL     1      -4.839   5.638 -34.200  1.00  0.00    -0.271 OA
HETATM   23  H   UNL     1      -6.958   6.219 -31.924  1.00  0.00     0.162 HD
BRANCH  21  24
HETATM   24  C   UNL     1      -4.406   6.817 -32.092  1.00  0.00     0.314 C 
BRANCH  24  25
HETATM   25  N   UNL     1      -5.059   7.022 -30.708  1.00  0.00    -0.050 N 
HETATM   26  H   UNL     1      -5.601   6.167 -30.526  1.00  0.00     0.281 HD
HETATM   27  C   UNL     1      -4.034   7.147 -29.585  1.00  0.00     0.262 C 
HETATM   28  C   UNL     1      -4.755   7.228 -28.235  1.00  0.00     0.195 C 
HETATM   29  O   UNL     1      -5.663   8.332 -28.216  1.00  0.00    -0.388 OA
HETATM   30  C   UNL     1      -6.685   8.200 -29.211  1.00  0.00     0.195 C 
HETATM   31  C   UNL     1      -6.072   8.170 -30.618  1.00  0.00     0.262 C 
ENDBRANCH  24  25
BRANCH  24  32
HETATM   32  C   UNL     1      -3.002   6.269 -31.979  1.00  0.00    -0.001 A 
HETATM   33  C   UNL     1      -2.749   4.963 -31.562  1.00  0.00     0.126 A 
HETATM   34  N   UNL     1      -1.516   4.445 -31.414  1.00  0.00    -0.272 NA
HETATM   35  C   UNL     1      -0.464   5.249 -31.681  1.00  0.00     0.116 A 
HETATM   36  C   UNL     1      -0.602   6.561 -32.094  1.00  0.00     0.020 A 
HETATM   37  C   UNL     1      -1.888   7.078 -32.242  1.00  0.00     0.012 A 
ENDBRANCH  24  32
ENDBRANCH  21  24
ENDBRANCH   1  20
TORSDOF 7
ENDMDL
