MODEL 1
REMARK VINA RESULT:     -10.0      0.000      0.000
REMARK  7 active torsions:
REMARK  status: ('A' for Active; 'I' for Inactive)
REMARK    1  A    between atoms: C_2  and  C_3 
REMARK    2  A    between atoms: C_6  and  N_7 
REMARK       I    between atoms: N_7  and  C_8 
REMARK       I    between atoms: C_8  and  N_9 
REMARK    3  A    between atoms: N_13  and  C_14 
REMARK    4  A    between atoms: N_21  and  C_22 
REMARK    5  A    between atoms: C_22  and  C_23 
REMARK       I    between atoms: C_23  and  N_24 
REMARK    6  A    between atoms: N_24  and  C_25 
REMARK    7  A    between atoms: C_25  and  C_26 
ROOT
HETATM    1  N   UNL     1      -3.557   5.273 -30.815  1.00  0.00    -0.309 N 
HETATM    2  C   UNL     1      -3.934   5.287 -32.138  1.00  0.00     0.322 C 
HETATM    3  N   UNL     1      -5.111   4.583 -32.424  1.00  0.00    -0.334 N 
HETATM    4  C   UNL     1      -5.597   4.656 -33.800  1.00  0.00     0.130 C 
HETATM    5  C   UNL     1      -6.199   3.335 -34.258  1.00  0.00     0.061 C 
HETATM    6  C   UNL     1      -7.184   2.740 -33.236  1.00  0.00     0.118 C 
HETATM    7  N   UNL     1      -7.563   1.335 -33.584  1.00  0.00    -0.346 N 
HETATM    8  C   UNL     1      -8.893   1.301 -34.184  1.00  0.00     0.254 C 
HETATM    9  N   UNL     1      -9.444   2.598 -33.930  1.00  0.00    -0.325 N 
HETATM   10  C   UNL     1      -8.520   3.487 -33.425  1.00  0.00     0.250 C 
HETATM   11  O   UNL     1      -8.727   4.673 -33.216  1.00  0.00    -0.270 OA
HETATM   12  C   UNL     1      -6.774   2.878 -31.763  1.00  0.00     0.061 C 
HETATM   13  C   UNL     1      -6.147   4.234 -31.450  1.00  0.00     0.130 C 
HETATM   14  O   UNL     1      -3.305   5.856 -33.026  1.00  0.00    -0.247 OA
HETATM   15  H   UNL     1      -3.952   4.546 -30.244  1.00  0.00     0.170 HD
ENDROOT
BRANCH   7  16
HETATM   16  C   UNL     1      -6.705   0.257 -33.749  1.00  0.00     0.032 A 
HETATM   17  C   UNL     1      -5.487   0.128 -33.060  1.00  0.00     0.029 A 
HETATM   18  C   UNL     1      -4.613  -0.953 -33.255  1.00  0.00     0.002 A 
HETATM   19  C   UNL     1      -4.943  -1.965 -34.142  1.00  0.00     0.000 A 
HETATM   20  C   UNL     1      -6.150  -1.897 -34.821  1.00  0.00     0.002 A 
HETATM   21  C   UNL     1      -7.013  -0.809 -34.619  1.00  0.00     0.029 A 
ENDBRANCH   7  16
BRANCH   9  22
HETATM   22  C   UNL     1     -10.655   3.039 -34.602  1.00  0.00     0.230 C 
BRANCH  22  23
HETATM   23  C   UNL     1     -11.799   2.030 -34.644  1.00  0.00     0.235 C 
HETATM   24  N   UNL     1     -12.377   1.734 -33.435  1.00  0.00    -0.354 N 
HETATM   25  H   UNL     1     -12.070   2.212 -32.594  1.00  0.00     0.162 HD
HETATM   26  O   UNL     1     -12.258   1.625 -35.711  1.00  0.00    -0.272 OA
BRANCH  24  27
HETATM   27  C   UNL     1     -13.612   0.988 -33.391  1.00  0.00     0.187 C 
BRANCH  27  28
HETATM   28  C   UNL     1     -14.722   1.798 -32.829  1.00  0.00     0.070 A 
HETATM   29  O   UNL     1     -15.996   1.534 -33.251  1.00  0.00    -0.325 OA
HETATM   30  C   UNL     1     -16.815   2.405 -32.606  1.00  0.00     0.142 A 
HETATM   31  C   UNL     1     -16.090   3.222 -31.772  1.00  0.00     0.027 A 
HETATM   32  C   UNL     1     -14.739   2.831 -31.913  1.00  0.00     0.036 A 
ENDBRANCH  27  28
ENDBRANCH  24  27
ENDBRANCH  22  23
ENDBRANCH   9  22
BRANCH   1  33
HETATM   33  C   UNL     1      -2.551   6.045 -30.194  1.00  0.00     0.036 A 
HETATM   34  C   UNL     1      -2.799   7.146 -29.375  1.00  0.00     0.030 A 
HETATM   35  C   UNL     1      -1.744   7.833 -28.761  1.00  0.00     0.010 A 
HETATM   36  C   UNL     1      -0.417   7.420 -28.932  1.00  0.00    -0.055 A 
HETATM   37  C   UNL     1      -0.170   6.326 -29.770  1.00  0.00     0.010 A 
HETATM   38  C   UNL     1      -1.224   5.649 -30.396  1.00  0.00     0.030 A 
BRANCH  36  39
HETATM   39  C   UNL     1       0.743   8.127 -28.255  1.00  0.00     0.010 C 
HETATM   40  C   UNL     1       1.411   7.281 -27.166  1.00  0.00     0.015 C 
HETATM   41  C   UNL     1       0.298   9.478 -27.692  1.00  0.00     0.015 C 
ENDBRANCH  36  39
ENDBRANCH   1  33
TORSDOF 7
ENDMDL
MODEL 2
REMARK VINA RESULT:      -9.9      1.706      2.328
REMARK  7 active torsions:
REMARK  status: ('A' for Active; 'I' for Inactive)
REMARK    1  A    between atoms: C_2  and  C_3 
REMARK    2  A    between atoms: C_6  and  N_7 
REMARK       I    between atoms: N_7  and  C_8 
REMARK       I    between atoms: C_8  and  N_9 
REMARK    3  A    between atoms: N_13  and  C_14 
REMARK    4  A    between atoms: N_21  and  C_22 
REMARK    5  A    between atoms: C_22  and  C_23 
REMARK       I    between atoms: C_23  and  N_24 
REMARK    6  A    between atoms: N_24  and  C_25 
REMARK    7  A    between atoms: C_25  and  C_26 
ROOT
HETATM    1  N   UNL     1      -2.283   6.132 -29.715  1.00  0.00    -0.309 N 
HETATM    2  C   UNL     1      -2.495   5.983 -31.066  1.00  0.00     0.322 C 
HETATM    3  N   UNL     1      -3.640   5.248 -31.406  1.00  0.00    -0.334 N 
HETATM    4  C   UNL     1      -3.953   5.151 -32.830  1.00  0.00     0.130 C 
HETATM    5  C   UNL     1      -4.513   3.783 -33.193  1.00  0.00     0.061 C 
HETATM    6  C   UNL     1      -5.624   3.318 -32.236  1.00  0.00     0.118 C 
HETATM    7  N   UNL     1      -5.978   1.881 -32.453  1.00  0.00    -0.346 N 
HETATM    8  C   UNL     1      -7.226   1.773 -33.203  1.00  0.00     0.254 C 
HETATM    9  N   UNL     1      -7.785   3.090 -33.179  1.00  0.00    -0.325 N 
HETATM   10  C   UNL     1      -6.916   4.035 -32.677  1.00  0.00     0.250 C 
HETATM   11  O   UNL     1      -7.130   5.238 -32.641  1.00  0.00    -0.270 OA
HETATM   12  C   UNL     1      -5.395   3.636 -30.751  1.00  0.00     0.061 C 
HETATM   13  C   UNL     1      -4.791   5.020 -30.531  1.00  0.00     0.130 C 
HETATM   14  O   UNL     1      -1.754   6.439 -31.933  1.00  0.00    -0.247 OA
HETATM   15  H   UNL     1      -2.755   5.479 -29.113  1.00  0.00     0.170 HD
ENDROOT
BRANCH   7  16
HETATM   16  C   UNL     1      -5.122   0.791 -32.379  1.00  0.00     0.032 A 
HETATM   17  C   UNL     1      -4.096   0.679 -31.424  1.00  0.00     0.029 A 
HETATM   18  C   UNL     1      -3.218  -0.414 -31.375  1.00  0.00     0.002 A 
HETATM   19  C   UNL     1      -3.353  -1.457 -32.279  1.00  0.00     0.000 A 
HETATM   20  C   UNL     1      -4.370  -1.406 -33.218  1.00  0.00     0.002 A 
HETATM   21  C   UNL     1      -5.239  -0.305 -33.258  1.00  0.00     0.029 A 
ENDBRANCH   7  16
BRANCH   9  22
HETATM   22  C   UNL     1      -8.898   3.445 -34.042  1.00  0.00     0.230 C 
BRANCH  22  23
HETATM   23  C   UNL     1     -10.255   3.581 -33.358  1.00  0.00     0.235 C 
HETATM   24  N   UNL     1     -11.347   3.552 -34.189  1.00  0.00    -0.354 N 
HETATM   25  H   UNL     1     -11.224   3.398 -35.184  1.00  0.00     0.162 HD
HETATM   26  O   UNL     1     -10.360   3.573 -32.132  1.00  0.00    -0.272 OA
BRANCH  24  27
HETATM   27  C   UNL     1     -12.673   3.427 -33.632  1.00  0.00     0.187 C 
BRANCH  27  28
HETATM   28  C   UNL     1     -13.171   2.031 -33.707  1.00  0.00     0.070 A 
HETATM   29  O   UNL     1     -14.522   1.825 -33.741  1.00  0.00    -0.325 OA
HETATM   30  C   UNL     1     -14.717   0.482 -33.798  1.00  0.00     0.142 A 
HETATM   31  C   UNL     1     -13.512  -0.181 -33.806  1.00  0.00     0.027 A 
HETATM   32  C   UNL     1     -12.513   0.818 -33.749  1.00  0.00     0.036 A 
ENDBRANCH  27  28
ENDBRANCH  24  27
ENDBRANCH  22  23
ENDBRANCH   9  22
BRANCH   1  33
HETATM   33  C   UNL     1      -1.348   6.975 -29.075  1.00  0.00     0.036 A 
HETATM   34  C   UNL     1      -1.588   8.310 -28.752  1.00  0.00     0.030 A 
HETATM   35  C   UNL     1      -0.622   9.067 -28.076  1.00  0.00     0.010 A 
HETATM   36  C   UNL     1       0.596   8.499 -27.685  1.00  0.00    -0.055 A 
HETATM   37  C   UNL     1       0.841   7.164 -28.027  1.00  0.00     0.010 A 
HETATM   38  C   UNL     1      -0.118   6.412 -28.716  1.00  0.00     0.030 A 
BRANCH  36  39
HETATM   39  C   UNL     1       1.648   9.287 -26.925  1.00  0.00     0.010 C 
HETATM   40  C   UNL     1       2.281   8.494 -25.777  1.00  0.00     0.015 C 
HETATM   41  C   UNL     1       1.070  10.608 -26.415  1.00  0.00     0.015 C 
ENDBRANCH  36  39
ENDBRANCH   1  33
TORSDOF 7
ENDMDL
MODEL 3
REMARK VINA RESULT:      -9.7      4.704     10.226
REMARK  7 active torsions:
REMARK  status: ('A' for Active; 'I' for Inactive)
REMARK    1  A    between atoms: C_2  and  C_3 
REMARK    2  A    between atoms: C_6  and  N_7 
REMARK       I    between atoms: N_7  and  C_8 
REMARK       I    between atoms: C_8  and  N_9 
REMARK    3  A    between atoms: N_13  and  C_14 
REMARK    4  A    between atoms: N_21  and  C_22 
REMARK    5  A    between atoms: C_22  and  C_23 
REMARK       I    between atoms: C_23  and  N_24 
REMARK    6  A    between atoms: N_24  and  C_25 
REMARK    7  A    between atoms: C_25  and  C_26 
ROOT
HETATM    1  N   UNL     1      -5.125   1.545 -33.083  1.00  0.00    -0.309 N 
HETATM    2  C   UNL     1      -5.307   2.050 -31.816  1.00  0.00     0.322 C 
HETATM    3  N   UNL     1      -5.305   3.449 -31.732  1.00  0.00    -0.334 N 
HETATM    4  C   UNL     1      -5.593   4.024 -30.420  1.00  0.00     0.130 C 
HETATM    5  C   UNL     1      -4.763   5.272 -30.155  1.00  0.00     0.061 C 
HETATM    6  C   UNL     1      -4.781   6.263 -31.333  1.00  0.00     0.118 C 
HETATM    7  N   UNL     1      -3.766   7.349 -31.160  1.00  0.00    -0.346 N 
HETATM    8  C   UNL     1      -4.412   8.582 -30.721  1.00  0.00     0.254 C 
HETATM    9  N   UNL     1      -5.811   8.355 -30.919  1.00  0.00    -0.325 N 
HETATM   10  C   UNL     1      -6.106   7.045 -31.231  1.00  0.00     0.250 C 
HETATM   11  O   UNL     1      -7.233   6.588 -31.355  1.00  0.00    -0.270 OA
HETATM   12  C   UNL     1      -4.715   5.631 -32.730  1.00  0.00     0.061 C 
HETATM   13  C   UNL     1      -5.559   4.365 -32.846  1.00  0.00     0.130 C 
HETATM   14  O   UNL     1      -5.453   1.355 -30.813  1.00  0.00    -0.247 OA
HETATM   15  H   UNL     1      -4.716   2.168 -33.758  1.00  0.00     0.170 HD
ENDROOT
BRANCH   7  16
HETATM   16  C   UNL     1      -2.397   7.192 -30.996  1.00  0.00     0.032 A 
HETATM   17  C   UNL     1      -1.511   6.982 -32.066  1.00  0.00     0.029 A 
HETATM   18  C   UNL     1      -0.131   6.798 -31.887  1.00  0.00     0.002 A 
HETATM   19  C   UNL     1       0.418   6.838 -30.615  1.00  0.00     0.000 A 
HETATM   20  C   UNL     1      -0.413   7.073 -29.531  1.00  0.00     0.002 A 
HETATM   21  C   UNL     1      -1.791   7.253 -29.724  1.00  0.00     0.029 A 
ENDBRANCH   7  16
BRANCH   9  22
HETATM   22  C   UNL     1      -6.802   9.255 -30.353  1.00  0.00     0.230 C 
BRANCH  22  23
HETATM   23  C   UNL     1      -6.489   9.802 -28.963  1.00  0.00     0.235 C 
HETATM   24  N   UNL     1      -6.493   8.879 -27.946  1.00  0.00    -0.354 N 
HETATM   25  H   UNL     1      -6.649   7.898 -28.151  1.00  0.00     0.162 HD
HETATM   26  O   UNL     1      -6.118  10.963 -28.797  1.00  0.00    -0.272 OA
BRANCH  24  27
HETATM   27  C   UNL     1      -5.976   9.238 -26.647  1.00  0.00     0.187 C 
BRANCH  27  28
HETATM   28  C   UNL     1      -4.757   8.462 -26.308  1.00  0.00     0.070 A 
HETATM   29  O   UNL     1      -4.058   8.808 -25.185  1.00  0.00    -0.325 OA
HETATM   30  C   UNL     1      -2.996   7.966 -25.104  1.00  0.00     0.142 A 
HETATM   31  C   UNL     1      -3.001   7.079 -26.154  1.00  0.00     0.027 A 
HETATM   32  C   UNL     1      -4.138   7.397 -26.932  1.00  0.00     0.036 A 
ENDBRANCH  27  28
ENDBRANCH  24  27
ENDBRANCH  22  23
ENDBRANCH   9  22
BRANCH   1  33
HETATM   33  C   UNL     1      -5.279   0.209 -33.511  1.00  0.00     0.036 A 
HETATM   34  C   UNL     1      -6.414  -0.284 -34.155  1.00  0.00     0.030 A 
HETATM   35  C   UNL     1      -6.470  -1.615 -34.588  1.00  0.00     0.010 A 
HETATM   36  C   UNL     1      -5.382  -2.478 -34.410  1.00  0.00    -0.055 A 
HETATM   37  C   UNL     1      -4.251  -1.985 -33.747  1.00  0.00     0.010 A 
HETATM   38  C   UNL     1      -4.202  -0.659 -33.301  1.00  0.00     0.030 A 
BRANCH  36  39
HETATM   39  C   UNL     1      -5.404  -3.916 -34.896  1.00  0.00     0.010 C 
HETATM   40  C   UNL     1      -6.819  -4.495 -34.997  1.00  0.00     0.015 C 
HETATM   41  C   UNL     1      -4.522  -4.799 -34.011  1.00  0.00     0.015 C 
ENDBRANCH  36  39
ENDBRANCH   1  33
TORSDOF 7
ENDMDL
MODEL 4
REMARK VINA RESULT:      -9.5      4.534      9.418
REMARK  7 active torsions:
REMARK  status: ('A' for Active; 'I' for Inactive)
REMARK    1  A    between atoms: C_2  and  C_3 
REMARK    2  A    between atoms: C_6  and  N_7 
REMARK       I    between atoms: N_7  and  C_8 
REMARK       I    between atoms: C_8  and  N_9 
REMARK    3  A    between atoms: N_13  and  C_14 
REMARK    4  A    between atoms: N_21  and  C_22 
REMARK    5  A    between atoms: C_22  and  C_23 
REMARK       I    between atoms: C_23  and  N_24 
REMARK    6  A    between atoms: N_24  and  C_25 
REMARK    7  A    between atoms: C_25  and  C_26 
ROOT
HETATM    1  N   UNL     1      -5.313   1.508 -32.896  1.00  0.00    -0.309 N 
HETATM    2  C   UNL     1      -5.493   1.944 -31.604  1.00  0.00     0.322 C 
HETATM    3  N   UNL     1      -5.574   3.336 -31.456  1.00  0.00    -0.334 N 
HETATM    4  C   UNL     1      -5.863   3.832 -30.113  1.00  0.00     0.130 C 
HETATM    5  C   UNL     1      -5.104   5.117 -29.810  1.00  0.00     0.061 C 
HETATM    6  C   UNL     1      -5.212   6.156 -30.940  1.00  0.00     0.118 C 
HETATM    7  N   UNL     1      -4.262   7.294 -30.741  1.00  0.00    -0.346 N 
HETATM    8  C   UNL     1      -4.971   8.464 -30.232  1.00  0.00     0.254 C 
HETATM    9  N   UNL     1      -6.358   8.159 -30.408  1.00  0.00    -0.325 N 
HETATM   10  C   UNL     1      -6.580   6.849 -30.773  1.00  0.00     0.250 C 
HETATM   11  O   UNL     1      -7.680   6.329 -30.892  1.00  0.00    -0.270 OA
HETATM   12  C   UNL     1      -5.143   5.592 -32.367  1.00  0.00     0.061 C 
HETATM   13  C   UNL     1      -5.911   4.282 -32.521  1.00  0.00     0.130 C 
HETATM   14  O   UNL     1      -5.571   1.198 -30.631  1.00  0.00    -0.247 OA
HETATM   15  H   UNL     1      -4.960   2.184 -33.552  1.00  0.00     0.170 HD
ENDROOT
BRANCH   7  16
HETATM   16  C   UNL     1      -2.882   7.215 -30.615  1.00  0.00     0.032 A 
HETATM   17  C   UNL     1      -2.011   7.129 -31.714  1.00  0.00     0.029 A 
HETATM   18  C   UNL     1      -0.618   7.022 -31.576  1.00  0.00     0.002 A 
HETATM   19  C   UNL     1      -0.042   7.019 -30.315  1.00  0.00     0.000 A 
HETATM   20  C   UNL     1      -0.859   7.133 -29.201  1.00  0.00     0.002 A 
HETATM   21  C   UNL     1      -2.250   7.237 -29.354  1.00  0.00     0.029 A 
ENDBRANCH   7  16
BRANCH   9  22
HETATM   22  C   UNL     1      -7.386   8.971 -29.780  1.00  0.00     0.230 C 
BRANCH  22  23
HETATM   23  C   UNL     1      -7.488   8.859 -28.261  1.00  0.00     0.235 C 
HETATM   24  N   UNL     1      -8.019   9.950 -27.618  1.00  0.00    -0.354 N 
HETATM   25  H   UNL     1      -8.358  10.741 -28.155  1.00  0.00     0.162 HD
HETATM   26  O   UNL     1      -7.242   7.805 -27.676  1.00  0.00    -0.272 OA
BRANCH  24  27
HETATM   27  C   UNL     1      -8.384   9.857 -26.224  1.00  0.00     0.187 C 
BRANCH  27  28
HETATM   28  C   UNL     1      -9.773   9.362 -26.052  1.00  0.00     0.070 A 
HETATM   29  O   UNL     1      -9.993   8.337 -25.175  1.00  0.00    -0.325 OA
HETATM   30  C   UNL     1     -11.324   8.068 -25.207  1.00  0.00     0.142 A 
HETATM   31  C   UNL     1     -11.966   8.906 -26.087  1.00  0.00     0.027 A 
HETATM   32  C   UNL     1     -10.966   9.744 -26.633  1.00  0.00     0.036 A 
ENDBRANCH  27  28
ENDBRANCH  24  27
ENDBRANCH  22  23
ENDBRANCH   9  22
BRANCH   1  33
HETATM   33  C   UNL     1      -5.396   0.185 -33.382  1.00  0.00     0.036 A 
HETATM   34  C   UNL     1      -6.506  -0.342 -34.041  1.00  0.00     0.030 A 
HETATM   35  C   UNL     1      -6.491  -1.653 -34.531  1.00  0.00     0.010 A 
HETATM   36  C   UNL     1      -5.356  -2.462 -34.396  1.00  0.00    -0.055 A 
HETATM   37  C   UNL     1      -4.250  -1.937 -33.718  1.00  0.00     0.010 A 
HETATM   38  C   UNL     1      -4.271  -0.630 -33.214  1.00  0.00     0.030 A 
BRANCH  36  39
HETATM   39  C   UNL     1      -5.302  -3.877 -34.944  1.00  0.00     0.010 C 
HETATM   40  C   UNL     1      -6.690  -4.484 -35.178  1.00  0.00     0.015 C 
HETATM   41  C   UNL     1      -4.466  -4.777 -34.033  1.00  0.00     0.015 C 
ENDBRANCH  36  39
ENDBRANCH   1  33
TORSDOF 7
ENDMDL
MODEL 5
REMARK VINA RESULT:      -9.5      3.921     10.361
REMARK  7 active torsions:
REMARK  status: ('A' for Active; 'I' for Inactive)
REMARK    1  A    between atoms: C_2  and  C_3 
REMARK    2  A    between atoms: C_6  and  N_7 
REMARK       I    between atoms: N_7  and  C_8 
REMARK       I    between atoms: C_8  and  N_9 
REMARK    3  A    between atoms: N_13  and  C_14 
REMARK    4  A    between atoms: N_21  and  C_22 
REMARK    5  A    between atoms: C_22  and  C_23 
REMARK       I    between atoms: C_23  and  N_24 
REMARK    6  A    between atoms: N_24  and  C_25 
REMARK    7  A    between atoms: C_25  and  C_26 
ROOT
HETATM    1  N   UNL     1      -6.434   1.398 -32.618  1.00  0.00    -0.309 N 
HETATM    2  C   UNL     1      -6.135   2.621 -33.173  1.00  0.00     0.322 C 
HETATM    3  N   UNL     1      -6.188   3.703 -32.284  1.00  0.00    -0.334 N 
HETATM    4  C   UNL     1      -5.782   5.002 -32.813  1.00  0.00     0.130 C 
HETATM    5  C   UNL     1      -6.630   6.133 -32.248  1.00  0.00     0.061 C 
HETATM    6  C   UNL     1      -6.786   6.057 -30.719  1.00  0.00     0.118 C 
HETATM    7  N   UNL     1      -7.821   7.014 -30.218  1.00  0.00    -0.346 N 
HETATM    8  C   UNL     1      -7.184   8.188 -29.627  1.00  0.00     0.254 C 
HETATM    9  N   UNL     1      -5.807   7.825 -29.484  1.00  0.00    -0.325 N 
HETATM   10  C   UNL     1      -5.493   6.641 -30.114  1.00  0.00     0.250 C 
HETATM   11  O   UNL     1      -4.368   6.173 -30.211  1.00  0.00    -0.270 OA
HETATM   12  C   UNL     1      -6.979   4.648 -30.142  1.00  0.00     0.061 C 
HETATM   13  C   UNL     1      -6.099   3.605 -30.825  1.00  0.00     0.130 C 
HETATM   14  O   UNL     1      -5.849   2.787 -34.356  1.00  0.00    -0.247 OA
HETATM   15  H   UNL     1      -6.942   1.413 -31.750  1.00  0.00     0.170 HD
ENDROOT
BRANCH   7  16
HETATM   16  C   UNL     1      -9.156   7.072 -30.595  1.00  0.00     0.032 A 
HETATM   17  C   UNL     1     -10.090   6.070 -30.280  1.00  0.00     0.029 A 
HETATM   18  C   UNL     1     -11.431   6.124 -30.689  1.00  0.00     0.002 A 
HETATM   19  C   UNL     1     -11.894   7.207 -31.421  1.00  0.00     0.000 A 
HETATM   20  C   UNL     1     -11.015   8.234 -31.729  1.00  0.00     0.002 A 
HETATM   21  C   UNL     1      -9.677   8.167 -31.315  1.00  0.00     0.029 A 
ENDBRANCH   7  16
BRANCH   9  22
HETATM   22  C   UNL     1      -4.800   8.826 -29.172  1.00  0.00     0.230 C 
BRANCH  22  23
HETATM   23  C   UNL     1      -3.982   9.338 -30.354  1.00  0.00     0.235 C 
HETATM   24  N   UNL     1      -2.742   8.771 -30.510  1.00  0.00    -0.354 N 
HETATM   25  H   UNL     1      -2.442   8.027 -29.890  1.00  0.00     0.162 HD
HETATM   26  O   UNL     1      -4.467  10.102 -31.187  1.00  0.00    -0.272 OA
BRANCH  24  27
HETATM   27  C   UNL     1      -1.992   9.002 -31.722  1.00  0.00     0.187 C 
BRANCH  27  28
HETATM   28  C   UNL     1      -1.673   7.731 -32.420  1.00  0.00     0.070 A 
HETATM   29  O   UNL     1      -1.620   7.737 -33.786  1.00  0.00    -0.325 OA
HETATM   30  C   UNL     1      -1.325   6.470 -34.176  1.00  0.00     0.142 A 
HETATM   31  C   UNL     1      -1.182   5.649 -33.084  1.00  0.00     0.027 A 
HETATM   32  C   UNL     1      -1.406   6.461 -31.948  1.00  0.00     0.036 A 
ENDBRANCH  27  28
ENDBRANCH  24  27
ENDBRANCH  22  23
ENDBRANCH   9  22
BRANCH   1  33
HETATM   33  C   UNL     1      -6.271   0.121 -33.198  1.00  0.00     0.036 A 
HETATM   34  C   UNL     1      -7.266  -0.553 -33.905  1.00  0.00     0.030 A 
HETATM   35  C   UNL     1      -7.009  -1.799 -34.489  1.00  0.00     0.010 A 
HETATM   36  C   UNL     1      -5.743  -2.390 -34.401  1.00  0.00    -0.055 A 
HETATM   37  C   UNL     1      -4.751  -1.720 -33.676  1.00  0.00     0.010 A 
HETATM   38  C   UNL     1      -5.013  -0.480 -33.079  1.00  0.00     0.030 A 
BRANCH  36  39
HETATM   39  C   UNL     1      -5.428  -3.727 -35.049  1.00  0.00     0.010 C 
HETATM   40  C   UNL     1      -6.679  -4.563 -35.342  1.00  0.00     0.015 C 
HETATM   41  C   UNL     1      -4.436  -4.520 -34.197  1.00  0.00     0.015 C 
ENDBRANCH  36  39
ENDBRANCH   1  33
TORSDOF 7
ENDMDL
MODEL 6
REMARK VINA RESULT:      -9.0      3.005      4.067
REMARK  7 active torsions:
REMARK  status: ('A' for Active; 'I' for Inactive)
REMARK    1  A    between atoms: C_2  and  C_3 
REMARK    2  A    between atoms: C_6  and  N_7 
REMARK       I    between atoms: N_7  and  C_8 
REMARK       I    between atoms: C_8  and  N_9 
REMARK    3  A    between atoms: N_13  and  C_14 
REMARK    4  A    between atoms: N_21  and  C_22 
REMARK    5  A    between atoms: C_22  and  C_23 
REMARK       I    between atoms: C_23  and  N_24 
REMARK    6  A    between atoms: N_24  and  C_25 
REMARK    7  A    between atoms: C_25  and  C_26 
ROOT
HETATM    1  N   UNL     1      -3.278   5.856 -30.433  1.00  0.00    -0.309 N 
HETATM    2  C   UNL     1      -3.712   6.072 -31.721  1.00  0.00     0.322 C 
HETATM    3  N   UNL     1      -5.001   5.595 -31.997  1.00  0.00    -0.334 N 
HETATM    4  C   UNL     1      -5.535   5.893 -33.324  1.00  0.00     0.130 C 
HETATM    5  C   UNL     1      -6.365   4.739 -33.871  1.00  0.00     0.061 C 
HETATM    6  C   UNL     1      -7.383   4.199 -32.851  1.00  0.00     0.118 C 
HETATM    7  N   UNL     1      -8.001   2.917 -33.310  1.00  0.00    -0.346 N 
HETATM    8  C   UNL     1      -9.348   3.157 -33.823  1.00  0.00     0.254 C 
HETATM    9  N   UNL     1      -9.667   4.488 -33.406  1.00  0.00    -0.325 N 
HETATM   10  C   UNL     1      -8.587   5.162 -32.877  1.00  0.00     0.250 C 
HETATM   11  O   UNL     1      -8.589   6.337 -32.538  1.00  0.00    -0.270 OA
HETATM   12  C   UNL     1      -6.885   4.110 -31.402  1.00  0.00     0.061 C 
HETATM   13  C   UNL     1      -6.031   5.309 -30.997  1.00  0.00     0.130 C 
HETATM   14  O   UNL     1      -3.043   6.628 -32.588  1.00  0.00    -0.247 OA
HETATM   15  H   UNL     1      -3.758   5.141 -29.913  1.00  0.00     0.170 HD
ENDROOT
BRANCH   7  16
HETATM   16  C   UNL     1      -7.339   1.742 -33.638  1.00  0.00     0.032 A 
HETATM   17  C   UNL     1      -7.550   1.048 -34.841  1.00  0.00     0.029 A 
HETATM   18  C   UNL     1      -6.895  -0.155 -35.151  1.00  0.00     0.002 A 
HETATM   19  C   UNL     1      -5.980  -0.699 -34.263  1.00  0.00     0.000 A 
HETATM   20  C   UNL     1      -5.717  -0.032 -33.077  1.00  0.00     0.002 A 
HETATM   21  C   UNL     1      -6.380   1.167 -32.778  1.00  0.00     0.029 A 
ENDBRANCH   7  16
BRANCH   9  22
HETATM   22  C   UNL     1     -10.821   5.184 -33.949  1.00  0.00     0.230 C 
BRANCH  22  23
HETATM   23  C   UNL     1     -10.538   6.148 -35.098  1.00  0.00     0.235 C 
HETATM   24  N   UNL     1     -11.198   7.350 -35.043  1.00  0.00    -0.354 N 
HETATM   25  H   UNL     1     -11.790   7.569 -34.249  1.00  0.00     0.162 HD
HETATM   26  O   UNL     1      -9.667   5.912 -35.935  1.00  0.00    -0.272 OA
BRANCH  24  27
HETATM   27  C   UNL     1     -10.821   8.420 -35.937  1.00  0.00     0.187 C 
BRANCH  27  28
HETATM   28  C   UNL     1     -11.715   8.487 -37.120  1.00  0.00     0.070 A 
HETATM   29  O   UNL     1     -12.937   7.878 -37.046  1.00  0.00    -0.325 OA
HETATM   30  C   UNL     1     -13.549   8.071 -38.243  1.00  0.00     0.142 A 
HETATM   31  C   UNL     1     -12.744   8.800 -39.085  1.00  0.00     0.027 A 
HETATM   32  C   UNL     1     -11.559   9.070 -38.362  1.00  0.00     0.036 A 
ENDBRANCH  27  28
ENDBRANCH  24  27
ENDBRANCH  22  23
ENDBRANCH   9  22
BRANCH   1  33
HETATM   33  C   UNL     1      -2.131   6.389 -29.806  1.00  0.00     0.036 A 
HETATM   34  C   UNL     1      -0.823   6.026 -30.124  1.00  0.00     0.030 A 
HETATM   35  C   UNL     1       0.264   6.636 -29.485  1.00  0.00     0.010 A 
HETATM   36  C   UNL     1       0.069   7.641 -28.530  1.00  0.00    -0.055 A 
HETATM   37  C   UNL     1      -1.246   7.989 -28.199  1.00  0.00     0.010 A 
HETATM   38  C   UNL     1      -2.333   7.368 -28.828  1.00  0.00     0.030 A 
BRANCH  36  39
HETATM   39  C   UNL     1       1.228   8.339 -27.843  1.00  0.00     0.010 C 
HETATM   40  C   UNL     1       1.767   7.564 -26.636  1.00  0.00     0.015 C 
HETATM   41  C   UNL     1       0.840   9.763 -27.440  1.00  0.00     0.015 C 
ENDBRANCH  36  39
ENDBRANCH   1  33
TORSDOF 7
ENDMDL
MODEL 7
REMARK VINA RESULT:      -9.0      3.637     10.901
REMARK  7 active torsions:
REMARK  status: ('A' for Active; 'I' for Inactive)
REMARK    1  A    between atoms: C_2  and  C_3 
REMARK    2  A    between atoms: C_6  and  N_7 
REMARK       I    between atoms: N_7  and  C_8 
REMARK       I    between atoms: C_8  and  N_9 
REMARK    3  A    between atoms: N_13  and  C_14 
REMARK    4  A    between atoms: N_21  and  C_22 
REMARK    5  A    between atoms: C_22  and  C_23 
REMARK       I    between atoms: C_23  and  N_24 
REMARK    6  A    between atoms: N_24  and  C_25 
REMARK    7  A    between atoms: C_25  and  C_26 
ROOT
HETATM    1  N   UNL     1      -6.381   1.076 -32.257  1.00  0.00    -0.309 N 
HETATM    2  C   UNL     1      -6.157   2.374 -32.655  1.00  0.00     0.322 C 
HETATM    3  N   UNL     1      -6.360   3.341 -31.660  1.00  0.00    -0.334 N 
HETATM    4  C   UNL     1      -6.037   4.721 -32.016  1.00  0.00     0.130 C 
HETATM    5  C   UNL     1      -7.016   5.708 -31.396  1.00  0.00     0.061 C 
HETATM    6  C   UNL     1      -7.261   5.447 -29.899  1.00  0.00     0.118 C 
HETATM    7  N   UNL     1      -8.405   6.255 -29.375  1.00  0.00    -0.346 N 
HETATM    8  C   UNL     1      -7.913   7.401 -28.616  1.00  0.00     0.254 C 
HETATM    9  N   UNL     1      -6.521   7.137 -28.414  1.00  0.00    -0.325 N 
HETATM   10  C   UNL     1      -6.065   6.061 -29.143  1.00  0.00     0.250 C 
HETATM   11  O   UNL     1      -4.898   5.699 -29.208  1.00  0.00    -0.270 OA
HETATM   12  C   UNL     1      -7.365   3.971 -29.492  1.00  0.00     0.061 C 
HETATM   13  C   UNL     1      -6.355   3.086 -30.219  1.00  0.00     0.130 C 
HETATM   14  O   UNL     1      -5.812   2.696 -33.790  1.00  0.00    -0.247 OA
HETATM   15  H   UNL     1      -6.942   0.952 -31.432  1.00  0.00     0.170 HD
ENDROOT
BRANCH   7  16
HETATM   16  C   UNL     1      -9.713   6.247 -29.839  1.00  0.00     0.032 A 
HETATM   17  C   UNL     1     -10.569   7.359 -29.755  1.00  0.00     0.029 A 
HETATM   18  C   UNL     1     -11.898   7.332 -30.203  1.00  0.00     0.002 A 
HETATM   19  C   UNL     1     -12.418   6.182 -30.776  1.00  0.00     0.000 A 
HETATM   20  C   UNL     1     -11.601   5.069 -30.908  1.00  0.00     0.002 A 
HETATM   21  C   UNL     1     -10.275   5.109 -30.454  1.00  0.00     0.029 A 
ENDBRANCH   7  16
BRANCH   9  22
HETATM   22  C   UNL     1      -5.628   8.174 -27.924  1.00  0.00     0.230 C 
BRANCH  22  23
HETATM   23  C   UNL     1      -4.733   7.783 -26.751  1.00  0.00     0.235 C 
HETATM   24  N   UNL     1      -3.532   7.208 -27.084  1.00  0.00    -0.354 N 
HETATM   25  H   UNL     1      -3.268   7.110 -28.059  1.00  0.00     0.162 HD
HETATM   26  O   UNL     1      -5.016   8.096 -25.596  1.00  0.00    -0.272 OA
BRANCH  24  27
HETATM   27  C   UNL     1      -2.516   7.026 -26.074  1.00  0.00     0.187 C 
BRANCH  27  28
HETATM   28  C   UNL     1      -1.160   7.316 -26.602  1.00  0.00     0.070 A 
HETATM   29  O   UNL     1      -0.978   8.458 -27.332  1.00  0.00    -0.325 OA
HETATM   30  C   UNL     1       0.329   8.486 -27.702  1.00  0.00     0.142 A 
HETATM   31  C   UNL     1       0.993   7.385 -27.218  1.00  0.00     0.027 A 
HETATM   32  C   UNL     1       0.034   6.628 -26.506  1.00  0.00     0.036 A 
ENDBRANCH  27  28
ENDBRANCH  24  27
ENDBRANCH  22  23
ENDBRANCH   9  22
BRANCH   1  33
HETATM   33  C   UNL     1      -6.070  -0.109 -32.958  1.00  0.00     0.036 A 
HETATM   34  C   UNL     1      -4.813  -0.712 -32.962  1.00  0.00     0.030 A 
HETATM   35  C   UNL     1      -4.598  -1.913 -33.649  1.00  0.00     0.010 A 
HETATM   36  C   UNL     1      -5.642  -2.553 -34.328  1.00  0.00    -0.055 A 
HETATM   37  C   UNL     1      -6.898  -1.936 -34.338  1.00  0.00     0.010 A 
HETATM   38  C   UNL     1      -7.109  -0.726 -33.664  1.00  0.00     0.030 A 
BRANCH  36  39
HETATM   39  C   UNL     1      -5.444  -3.871 -35.056  1.00  0.00     0.010 C 
HETATM   40  C   UNL     1      -6.763  -4.570 -35.402  1.00  0.00     0.015 C 
HETATM   41  C   UNL     1      -4.535  -4.802 -34.252  1.00  0.00     0.015 C 
ENDBRANCH  36  39
ENDBRANCH   1  33
TORSDOF 7
ENDMDL
MODEL 8
REMARK VINA RESULT:      -8.9      2.183     11.085
REMARK  7 active torsions:
REMARK  status: ('A' for Active; 'I' for Inactive)
REMARK    1  A    between atoms: C_2  and  C_3 
REMARK    2  A    between atoms: C_6  and  N_7 
REMARK       I    between atoms: N_7  and  C_8 
REMARK       I    between atoms: C_8  and  N_9 
REMARK    3  A    between atoms: N_13  and  C_14 
REMARK    4  A    between atoms: N_21  and  C_22 
REMARK    5  A    between atoms: C_22  and  C_23 
REMARK       I    between atoms: C_23  and  N_24 
REMARK    6  A    between atoms: N_24  and  C_25 
REMARK    7  A    between atoms: C_25  and  C_26 
ROOT
HETATM    1  N   UNL     1     -12.589   3.691 -32.593  1.00  0.00    -0.309 N 
HETATM    2  C   UNL     1     -11.557   3.749 -31.684  1.00  0.00     0.322 C 
HETATM    3  N   UNL     1     -10.285   3.927 -32.246  1.00  0.00    -0.334 N 
HETATM    4  C   UNL     1      -9.176   4.092 -31.309  1.00  0.00     0.130 C 
HETATM    5  C   UNL     1      -7.909   3.411 -31.808  1.00  0.00     0.061 C 
HETATM    6  C   UNL     1      -7.592   3.740 -33.277  1.00  0.00     0.118 C 
HETATM    7  N   UNL     1      -6.502   2.870 -33.818  1.00  0.00    -0.346 N 
HETATM    8  C   UNL     1      -5.242   3.607 -33.869  1.00  0.00     0.254 C 
HETATM    9  N   UNL     1      -5.608   4.975 -33.663  1.00  0.00    -0.325 N 
HETATM   10  C   UNL     1      -6.923   5.130 -33.283  1.00  0.00     0.250 C 
HETATM   11  O   UNL     1      -7.443   6.189 -32.962  1.00  0.00    -0.270 OA
HETATM   12  C   UNL     1      -8.803   3.798 -34.219  1.00  0.00     0.061 C 
HETATM   13  C   UNL     1     -10.016   4.467 -33.580  1.00  0.00     0.130 C 
HETATM   14  O   UNL     1     -11.704   3.647 -30.469  1.00  0.00    -0.247 OA
HETATM   15  H   UNL     1     -12.337   3.477 -33.542  1.00  0.00     0.170 HD
ENDROOT
BRANCH   7  16
HETATM   16  C   UNL     1      -6.492   1.483 -33.872  1.00  0.00     0.032 A 
HETATM   17  C   UNL     1      -7.072   0.749 -34.921  1.00  0.00     0.029 A 
HETATM   18  C   UNL     1      -7.081  -0.654 -34.953  1.00  0.00     0.002 A 
HETATM   19  C   UNL     1      -6.483  -1.379 -33.934  1.00  0.00     0.000 A 
HETATM   20  C   UNL     1      -5.870  -0.697 -32.894  1.00  0.00     0.002 A 
HETATM   21  C   UNL     1      -5.871   0.706 -32.873  1.00  0.00     0.029 A 
ENDBRANCH   7  16
BRANCH   9  22
HETATM   22  C   UNL     1      -4.599   5.983 -33.385  1.00  0.00     0.230 C 
BRANCH  22  23
HETATM   23  C   UNL     1      -3.895   5.868 -32.036  1.00  0.00     0.235 C 
HETATM   24  N   UNL     1      -2.814   6.695 -31.856  1.00  0.00    -0.354 N 
HETATM   25  H   UNL     1      -2.559   7.362 -32.576  1.00  0.00     0.162 HD
HETATM   26  O   UNL     1      -4.359   5.183 -31.126  1.00  0.00    -0.272 OA
BRANCH  24  27
HETATM   27  C   UNL     1      -2.232   6.843 -30.543  1.00  0.00     0.187 C 
BRANCH  27  28
HETATM   28  C   UNL     1      -0.953   6.099 -30.423  1.00  0.00     0.070 A 
HETATM   29  O   UNL     1      -0.438   5.890 -29.174  1.00  0.00    -0.325 OA
HETATM   30  C   UNL     1       0.724   5.206 -29.335  1.00  0.00     0.142 A 
HETATM   31  C   UNL     1       0.964   4.966 -30.667  1.00  0.00     0.027 A 
HETATM   32  C   UNL     1      -0.118   5.541 -31.371  1.00  0.00     0.036 A 
ENDBRANCH  27  28
ENDBRANCH  24  27
ENDBRANCH  22  23
ENDBRANCH   9  22
BRANCH   1  33
HETATM   33  C   UNL     1     -13.975   3.723 -32.329  1.00  0.00     0.036 A 
HETATM   34  C   UNL     1     -14.699   4.886 -32.070  1.00  0.00     0.030 A 
HETATM   35  C   UNL     1     -16.083   4.835 -31.862  1.00  0.00     0.010 A 
HETATM   36  C   UNL     1     -16.780   3.623 -31.932  1.00  0.00    -0.055 A 
HETATM   37  C   UNL     1     -16.048   2.455 -32.174  1.00  0.00     0.010 A 
HETATM   38  C   UNL     1     -14.662   2.504 -32.367  1.00  0.00     0.030 A 
BRANCH  36  39
HETATM   39  C   UNL     1     -18.284   3.543 -31.739  1.00  0.00     0.010 C 
HETATM   40  C   UNL     1     -19.043   3.259 -33.040  1.00  0.00     0.015 C 
HETATM   41  C   UNL     1     -18.812   4.816 -31.074  1.00  0.00     0.015 C 
ENDBRANCH  36  39
ENDBRANCH   1  33
TORSDOF 7
ENDMDL
MODEL 9
REMARK VINA RESULT:      -8.7      5.104      9.143
REMARK  7 active torsions:
REMARK  status: ('A' for Active; 'I' for Inactive)
REMARK    1  A    between atoms: C_2  and  C_3 
REMARK    2  A    between atoms: C_6  and  N_7 
REMARK       I    between atoms: N_7  and  C_8 
REMARK       I    between atoms: C_8  and  N_9 
REMARK    3  A    between atoms: N_13  and  C_14 
REMARK    4  A    between atoms: N_21  and  C_22 
REMARK    5  A    between atoms: C_22  and  C_23 
REMARK       I    between atoms: C_23  and  N_24 
REMARK    6  A    between atoms: N_24  and  C_25 
REMARK    7  A    between atoms: C_25  and  C_26 
ROOT
HETATM    1  N   UNL     1      -7.595   1.196 -32.501  1.00  0.00    -0.309 N 
HETATM    2  C   UNL     1      -7.147   2.494 -32.600  1.00  0.00     0.322 C 
HETATM    3  N   UNL     1      -7.809   3.411 -31.772  1.00  0.00    -0.334 N 
HETATM    4  C   UNL     1      -7.297   4.780 -31.776  1.00  0.00     0.130 C 
HETATM    5  C   UNL     1      -8.419   5.803 -31.668  1.00  0.00     0.061 C 
HETATM    6  C   UNL     1      -9.424   5.472 -30.550  1.00  0.00     0.118 C 
HETATM    7  N   UNL     1     -10.643   6.336 -30.627  1.00  0.00    -0.346 N 
HETATM    8  C   UNL     1     -10.583   7.391 -29.619  1.00  0.00     0.254 C 
HETATM    9  N   UNL     1      -9.517   7.004 -28.746  1.00  0.00    -0.325 N 
HETATM   10  C   UNL     1      -8.784   5.941 -29.228  1.00  0.00     0.250 C 
HETATM   11  O   UNL     1      -7.773   5.491 -28.709  1.00  0.00    -0.270 OA
HETATM   12  C   UNL     1      -9.781   3.987 -30.398  1.00  0.00     0.061 C 
HETATM   13  C   UNL     1      -8.573   3.070 -30.571  1.00  0.00     0.130 C 
HETATM   14  O   UNL     1      -6.245   2.855 -33.352  1.00  0.00    -0.247 OA
HETATM   15  H   UNL     1      -8.510   1.068 -32.106  1.00  0.00     0.170 HD
ENDROOT
BRANCH   7  16
HETATM   16  C   UNL     1     -11.510   6.461 -31.704  1.00  0.00     0.032 A 
HETATM   17  C   UNL     1     -11.445   7.518 -32.628  1.00  0.00     0.029 A 
HETATM   18  C   UNL     1     -12.344   7.650 -33.698  1.00  0.00     0.002 A 
HETATM   19  C   UNL     1     -13.339   6.705 -33.893  1.00  0.00     0.000 A 
HETATM   20  C   UNL     1     -13.422   5.627 -33.025  1.00  0.00     0.002 A 
HETATM   21  C   UNL     1     -12.519   5.509 -31.958  1.00  0.00     0.029 A 
ENDBRANCH   7  16
BRANCH   9  22
HETATM   22  C   UNL     1      -8.978   7.934 -27.768  1.00  0.00     0.230 C 
BRANCH  22  23
HETATM   23  C   UNL     1      -9.969   8.460 -26.733  1.00  0.00     0.235 C 
HETATM   24  N   UNL     1     -10.657   7.505 -26.028  1.00  0.00    -0.354 N 
HETATM   25  H   UNL     1     -10.458   6.521 -26.177  1.00  0.00     0.162 HD
HETATM   26  O   UNL     1     -10.034   9.657 -26.457  1.00  0.00    -0.272 OA
BRANCH  24  27
HETATM   27  C   UNL     1     -11.430   7.883 -24.869  1.00  0.00     0.187 C 
BRANCH  27  28
HETATM   28  C   UNL     1     -12.867   7.550 -25.034  1.00  0.00     0.070 A 
HETATM   29  O   UNL     1     -13.509   6.917 -24.006  1.00  0.00    -0.325 OA
HETATM   30  C   UNL     1     -14.792   6.717 -24.404  1.00  0.00     0.142 A 
HETATM   31  C   UNL     1     -14.989   7.216 -25.669  1.00  0.00     0.027 A 
HETATM   32  C   UNL     1     -13.747   7.755 -26.078  1.00  0.00     0.036 A 
ENDBRANCH  27  28
ENDBRANCH  24  27
ENDBRANCH  22  23
ENDBRANCH   9  22
BRANCH   1  33
HETATM   33  C   UNL     1      -7.004   0.035 -33.045  1.00  0.00     0.036 A 
HETATM   34  C   UNL     1      -7.557  -0.715 -34.082  1.00  0.00     0.030 A 
HETATM   35  C   UNL     1      -6.884  -1.832 -34.595  1.00  0.00     0.010 A 
HETATM   36  C   UNL     1      -5.631  -2.210 -34.099  1.00  0.00    -0.055 A 
HETATM   37  C   UNL     1      -5.088  -1.466 -33.045  1.00  0.00     0.010 A 
HETATM   38  C   UNL     1      -5.767  -0.359 -32.522  1.00  0.00     0.030 A 
BRANCH  36  39
HETATM   39  C   UNL     1      -4.867  -3.398 -34.655  1.00  0.00     0.010 C 
HETATM   40  C   UNL     1      -5.780  -4.543 -35.106  1.00  0.00     0.015 C 
HETATM   41  C   UNL     1      -3.834  -3.898 -33.644  1.00  0.00     0.015 C 
ENDBRANCH  36  39
ENDBRANCH   1  33
TORSDOF 7
ENDMDL
MODEL 10
REMARK VINA RESULT:      -8.6      4.696      9.247
REMARK  7 active torsions:
REMARK  status: ('A' for Active; 'I' for Inactive)
REMARK    1  A    between atoms: C_2  and  C_3 
REMARK    2  A    between atoms: C_6  and  N_7 
REMARK       I    between atoms: N_7  and  C_8 
REMARK       I    between atoms: C_8  and  N_9 
REMARK    3  A    between atoms: N_13  and  C_14 
REMARK    4  A    between atoms: N_21  and  C_22 
REMARK    5  A    between atoms: C_22  and  C_23 
REMARK       I    between atoms: C_23  and  N_24 
REMARK    6  A    between atoms: N_24  and  C_25 
REMARK    7  A    between atoms: C_25  and  C_26 
ROOT
HETATM    1  N   UNL     1      -6.193   1.610 -32.732  1.00  0.00    -0.309 N 
HETATM    2  C   UNL     1      -6.373   1.988 -31.421  1.00  0.00     0.322 C 
HETATM    3  N   UNL     1      -6.695   3.340 -31.235  1.00  0.00    -0.334 N 
HETATM    4  C   UNL     1      -6.990   3.757 -29.866  1.00  0.00     0.130 C 
HETATM    5  C   UNL     1      -6.458   5.154 -29.574  1.00  0.00     0.061 C 
HETATM    6  C   UNL     1      -6.817   6.171 -30.671  1.00  0.00     0.118 C 
HETATM    7  N   UNL     1      -6.077   7.459 -30.496  1.00  0.00    -0.346 N 
HETATM    8  C   UNL     1      -6.954   8.475 -29.920  1.00  0.00     0.254 C 
HETATM    9  N   UNL     1      -8.271   7.927 -30.027  1.00  0.00    -0.325 N 
HETATM   10  C   UNL     1      -8.275   6.603 -30.412  1.00  0.00     0.250 C 
HETATM   11  O   UNL     1      -9.268   5.894 -30.483  1.00  0.00    -0.270 OA
HETATM   12  C   UNL     1      -6.731   5.650 -32.112  1.00  0.00     0.061 C 
HETATM   13  C   UNL     1      -7.258   4.225 -32.256  1.00  0.00     0.130 C 
HETATM   14  O   UNL     1      -6.259   1.227 -30.464  1.00  0.00    -0.247 OA
HETATM   15  H   UNL     1      -6.006   2.348 -33.388  1.00  0.00     0.170 HD
ENDROOT
BRANCH   7  16
HETATM   16  C   UNL     1      -4.700   7.630 -30.447  1.00  0.00     0.032 A 
HETATM   17  C   UNL     1      -3.913   7.877 -31.586  1.00  0.00     0.029 A 
HETATM   18  C   UNL     1      -2.519   8.021 -31.530  1.00  0.00     0.002 A 
HETATM   19  C   UNL     1      -1.858   7.942 -30.313  1.00  0.00     0.000 A 
HETATM   20  C   UNL     1      -2.597   7.732 -29.159  1.00  0.00     0.002 A 
HETATM   21  C   UNL     1      -3.990   7.587 -29.230  1.00  0.00     0.029 A 
ENDBRANCH   7  16
BRANCH   9  22
HETATM   22  C   UNL     1      -9.391   8.530 -29.324  1.00  0.00     0.230 C 
BRANCH  22  23
HETATM   23  C   UNL     1      -9.310   8.509 -27.800  1.00  0.00     0.235 C 
HETATM   24  N   UNL     1      -9.899   9.569 -27.158  1.00  0.00    -0.354 N 
HETATM   25  H   UNL     1     -10.391  10.277 -27.692  1.00  0.00     0.162 HD
HETATM   26  O   UNL     1      -8.870   7.533 -27.194  1.00  0.00    -0.272 OA
BRANCH  24  27
HETATM   27  C   UNL     1     -10.094   9.527 -25.728  1.00  0.00     0.187 C 
BRANCH  27  28
HETATM   28  C   UNL     1     -11.425   8.977 -25.371  1.00  0.00     0.070 A 
HETATM   29  O   UNL     1     -11.482   7.745 -24.782  1.00  0.00    -0.325 OA
HETATM   30  C   UNL     1     -12.794   7.468 -24.567  1.00  0.00     0.142 A 
HETATM   31  C   UNL     1     -13.584   8.505 -25.005  1.00  0.00     0.027 A 
HETATM   32  C   UNL     1     -12.702   9.481 -25.523  1.00  0.00     0.036 A 
ENDBRANCH  27  28
ENDBRANCH  24  27
ENDBRANCH  22  23
ENDBRANCH   9  22
BRANCH   1  33
HETATM   33  C   UNL     1      -6.065   0.301 -33.244  1.00  0.00     0.036 A 
HETATM   34  C   UNL     1      -7.129  -0.462 -33.723  1.00  0.00     0.030 A 
HETATM   35  C   UNL     1      -6.910  -1.739 -34.257  1.00  0.00     0.010 A 
HETATM   36  C   UNL     1      -5.619  -2.272 -34.347  1.00  0.00    -0.055 A 
HETATM   37  C   UNL     1      -4.555  -1.511 -33.848  1.00  0.00     0.010 A 
HETATM   38  C   UNL     1      -4.776  -0.241 -33.300  1.00  0.00     0.030 A 
BRANCH  36  39
HETATM   39  C   UNL     1      -5.349  -3.640 -34.947  1.00  0.00     0.010 C 
HETATM   40  C   UNL     1      -6.626  -4.456 -35.181  1.00  0.00     0.015 C 
HETATM   41  C   UNL     1      -4.359  -4.424 -34.084  1.00  0.00     0.015 C 
ENDBRANCH  36  39
ENDBRANCH   1  33
TORSDOF 7
ENDMDL
