MODEL 1
REMARK VINA RESULT:      -9.2      0.000      0.000
REMARK  7 active torsions:
REMARK  status: ('A' for Active; 'I' for Inactive)
REMARK    1  A    between atoms: O_2  and  C_3 
REMARK    2  A    between atoms: C_6  and  C_7 
REMARK    3  A    between atoms: C_11  and  C_12 
REMARK       I    between atoms: C_12  and  N_13 
REMARK    4  A    between atoms: N_13  and  N_14 
REMARK       I    between atoms: N_14  and  C_15 
REMARK    5  A    between atoms: C_15  and  C_16 
REMARK    6  A    between atoms: C_16  and  C_17 
REMARK    7  A    between atoms: C_17  and  C_18 
ROOT
HETATM    1  C   UNL     1      -2.413   4.043 -32.126  1.00  0.00     0.288 C 
HETATM    2  N   UNL     1      -3.000   2.899 -31.627  1.00  0.00    -0.262 N 
HETATM    3  O   UNL     1      -2.247   4.218 -33.332  1.00  0.00    -0.264 OA
HETATM    4  H   UNL     1      -3.319   2.836 -30.662  1.00  0.00     0.190 HD
ENDROOT
BRANCH   1   5
HETATM    5  C   UNL     1      -2.026   5.011 -31.135  1.00  0.00     0.121 A 
HETATM    6  N   UNL     1      -2.877   5.987 -30.700  1.00  0.00    -0.272 N 
HETATM    7  N   UNL     1      -2.361   6.786 -29.754  1.00  0.00    -0.174 NA
HETATM    8  H   UNL     1      -3.831   6.148 -31.011  1.00  0.00     0.189 HD
HETATM    9  C   UNL     1      -1.110   6.333 -29.569  1.00  0.00     0.089 A 
HETATM   10  C   UNL     1      -0.863   5.220 -30.422  1.00  0.00     0.071 A 
BRANCH   9  11
HETATM   11  C   UNL     1      -0.199   6.939 -28.593  1.00  0.00    -0.005 A 
HETATM   12  C   UNL     1      -0.171   6.486 -27.266  1.00  0.00     0.016 A 
HETATM   13  C   UNL     1       0.719   7.035 -26.332  1.00  0.00     0.037 A 
HETATM   14  C   UNL     1       1.595   8.049 -26.713  1.00  0.00     0.068 A 
HETATM   15  C   UNL     1       1.559   8.520 -28.026  1.00  0.00     0.037 A 
HETATM   16  C   UNL     1       0.674   7.971 -28.960  1.00  0.00     0.016 A 
BRANCH  14  17
HETATM   17  O   UNL     1       2.516   8.663 -25.910  1.00  0.00    -0.356 OA
HETATM   18  C   UNL     1       2.078   9.050 -24.614  1.00  0.00     0.210 C 
ENDBRANCH  14  17
ENDBRANCH   9  11
ENDBRANCH   1   5
BRANCH   2  19
HETATM   19  N   UNL     1      -3.605   1.998 -32.518  1.00  0.00    -0.267 N 
HETATM   20  C   UNL     1      -3.573   0.663 -32.162  1.00  0.00     0.236 C 
HETATM   21  O   UNL     1      -2.922   0.258 -31.200  1.00  0.00    -0.272 OA
HETATM   22  H   UNL     1      -4.327   2.381 -33.127  1.00  0.00     0.190 HD
BRANCH  20  23
HETATM   23  C   UNL     1      -4.363  -0.230 -33.092  1.00  0.00     0.109 C 
BRANCH  23  24
HETATM   24  C   UNL     1      -3.740  -1.624 -33.178  1.00  0.00     0.051 C 
BRANCH  24  25
HETATM   25  C   UNL     1      -4.662  -2.638 -33.803  1.00  0.00    -0.019 A 
HETATM   26  C   UNL     1      -4.264  -3.967 -33.971  1.00  0.00     0.122 A 
HETATM   27  F   UNL     1      -3.046  -4.355 -33.563  1.00  0.00    -0.206 F 
HETATM   28  C   UNL     1      -5.106  -4.910 -34.556  1.00  0.00     0.043 A 
HETATM   29  C   UNL     1      -6.372  -4.526 -34.991  1.00  0.00     0.003 A 
HETATM   30  C   UNL     1      -6.788  -3.203 -34.837  1.00  0.00     0.001 A 
HETATM   31  C   UNL     1      -5.940  -2.264 -34.246  1.00  0.00     0.010 A 
ENDBRANCH  24  25
ENDBRANCH  23  24
ENDBRANCH  20  23
ENDBRANCH   2  19
TORSDOF 7
ENDMDL
MODEL 2
REMARK VINA RESULT:      -9.1      7.392     11.258
REMARK  7 active torsions:
REMARK  status: ('A' for Active; 'I' for Inactive)
REMARK    1  A    between atoms: O_2  and  C_3 
REMARK    2  A    between atoms: C_6  and  C_7 
REMARK    3  A    between atoms: C_11  and  C_12 
REMARK       I    between atoms: C_12  and  N_13 
REMARK    4  A    between atoms: N_13  and  N_14 
REMARK       I    between atoms: N_14  and  C_15 
REMARK    5  A    between atoms: C_15  and  C_16 
REMARK    6  A    between atoms: C_16  and  C_17 
REMARK    7  A    between atoms: C_17  and  C_18 
ROOT
HETATM    1  C   UNL     1      -8.525   0.984 -34.333  1.00  0.00     0.288 C 
HETATM    2  N   UNL     1      -7.698   1.248 -33.262  1.00  0.00    -0.262 N 
HETATM    3  O   UNL     1      -8.151   0.321 -35.299  1.00  0.00    -0.264 OA
HETATM    4  H   UNL     1      -8.056   1.617 -32.384  1.00  0.00     0.190 HD
ENDROOT
BRANCH   1   5
HETATM    5  C   UNL     1      -9.852   1.529 -34.227  1.00  0.00     0.121 A 
HETATM    6  N   UNL     1     -10.270   2.581 -34.992  1.00  0.00    -0.272 N 
HETATM    7  N   UNL     1     -11.545   2.942 -34.783  1.00  0.00    -0.174 NA
HETATM    8  H   UNL     1      -9.725   3.086 -35.685  1.00  0.00     0.189 HD
HETATM    9  C   UNL     1     -11.983   2.109 -33.825  1.00  0.00     0.089 A 
HETATM   10  C   UNL     1     -10.945   1.210 -33.448  1.00  0.00     0.071 A 
BRANCH   9  11
HETATM   11  C   UNL     1     -13.354   2.168 -33.309  1.00  0.00    -0.005 A 
HETATM   12  C   UNL     1     -13.690   3.055 -32.276  1.00  0.00     0.016 A 
HETATM   13  C   UNL     1     -15.005   3.144 -31.797  1.00  0.00     0.037 A 
HETATM   14  C   UNL     1     -16.005   2.343 -32.344  1.00  0.00     0.068 A 
HETATM   15  C   UNL     1     -15.674   1.442 -33.357  1.00  0.00     0.037 A 
HETATM   16  C   UNL     1     -14.364   1.355 -33.839  1.00  0.00     0.016 A 
BRANCH  14  17
HETATM   17  O   UNL     1     -17.322   2.335 -31.979  1.00  0.00    -0.356 OA
HETATM   18  C   UNL     1     -18.228   3.017 -32.837  1.00  0.00     0.210 C 
ENDBRANCH  14  17
ENDBRANCH   9  11
ENDBRANCH   1   5
BRANCH   2  19
HETATM   19  N   UNL     1      -6.464   0.583 -33.172  1.00  0.00    -0.267 N 
HETATM   20  C   UNL     1      -6.143   0.042 -31.942  1.00  0.00     0.236 C 
HETATM   21  O   UNL     1      -6.818   0.257 -30.936  1.00  0.00    -0.272 OA
HETATM   22  H   UNL     1      -6.085   0.214 -34.044  1.00  0.00     0.190 HD
BRANCH  20  23
HETATM   23  C   UNL     1      -4.872  -0.777 -31.954  1.00  0.00     0.109 C 
BRANCH  23  24
HETATM   24  C   UNL     1      -4.421  -1.074 -33.385  1.00  0.00     0.051 C 
BRANCH  24  25
HETATM   25  C   UNL     1      -4.554  -2.530 -33.748  1.00  0.00    -0.019 A 
HETATM   26  C   UNL     1      -5.605  -2.978 -34.555  1.00  0.00     0.122 A 
HETATM   27  F   UNL     1      -6.506  -2.103 -35.023  1.00  0.00    -0.206 F 
HETATM   28  C   UNL     1      -5.741  -4.323 -34.889  1.00  0.00     0.043 A 
HETATM   29  C   UNL     1      -4.819  -5.250 -34.408  1.00  0.00     0.003 A 
HETATM   30  C   UNL     1      -3.766  -4.824 -33.598  1.00  0.00     0.001 A 
HETATM   31  C   UNL     1      -3.632  -3.472 -33.270  1.00  0.00     0.010 A 
ENDBRANCH  24  25
ENDBRANCH  23  24
ENDBRANCH  20  23
ENDBRANCH   2  19
TORSDOF 7
ENDMDL
MODEL 3
REMARK VINA RESULT:      -8.9      3.173     11.322
REMARK  7 active torsions:
REMARK  status: ('A' for Active; 'I' for Inactive)
REMARK    1  A    between atoms: O_2  and  C_3 
REMARK    2  A    between atoms: C_6  and  C_7 
REMARK    3  A    between atoms: C_11  and  C_12 
REMARK       I    between atoms: C_12  and  N_13 
REMARK    4  A    between atoms: N_13  and  N_14 
REMARK       I    between atoms: N_14  and  C_15 
REMARK    5  A    between atoms: C_15  and  C_16 
REMARK    6  A    between atoms: C_16  and  C_17 
REMARK    7  A    between atoms: C_17  and  C_18 
ROOT
HETATM    1  C   UNL     1      -3.720   4.123 -31.180  1.00  0.00     0.288 C 
HETATM    2  N   UNL     1      -2.343   4.178 -31.229  1.00  0.00    -0.262 N 
HETATM    3  O   UNL     1      -4.401   5.102 -30.878  1.00  0.00    -0.264 OA
HETATM    4  H   UNL     1      -1.791   3.442 -31.666  1.00  0.00     0.190 HD
ENDROOT
BRANCH   1   5
HETATM    5  C   UNL     1      -4.292   2.848 -31.518  1.00  0.00     0.121 A 
HETATM    6  N   UNL     1      -5.463   2.407 -30.969  1.00  0.00    -0.272 N 
HETATM    7  N   UNL     1      -5.864   1.208 -31.418  1.00  0.00    -0.174 NA
HETATM    8  H   UNL     1      -6.038   2.893 -30.287  1.00  0.00     0.189 HD
HETATM    9  C   UNL     1      -4.910   0.830 -32.283  1.00  0.00     0.089 A 
HETATM   10  C   UNL     1      -3.904   1.833 -32.369  1.00  0.00     0.071 A 
BRANCH   9  11
HETATM   11  C   UNL     1      -4.978  -0.441 -33.012  1.00  0.00    -0.005 A 
HETATM   12  C   UNL     1      -4.021  -1.442 -32.790  1.00  0.00     0.016 A 
HETATM   13  C   UNL     1      -4.095  -2.674 -33.456  1.00  0.00     0.037 A 
HETATM   14  C   UNL     1      -5.128  -2.922 -34.357  1.00  0.00     0.068 A 
HETATM   15  C   UNL     1      -6.072  -1.923 -34.599  1.00  0.00     0.037 A 
HETATM   16  C   UNL     1      -6.002  -0.695 -33.933  1.00  0.00     0.016 A 
BRANCH  14  17
HETATM   17  O   UNL     1      -5.323  -4.076 -35.063  1.00  0.00    -0.356 OA
HETATM   18  C   UNL     1      -6.670  -4.441 -35.334  1.00  0.00     0.210 C 
ENDBRANCH  14  17
ENDBRANCH   9  11
ENDBRANCH   1   5
BRANCH   2  19
HETATM   19  N   UNL     1      -1.705   5.425 -31.129  1.00  0.00    -0.267 N 
HETATM   20  C   UNL     1      -0.379   5.410 -30.738  1.00  0.00     0.236 C 
HETATM   21  O   UNL     1       0.177   4.384 -30.348  1.00  0.00    -0.272 OA
HETATM   22  H   UNL     1      -2.097   6.179 -31.690  1.00  0.00     0.190 HD
BRANCH  20  23
HETATM   23  C   UNL     1       0.281   6.769 -30.788  1.00  0.00     0.109 C 
BRANCH  23  24
HETATM   24  C   UNL     1      -0.455   7.773 -29.900  1.00  0.00     0.051 C 
BRANCH  24  25
HETATM   25  C   UNL     1       0.097   7.829 -28.499  1.00  0.00    -0.019 A 
HETATM   26  C   UNL     1      -0.631   7.327 -27.417  1.00  0.00     0.122 A 
HETATM   27  F   UNL     1      -1.837   6.777 -27.622  1.00  0.00    -0.206 F 
HETATM   28  C   UNL     1      -0.133   7.383 -26.118  1.00  0.00     0.043 A 
HETATM   29  C   UNL     1       1.116   7.955 -25.882  1.00  0.00     0.003 A 
HETATM   30  C   UNL     1       1.857   8.465 -26.948  1.00  0.00     0.001 A 
HETATM   31  C   UNL     1       1.353   8.403 -28.250  1.00  0.00     0.010 A 
ENDBRANCH  24  25
ENDBRANCH  23  24
ENDBRANCH  20  23
ENDBRANCH   2  19
TORSDOF 7
ENDMDL
MODEL 4
REMARK VINA RESULT:      -8.8      1.917      2.295
REMARK  7 active torsions:
REMARK  status: ('A' for Active; 'I' for Inactive)
REMARK    1  A    between atoms: O_2  and  C_3 
REMARK    2  A    between atoms: C_6  and  C_7 
REMARK    3  A    between atoms: C_11  and  C_12 
REMARK       I    between atoms: C_12  and  N_13 
REMARK    4  A    between atoms: N_13  and  N_14 
REMARK       I    between atoms: N_14  and  C_15 
REMARK    5  A    between atoms: C_15  and  C_16 
REMARK    6  A    between atoms: C_16  and  C_17 
REMARK    7  A    between atoms: C_17  and  C_18 
ROOT
HETATM    1  C   UNL     1      -1.968   4.682 -31.954  1.00  0.00     0.288 C 
HETATM    2  N   UNL     1      -2.906   3.955 -31.251  1.00  0.00    -0.262 N 
HETATM    3  O   UNL     1      -1.853   4.591 -33.175  1.00  0.00    -0.264 OA
HETATM    4  H   UNL     1      -3.140   4.171 -30.284  1.00  0.00     0.190 HD
ENDROOT
BRANCH   1   5
HETATM    5  C   UNL     1      -1.152   5.556 -31.155  1.00  0.00     0.121 A 
HETATM    6  N   UNL     1       0.198   5.660 -31.338  1.00  0.00    -0.272 N 
HETATM    7  N   UNL     1       0.797   6.543 -30.525  1.00  0.00    -0.174 NA
HETATM    8  H   UNL     1       0.763   5.154 -32.014  1.00  0.00     0.189 HD
HETATM    9  C   UNL     1      -0.193   7.029 -29.759  1.00  0.00     0.089 A 
HETATM   10  C   UNL     1      -1.432   6.431 -30.124  1.00  0.00     0.071 A 
BRANCH   9  11
HETATM   11  C   UNL     1       0.046   8.047 -28.730  1.00  0.00    -0.005 A 
HETATM   12  C   UNL     1      -0.955   8.968 -28.392  1.00  0.00     0.016 A 
HETATM   13  C   UNL     1      -0.751   9.924 -27.387  1.00  0.00     0.037 A 
HETATM   14  C   UNL     1       0.464   9.973 -26.705  1.00  0.00     0.068 A 
HETATM   15  C   UNL     1       1.473   9.074 -27.051  1.00  0.00     0.037 A 
HETATM   16  C   UNL     1       1.269   8.117 -28.051  1.00  0.00     0.016 A 
BRANCH  14  17
HETATM   17  O   UNL     1       0.791  10.843 -25.703  1.00  0.00    -0.356 OA
HETATM   18  C   UNL     1       1.929  10.515 -24.917  1.00  0.00     0.210 C 
ENDBRANCH  14  17
ENDBRANCH   9  11
ENDBRANCH   1   5
BRANCH   2  19
HETATM   19  N   UNL     1      -3.888   3.242 -31.959  1.00  0.00    -0.267 N 
HETATM   20  C   UNL     1      -3.859   1.866 -31.836  1.00  0.00     0.236 C 
HETATM   21  O   UNL     1      -2.940   1.278 -31.268  1.00  0.00    -0.272 OA
HETATM   22  H   UNL     1      -4.742   3.750 -32.182  1.00  0.00     0.190 HD
BRANCH  20  23
HETATM   23  C   UNL     1      -5.025   1.175 -32.507  1.00  0.00     0.109 C 
BRANCH  23  24
HETATM   24  C   UNL     1      -5.213  -0.242 -31.964  1.00  0.00     0.051 C 
BRANCH  24  25
HETATM   25  C   UNL     1      -5.378  -1.268 -33.055  1.00  0.00    -0.019 A 
HETATM   26  C   UNL     1      -6.630  -1.519 -33.624  1.00  0.00     0.122 A 
HETATM   27  F   UNL     1      -7.703  -0.833 -33.204  1.00  0.00    -0.206 F 
HETATM   28  C   UNL     1      -6.794  -2.472 -34.626  1.00  0.00     0.043 A 
HETATM   29  C   UNL     1      -5.693  -3.200 -35.073  1.00  0.00     0.003 A 
HETATM   30  C   UNL     1      -4.436  -2.967 -34.515  1.00  0.00     0.001 A 
HETATM   31  C   UNL     1      -4.277  -2.007 -33.513  1.00  0.00     0.010 A 
ENDBRANCH  24  25
ENDBRANCH  23  24
ENDBRANCH  20  23
ENDBRANCH   2  19
TORSDOF 7
ENDMDL
MODEL 5
REMARK VINA RESULT:      -8.8      3.603     11.478
REMARK  7 active torsions:
REMARK  status: ('A' for Active; 'I' for Inactive)
REMARK    1  A    between atoms: O_2  and  C_3 
REMARK    2  A    between atoms: C_6  and  C_7 
REMARK    3  A    between atoms: C_11  and  C_12 
REMARK       I    between atoms: C_12  and  N_13 
REMARK    4  A    between atoms: N_13  and  N_14 
REMARK       I    between atoms: N_14  and  C_15 
REMARK    5  A    between atoms: C_15  and  C_16 
REMARK    6  A    between atoms: C_16  and  C_17 
REMARK    7  A    between atoms: C_17  and  C_18 
ROOT
HETATM    1  C   UNL     1      -4.341   4.176 -31.250  1.00  0.00     0.288 C 
HETATM    2  N   UNL     1      -2.966   4.249 -31.181  1.00  0.00    -0.262 N 
HETATM    3  O   UNL     1      -5.065   5.027 -30.735  1.00  0.00    -0.264 OA
HETATM    4  H   UNL     1      -2.368   3.669 -31.767  1.00  0.00     0.190 HD
ENDROOT
BRANCH   1   5
HETATM    5  C   UNL     1      -4.857   3.047 -31.975  1.00  0.00     0.121 A 
HETATM    6  N   UNL     1      -6.012   3.114 -32.701  1.00  0.00    -0.272 N 
HETATM    7  N   UNL     1      -6.330   1.976 -33.336  1.00  0.00    -0.174 NA
HETATM    8  H   UNL     1      -6.620   3.921 -32.807  1.00  0.00     0.189 HD
HETATM    9  C   UNL     1      -5.357   1.114 -33.000  1.00  0.00     0.089 A 
HETATM   10  C   UNL     1      -4.416   1.750 -32.143  1.00  0.00     0.071 A 
BRANCH   9  11
HETATM   11  C   UNL     1      -5.329  -0.264 -33.503  1.00  0.00    -0.005 A 
HETATM   12  C   UNL     1      -4.203  -1.074 -33.300  1.00  0.00     0.016 A 
HETATM   13  C   UNL     1      -4.177  -2.403 -33.746  1.00  0.00     0.037 A 
HETATM   14  C   UNL     1      -5.280  -2.941 -34.408  1.00  0.00     0.068 A 
HETATM   15  C   UNL     1      -6.396  -2.134 -34.633  1.00  0.00     0.037 A 
HETATM   16  C   UNL     1      -6.425  -0.810 -34.184  1.00  0.00     0.016 A 
BRANCH  14  17
HETATM   17  O   UNL     1      -5.390  -4.217 -34.885  1.00  0.00    -0.356 OA
HETATM   18  C   UNL     1      -6.641  -4.581 -35.454  1.00  0.00     0.210 C 
ENDBRANCH  14  17
ENDBRANCH   9  11
ENDBRANCH   1   5
BRANCH   2  19
HETATM   19  N   UNL     1      -2.367   5.419 -30.687  1.00  0.00    -0.267 N 
HETATM   20  C   UNL     1      -1.040   5.619 -31.016  1.00  0.00     0.236 C 
HETATM   21  O   UNL     1      -0.367   4.756 -31.578  1.00  0.00    -0.272 OA
HETATM   22  H   UNL     1      -2.996   6.191 -30.470  1.00  0.00     0.190 HD
BRANCH  20  23
HETATM   23  C   UNL     1      -0.502   6.961 -30.571  1.00  0.00     0.109 C 
BRANCH  23  24
HETATM   24  C   UNL     1       0.576   6.794 -29.500  1.00  0.00     0.051 C 
BRANCH  24  25
HETATM   25  C   UNL     1       0.204   7.442 -28.192  1.00  0.00    -0.019 A 
HETATM   26  C   UNL     1       1.002   8.443 -27.630  1.00  0.00     0.122 A 
HETATM   27  F   UNL     1       2.114   8.844 -28.265  1.00  0.00    -0.206 F 
HETATM   28  C   UNL     1       0.671   9.041 -26.417  1.00  0.00     0.043 A 
HETATM   29  C   UNL     1      -0.476   8.635 -25.739  1.00  0.00     0.003 A 
HETATM   30  C   UNL     1      -1.285   7.636 -26.280  1.00  0.00     0.001 A 
HETATM   31  C   UNL     1      -0.949   7.042 -27.499  1.00  0.00     0.010 A 
ENDBRANCH  24  25
ENDBRANCH  23  24
ENDBRANCH  20  23
ENDBRANCH   2  19
TORSDOF 7
ENDMDL
MODEL 6
REMARK VINA RESULT:      -8.8      3.197     11.350
REMARK  7 active torsions:
REMARK  status: ('A' for Active; 'I' for Inactive)
REMARK    1  A    between atoms: O_2  and  C_3 
REMARK    2  A    between atoms: C_6  and  C_7 
REMARK    3  A    between atoms: C_11  and  C_12 
REMARK       I    between atoms: C_12  and  N_13 
REMARK    4  A    between atoms: N_13  and  N_14 
REMARK       I    between atoms: N_14  and  C_15 
REMARK    5  A    between atoms: C_15  and  C_16 
REMARK    6  A    between atoms: C_16  and  C_17 
REMARK    7  A    between atoms: C_17  and  C_18 
ROOT
HETATM    1  C   UNL     1      -4.202   4.580 -31.444  1.00  0.00     0.288 C 
HETATM    2  N   UNL     1      -2.862   4.470 -31.139  1.00  0.00    -0.262 N 
HETATM    3  O   UNL     1      -4.818   5.635 -31.303  1.00  0.00    -0.264 OA
HETATM    4  H   UNL     1      -2.307   3.670 -31.438  1.00  0.00     0.190 HD
ENDROOT
BRANCH   1   5
HETATM    5  C   UNL     1      -4.813   3.380 -31.948  1.00  0.00     0.121 A 
HETATM    6  N   UNL     1      -6.163   3.271 -32.128  1.00  0.00    -0.272 N 
HETATM    7  N   UNL     1      -6.558   2.093 -32.632  1.00  0.00    -0.174 NA
HETATM    8  H   UNL     1      -6.864   3.980 -31.932  1.00  0.00     0.189 HD
HETATM    9  C   UNL     1      -5.426   1.384 -32.771  1.00  0.00     0.089 A 
HETATM   10  C   UNL     1      -4.310   2.159 -32.349  1.00  0.00     0.071 A 
BRANCH   9  11
HETATM   11  C   UNL     1      -5.423   0.020 -33.310  1.00  0.00    -0.005 A 
HETATM   12  C   UNL     1      -6.538  -0.477 -34.001  1.00  0.00     0.016 A 
HETATM   13  C   UNL     1      -6.534  -1.767 -34.550  1.00  0.00     0.037 A 
HETATM   14  C   UNL     1      -5.412  -2.582 -34.413  1.00  0.00     0.068 A 
HETATM   15  C   UNL     1      -4.306  -2.103 -33.709  1.00  0.00     0.037 A 
HETATM   16  C   UNL     1      -4.308  -0.815 -33.164  1.00  0.00     0.016 A 
BRANCH  14  17
HETATM   17  O   UNL     1      -5.272  -3.850 -34.904  1.00  0.00    -0.356 OA
HETATM   18  C   UNL     1      -6.461  -4.511 -35.319  1.00  0.00     0.210 C 
ENDBRANCH  14  17
ENDBRANCH   9  11
ENDBRANCH   1   5
BRANCH   2  19
HETATM   19  N   UNL     1      -2.129   5.632 -30.848  1.00  0.00    -0.267 N 
HETATM   20  C   UNL     1      -0.761   5.483 -30.719  1.00  0.00     0.236 C 
HETATM   21  O   UNL     1      -0.222   4.378 -30.703  1.00  0.00    -0.272 OA
HETATM   22  H   UNL     1      -2.556   6.516 -31.124  1.00  0.00     0.190 HD
BRANCH  20  23
HETATM   23  C   UNL     1      -0.024   6.793 -30.547  1.00  0.00     0.109 C 
BRANCH  23  24
HETATM   24  C   UNL     1      -0.697   7.670 -29.492  1.00  0.00     0.051 C 
BRANCH  24  25
HETATM   25  C   UNL     1       0.106   7.774 -28.221  1.00  0.00    -0.019 A 
HETATM   26  C   UNL     1      -0.303   7.122 -27.055  1.00  0.00     0.122 A 
HETATM   27  F   UNL     1      -1.422   6.382 -27.062  1.00  0.00    -0.206 F 
HETATM   28  C   UNL     1       0.427   7.220 -25.873  1.00  0.00     0.043 A 
HETATM   29  C   UNL     1       1.589   7.988 -25.843  1.00  0.00     0.003 A 
HETATM   30  C   UNL     1       2.012   8.651 -26.995  1.00  0.00     0.001 A 
HETATM   31  C   UNL     1       1.277   8.545 -28.178  1.00  0.00     0.010 A 
ENDBRANCH  24  25
ENDBRANCH  23  24
ENDBRANCH  20  23
ENDBRANCH   2  19
TORSDOF 7
ENDMDL
MODEL 7
REMARK VINA RESULT:      -8.6      8.717     12.216
REMARK  7 active torsions:
REMARK  status: ('A' for Active; 'I' for Inactive)
REMARK    1  A    between atoms: O_2  and  C_3 
REMARK    2  A    between atoms: C_6  and  C_7 
REMARK    3  A    between atoms: C_11  and  C_12 
REMARK       I    between atoms: C_12  and  N_13 
REMARK    4  A    between atoms: N_13  and  N_14 
REMARK       I    between atoms: N_14  and  C_15 
REMARK    5  A    between atoms: C_15  and  C_16 
REMARK    6  A    between atoms: C_16  and  C_17 
REMARK    7  A    between atoms: C_17  and  C_18 
ROOT
HETATM    1  C   UNL     1     -10.907   1.109 -33.677  1.00  0.00     0.288 C 
HETATM    2  N   UNL     1     -10.277   0.331 -32.730  1.00  0.00    -0.262 N 
HETATM    3  O   UNL     1     -10.321   1.523 -34.676  1.00  0.00    -0.264 OA
HETATM    4  H   UNL     1     -10.798  -0.175 -32.016  1.00  0.00     0.190 HD
ENDROOT
BRANCH   1   5
HETATM    5  C   UNL     1     -12.294   1.385 -33.414  1.00  0.00     0.121 A 
HETATM    6  N   UNL     1     -13.277   0.466 -33.654  1.00  0.00    -0.272 N 
HETATM    7  N   UNL     1     -14.509   0.880 -33.325  1.00  0.00    -0.174 NA
HETATM    8  H   UNL     1     -13.159  -0.469 -34.034  1.00  0.00     0.189 HD
HETATM    9  C   UNL     1     -14.339   2.131 -32.868  1.00  0.00     0.089 A 
HETATM   10  C   UNL     1     -12.961   2.484 -32.913  1.00  0.00     0.071 A 
BRANCH   9  11
HETATM   11  C   UNL     1     -15.462   2.946 -32.390  1.00  0.00    -0.005 A 
HETATM   12  C   UNL     1     -15.277   4.300 -32.077  1.00  0.00     0.016 A 
HETATM   13  C   UNL     1     -16.349   5.097 -31.651  1.00  0.00     0.037 A 
HETATM   14  C   UNL     1     -17.624   4.548 -31.529  1.00  0.00     0.068 A 
HETATM   15  C   UNL     1     -17.811   3.196 -31.818  1.00  0.00     0.037 A 
HETATM   16  C   UNL     1     -16.744   2.401 -32.247  1.00  0.00     0.016 A 
BRANCH  14  17
HETATM   17  O   UNL     1     -18.753   5.211 -31.135  1.00  0.00    -0.356 OA
HETATM   18  C   UNL     1     -19.163   6.310 -31.939  1.00  0.00     0.210 C 
ENDBRANCH  14  17
ENDBRANCH   9  11
ENDBRANCH   1   5
BRANCH   2  19
HETATM   19  N   UNL     1      -8.993  -0.171 -33.002  1.00  0.00    -0.267 N 
HETATM   20  C   UNL     1      -7.950   0.382 -32.284  1.00  0.00     0.236 C 
HETATM   21  O   UNL     1      -8.102   1.363 -31.558  1.00  0.00    -0.272 OA
HETATM   22  H   UNL     1      -8.949  -1.114 -33.386  1.00  0.00     0.190 HD
BRANCH  20  23
HETATM   23  C   UNL     1      -6.622  -0.301 -32.525  1.00  0.00     0.109 C 
BRANCH  23  24
HETATM   24  C   UNL     1      -6.434  -0.634 -34.005  1.00  0.00     0.051 C 
BRANCH  24  25
HETATM   25  C   UNL     1      -6.023  -2.066 -34.233  1.00  0.00    -0.019 A 
HETATM   26  C   UNL     1      -4.696  -2.470 -34.062  1.00  0.00     0.122 A 
HETATM   27  F   UNL     1      -3.771  -1.578 -33.679  1.00  0.00    -0.206 F 
HETATM   28  C   UNL     1      -4.305  -3.789 -34.279  1.00  0.00     0.043 A 
HETATM   29  C   UNL     1      -5.250  -4.730 -34.683  1.00  0.00     0.003 A 
HETATM   30  C   UNL     1      -6.578  -4.346 -34.863  1.00  0.00     0.001 A 
HETATM   31  C   UNL     1      -6.965  -3.022 -34.640  1.00  0.00     0.010 A 
ENDBRANCH  24  25
ENDBRANCH  23  24
ENDBRANCH  20  23
ENDBRANCH   2  19
TORSDOF 7
ENDMDL
MODEL 8
REMARK VINA RESULT:      -8.6      1.715      2.104
REMARK  7 active torsions:
REMARK  status: ('A' for Active; 'I' for Inactive)
REMARK    1  A    between atoms: O_2  and  C_3 
REMARK    2  A    between atoms: C_6  and  C_7 
REMARK    3  A    between atoms: C_11  and  C_12 
REMARK       I    between atoms: C_12  and  N_13 
REMARK    4  A    between atoms: N_13  and  N_14 
REMARK       I    between atoms: N_14  and  C_15 
REMARK    5  A    between atoms: C_15  and  C_16 
REMARK    6  A    between atoms: C_16  and  C_17 
REMARK    7  A    between atoms: C_17  and  C_18 
ROOT
HETATM    1  C   UNL     1      -3.633   3.685 -32.746  1.00  0.00     0.288 C 
HETATM    2  N   UNL     1      -3.619   2.388 -32.277  1.00  0.00    -0.262 N 
HETATM    3  O   UNL     1      -4.416   4.053 -33.621  1.00  0.00    -0.264 OA
HETATM    4  H   UNL     1      -3.122   2.130 -31.427  1.00  0.00     0.190 HD
ENDROOT
BRANCH   1   5
HETATM    5  C   UNL     1      -2.681   4.567 -32.128  1.00  0.00     0.121 A 
HETATM    6  N   UNL     1      -1.463   4.832 -32.690  1.00  0.00    -0.272 N 
HETATM    7  N   UNL     1      -0.713   5.698 -31.993  1.00  0.00    -0.174 NA
HETATM    8  H   UNL     1      -1.097   4.454 -33.558  1.00  0.00     0.189 HD
HETATM    9  C   UNL     1      -1.454   6.004 -30.916  1.00  0.00     0.089 A 
HETATM   10  C   UNL     1      -2.696   5.310 -30.965  1.00  0.00     0.071 A 
BRANCH   9  11
HETATM   11  C   UNL     1      -0.988   6.944 -29.891  1.00  0.00    -0.005 A 
HETATM   12  C   UNL     1       0.364   6.983 -29.521  1.00  0.00     0.016 A 
HETATM   13  C   UNL     1       0.827   7.900 -28.567  1.00  0.00     0.037 A 
HETATM   14  C   UNL     1      -0.059   8.792 -27.965  1.00  0.00     0.068 A 
HETATM   15  C   UNL     1      -1.410   8.745 -28.313  1.00  0.00     0.037 A 
HETATM   16  C   UNL     1      -1.872   7.833 -29.267  1.00  0.00     0.016 A 
BRANCH  14  17
HETATM   17  O   UNL     1       0.259   9.739 -27.032  1.00  0.00    -0.356 OA
HETATM   18  C   UNL     1      -0.787  10.163 -26.169  1.00  0.00     0.210 C 
ENDBRANCH  14  17
ENDBRANCH   9  11
ENDBRANCH   1   5
BRANCH   2  19
HETATM   19  N   UNL     1      -4.648   1.512 -32.659  1.00  0.00    -0.267 N 
HETATM   20  C   UNL     1      -5.101   0.635 -31.692  1.00  0.00     0.236 C 
HETATM   21  O   UNL     1      -4.541   0.513 -30.605  1.00  0.00    -0.272 OA
HETATM   22  H   UNL     1      -5.233   1.815 -33.437  1.00  0.00     0.190 HD
BRANCH  20  23
HETATM   23  C   UNL     1      -6.300  -0.178 -32.128  1.00  0.00     0.109 C 
BRANCH  23  24
HETATM   24  C   UNL     1      -6.306  -0.382 -33.643  1.00  0.00     0.051 C 
BRANCH  24  25
HETATM   25  C   UNL     1      -6.026  -1.809 -34.041  1.00  0.00    -0.019 A 
HETATM   26  C   UNL     1      -4.720  -2.307 -34.064  1.00  0.00     0.122 A 
HETATM   27  F   UNL     1      -3.697  -1.511 -33.720  1.00  0.00    -0.206 F 
HETATM   28  C   UNL     1      -4.451  -3.620 -34.439  1.00  0.00     0.043 A 
HETATM   29  C   UNL     1      -5.499  -4.461 -34.806  1.00  0.00     0.003 A 
HETATM   30  C   UNL     1      -6.809  -3.982 -34.793  1.00  0.00     0.001 A 
HETATM   31  C   UNL     1      -7.073  -2.664 -34.413  1.00  0.00     0.010 A 
ENDBRANCH  24  25
ENDBRANCH  23  24
ENDBRANCH  20  23
ENDBRANCH   2  19
TORSDOF 7
ENDMDL
MODEL 9
REMARK VINA RESULT:      -8.3      3.687     10.894
REMARK  7 active torsions:
REMARK  status: ('A' for Active; 'I' for Inactive)
REMARK    1  A    between atoms: O_2  and  C_3 
REMARK    2  A    between atoms: C_6  and  C_7 
REMARK    3  A    between atoms: C_11  and  C_12 
REMARK       I    between atoms: C_12  and  N_13 
REMARK    4  A    between atoms: N_13  and  N_14 
REMARK       I    between atoms: N_14  and  C_15 
REMARK    5  A    between atoms: C_15  and  C_16 
REMARK    6  A    between atoms: C_16  and  C_17 
REMARK    7  A    between atoms: C_17  and  C_18 
ROOT
HETATM    1  C   UNL     1      -4.040   4.123 -31.218  1.00  0.00     0.288 C 
HETATM    2  N   UNL     1      -4.730   4.773 -30.217  1.00  0.00    -0.262 N 
HETATM    3  O   UNL     1      -2.990   4.567 -31.681  1.00  0.00    -0.264 OA
HETATM    4  H   UNL     1      -5.478   4.319 -29.697  1.00  0.00     0.190 HD
ENDROOT
BRANCH   1   5
HETATM    5  C   UNL     1      -4.631   2.890 -31.663  1.00  0.00     0.121 A 
HETATM    6  N   UNL     1      -5.949   2.597 -31.453  1.00  0.00    -0.272 N 
HETATM    7  N   UNL     1      -6.338   1.418 -31.960  1.00  0.00    -0.174 NA
HETATM    8  H   UNL     1      -6.634   3.176 -30.976  1.00  0.00     0.189 HD
HETATM    9  C   UNL     1      -5.228   0.898 -32.509  1.00  0.00     0.089 A 
HETATM   10  C   UNL     1      -4.135   1.794 -32.339  1.00  0.00     0.071 A 
BRANCH   9  11
HETATM   11  C   UNL     1      -5.230  -0.402 -33.188  1.00  0.00    -0.005 A 
HETATM   12  C   UNL     1      -4.172  -1.304 -33.003  1.00  0.00     0.016 A 
HETATM   13  C   UNL     1      -4.178  -2.563 -33.620  1.00  0.00     0.037 A 
HETATM   14  C   UNL     1      -5.244  -2.938 -34.435  1.00  0.00     0.068 A 
HETATM   15  C   UNL     1      -6.291  -2.037 -34.641  1.00  0.00     0.037 A 
HETATM   16  C   UNL     1      -6.288  -0.783 -34.023  1.00  0.00     0.016 A 
BRANCH  14  17
HETATM   17  O   UNL     1      -5.381  -4.132 -35.086  1.00  0.00    -0.356 OA
HETATM   18  C   UNL     1      -6.702  -4.525 -35.432  1.00  0.00     0.210 C 
ENDBRANCH  14  17
ENDBRANCH   9  11
ENDBRANCH   1   5
BRANCH   2  19
HETATM   19  N   UNL     1      -4.127   5.863 -29.568  1.00  0.00    -0.267 N 
HETATM   20  C   UNL     1      -4.514   7.122 -29.987  1.00  0.00     0.236 C 
HETATM   21  O   UNL     1      -5.228   7.292 -30.974  1.00  0.00    -0.272 OA
HETATM   22  H   UNL     1      -3.770   5.689 -28.629  1.00  0.00     0.190 HD
BRANCH  20  23
HETATM   23  C   UNL     1      -3.933   8.242 -29.154  1.00  0.00     0.109 C 
BRANCH  23  24
HETATM   24  C   UNL     1      -2.904   9.045 -29.950  1.00  0.00     0.051 C 
BRANCH  24  25
HETATM   25  C   UNL     1      -1.702   8.226 -30.344  1.00  0.00    -0.019 A 
HETATM   26  C   UNL     1      -1.519   7.805 -31.664  1.00  0.00     0.122 A 
HETATM   27  F   UNL     1      -2.418   8.139 -32.601  1.00  0.00    -0.206 F 
HETATM   28  C   UNL     1      -0.417   7.039 -32.036  1.00  0.00     0.043 A 
HETATM   29  C   UNL     1       0.526   6.677 -31.076  1.00  0.00     0.003 A 
HETATM   30  C   UNL     1       0.359   7.083 -29.752  1.00  0.00     0.001 A 
HETATM   31  C   UNL     1      -0.747   7.854 -29.386  1.00  0.00     0.010 A 
ENDBRANCH  24  25
ENDBRANCH  23  24
ENDBRANCH  20  23
ENDBRANCH   2  19
TORSDOF 7
ENDMDL
MODEL 10
REMARK VINA RESULT:      -8.2      8.732     12.141
REMARK  7 active torsions:
REMARK  status: ('A' for Active; 'I' for Inactive)
REMARK    1  A    between atoms: O_2  and  C_3 
REMARK    2  A    between atoms: C_6  and  C_7 
REMARK    3  A    between atoms: C_11  and  C_12 
REMARK       I    between atoms: C_12  and  N_13 
REMARK    4  A    between atoms: N_13  and  N_14 
REMARK       I    between atoms: N_14  and  C_15 
REMARK    5  A    between atoms: C_15  and  C_16 
REMARK    6  A    between atoms: C_16  and  C_17 
REMARK    7  A    between atoms: C_17  and  C_18 
ROOT
HETATM    1  C   UNL     1     -10.850   1.487 -33.270  1.00  0.00     0.288 C 
HETATM    2  N   UNL     1     -10.661   2.491 -32.344  1.00  0.00    -0.262 N 
HETATM    3  O   UNL     1     -11.971   1.162 -33.661  1.00  0.00    -0.264 OA
HETATM    4  H   UNL     1      -9.743   2.895 -32.170  1.00  0.00     0.190 HD
ENDROOT
BRANCH   1   5
HETATM    5  C   UNL     1      -9.646   0.864 -33.748  1.00  0.00     0.121 A 
HETATM    6  N   UNL     1      -8.988   1.309 -34.860  1.00  0.00    -0.272 N 
HETATM    7  N   UNL     1      -7.868   0.629 -35.146  1.00  0.00    -0.174 NA
HETATM    8  H   UNL     1      -9.257   2.085 -35.458  1.00  0.00     0.189 HD
HETATM    9  C   UNL     1      -7.791  -0.318 -34.198  1.00  0.00     0.089 A 
HETATM   10  C   UNL     1      -8.893  -0.204 -33.304  1.00  0.00     0.071 A 
BRANCH   9  11
HETATM   11  C   UNL     1      -6.687  -1.282 -34.147  1.00  0.00    -0.005 A 
HETATM   12  C   UNL     1      -6.830  -2.560 -34.705  1.00  0.00     0.016 A 
HETATM   13  C   UNL     1      -5.771  -3.479 -34.693  1.00  0.00     0.037 A 
HETATM   14  C   UNL     1      -4.550  -3.131 -34.117  1.00  0.00     0.068 A 
HETATM   15  C   UNL     1      -4.406  -1.868 -33.541  1.00  0.00     0.037 A 
HETATM   16  C   UNL     1      -5.461  -0.950 -33.556  1.00  0.00     0.016 A 
BRANCH  14  17
HETATM   17  O   UNL     1      -3.438  -3.923 -34.046  1.00  0.00    -0.356 OA
HETATM   18  C   UNL     1      -3.625  -5.247 -33.564  1.00  0.00     0.210 C 
ENDBRANCH  14  17
ENDBRANCH   9  11
ENDBRANCH   1   5
BRANCH   2  19
HETATM   19  N   UNL     1     -11.750   3.300 -31.982  1.00  0.00    -0.267 N 
HETATM   20  C   UNL     1     -11.875   4.502 -32.652  1.00  0.00     0.236 C 
HETATM   21  O   UNL     1     -11.004   4.921 -33.413  1.00  0.00    -0.272 OA
HETATM   22  H   UNL     1     -12.550   2.823 -31.568  1.00  0.00     0.190 HD
BRANCH  20  23
HETATM   23  C   UNL     1     -13.142   5.255 -32.313  1.00  0.00     0.109 C 
BRANCH  23  24
HETATM   24  C   UNL     1     -13.917   4.554 -31.197  1.00  0.00     0.051 C 
BRANCH  24  25
HETATM   25  C   UNL     1     -15.299   4.130 -31.624  1.00  0.00    -0.019 A 
HETATM   26  C   UNL     1     -15.555   2.819 -32.036  1.00  0.00     0.122 A 
HETATM   27  F   UNL     1     -14.562   1.917 -32.045  1.00  0.00    -0.206 F 
HETATM   28  C   UNL     1     -16.826   2.421 -32.440  1.00  0.00     0.043 A 
HETATM   29  C   UNL     1     -17.870   3.343 -32.443  1.00  0.00     0.003 A 
HETATM   30  C   UNL     1     -17.634   4.658 -32.040  1.00  0.00     0.001 A 
HETATM   31  C   UNL     1     -16.357   5.051 -31.631  1.00  0.00     0.010 A 
ENDBRANCH  24  25
ENDBRANCH  23  24
ENDBRANCH  20  23
ENDBRANCH   2  19
TORSDOF 7
ENDMDL
