MODEL 1
REMARK VINA RESULT:      -9.2      0.000      0.000
REMARK  3 active torsions:
REMARK  status: ('A' for Active; 'I' for Inactive)
REMARK    1  A    between atoms: C_2  and  C_3 
REMARK    2  A    between atoms: C_10  and  O_11 
REMARK    3  A    between atoms: C_10  and  C_12 
ROOT
HETATM    1  C   UNL     1      -4.657  -4.129 -34.210  1.00  0.00    -0.058 A 
HETATM    2  C   UNL     1      -4.823  -2.740 -34.076  1.00  0.00     0.020 A 
HETATM    3  C   UNL     1      -4.099  -2.075 -33.096  1.00  0.00     0.018 A 
HETATM    4  C   UNL     1      -3.213  -2.776 -32.278  1.00  0.00     0.045 A 
HETATM    5  N   UNL     1      -2.588  -1.917 -31.388  1.00  0.00    -0.323 N 
HETATM    6  C   UNL     1      -3.025  -0.601 -31.555  1.00  0.00     0.266 A 
HETATM    7  O   UNL     1      -2.605   0.347 -30.907  1.00  0.00    -0.269 OA
HETATM    8  C   UNL     1      -4.074  -0.603 -32.732  1.00  0.00     0.198 A 
HETATM    9  C   UNL     1      -3.022  -4.137 -32.386  1.00  0.00     0.031 A 
HETATM   10  C   UNL     1      -3.760  -4.815 -33.362  1.00  0.00     0.009 A 
HETATM   11  H   UNL     1      -1.905  -2.177 -30.693  1.00  0.00     0.169 HD
ENDROOT
BRANCH   8  12
HETATM   12  O   UNL     1      -3.625   0.163 -33.841  1.00  0.00    -0.371 OA
HETATM   13  H   UNL     1      -2.895  -0.336 -34.240  1.00  0.00     0.212 HD
ENDBRANCH   8  12
BRANCH   8  14
HETATM   14  C   UNL     1      -5.472  -0.266 -32.271  1.00  0.00     0.018 A 
HETATM   15  C   UNL     1      -6.613   0.044 -33.098  1.00  0.00     0.002 A 
HETATM   16  C   UNL     1      -7.707   0.247 -32.255  1.00  0.00     0.043 A 
HETATM   17  C   UNL     1      -6.821   0.160 -34.489  1.00  0.00     0.014 A 
HETATM   18  C   UNL     1      -8.989   0.554 -32.730  1.00  0.00     0.030 A 
HETATM   19  N   UNL     1      -7.260   0.092 -30.967  1.00  0.00    -0.365 N 
HETATM   20  C   UNL     1      -9.163   0.660 -34.112  1.00  0.00     0.002 A 
HETATM   21  C   UNL     1      -8.095   0.468 -34.982  1.00  0.00     0.001 A 
HETATM   22  H   UNL     1      -7.840   0.193 -30.145  1.00  0.00     0.165 HD
HETATM   23  C   UNL     1      -5.930  -0.221 -30.961  1.00  0.00     0.100 A 
ENDBRANCH   8  14
BRANCH   1  24
HETATM   24  C   UNL     1      -5.470  -4.889 -35.229  1.00  0.00     0.034 C 
HETATM   25  C   UNL     1      -6.887  -4.345 -35.334  1.00  0.00     0.010 C 
ENDBRANCH   1  24
TORSDOF 3
ENDMDL
MODEL 2
REMARK VINA RESULT:      -8.1      3.516      5.053
REMARK  3 active torsions:
REMARK  status: ('A' for Active; 'I' for Inactive)
REMARK    1  A    between atoms: C_2  and  C_3 
REMARK    2  A    between atoms: C_10  and  O_11 
REMARK    3  A    between atoms: C_10  and  C_12 
ROOT
HETATM    1  C   UNL     1      -6.026  -1.301 -34.120  1.00  0.00    -0.058 A 
HETATM    2  C   UNL     1      -5.858  -0.465 -33.003  1.00  0.00     0.020 A 
HETATM    3  C   UNL     1      -6.660   0.661 -32.888  1.00  0.00     0.018 A 
HETATM    4  C   UNL     1      -7.625   0.940 -33.857  1.00  0.00     0.045 A 
HETATM    5  N   UNL     1      -8.318   2.096 -33.536  1.00  0.00    -0.323 N 
HETATM    6  C   UNL     1      -7.854   2.656 -32.343  1.00  0.00     0.266 A 
HETATM    7  O   UNL     1      -8.321   3.664 -31.834  1.00  0.00    -0.269 OA
HETATM    8  C   UNL     1      -6.703   1.723 -31.806  1.00  0.00     0.198 A 
HETATM    9  C   UNL     1      -7.819   0.139 -34.962  1.00  0.00     0.031 A 
HETATM   10  C   UNL     1      -7.003  -0.989 -35.091  1.00  0.00     0.009 A 
HETATM   11  H   UNL     1      -9.064   2.509 -34.074  1.00  0.00     0.169 HD
ENDROOT
BRANCH   8  12
HETATM   12  O   UNL     1      -7.041   1.130 -30.560  1.00  0.00    -0.371 OA
HETATM   13  H   UNL     1      -7.436   0.268 -30.765  1.00  0.00     0.212 HD
ENDBRANCH   8  12
BRANCH   8  14
HETATM   14  C   UNL     1      -5.349   2.391 -31.827  1.00  0.00     0.018 A 
HETATM   15  C   UNL     1      -4.860   3.342 -32.796  1.00  0.00     0.002 A 
HETATM   16  C   UNL     1      -3.577   3.728 -32.404  1.00  0.00     0.043 A 
HETATM   17  C   UNL     1      -5.394   3.921 -33.967  1.00  0.00     0.014 A 
HETATM   18  C   UNL     1      -2.809   4.660 -33.115  1.00  0.00     0.030 A 
HETATM   19  N   UNL     1      -3.277   3.032 -31.259  1.00  0.00    -0.365 N 
HETATM   20  C   UNL     1      -3.367   5.217 -34.269  1.00  0.00     0.002 A 
HETATM   21  C   UNL     1      -4.641   4.853 -34.692  1.00  0.00     0.001 A 
HETATM   22  H   UNL     1      -2.403   3.108 -30.757  1.00  0.00     0.165 HD
HETATM   23  C   UNL     1      -4.328   2.236 -30.899  1.00  0.00     0.100 A 
ENDBRANCH   8  14
BRANCH   1  24
HETATM   24  C   UNL     1      -5.132  -2.504 -34.301  1.00  0.00     0.034 C 
HETATM   25  C   UNL     1      -5.841  -3.619 -35.055  1.00  0.00     0.010 C 
ENDBRANCH   1  24
TORSDOF 3
ENDMDL
MODEL 3
REMARK VINA RESULT:      -8.0      2.510      3.944
REMARK  3 active torsions:
REMARK  status: ('A' for Active; 'I' for Inactive)
REMARK    1  A    between atoms: C_2  and  C_3 
REMARK    2  A    between atoms: C_10  and  O_11 
REMARK    3  A    between atoms: C_10  and  C_12 
ROOT
HETATM    1  C   UNL     1      -5.759  -1.690 -34.196  1.00  0.00    -0.058 A 
HETATM    2  C   UNL     1      -6.685  -0.643 -34.338  1.00  0.00     0.020 A 
HETATM    3  C   UNL     1      -6.773   0.308 -33.331  1.00  0.00     0.018 A 
HETATM    4  C   UNL     1      -5.943   0.228 -32.213  1.00  0.00     0.045 A 
HETATM    5  N   UNL     1      -6.188   1.283 -31.348  1.00  0.00    -0.323 N 
HETATM    6  C   UNL     1      -7.196   2.119 -31.834  1.00  0.00     0.266 A 
HETATM    7  O   UNL     1      -7.576   3.132 -31.266  1.00  0.00    -0.269 OA
HETATM    8  C   UNL     1      -7.664   1.531 -33.219  1.00  0.00     0.198 A 
HETATM    9  C   UNL     1      -5.021  -0.783 -32.045  1.00  0.00     0.031 A 
HETATM   10  C   UNL     1      -4.937  -1.752 -33.049  1.00  0.00     0.009 A 
HETATM   11  H   UNL     1      -5.719   1.451 -30.471  1.00  0.00     0.169 HD
ENDROOT
BRANCH   8  12
HETATM   12  O   UNL     1      -7.396   2.424 -34.290  1.00  0.00    -0.371 OA
HETATM   13  H   UNL     1      -8.152   2.361 -34.895  1.00  0.00     0.212 HD
ENDBRANCH   8  12
BRANCH   8  14
HETATM   14  C   UNL     1      -9.080   1.009 -33.186  1.00  0.00     0.018 A 
HETATM   15  C   UNL     1     -10.234   1.572 -33.846  1.00  0.00     0.002 A 
HETATM   16  C   UNL     1     -11.324   0.743 -33.578  1.00  0.00     0.043 A 
HETATM   17  C   UNL     1     -10.451   2.706 -34.658  1.00  0.00     0.014 A 
HETATM   18  C   UNL     1     -12.610   0.987 -34.080  1.00  0.00     0.030 A 
HETATM   19  N   UNL     1     -10.873  -0.272 -32.772  1.00  0.00    -0.365 N 
HETATM   20  C   UNL     1     -12.791   2.116 -34.882  1.00  0.00     0.002 A 
HETATM   21  C   UNL     1     -11.728   2.967 -35.167  1.00  0.00     0.001 A 
HETATM   22  H   UNL     1     -11.453  -1.018 -32.413  1.00  0.00     0.165 HD
HETATM   23  C   UNL     1      -9.534  -0.131 -32.536  1.00  0.00     0.100 A 
ENDBRANCH   8  14
BRANCH   1  24
HETATM   24  C   UNL     1      -5.676  -2.769 -35.248  1.00  0.00     0.034 C 
HETATM   25  C   UNL     1      -6.644  -3.908 -34.960  1.00  0.00     0.010 C 
ENDBRANCH   1  24
TORSDOF 3
ENDMDL
MODEL 4
REMARK VINA RESULT:      -7.7     12.898     14.427
REMARK  3 active torsions:
REMARK  status: ('A' for Active; 'I' for Inactive)
REMARK    1  A    between atoms: C_2  and  C_3 
REMARK    2  A    between atoms: C_10  and  O_11 
REMARK    3  A    between atoms: C_10  and  C_12 
ROOT
HETATM    1  C   UNL     1      -4.109 -14.737 -42.888  1.00  0.00    -0.058 A 
HETATM    2  C   UNL     1      -4.879 -13.914 -42.050  1.00  0.00     0.020 A 
HETATM    3  C   UNL     1      -4.331 -13.489 -40.848  1.00  0.00     0.018 A 
HETATM    4  C   UNL     1      -3.033 -13.861 -40.496  1.00  0.00     0.045 A 
HETATM    5  N   UNL     1      -2.685 -13.314 -39.271  1.00  0.00    -0.323 N 
HETATM    6  C   UNL     1      -3.728 -12.555 -38.735  1.00  0.00     0.266 A 
HETATM    7  O   UNL     1      -3.658 -11.950 -37.675  1.00  0.00    -0.269 OA
HETATM    8  C   UNL     1      -4.920 -12.605 -39.765  1.00  0.00     0.198 A 
HETATM    9  C   UNL     1      -2.248 -14.663 -41.297  1.00  0.00     0.031 A 
HETATM   10  C   UNL     1      -2.801 -15.106 -42.503  1.00  0.00     0.009 A 
HETATM   11  H   UNL     1      -1.802 -13.432 -38.798  1.00  0.00     0.169 HD
ENDROOT
BRANCH   8  12
HETATM   12  O   UNL     1      -5.214 -11.321 -40.295  1.00  0.00    -0.371 OA
HETATM   13  H   UNL     1      -4.974 -10.679 -39.609  1.00  0.00     0.212 HD
ENDBRANCH   8  12
BRANCH   8  14
HETATM   14  C   UNL     1      -6.123 -13.348 -39.234  1.00  0.00     0.018 A 
HETATM   15  C   UNL     1      -7.512 -13.059 -39.493  1.00  0.00     0.002 A 
HETATM   16  C   UNL     1      -8.278 -14.023 -38.836  1.00  0.00     0.043 A 
HETATM   17  C   UNL     1      -8.192 -12.070 -40.237  1.00  0.00     0.014 A 
HETATM   18  C   UNL     1      -9.678 -14.051 -38.889  1.00  0.00     0.030 A 
HETATM   19  N   UNL     1      -7.406 -14.857 -38.183  1.00  0.00    -0.365 N 
HETATM   20  C   UNL     1     -10.321 -13.060 -39.635  1.00  0.00     0.002 A 
HETATM   21  C   UNL     1      -9.591 -12.080 -40.299  1.00  0.00     0.001 A 
HETATM   22  H   UNL     1      -7.685 -15.645 -37.616  1.00  0.00     0.165 HD
HETATM   23  C   UNL     1      -6.116 -14.471 -38.417  1.00  0.00     0.100 A 
ENDBRANCH   8  14
BRANCH   1  24
HETATM   24  C   UNL     1      -4.697 -15.260 -44.176  1.00  0.00     0.034 C 
HETATM   25  C   UNL     1      -3.623 -15.829 -45.092  1.00  0.00     0.010 C 
ENDBRANCH   1  24
TORSDOF 3
ENDMDL
MODEL 5
REMARK VINA RESULT:      -7.6      2.474      6.256
REMARK  3 active torsions:
REMARK  status: ('A' for Active; 'I' for Inactive)
REMARK    1  A    between atoms: C_2  and  C_3 
REMARK    2  A    between atoms: C_10  and  O_11 
REMARK    3  A    between atoms: C_10  and  C_12 
ROOT
HETATM    1  C   UNL     1     -11.151   0.776 -33.577  1.00  0.00    -0.058 A 
HETATM    2  C   UNL     1      -9.918   0.352 -33.055  1.00  0.00     0.020 A 
HETATM    3  C   UNL     1      -8.821   1.193 -33.173  1.00  0.00     0.018 A 
HETATM    4  C   UNL     1      -8.953   2.441 -33.783  1.00  0.00     0.045 A 
HETATM    5  N   UNL     1      -7.743   3.117 -33.777  1.00  0.00    -0.323 N 
HETATM    6  C   UNL     1      -6.738   2.360 -33.172  1.00  0.00     0.266 A 
HETATM    7  O   UNL     1      -5.588   2.746 -33.021  1.00  0.00    -0.269 OA
HETATM    8  C   UNL     1      -7.390   1.003 -32.706  1.00  0.00     0.198 A 
HETATM    9  C   UNL     1     -10.149   2.890 -34.301  1.00  0.00     0.031 A 
HETATM   10  C   UNL     1     -11.255   2.040 -34.198  1.00  0.00     0.009 A 
HETATM   11  H   UNL     1      -7.576   4.036 -34.156  1.00  0.00     0.169 HD
ENDROOT
BRANCH   8  12
HETATM   12  O   UNL     1      -7.357   0.858 -31.294  1.00  0.00    -0.371 OA
HETATM   13  H   UNL     1      -6.427   0.939 -31.031  1.00  0.00     0.212 HD
ENDBRANCH   8  12
BRANCH   8  14
HETATM   14  C   UNL     1      -6.863  -0.192 -33.465  1.00  0.00     0.018 A 
HETATM   15  C   UNL     1      -5.697  -0.982 -33.149  1.00  0.00     0.002 A 
HETATM   16  C   UNL     1      -5.611  -2.009 -34.090  1.00  0.00     0.043 A 
HETATM   17  C   UNL     1      -4.710  -0.926 -32.141  1.00  0.00     0.014 A 
HETATM   18  C   UNL     1      -4.599  -2.978 -34.072  1.00  0.00     0.030 A 
HETATM   19  N   UNL     1      -6.661  -1.851 -34.960  1.00  0.00    -0.365 N 
HETATM   20  C   UNL     1      -3.638  -2.896 -33.061  1.00  0.00     0.002 A 
HETATM   21  C   UNL     1      -3.690  -1.883 -32.108  1.00  0.00     0.001 A 
HETATM   22  H   UNL     1      -6.842  -2.451 -35.752  1.00  0.00     0.165 HD
HETATM   23  C   UNL     1      -7.421  -0.774 -34.595  1.00  0.00     0.100 A 
ENDBRANCH   8  14
BRANCH   1  24
HETATM   24  C   UNL     1     -12.350  -0.139 -33.512  1.00  0.00     0.034 C 
HETATM   25  C   UNL     1     -13.574   0.495 -34.157  1.00  0.00     0.010 C 
ENDBRANCH   1  24
TORSDOF 3
ENDMDL
MODEL 6
REMARK VINA RESULT:      -7.6      3.141      6.097
REMARK  3 active torsions:
REMARK  status: ('A' for Active; 'I' for Inactive)
REMARK    1  A    between atoms: C_2  and  C_3 
REMARK    2  A    between atoms: C_10  and  O_11 
REMARK    3  A    between atoms: C_10  and  C_12 
ROOT
HETATM    1  C   UNL     1      -4.003   4.119 -32.064  1.00  0.00    -0.058 A 
HETATM    2  C   UNL     1      -4.604   3.081 -32.796  1.00  0.00     0.020 A 
HETATM    3  C   UNL     1      -5.646   2.373 -32.214  1.00  0.00     0.018 A 
HETATM    4  C   UNL     1      -6.094   2.704 -30.934  1.00  0.00     0.045 A 
HETATM    5  N   UNL     1      -7.146   1.884 -30.560  1.00  0.00    -0.323 N 
HETATM    6  C   UNL     1      -7.456   0.960 -31.560  1.00  0.00     0.266 A 
HETATM    7  O   UNL     1      -8.363   0.144 -31.480  1.00  0.00    -0.269 OA
HETATM    8  C   UNL     1      -6.472   1.225 -32.762  1.00  0.00     0.198 A 
HETATM    9  C   UNL     1      -5.530   3.719 -30.191  1.00  0.00     0.031 A 
HETATM   10  C   UNL     1      -4.470   4.426 -30.766  1.00  0.00     0.009 A 
HETATM   11  H   UNL     1      -7.644   1.922 -29.683  1.00  0.00     0.169 HD
ENDROOT
BRANCH   8  12
HETATM   12  O   UNL     1      -7.164   1.641 -33.930  1.00  0.00    -0.371 OA
HETATM   13  H   UNL     1      -6.892   2.557 -34.099  1.00  0.00     0.212 HD
ENDBRANCH   8  12
BRANCH   8  14
HETATM   14  C   UNL     1      -5.503   0.089 -32.988  1.00  0.00     0.018 A 
HETATM   15  C   UNL     1      -5.772  -1.175 -33.630  1.00  0.00     0.002 A 
HETATM   16  C   UNL     1      -4.581  -1.901 -33.658  1.00  0.00     0.043 A 
HETATM   17  C   UNL     1      -6.919  -1.766 -34.203  1.00  0.00     0.014 A 
HETATM   18  C   UNL     1      -4.478  -3.177 -34.229  1.00  0.00     0.030 A 
HETATM   19  N   UNL     1      -3.623  -1.133 -33.043  1.00  0.00    -0.365 N 
HETATM   20  C   UNL     1      -5.630  -3.733 -34.789  1.00  0.00     0.002 A 
HETATM   21  C   UNL     1      -6.836  -3.041 -34.775  1.00  0.00     0.001 A 
HETATM   22  H   UNL     1      -2.662  -1.415 -32.912  1.00  0.00     0.165 HD
HETATM   23  C   UNL     1      -4.157   0.060 -32.644  1.00  0.00     0.100 A 
ENDBRANCH   8  14
BRANCH   1  24
HETATM   24  C   UNL     1      -2.833   4.872 -32.648  1.00  0.00     0.034 C 
HETATM   25  C   UNL     1      -1.634   4.857 -31.711  1.00  0.00     0.010 C 
ENDBRANCH   1  24
TORSDOF 3
ENDMDL
MODEL 7
REMARK VINA RESULT:      -7.5     12.722     13.972
REMARK  3 active torsions:
REMARK  status: ('A' for Active; 'I' for Inactive)
REMARK    1  A    between atoms: C_2  and  C_3 
REMARK    2  A    between atoms: C_10  and  O_11 
REMARK    3  A    between atoms: C_10  and  C_12 
ROOT
HETATM    1  C   UNL     1      -7.554 -12.437 -39.700  1.00  0.00    -0.058 A 
HETATM    2  C   UNL     1      -6.789 -12.649 -38.541  1.00  0.00     0.020 A 
HETATM    3  C   UNL     1      -5.435 -12.922 -38.679  1.00  0.00     0.018 A 
HETATM    4  C   UNL     1      -4.851 -12.965 -39.946  1.00  0.00     0.045 A 
HETATM    5  N   UNL     1      -3.496 -13.236 -39.848  1.00  0.00    -0.323 N 
HETATM    6  C   UNL     1      -3.100 -13.394 -38.518  1.00  0.00     0.266 A 
HETATM    7  O   UNL     1      -1.950 -13.614 -38.169  1.00  0.00    -0.269 OA
HETATM    8  C   UNL     1      -4.379 -13.184 -37.622  1.00  0.00     0.198 A 
HETATM    9  C   UNL     1      -5.573 -12.758 -41.102  1.00  0.00     0.031 A 
HETATM   10  C   UNL     1      -6.940 -12.496 -40.970  1.00  0.00     0.009 A 
HETATM   11  H   UNL     1      -2.850 -13.318 -40.619  1.00  0.00     0.169 HD
ENDROOT
BRANCH   8  12
HETATM   12  O   UNL     1      -4.251 -12.051 -36.775  1.00  0.00    -0.371 OA
HETATM   13  H   UNL     1      -4.762 -12.247 -35.974  1.00  0.00     0.212 HD
ENDBRANCH   8  12
BRANCH   8  14
HETATM   14  C   UNL     1      -4.810 -14.444 -36.910  1.00  0.00     0.018 A 
HETATM   15  C   UNL     1      -5.646 -14.543 -35.738  1.00  0.00     0.002 A 
HETATM   16  C   UNL     1      -5.819 -15.898 -35.452  1.00  0.00     0.043 A 
HETATM   17  C   UNL     1      -6.282 -13.604 -34.897  1.00  0.00     0.014 A 
HETATM   18  C   UNL     1      -6.594 -16.358 -34.378  1.00  0.00     0.030 A 
HETATM   19  N   UNL     1      -5.108 -16.604 -36.389  1.00  0.00    -0.365 N 
HETATM   20  C   UNL     1      -7.212 -15.404 -33.566  1.00  0.00     0.002 A 
HETATM   21  C   UNL     1      -7.058 -14.044 -33.819  1.00  0.00     0.001 A 
HETATM   22  H   UNL     1      -5.046 -17.612 -36.419  1.00  0.00     0.165 HD
HETATM   23  C   UNL     1      -4.506 -15.750 -37.270  1.00  0.00     0.100 A 
ENDBRANCH   8  14
BRANCH   1  24
HETATM   24  C   UNL     1      -9.039 -12.191 -39.586  1.00  0.00     0.034 C 
HETATM   25  C   UNL     1      -9.781 -13.440 -39.132  1.00  0.00     0.010 C 
ENDBRANCH   1  24
TORSDOF 3
ENDMDL
MODEL 8
REMARK VINA RESULT:      -7.4      4.166      6.101
REMARK  3 active torsions:
REMARK  status: ('A' for Active; 'I' for Inactive)
REMARK    1  A    between atoms: C_2  and  C_3 
REMARK    2  A    between atoms: C_10  and  O_11 
REMARK    3  A    between atoms: C_10  and  C_12 
ROOT
HETATM    1  C   UNL     1      -5.373  -0.408 -33.699  1.00  0.00    -0.058 A 
HETATM    2  C   UNL     1      -5.227   0.856 -33.104  1.00  0.00     0.020 A 
HETATM    3  C   UNL     1      -6.248   1.784 -33.255  1.00  0.00     0.018 A 
HETATM    4  C   UNL     1      -7.400   1.453 -33.969  1.00  0.00     0.045 A 
HETATM    5  N   UNL     1      -8.289   2.516 -33.979  1.00  0.00    -0.323 N 
HETATM    6  C   UNL     1      -7.781   3.614 -33.282  1.00  0.00     0.266 A 
HETATM    7  O   UNL     1      -8.387   4.665 -33.125  1.00  0.00    -0.269 OA
HETATM    8  C   UNL     1      -6.365   3.202 -32.727  1.00  0.00     0.198 A 
HETATM    9  C   UNL     1      -7.577   0.221 -34.562  1.00  0.00     0.031 A 
HETATM   10  C   UNL     1      -6.546  -0.713 -34.425  1.00  0.00     0.009 A 
HETATM   11  H   UNL     1      -9.193   2.529 -34.427  1.00  0.00     0.169 HD
ENDROOT
BRANCH   8  12
HETATM   12  O   UNL     1      -6.335   3.193 -31.307  1.00  0.00    -0.371 OA
HETATM   13  H   UNL     1      -6.432   4.117 -31.025  1.00  0.00     0.212 HD
ENDBRANCH   8  12
BRANCH   8  14
HETATM   14  C   UNL     1      -5.237   3.975 -33.367  1.00  0.00     0.018 A 
HETATM   15  C   UNL     1      -3.927   4.226 -32.816  1.00  0.00     0.002 A 
HETATM   16  C   UNL     1      -3.196   4.942 -33.765  1.00  0.00     0.043 A 
HETATM   17  C   UNL     1      -3.289   3.899 -31.600  1.00  0.00     0.014 A 
HETATM   18  C   UNL     1      -1.868   5.342 -33.561  1.00  0.00     0.030 A 
HETATM   19  N   UNL     1      -4.020   5.145 -34.843  1.00  0.00    -0.365 N 
HETATM   20  C   UNL     1      -1.264   5.002 -32.349  1.00  0.00     0.002 A 
HETATM   21  C   UNL     1      -1.964   4.292 -31.378  1.00  0.00     0.001 A 
HETATM   22  H   UNL     1      -3.754   5.646 -35.679  1.00  0.00     0.165 HD
HETATM   23  C   UNL     1      -5.239   4.567 -34.623  1.00  0.00     0.100 A 
ENDBRANCH   8  14
BRANCH   1  24
HETATM   24  C   UNL     1      -4.258  -1.420 -33.598  1.00  0.00     0.034 C 
HETATM   25  C   UNL     1      -4.585  -2.692 -34.366  1.00  0.00     0.010 C 
ENDBRANCH   1  24
TORSDOF 3
ENDMDL
MODEL 9
REMARK VINA RESULT:      -7.3      3.242      6.545
REMARK  3 active torsions:
REMARK  status: ('A' for Active; 'I' for Inactive)
REMARK    1  A    between atoms: C_2  and  C_3 
REMARK    2  A    between atoms: C_10  and  O_11 
REMARK    3  A    between atoms: C_10  and  C_12 
ROOT
HETATM    1  C   UNL     1      -6.744   4.572 -32.988  1.00  0.00    -0.058 A 
HETATM    2  C   UNL     1      -6.819   3.331 -33.643  1.00  0.00     0.020 A 
HETATM    3  C   UNL     1      -7.712   2.381 -33.169  1.00  0.00     0.018 A 
HETATM    4  C   UNL     1      -8.528   2.667 -32.074  1.00  0.00     0.045 A 
HETATM    5  N   UNL     1      -9.349   1.589 -31.783  1.00  0.00    -0.323 N 
HETATM    6  C   UNL     1      -9.123   0.524 -32.659  1.00  0.00     0.266 A 
HETATM    7  O   UNL     1      -9.740  -0.531 -32.625  1.00  0.00    -0.269 OA
HETATM    8  C   UNL     1      -8.006   0.980 -33.672  1.00  0.00     0.198 A 
HETATM    9  C   UNL     1      -8.484   3.875 -31.411  1.00  0.00     0.031 A 
HETATM   10  C   UNL     1      -7.576   4.831 -31.876  1.00  0.00     0.009 A 
HETATM   11  H   UNL     1     -10.029   1.544 -31.039  1.00  0.00     0.169 HD
ENDROOT
BRANCH   8  12
HETATM   12  O   UNL     1      -8.492   1.037 -35.005  1.00  0.00    -0.371 OA
HETATM   13  H   UNL     1      -8.586   0.118 -35.302  1.00  0.00     0.212 HD
ENDBRANCH   8  12
BRANCH   8  14
HETATM   14  C   UNL     1      -6.719   0.205 -33.513  1.00  0.00     0.018 A 
HETATM   15  C   UNL     1      -6.449  -1.139 -33.962  1.00  0.00     0.002 A 
HETATM   16  C   UNL     1      -5.123  -1.435 -33.644  1.00  0.00     0.043 A 
HETATM   17  C   UNL     1      -7.207  -2.131 -34.621  1.00  0.00     0.014 A 
HETATM   18  C   UNL     1      -4.520  -2.662 -33.953  1.00  0.00     0.030 A 
HETATM   19  N   UNL     1      -4.603  -0.335 -33.009  1.00  0.00    -0.365 N 
HETATM   20  C   UNL     1      -5.296  -3.622 -34.607  1.00  0.00     0.002 A 
HETATM   21  C   UNL     1      -6.622  -3.363 -34.936  1.00  0.00     0.001 A 
HETATM   22  H   UNL     1      -3.657  -0.272 -32.658  1.00  0.00     0.165 HD
HETATM   23  C   UNL     1      -5.542   0.655 -32.930  1.00  0.00     0.100 A 
ENDBRANCH   8  14
BRANCH   1  24
HETATM   24  C   UNL     1      -5.745   5.606 -33.447  1.00  0.00     0.034 C 
HETATM   25  C   UNL     1      -4.738   5.017 -34.424  1.00  0.00     0.010 C 
ENDBRANCH   1  24
TORSDOF 3
ENDMDL
MODEL 10
REMARK VINA RESULT:      -7.3      2.269      3.122
REMARK  3 active torsions:
REMARK  status: ('A' for Active; 'I' for Inactive)
REMARK    1  A    between atoms: C_2  and  C_3 
REMARK    2  A    between atoms: C_10  and  O_11 
REMARK    3  A    between atoms: C_10  and  C_12 
ROOT
HETATM    1  C   UNL     1      -4.246  -1.113 -33.088  1.00  0.00    -0.058 A 
HETATM    2  C   UNL     1      -5.011   0.057 -33.231  1.00  0.00     0.020 A 
HETATM    3  C   UNL     1      -4.708   1.151 -32.433  1.00  0.00     0.018 A 
HETATM    4  C   UNL     1      -3.651   1.088 -31.523  1.00  0.00     0.045 A 
HETATM    5  N   UNL     1      -3.517   2.290 -30.848  1.00  0.00    -0.323 N 
HETATM    6  C   UNL     1      -4.476   3.218 -31.261  1.00  0.00     0.266 A 
HETATM    7  O   UNL     1      -4.550   4.361 -30.834  1.00  0.00    -0.269 OA
HETATM    8  C   UNL     1      -5.350   2.524 -32.374  1.00  0.00     0.198 A 
HETATM    9  C   UNL     1      -2.879  -0.043 -31.362  1.00  0.00     0.031 A 
HETATM   10  C   UNL     1      -3.189  -1.153 -32.153  1.00  0.00     0.009 A 
HETATM   11  H   UNL     1      -2.829   2.500 -30.140  1.00  0.00     0.169 HD
ENDROOT
BRANCH   8  12
HETATM   12  O   UNL     1      -5.219   3.173 -33.630  1.00  0.00    -0.371 OA
HETATM   13  H   UNL     1      -6.062   3.044 -34.095  1.00  0.00     0.212 HD
ENDBRANCH   8  12
BRANCH   8  14
HETATM   14  C   UNL     1      -6.778   2.294 -31.939  1.00  0.00     0.018 A 
HETATM   15  C   UNL     1      -7.878   1.846 -32.758  1.00  0.00     0.002 A 
HETATM   16  C   UNL     1      -9.001   1.732 -31.936  1.00  0.00     0.043 A 
HETATM   17  C   UNL     1      -8.022   1.515 -34.122  1.00  0.00     0.014 A 
HETATM   18  C   UNL     1     -10.250   1.303 -32.406  1.00  0.00     0.030 A 
HETATM   19  N   UNL     1      -8.620   2.113 -30.674  1.00  0.00    -0.365 N 
HETATM   20  C   UNL     1     -10.359   0.980 -33.761  1.00  0.00     0.002 A 
HETATM   21  C   UNL     1      -9.263   1.086 -34.610  1.00  0.00     0.001 A 
HETATM   22  H   UNL     1      -9.236   2.137 -29.874  1.00  0.00     0.165 HD
HETATM   23  C   UNL     1      -7.294   2.444 -30.659  1.00  0.00     0.100 A 
ENDBRANCH   8  14
BRANCH   1  24
HETATM   24  C   UNL     1      -4.586  -2.337 -33.903  1.00  0.00     0.034 C 
HETATM   25  C   UNL     1      -5.946  -2.206 -34.573  1.00  0.00     0.010 C 
ENDBRANCH   1  24
TORSDOF 3
ENDMDL
