MODEL 1
REMARK VINA RESULT:      -8.8      0.000      0.000
REMARK  5 active torsions:
REMARK  status: ('A' for Active; 'I' for Inactive)
REMARK    1  A    between atoms: C_3  and  N_4 
REMARK       I    between atoms: N_4  and  C_5 
REMARK    2  A    between atoms: C_5  and  C_6 
REMARK    3  A    between atoms: C_6  and  N_7 
REMARK       I    between atoms: N_7  and  C_8 
REMARK    4  A    between atoms: C_8  and  C_9 
REMARK    5  A    between atoms: C_13  and  C_14 
ROOT
HETATM    1  N   UNL     1      -2.799   3.571 -31.972  1.00  0.00    -0.347 N 
HETATM    2  C   UNL     1      -3.961   3.139 -31.387  1.00  0.00     0.270 C 
HETATM    3  O   UNL     1      -4.619   3.876 -30.659  1.00  0.00    -0.266 OA
HETATM    4  H   UNL     1      -2.246   2.932 -32.524  1.00  0.00     0.163 HD
ENDROOT
BRANCH   2   5
HETATM    5  C   UNL     1      -4.327   1.774 -31.630  1.00  0.00     0.120 A 
HETATM    6  N   UNL     1      -5.174   1.104 -30.787  1.00  0.00    -0.272 N 
HETATM    7  H   UNL     1      -5.619   1.471 -29.951  1.00  0.00     0.189 HD
HETATM    8  N   UNL     1      -5.418  -0.164 -31.144  1.00  0.00    -0.173 NA
HETATM    9  C   UNL     1      -4.696  -0.330 -32.256  1.00  0.00     0.093 A 
HETATM   10  C   UNL     1      -4.010   0.855 -32.614  1.00  0.00     0.071 A 
BRANCH   9  11
HETATM   11  C   UNL     1      -4.659  -1.591 -32.995  1.00  0.00     0.044 A 
HETATM   12  C   UNL     1      -3.832  -2.682 -32.780  1.00  0.00     0.041 A 
HETATM   13  C   UNL     1      -2.785  -2.930 -31.755  1.00  0.00     0.071 C 
HETATM   14  N   UNL     1      -4.150  -3.579 -33.766  1.00  0.00    -0.278 N 
HETATM   15  C   UNL     1      -3.546  -4.862 -34.040  1.00  0.00     0.179 C 
HETATM   16  N   UNL     1      -5.156  -3.171 -34.562  1.00  0.00    -0.177 NA
HETATM   17  C   UNL     1      -5.451  -1.942 -34.120  1.00  0.00     0.065 A 
HETATM   18  C   UNL     1      -6.486  -1.151 -34.834  1.00  0.00     0.073 C 
ENDBRANCH   9  11
ENDBRANCH   2   5
BRANCH   1  19
HETATM   19  C   UNL     1      -2.387   4.969 -31.942  1.00  0.00     0.226 C 
BRANCH  19  20
HETATM   20  C   UNL     1      -1.212   5.284 -31.001  1.00  0.00     0.239 C 
HETATM   21  N   UNL     1      -1.525   6.210 -30.021  1.00  0.00    -0.325 N 
HETATM   22  H   UNL     1      -2.470   6.580 -30.063  1.00  0.00     0.169 HD
HETATM   23  O   UNL     1      -0.105   4.801 -31.221  1.00  0.00    -0.271 OA
BRANCH  21  24
HETATM   24  C   UNL     1      -0.686   6.753 -29.022  1.00  0.00     0.040 A 
HETATM   25  C   UNL     1      -0.775   8.137 -28.740  1.00  0.00    -0.034 A 
HETATM   26  C   UNL     1      -1.757   9.041 -29.437  1.00  0.00     0.050 C 
HETATM   27  C   UNL     1       0.075   8.702 -27.771  1.00  0.00     0.028 A 
HETATM   28  C   UNL     1       0.993   7.911 -27.086  1.00  0.00     0.011 A 
HETATM   29  C   UNL     1       1.075   6.550 -27.349  1.00  0.00     0.021 A 
HETATM   30 BR   UNL     1       2.130   8.690 -25.794  1.00  0.00    -0.051 Br
HETATM   31  C   UNL     1       0.236   5.976 -28.311  1.00  0.00     0.031 A 
ENDBRANCH  21  24
ENDBRANCH  19  20
ENDBRANCH   1  19
TORSDOF 5
ENDMDL
MODEL 2
REMARK VINA RESULT:      -8.5      4.114     10.266
REMARK  5 active torsions:
REMARK  status: ('A' for Active; 'I' for Inactive)
REMARK    1  A    between atoms: C_3  and  N_4 
REMARK       I    between atoms: N_4  and  C_5 
REMARK    2  A    between atoms: C_5  and  C_6 
REMARK    3  A    between atoms: C_6  and  N_7 
REMARK       I    between atoms: N_7  and  C_8 
REMARK    4  A    between atoms: C_8  and  C_9 
REMARK    5  A    between atoms: C_13  and  C_14 
ROOT
HETATM    1  N   UNL     1      -5.282   4.072 -31.809  1.00  0.00    -0.347 N 
HETATM    2  C   UNL     1      -4.328   4.517 -32.686  1.00  0.00     0.270 C 
HETATM    3  O   UNL     1      -4.403   4.270 -33.886  1.00  0.00    -0.266 OA
HETATM    4  H   UNL     1      -5.173   4.239 -30.819  1.00  0.00     0.163 HD
ENDROOT
BRANCH   2   5
HETATM    5  C   UNL     1      -3.222   5.231 -32.117  1.00  0.00     0.120 A 
HETATM    6  N   UNL     1      -2.115   5.539 -32.863  1.00  0.00    -0.272 N 
HETATM    7  H   UNL     1      -1.959   5.319 -33.842  1.00  0.00     0.189 HD
HETATM    8  N   UNL     1      -1.166   6.204 -32.191  1.00  0.00    -0.173 NA
HETATM    9  C   UNL     1      -1.669   6.326 -30.959  1.00  0.00     0.093 A 
HETATM   10  C   UNL     1      -2.959   5.752 -30.863  1.00  0.00     0.071 A 
BRANCH   9  11
HETATM   11  C   UNL     1      -0.952   6.995 -29.874  1.00  0.00     0.044 A 
HETATM   12  C   UNL     1       0.072   6.489 -29.089  1.00  0.00     0.041 A 
HETATM   13  C   UNL     1       0.768   5.176 -29.115  1.00  0.00     0.071 C 
HETATM   14  N   UNL     1       0.361   7.479 -28.187  1.00  0.00    -0.278 N 
HETATM   15  C   UNL     1       1.313   7.452 -27.101  1.00  0.00     0.179 C 
HETATM   16  N   UNL     1      -0.360   8.601 -28.369  1.00  0.00    -0.177 NA
HETATM   17  C   UNL     1      -1.189   8.303 -29.376  1.00  0.00     0.065 A 
HETATM   18  C   UNL     1      -2.198   9.309 -29.796  1.00  0.00     0.073 C 
ENDBRANCH   9  11
ENDBRANCH   2   5
BRANCH   1  19
HETATM   19  C   UNL     1      -6.533   3.472 -32.258  1.00  0.00     0.226 C 
BRANCH  19  20
HETATM   20  C   UNL     1      -6.554   1.934 -32.268  1.00  0.00     0.239 C 
HETATM   21  N   UNL     1      -5.962   1.383 -33.391  1.00  0.00    -0.325 N 
HETATM   22  H   UNL     1      -5.618   2.055 -34.070  1.00  0.00     0.169 HD
HETATM   23  O   UNL     1      -7.147   1.324 -31.382  1.00  0.00    -0.271 OA
BRANCH  21  24
HETATM   24  C   UNL     1      -5.840   0.020 -33.743  1.00  0.00     0.040 A 
HETATM   25  C   UNL     1      -6.848  -0.567 -34.544  1.00  0.00    -0.034 A 
HETATM   26  C   UNL     1      -8.024   0.217 -35.065  1.00  0.00     0.050 C 
HETATM   27  C   UNL     1      -6.760  -1.931 -34.878  1.00  0.00     0.028 A 
HETATM   28  C   UNL     1      -5.689  -2.702 -34.435  1.00  0.00     0.011 A 
HETATM   29  C   UNL     1      -4.690  -2.127 -33.660  1.00  0.00     0.021 A 
HETATM   30 BR   UNL     1      -5.592  -4.533 -34.889  1.00  0.00    -0.051 Br
HETATM   31  C   UNL     1      -4.766  -0.772 -33.320  1.00  0.00     0.031 A 
ENDBRANCH  21  24
ENDBRANCH  19  20
ENDBRANCH   1  19
TORSDOF 5
ENDMDL
MODEL 3
REMARK VINA RESULT:      -8.4      4.257     10.407
REMARK  5 active torsions:
REMARK  status: ('A' for Active; 'I' for Inactive)
REMARK    1  A    between atoms: C_3  and  N_4 
REMARK       I    between atoms: N_4  and  C_5 
REMARK    2  A    between atoms: C_5  and  C_6 
REMARK    3  A    between atoms: C_6  and  N_7 
REMARK       I    between atoms: N_7  and  C_8 
REMARK    4  A    between atoms: C_8  and  C_9 
REMARK    5  A    between atoms: C_13  and  C_14 
ROOT
HETATM    1  N   UNL     1      -5.387   4.285 -32.287  1.00  0.00    -0.347 N 
HETATM    2  C   UNL     1      -4.778   5.256 -33.038  1.00  0.00     0.270 C 
HETATM    3  O   UNL     1      -5.153   5.504 -34.181  1.00  0.00    -0.266 OA
HETATM    4  H   UNL     1      -5.029   4.060 -31.370  1.00  0.00     0.163 HD
ENDROOT
BRANCH   2   5
HETATM    5  C   UNL     1      -3.656   5.917 -32.438  1.00  0.00     0.120 A 
HETATM    6  N   UNL     1      -2.829   6.724 -33.173  1.00  0.00    -0.272 N 
HETATM    7  H   UNL     1      -2.910   6.942 -34.162  1.00  0.00     0.189 HD
HETATM    8  N   UNL     1      -1.824   7.267 -32.473  1.00  0.00    -0.173 NA
HETATM    9  C   UNL     1      -1.996   6.787 -31.237  1.00  0.00     0.093 A 
HETATM   10  C   UNL     1      -3.136   5.953 -31.156  1.00  0.00     0.071 A 
BRANCH   9  11
HETATM   11  C   UNL     1      -1.105   7.122 -30.127  1.00  0.00     0.044 A 
HETATM   12  C   UNL     1      -1.148   8.238 -29.307  1.00  0.00     0.041 A 
HETATM   13  C   UNL     1      -2.089   9.386 -29.263  1.00  0.00     0.071 C 
HETATM   14  N   UNL     1      -0.072   8.112 -28.467  1.00  0.00    -0.278 N 
HETATM   15  C   UNL     1       0.385   9.031 -27.450  1.00  0.00     0.179 C 
HETATM   16  N   UNL     1       0.624   6.974 -28.649  1.00  0.00    -0.177 NA
HETATM   17  C   UNL     1       0.020   6.378 -29.685  1.00  0.00     0.065 A 
HETATM   18  C   UNL     1       0.586   5.112 -30.214  1.00  0.00     0.073 C 
ENDBRANCH   9  11
ENDBRANCH   2   5
BRANCH   1  19
HETATM   19  C   UNL     1      -6.628   3.643 -32.703  1.00  0.00     0.226 C 
BRANCH  19  20
HETATM   20  C   UNL     1      -6.634   2.108 -32.610  1.00  0.00     0.239 C 
HETATM   21  N   UNL     1      -6.026   1.489 -33.687  1.00  0.00    -0.325 N 
HETATM   22  H   UNL     1      -5.682   2.117 -34.407  1.00  0.00     0.169 HD
HETATM   23  O   UNL     1      -7.230   1.554 -31.690  1.00  0.00    -0.271 OA
BRANCH  21  24
HETATM   24  C   UNL     1      -5.888   0.106 -33.945  1.00  0.00     0.040 A 
HETATM   25  C   UNL     1      -6.915  -0.558 -34.654  1.00  0.00    -0.034 A 
HETATM   26  C   UNL     1      -8.131   0.161 -35.176  1.00  0.00     0.050 C 
HETATM   27  C   UNL     1      -6.810  -1.941 -34.893  1.00  0.00     0.028 A 
HETATM   28  C   UNL     1      -5.702  -2.655 -34.445  1.00  0.00     0.011 A 
HETATM   29  C   UNL     1      -4.684  -2.004 -33.761  1.00  0.00     0.021 A 
HETATM   30 BR   UNL     1      -5.582  -4.512 -34.769  1.00  0.00    -0.051 Br
HETATM   31  C   UNL     1      -4.777  -0.630 -33.516  1.00  0.00     0.031 A 
ENDBRANCH  21  24
ENDBRANCH  19  20
ENDBRANCH   1  19
TORSDOF 5
ENDMDL
MODEL 4
REMARK VINA RESULT:      -8.2      3.635      4.536
REMARK  5 active torsions:
REMARK  status: ('A' for Active; 'I' for Inactive)
REMARK    1  A    between atoms: C_3  and  N_4 
REMARK       I    between atoms: N_4  and  C_5 
REMARK    2  A    between atoms: C_5  and  C_6 
REMARK    3  A    between atoms: C_6  and  N_7 
REMARK       I    between atoms: N_7  and  C_8 
REMARK    4  A    between atoms: C_8  and  C_9 
REMARK    5  A    between atoms: C_13  and  C_14 
ROOT
HETATM    1  N   UNL     1      -3.056   6.009 -34.184  1.00  0.00    -0.347 N 
HETATM    2  C   UNL     1      -3.236   4.776 -33.615  1.00  0.00     0.270 C 
HETATM    3  O   UNL     1      -2.281   4.105 -33.234  1.00  0.00    -0.266 OA
HETATM    4  H   UNL     1      -3.851   6.519 -34.540  1.00  0.00     0.163 HD
ENDROOT
BRANCH   2   5
HETATM    5  C   UNL     1      -4.587   4.297 -33.542  1.00  0.00     0.120 A 
HETATM    6  N   UNL     1      -5.600   4.922 -34.221  1.00  0.00    -0.272 N 
HETATM    7  H   UNL     1      -5.520   5.738 -34.820  1.00  0.00     0.189 HD
HETATM    8  N   UNL     1      -6.804   4.361 -34.050  1.00  0.00    -0.173 NA
HETATM    9  C   UNL     1      -6.569   3.338 -33.223  1.00  0.00     0.093 A 
HETATM   10  C   UNL     1      -5.197   3.242 -32.889  1.00  0.00     0.071 A 
BRANCH   9  11
HETATM   11  C   UNL     1      -7.624   2.438 -32.757  1.00  0.00     0.044 A 
HETATM   12  C   UNL     1      -8.196   1.373 -33.434  1.00  0.00     0.041 A 
HETATM   13  C   UNL     1      -7.914   0.800 -34.776  1.00  0.00     0.071 C 
HETATM   14  N   UNL     1      -9.168   0.892 -32.597  1.00  0.00    -0.278 N 
HETATM   15  C   UNL     1     -10.107  -0.180 -32.835  1.00  0.00     0.179 C 
HETATM   16  N   UNL     1      -9.225   1.530 -31.413  1.00  0.00    -0.177 NA
HETATM   17  C   UNL     1      -8.308   2.500 -31.515  1.00  0.00     0.065 A 
HETATM   18  C   UNL     1      -8.154   3.463 -30.395  1.00  0.00     0.073 C 
ENDBRANCH   9  11
ENDBRANCH   2   5
BRANCH   1  19
HETATM   19  C   UNL     1      -1.765   6.686 -34.183  1.00  0.00     0.226 C 
BRANCH  19  20
HETATM   20  C   UNL     1      -1.426   7.446 -32.889  1.00  0.00     0.239 C 
HETATM   21  N   UNL     1      -0.963   6.627 -31.875  1.00  0.00    -0.325 N 
HETATM   22  H   UNL     1      -0.931   5.637 -32.100  1.00  0.00     0.169 HD
HETATM   23  O   UNL     1      -1.668   8.647 -32.805  1.00  0.00    -0.271 OA
BRANCH  21  24
HETATM   24  C   UNL     1      -0.599   6.979 -30.555  1.00  0.00     0.040 A 
HETATM   25  C   UNL     1       0.336   6.169 -29.870  1.00  0.00    -0.034 A 
HETATM   26  C   UNL     1       0.985   4.969 -30.509  1.00  0.00     0.050 C 
HETATM   27  C   UNL     1       0.686   6.485 -28.544  1.00  0.00     0.028 A 
HETATM   28  C   UNL     1       0.128   7.590 -27.908  1.00  0.00     0.011 A 
HETATM   29  C   UNL     1      -0.780   8.397 -28.581  1.00  0.00     0.021 A 
HETATM   30 BR   UNL     1       0.607   7.994 -26.126  1.00  0.00    -0.051 Br
HETATM   31  C   UNL     1      -1.137   8.093 -29.899  1.00  0.00     0.031 A 
ENDBRANCH  21  24
ENDBRANCH  19  20
ENDBRANCH   1  19
TORSDOF 5
ENDMDL
MODEL 5
REMARK VINA RESULT:      -8.1      1.639      2.640
REMARK  5 active torsions:
REMARK  status: ('A' for Active; 'I' for Inactive)
REMARK    1  A    between atoms: C_3  and  N_4 
REMARK       I    between atoms: N_4  and  C_5 
REMARK    2  A    between atoms: C_5  and  C_6 
REMARK    3  A    between atoms: C_6  and  N_7 
REMARK       I    between atoms: N_7  and  C_8 
REMARK    4  A    between atoms: C_8  and  C_9 
REMARK    5  A    between atoms: C_13  and  C_14 
ROOT
HETATM    1  N   UNL     1      -4.517   5.222 -32.547  1.00  0.00    -0.347 N 
HETATM    2  C   UNL     1      -5.175   4.520 -31.570  1.00  0.00     0.270 C 
HETATM    3  O   UNL     1      -5.557   5.070 -30.540  1.00  0.00    -0.266 OA
HETATM    4  H   UNL     1      -4.164   4.739 -33.361  1.00  0.00     0.163 HD
ENDROOT
BRANCH   2   5
HETATM    5  C   UNL     1      -5.339   3.113 -31.796  1.00  0.00     0.120 A 
HETATM    6  N   UNL     1      -6.234   2.375 -31.066  1.00  0.00    -0.272 N 
HETATM    7  H   UNL     1      -6.850   2.715 -30.333  1.00  0.00     0.189 HD
HETATM    8  N   UNL     1      -6.270   1.077 -31.390  1.00  0.00    -0.173 NA
HETATM    9  C   UNL     1      -5.359   0.961 -32.361  1.00  0.00     0.093 A 
HETATM   10  C   UNL     1      -4.761   2.207 -32.665  1.00  0.00     0.071 A 
BRANCH   9  11
HETATM   11  C   UNL     1      -5.058  -0.311 -33.017  1.00  0.00     0.044 A 
HETATM   12  C   UNL     1      -5.805  -0.971 -33.978  1.00  0.00     0.041 A 
HETATM   13  C   UNL     1      -7.077  -0.604 -34.654  1.00  0.00     0.071 C 
HETATM   14  N   UNL     1      -5.130  -2.138 -34.225  1.00  0.00    -0.278 N 
HETATM   15  C   UNL     1      -5.504  -3.223 -35.103  1.00  0.00     0.179 C 
HETATM   16  N   UNL     1      -3.979  -2.251 -33.536  1.00  0.00    -0.177 NA
HETATM   17  C   UNL     1      -3.943  -1.154 -32.769  1.00  0.00     0.065 A 
HETATM   18  C   UNL     1      -2.825  -0.988 -31.806  1.00  0.00     0.073 C 
ENDBRANCH   9  11
ENDBRANCH   2   5
BRANCH   1  19
HETATM   19  C   UNL     1      -4.416   6.676 -32.526  1.00  0.00     0.226 C 
BRANCH  19  20
HETATM   20  C   UNL     1      -3.085   7.231 -31.991  1.00  0.00     0.239 C 
HETATM   21  N   UNL     1      -2.908   7.024 -30.635  1.00  0.00    -0.325 N 
HETATM   22  H   UNL     1      -3.681   6.562 -30.165  1.00  0.00     0.169 HD
HETATM   23  O   UNL     1      -2.348   7.875 -32.733  1.00  0.00    -0.271 OA
BRANCH  21  24
HETATM   24  C   UNL     1      -1.831   7.431 -29.814  1.00  0.00     0.040 A 
HETATM   25  C   UNL     1      -0.676   6.618 -29.757  1.00  0.00    -0.034 A 
HETATM   26  C   UNL     1      -0.536   5.355 -30.567  1.00  0.00     0.050 C 
HETATM   27  C   UNL     1       0.393   6.990 -28.921  1.00  0.00     0.028 A 
HETATM   28  C   UNL     1       0.325   8.154 -28.160  1.00  0.00     0.011 A 
HETATM   29  C   UNL     1      -0.802   8.963 -28.223  1.00  0.00     0.021 A 
HETATM   30 BR   UNL     1       1.768   8.633 -27.039  1.00  0.00    -0.051 Br
HETATM   31  C   UNL     1      -1.871   8.603 -29.049  1.00  0.00     0.031 A 
ENDBRANCH  21  24
ENDBRANCH  19  20
ENDBRANCH   1  19
TORSDOF 5
ENDMDL
MODEL 6
REMARK VINA RESULT:      -8.0      2.422      3.502
REMARK  5 active torsions:
REMARK  status: ('A' for Active; 'I' for Inactive)
REMARK    1  A    between atoms: C_3  and  N_4 
REMARK       I    between atoms: N_4  and  C_5 
REMARK    2  A    between atoms: C_5  and  C_6 
REMARK    3  A    between atoms: C_6  and  N_7 
REMARK       I    between atoms: N_7  and  C_8 
REMARK    4  A    between atoms: C_8  and  C_9 
REMARK    5  A    between atoms: C_13  and  C_14 
ROOT
HETATM    1  N   UNL     1      -2.136   4.532 -30.996  1.00  0.00    -0.347 N 
HETATM    2  C   UNL     1      -2.507   3.942 -32.175  1.00  0.00     0.270 C 
HETATM    3  O   UNL     1      -2.049   4.322 -33.249  1.00  0.00    -0.266 OA
HETATM    4  H   UNL     1      -2.566   4.240 -30.130  1.00  0.00     0.163 HD
ENDROOT
BRANCH   2   5
HETATM    5  C   UNL     1      -3.492   2.903 -32.086  1.00  0.00     0.120 A 
HETATM    6  N   UNL     1      -3.349   1.861 -31.208  1.00  0.00    -0.272 N 
HETATM    7  H   UNL     1      -2.586   1.714 -30.555  1.00  0.00     0.189 HD
HETATM    8  N   UNL     1      -4.348   0.969 -31.245  1.00  0.00    -0.173 NA
HETATM    9  C   UNL     1      -5.167   1.442 -32.189  1.00  0.00     0.093 A 
HETATM   10  C   UNL     1      -4.688   2.657 -32.734  1.00  0.00     0.071 A 
BRANCH   9  11
HETATM   11  C   UNL     1      -6.407   0.767 -32.571  1.00  0.00     0.044 A 
HETATM   12  C   UNL     1      -7.704   1.099 -32.211  1.00  0.00     0.041 A 
HETATM   13  C   UNL     1      -8.237   2.215 -31.388  1.00  0.00     0.071 C 
HETATM   14  N   UNL     1      -8.495   0.132 -32.775  1.00  0.00    -0.278 N 
HETATM   15  C   UNL     1      -9.926  -0.033 -32.664  1.00  0.00     0.179 C 
HETATM   16  N   UNL     1      -7.811  -0.761 -33.515  1.00  0.00    -0.177 NA
HETATM   17  C   UNL     1      -6.530  -0.401 -33.369  1.00  0.00     0.065 A 
HETATM   18  C   UNL     1      -5.474  -1.232 -34.001  1.00  0.00     0.073 C 
ENDBRANCH   9  11
ENDBRANCH   2   5
BRANCH   1  19
HETATM   19  C   UNL     1      -1.038   5.488 -30.916  1.00  0.00     0.226 C 
BRANCH  19  20
HETATM   20  C   UNL     1      -1.263   6.664 -29.950  1.00  0.00     0.239 C 
HETATM   21  N   UNL     1      -0.963   6.361 -28.634  1.00  0.00    -0.325 N 
HETATM   22  H   UNL     1      -0.662   5.404 -28.470  1.00  0.00     0.169 HD
HETATM   23  O   UNL     1      -1.761   7.708 -30.364  1.00  0.00    -0.271 OA
BRANCH  21  24
HETATM   24  C   UNL     1      -1.088   7.181 -27.490  1.00  0.00     0.040 A 
HETATM   25  C   UNL     1      -0.045   8.087 -27.188  1.00  0.00    -0.034 A 
HETATM   26  C   UNL     1       1.174   8.235 -28.061  1.00  0.00     0.050 C 
HETATM   27  C   UNL     1      -0.137   8.890 -26.035  1.00  0.00     0.028 A 
HETATM   28  C   UNL     1      -1.246   8.804 -25.200  1.00  0.00     0.011 A 
HETATM   29  C   UNL     1      -2.279   7.927 -25.500  1.00  0.00     0.021 A 
HETATM   30 BR   UNL     1      -1.347   9.886 -23.653  1.00  0.00    -0.051 Br
HETATM   31  C   UNL     1      -2.200   7.123 -26.641  1.00  0.00     0.031 A 
ENDBRANCH  21  24
ENDBRANCH  19  20
ENDBRANCH   1  19
TORSDOF 5
ENDMDL
MODEL 7
REMARK VINA RESULT:      -7.9      1.651      1.773
REMARK  5 active torsions:
REMARK  status: ('A' for Active; 'I' for Inactive)
REMARK    1  A    between atoms: C_3  and  N_4 
REMARK       I    between atoms: N_4  and  C_5 
REMARK    2  A    between atoms: C_5  and  C_6 
REMARK    3  A    between atoms: C_6  and  N_7 
REMARK       I    between atoms: N_7  and  C_8 
REMARK    4  A    between atoms: C_8  and  C_9 
REMARK    5  A    between atoms: C_13  and  C_14 
ROOT
HETATM    1  N   UNL     1      -4.346   4.794 -31.620  1.00  0.00    -0.347 N 
HETATM    2  C   UNL     1      -5.621   4.324 -31.444  1.00  0.00     0.270 C 
HETATM    3  O   UNL     1      -6.507   5.044 -30.993  1.00  0.00    -0.266 OA
HETATM    4  H   UNL     1      -3.620   4.169 -31.942  1.00  0.00     0.163 HD
ENDROOT
BRANCH   2   5
HETATM    5  C   UNL     1      -5.842   2.943 -31.763  1.00  0.00     0.120 A 
HETATM    6  N   UNL     1      -6.667   2.160 -31.000  1.00  0.00    -0.272 N 
HETATM    7  H   UNL     1      -7.191   2.446 -30.178  1.00  0.00     0.189 HD
HETATM    8  N   UNL     1      -6.769   0.893 -31.422  1.00  0.00    -0.173 NA
HETATM    9  C   UNL     1      -5.974   0.846 -32.495  1.00  0.00     0.093 A 
HETATM   10  C   UNL     1      -5.385   2.104 -32.763  1.00  0.00     0.071 A 
BRANCH   9  11
HETATM   11  C   UNL     1      -5.777  -0.372 -33.281  1.00  0.00     0.044 A 
HETATM   12  C   UNL     1      -4.826  -1.362 -33.094  1.00  0.00     0.041 A 
HETATM   13  C   UNL     1      -3.770  -1.524 -32.062  1.00  0.00     0.071 C 
HETATM   14  N   UNL     1      -5.023  -2.252 -34.118  1.00  0.00    -0.278 N 
HETATM   15  C   UNL     1      -4.265  -3.441 -34.431  1.00  0.00     0.179 C 
HETATM   16  N   UNL     1      -6.061  -1.936 -34.915  1.00  0.00    -0.177 NA
HETATM   17  C   UNL     1      -6.508  -0.770 -34.431  1.00  0.00     0.065 A 
HETATM   18  C   UNL     1      -7.622  -0.082 -35.131  1.00  0.00     0.073 C 
ENDBRANCH   9  11
ENDBRANCH   2   5
BRANCH   1  19
HETATM   19  C   UNL     1      -4.012   6.206 -31.487  1.00  0.00     0.226 C 
BRANCH  19  20
HETATM   20  C   UNL     1      -3.339   6.597 -30.160  1.00  0.00     0.239 C 
HETATM   21  N   UNL     1      -1.987   6.859 -30.285  1.00  0.00    -0.325 N 
HETATM   22  H   UNL     1      -1.608   6.736 -31.220  1.00  0.00     0.169 HD
HETATM   23  O   UNL     1      -3.982   6.558 -29.114  1.00  0.00    -0.271 OA
BRANCH  21  24
HETATM   24  C   UNL     1      -1.059   7.205 -29.276  1.00  0.00     0.040 A 
HETATM   25  C   UNL     1      -1.025   8.542 -28.815  1.00  0.00    -0.034 A 
HETATM   26  C   UNL     1      -1.965   9.599 -29.333  1.00  0.00     0.050 C 
HETATM   27  C   UNL     1      -0.086   8.913 -27.834  1.00  0.00     0.028 A 
HETATM   28  C   UNL     1       0.798   7.975 -27.310  1.00  0.00     0.011 A 
HETATM   29  C   UNL     1       0.759   6.658 -27.748  1.00  0.00     0.021 A 
HETATM   30 BR   UNL     1       2.055   8.494 -25.998  1.00  0.00    -0.051 Br
HETATM   31  C   UNL     1      -0.168   6.277 -28.724  1.00  0.00     0.031 A 
ENDBRANCH  21  24
ENDBRANCH  19  20
ENDBRANCH   1  19
TORSDOF 5
ENDMDL
MODEL 8
REMARK VINA RESULT:      -7.9      4.083      5.351
REMARK  5 active torsions:
REMARK  status: ('A' for Active; 'I' for Inactive)
REMARK    1  A    between atoms: C_3  and  N_4 
REMARK       I    between atoms: N_4  and  C_5 
REMARK    2  A    between atoms: C_5  and  C_6 
REMARK    3  A    between atoms: C_6  and  N_7 
REMARK       I    between atoms: N_7  and  C_8 
REMARK    4  A    between atoms: C_8  and  C_9 
REMARK    5  A    between atoms: C_13  and  C_14 
ROOT
HETATM    1  N   UNL     1      -3.423   5.246 -34.704  1.00  0.00    -0.347 N 
HETATM    2  C   UNL     1      -4.007   4.442 -33.760  1.00  0.00     0.270 C 
HETATM    3  O   UNL     1      -3.329   3.829 -32.940  1.00  0.00    -0.266 OA
HETATM    4  H   UNL     1      -3.996   5.698 -35.402  1.00  0.00     0.163 HD
ENDROOT
BRANCH   2   5
HETATM    5  C   UNL     1      -5.434   4.318 -33.821  1.00  0.00     0.120 A 
HETATM    6  N   UNL     1      -6.241   5.421 -33.913  1.00  0.00    -0.272 N 
HETATM    7  H   UNL     1      -5.944   6.392 -33.954  1.00  0.00     0.189 HD
HETATM    8  N   UNL     1      -7.550   5.144 -33.958  1.00  0.00    -0.173 NA
HETATM    9  C   UNL     1      -7.600   3.810 -33.882  1.00  0.00     0.093 A 
HETATM   10  C   UNL     1      -6.306   3.244 -33.813  1.00  0.00     0.071 A 
BRANCH   9  11
HETATM   11  C   UNL     1      -8.858   3.063 -33.891  1.00  0.00     0.044 A 
HETATM   12  C   UNL     1     -10.107   3.494 -33.475  1.00  0.00     0.041 A 
HETATM   13  C   UNL     1     -10.565   4.803 -32.942  1.00  0.00     0.071 C 
HETATM   14  N   UNL     1     -10.934   2.412 -33.633  1.00  0.00    -0.278 N 
HETATM   15  C   UNL     1     -12.334   2.296 -33.294  1.00  0.00     0.179 C 
HETATM   16  N   UNL     1     -10.323   1.340 -34.171  1.00  0.00    -0.177 NA
HETATM   17  C   UNL     1      -9.045   1.717 -34.301  1.00  0.00     0.065 A 
HETATM   18  C   UNL     1      -8.054   0.733 -34.803  1.00  0.00     0.073 C 
ENDBRANCH   9  11
ENDBRANCH   2   5
BRANCH   1  19
HETATM   19  C   UNL     1      -2.007   5.588 -34.666  1.00  0.00     0.226 C 
BRANCH  19  20
HETATM   20  C   UNL     1      -1.624   6.679 -33.652  1.00  0.00     0.239 C 
HETATM   21  N   UNL     1      -1.460   6.201 -32.364  1.00  0.00    -0.325 N 
HETATM   22  H   UNL     1      -1.637   5.207 -32.248  1.00  0.00     0.169 HD
HETATM   23  O   UNL     1      -1.588   7.856 -34.003  1.00  0.00    -0.271 OA
BRANCH  21  24
HETATM   24  C   UNL     1      -1.149   6.922 -31.189  1.00  0.00     0.040 A 
HETATM   25  C   UNL     1      -0.014   6.538 -30.438  1.00  0.00    -0.034 A 
HETATM   26  C   UNL     1       0.896   5.415 -30.865  1.00  0.00     0.050 C 
HETATM   27  C   UNL     1       0.293   7.223 -29.247  1.00  0.00     0.028 A 
HETATM   28  C   UNL     1      -0.505   8.277 -28.811  1.00  0.00     0.011 A 
HETATM   29  C   UNL     1      -1.612   8.667 -29.553  1.00  0.00     0.021 A 
HETATM   30 BR   UNL     1      -0.079   9.180 -27.207  1.00  0.00    -0.051 Br
HETATM   31  C   UNL     1      -1.929   7.993 -30.737  1.00  0.00     0.031 A 
ENDBRANCH  21  24
ENDBRANCH  19  20
ENDBRANCH   1  19
TORSDOF 5
ENDMDL
MODEL 9
REMARK VINA RESULT:      -7.9      2.188      2.744
REMARK  5 active torsions:
REMARK  status: ('A' for Active; 'I' for Inactive)
REMARK    1  A    between atoms: C_3  and  N_4 
REMARK       I    between atoms: N_4  and  C_5 
REMARK    2  A    between atoms: C_5  and  C_6 
REMARK    3  A    between atoms: C_6  and  N_7 
REMARK       I    between atoms: N_7  and  C_8 
REMARK    4  A    between atoms: C_8  and  C_9 
REMARK    5  A    between atoms: C_13  and  C_14 
ROOT
HETATM    1  N   UNL     1      -1.894   4.459 -31.031  1.00  0.00    -0.347 N 
HETATM    2  C   UNL     1      -2.757   4.247 -32.074  1.00  0.00     0.270 C 
HETATM    3  O   UNL     1      -2.884   5.075 -32.972  1.00  0.00    -0.266 OA
HETATM    4  H   UNL     1      -1.845   3.791 -30.275  1.00  0.00     0.163 HD
ENDROOT
BRANCH   2   5
HETATM    5  C   UNL     1      -3.533   3.042 -32.025  1.00  0.00     0.120 A 
HETATM    6  N   UNL     1      -3.491   2.212 -30.936  1.00  0.00    -0.272 N 
HETATM    7  H   UNL     1      -2.948   2.346 -30.088  1.00  0.00     0.189 HD
HETATM    8  N   UNL     1      -4.266   1.125 -31.042  1.00  0.00    -0.173 NA
HETATM    9  C   UNL     1      -4.828   1.246 -32.248  1.00  0.00     0.093 A 
HETATM   10  C   UNL     1      -4.418   2.434 -32.897  1.00  0.00     0.071 A 
BRANCH   9  11
HETATM   11  C   UNL     1      -5.762   0.259 -32.789  1.00  0.00     0.044 A 
HETATM   12  C   UNL     1      -5.466  -0.948 -33.401  1.00  0.00     0.041 A 
HETATM   13  C   UNL     1      -4.167  -1.620 -33.665  1.00  0.00     0.071 C 
HETATM   14  N   UNL     1      -6.676  -1.471 -33.776  1.00  0.00    -0.278 N 
HETATM   15  C   UNL     1      -6.940  -2.690 -34.506  1.00  0.00     0.179 C 
HETATM   16  N   UNL     1      -7.728  -0.719 -33.402  1.00  0.00    -0.177 NA
HETATM   17  C   UNL     1      -7.178   0.358 -32.827  1.00  0.00     0.065 A 
HETATM   18  C   UNL     1      -8.064   1.452 -32.357  1.00  0.00     0.073 C 
ENDBRANCH   9  11
ENDBRANCH   2   5
BRANCH   1  19
HETATM   19  C   UNL     1      -0.935   5.556 -31.025  1.00  0.00     0.226 C 
BRANCH  19  20
HETATM   20  C   UNL     1      -1.250   6.696 -30.042  1.00  0.00     0.239 C 
HETATM   21  N   UNL     1      -0.920   6.399 -28.731  1.00  0.00    -0.325 N 
HETATM   22  H   UNL     1      -0.542   5.468 -28.583  1.00  0.00     0.169 HD
HETATM   23  O   UNL     1      -1.832   7.702 -30.438  1.00  0.00    -0.271 OA
BRANCH  21  24
HETATM   24  C   UNL     1      -1.106   7.191 -27.575  1.00  0.00     0.040 A 
HETATM   25  C   UNL     1      -0.075   8.079 -27.188  1.00  0.00    -0.034 A 
HETATM   26  C   UNL     1       1.194   8.239 -27.984  1.00  0.00     0.050 C 
HETATM   27  C   UNL     1      -0.228   8.851 -26.022  1.00  0.00     0.028 A 
HETATM   28  C   UNL     1      -1.385   8.754 -25.255  1.00  0.00     0.011 A 
HETATM   29  C   UNL     1      -2.406   7.894 -25.638  1.00  0.00     0.021 A 
HETATM   30 BR   UNL     1      -1.568   9.795 -23.688  1.00  0.00    -0.051 Br
HETATM   31  C   UNL     1      -2.265   7.120 -26.794  1.00  0.00     0.031 A 
ENDBRANCH  21  24
ENDBRANCH  19  20
ENDBRANCH   1  19
TORSDOF 5
ENDMDL
MODEL 10
REMARK VINA RESULT:      -7.8      2.318      3.723
REMARK  5 active torsions:
REMARK  status: ('A' for Active; 'I' for Inactive)
REMARK    1  A    between atoms: C_3  and  N_4 
REMARK       I    between atoms: N_4  and  C_5 
REMARK    2  A    between atoms: C_5  and  C_6 
REMARK    3  A    between atoms: C_6  and  N_7 
REMARK       I    between atoms: N_7  and  C_8 
REMARK    4  A    between atoms: C_8  and  C_9 
REMARK    5  A    between atoms: C_13  and  C_14 
ROOT
HETATM    1  N   UNL     1      -0.912   4.789 -30.322  1.00  0.00    -0.347 N 
HETATM    2  C   UNL     1      -1.568   4.829 -31.524  1.00  0.00     0.270 C 
HETATM    3  O   UNL     1      -1.174   5.546 -32.440  1.00  0.00    -0.266 OA
HETATM    4  H   UNL     1      -1.284   4.233 -29.565  1.00  0.00     0.163 HD
ENDROOT
BRANCH   2   5
HETATM    5  C   UNL     1      -2.758   4.035 -31.629  1.00  0.00     0.120 A 
HETATM    6  N   UNL     1      -3.799   4.195 -30.752  1.00  0.00    -0.272 N 
HETATM    7  H   UNL     1      -3.851   4.853 -29.980  1.00  0.00     0.189 HD
HETATM    8  N   UNL     1      -4.837   3.379 -30.976  1.00  0.00    -0.173 NA
HETATM    9  C   UNL     1      -4.457   2.655 -32.033  1.00  0.00     0.093 A 
HETATM   10  C   UNL     1      -3.174   3.037 -32.491  1.00  0.00     0.071 A 
BRANCH   9  11
HETATM   11  C   UNL     1      -5.299   1.616 -32.625  1.00  0.00     0.044 A 
HETATM   12  C   UNL     1      -6.420   1.781 -33.422  1.00  0.00     0.041 A 
HETATM   13  C   UNL     1      -7.082   3.006 -33.941  1.00  0.00     0.071 C 
HETATM   14  N   UNL     1      -6.878   0.513 -33.671  1.00  0.00    -0.278 N 
HETATM   15  C   UNL     1      -8.056   0.112 -34.404  1.00  0.00     0.179 C 
HETATM   16  N   UNL     1      -6.105  -0.453 -33.140  1.00  0.00    -0.177 NA
HETATM   17  C   UNL     1      -5.155   0.213 -32.471  1.00  0.00     0.065 A 
HETATM   18  C   UNL     1      -4.156  -0.557 -31.687  1.00  0.00     0.073 C 
ENDBRANCH   9  11
ENDBRANCH   2   5
BRANCH   1  19
HETATM   19  C   UNL     1       0.388   5.416 -30.123  1.00  0.00     0.226 C 
BRANCH  19  20
HETATM   20  C   UNL     1       0.367   6.720 -29.308  1.00  0.00     0.239 C 
HETATM   21  N   UNL     1       0.661   6.537 -27.969  1.00  0.00    -0.325 N 
HETATM   22  H   UNL     1       0.824   5.574 -27.691  1.00  0.00     0.169 HD
HETATM   23  O   UNL     1       0.014   7.769 -29.841  1.00  0.00    -0.271 OA
BRANCH  21  24
HETATM   24  C   UNL     1       0.693   7.500 -26.934  1.00  0.00     0.040 A 
HETATM   25  C   UNL     1      -0.522   7.862 -26.307  1.00  0.00    -0.034 A 
HETATM   26  C   UNL     1      -1.840   7.233 -26.675  1.00  0.00     0.050 C 
HETATM   27  C   UNL     1      -0.514   8.843 -25.297  1.00  0.00     0.028 A 
HETATM   28  C   UNL     1       0.677   9.448 -24.907  1.00  0.00     0.011 A 
HETATM   29  C   UNL     1       1.874   9.085 -25.510  1.00  0.00     0.021 A 
HETATM   30 BR   UNL     1       0.665  10.766 -23.553  1.00  0.00    -0.051 Br
HETATM   31  C   UNL     1       1.880   8.114 -26.516  1.00  0.00     0.031 A 
ENDBRANCH  21  24
ENDBRANCH  19  20
ENDBRANCH   1  19
TORSDOF 5
ENDMDL
