MODEL 1
REMARK VINA RESULT:      -8.7      0.000      0.000
REMARK  11 active torsions:
REMARK  status: ('A' for Active; 'I' for Inactive)
REMARK    1  A    between atoms: C_2  and  C_3 
REMARK    2  A    between atoms: C_3  and  C_4 
REMARK    3  A    between atoms: C_4  and  O_5 
REMARK    4  A    between atoms: O_5  and  C_6 
REMARK    5  A    between atoms: C_8  and  C_9 
REMARK       I    between atoms: C_9  and  N_10 
REMARK    6  A    between atoms: N_10  and  C_11 
REMARK    7  A    between atoms: C_11  and  N_12 
REMARK    8  A    between atoms: N_12  and  C_13 
REMARK    9  A    between atoms: C_15  and  O_16 
REMARK   10  A    between atoms: C_17  and  C_18 
REMARK   11  A    between atoms: C_25  and  C_26 
ROOT
HETATM    1  C   UNL     1      -6.448   4.599 -29.415  1.00  0.00     0.036 C 
HETATM    2  C   UNL     1      -7.638   3.937 -29.715  1.00  0.00     0.067 C 
HETATM    3  C   UNL     1      -7.634   2.784 -30.502  1.00  0.00     0.082 C 
HETATM    4  C   UNL     1      -6.433   2.259 -30.993  1.00  0.00     0.050 C 
HETATM    5  C   UNL     1      -5.233   2.830 -30.530  1.00  0.00     0.021 C 
HETATM    6  C   UNL     1      -5.239   3.983 -29.734  1.00  0.00     0.030 C 
ENDROOT
BRANCH   1   7
HETATM    7  N   UNL     1      -6.412   5.885 -28.834  1.00  0.00    -0.333 N 
HETATM    8  H   UNL     1      -6.447   5.920 -27.814  1.00  0.00     0.168 HD
BRANCH   7   9
HETATM    9  C   UNL     1      -5.984   7.058 -29.416  1.00  0.00     0.179 C 
HETATM   10  S   UNL     1      -6.832   8.469 -29.741  1.00  0.00    -0.040 SA
BRANCH   9  11
HETATM   11  N   UNL     1      -4.675   7.070 -29.846  1.00  0.00    -0.299 N 
HETATM   12  C   UNL     1      -3.485   7.087 -29.136  1.00  0.00     0.257 C 
HETATM   13  O   UNL     1      -3.398   7.174 -27.917  1.00  0.00    -0.267 OA
HETATM   14  H   UNL     1      -4.618   7.050 -30.856  1.00  0.00     0.171 HD
BRANCH  12  15
HETATM   15  C   UNL     1      -2.278   7.033 -30.004  1.00  0.00     0.035 A 
HETATM   16  C   UNL     1      -2.381   7.311 -31.372  1.00  0.00     0.053 A 
HETATM   17  C   UNL     1      -1.226   7.391 -32.147  1.00  0.00     0.069 A 
HETATM   18  C   UNL     1       0.018   7.120 -31.583  1.00  0.00     0.037 A 
HETATM   19  C   UNL     1       0.115   6.804 -30.226  1.00  0.00     0.004 A 
HETATM   20  C   UNL     1      -1.033   6.761 -29.431  1.00  0.00     0.017 A 
BRANCH  17  21
HETATM   21  O   UNL     1      -1.289   7.684 -33.480  1.00  0.00    -0.351 OA
BRANCH  21  22
HETATM   22  C   UNL     1      -2.182   6.811 -34.189  1.00  0.00     0.175 C 
BRANCH  22  23
HETATM   23  C   UNL     1      -1.546   5.437 -34.398  1.00  0.00     0.026 C 
BRANCH  23  24
HETATM   24  C   UNL     1      -2.239   4.342 -33.586  1.00  0.00    -0.002 C 
HETATM   25  C   UNL     1      -3.741   4.577 -33.509  1.00  0.00     0.005 C 
ENDBRANCH  23  24
ENDBRANCH  22  23
ENDBRANCH  21  22
ENDBRANCH  17  21
ENDBRANCH  12  15
ENDBRANCH   9  11
ENDBRANCH   7   9
ENDBRANCH   1   7
BRANCH   3  26
HETATM   26  O   UNL     1      -8.835   2.201 -30.807  1.00  0.00    -0.360 OA
HETATM   27  H   UNL     1      -9.456   2.340 -30.073  1.00  0.00     0.217 HD
ENDBRANCH   3  26
BRANCH   4  28
HETATM   28  C   UNL     1      -6.363   1.272 -32.074  1.00  0.00     0.183 A 
HETATM   29  O   UNL     1      -5.113   0.809 -32.399  1.00  0.00    -0.289 OA
HETATM   30  C   UNL     1      -5.345  -0.311 -33.131  1.00  0.00     0.106 A 
HETATM   31  C   UNL     1      -6.715  -0.457 -33.253  1.00  0.00     0.094 A 
HETATM   32  C   UNL     1      -4.400  -1.201 -33.621  1.00  0.00     0.040 A 
HETATM   33  N   UNL     1      -7.354   0.576 -32.613  1.00  0.00    -0.221 NA
HETATM   34  C   UNL     1      -7.215  -1.589 -33.908  1.00  0.00     0.041 A 
HETATM   35  C   UNL     1      -6.299  -2.551 -34.384  1.00  0.00    -0.056 A 
HETATM   36  C   UNL     1      -4.913  -2.343 -34.243  1.00  0.00     0.010 A 
BRANCH  35  37
HETATM   37  C   UNL     1      -6.812  -3.842 -34.973  1.00  0.00     0.034 C 
HETATM   38  C   UNL     1      -5.728  -4.913 -34.984  1.00  0.00     0.010 C 
ENDBRANCH  35  37
ENDBRANCH   4  28
TORSDOF 11
ENDMDL
MODEL 2
REMARK VINA RESULT:      -8.6      2.932      5.884
REMARK  11 active torsions:
REMARK  status: ('A' for Active; 'I' for Inactive)
REMARK    1  A    between atoms: C_2  and  C_3 
REMARK    2  A    between atoms: C_3  and  C_4 
REMARK    3  A    between atoms: C_4  and  O_5 
REMARK    4  A    between atoms: O_5  and  C_6 
REMARK    5  A    between atoms: C_8  and  C_9 
REMARK       I    between atoms: C_9  and  N_10 
REMARK    6  A    between atoms: N_10  and  C_11 
REMARK    7  A    between atoms: C_11  and  N_12 
REMARK    8  A    between atoms: N_12  and  C_13 
REMARK    9  A    between atoms: C_15  and  O_16 
REMARK   10  A    between atoms: C_17  and  C_18 
REMARK   11  A    between atoms: C_25  and  C_26 
ROOT
HETATM    1  C   UNL     1      -4.487   4.314 -30.989  1.00  0.00     0.036 C 
HETATM    2  C   UNL     1      -5.096   3.235 -30.350  1.00  0.00     0.067 C 
HETATM    3  C   UNL     1      -4.756   1.924 -30.687  1.00  0.00     0.082 C 
HETATM    4  C   UNL     1      -3.784   1.665 -31.661  1.00  0.00     0.050 C 
HETATM    5  C   UNL     1      -3.053   2.758 -32.160  1.00  0.00     0.021 C 
HETATM    6  C   UNL     1      -3.390   4.074 -31.815  1.00  0.00     0.030 C 
ENDROOT
BRANCH   1   7
HETATM    7  N   UNL     1      -4.955   5.640 -30.865  1.00  0.00    -0.333 N 
HETATM    8  H   UNL     1      -4.266   6.378 -31.018  1.00  0.00     0.168 HD
BRANCH   7   9
HETATM    9  C   UNL     1      -6.260   6.079 -30.921  1.00  0.00     0.179 C 
HETATM   10  S   UNL     1      -6.978   7.412 -30.200  1.00  0.00    -0.040 SA
BRANCH   9  11
HETATM   11  N   UNL     1      -7.129   5.283 -31.635  1.00  0.00    -0.299 N 
HETATM   12  C   UNL     1      -7.193   4.995 -32.990  1.00  0.00     0.257 C 
HETATM   13  O   UNL     1      -6.477   5.497 -33.848  1.00  0.00    -0.267 OA
HETATM   14  H   UNL     1      -7.811   4.844 -31.030  1.00  0.00     0.171 HD
BRANCH  12  15
HETATM   15  C   UNL     1      -8.267   4.025 -33.337  1.00  0.00     0.035 A 
HETATM   16  C   UNL     1      -8.364   2.806 -32.654  1.00  0.00     0.053 A 
HETATM   17  C   UNL     1      -9.451   1.969 -32.893  1.00  0.00     0.069 A 
HETATM   18  C   UNL     1     -10.397   2.302 -33.860  1.00  0.00     0.037 A 
HETATM   19  C   UNL     1     -10.278   3.501 -34.567  1.00  0.00     0.004 A 
HETATM   20  C   UNL     1      -9.213   4.368 -34.307  1.00  0.00     0.017 A 
BRANCH  17  21
HETATM   21  O   UNL     1      -9.588   0.783 -32.227  1.00  0.00    -0.351 OA
BRANCH  21  22
HETATM   22  C   UNL     1      -9.377  -0.351 -33.082  1.00  0.00     0.175 C 
BRANCH  22  23
HETATM   23  C   UNL     1      -7.884  -0.596 -33.301  1.00  0.00     0.026 C 
BRANCH  23  24
HETATM   24  C   UNL     1      -7.526  -0.739 -34.781  1.00  0.00    -0.002 C 
HETATM   25  C   UNL     1      -7.123   0.598 -35.385  1.00  0.00     0.005 C 
ENDBRANCH  23  24
ENDBRANCH  22  23
ENDBRANCH  21  22
ENDBRANCH  17  21
ENDBRANCH  12  15
ENDBRANCH   9  11
ENDBRANCH   7   9
ENDBRANCH   1   7
BRANCH   3  26
HETATM   26  O   UNL     1      -5.419   0.900 -30.064  1.00  0.00    -0.360 OA
HETATM   27  H   UNL     1      -6.347   1.152 -29.930  1.00  0.00     0.217 HD
ENDBRANCH   3  26
BRANCH   4  28
HETATM   28  C   UNL     1      -3.607   0.358 -32.300  1.00  0.00     0.183 A 
HETATM   29  O   UNL     1      -2.988  -0.610 -31.550  1.00  0.00    -0.289 OA
HETATM   30  C   UNL     1      -3.268  -1.771 -32.196  1.00  0.00     0.106 A 
HETATM   31  C   UNL     1      -4.003  -1.457 -33.324  1.00  0.00     0.094 A 
HETATM   32  C   UNL     1      -2.944  -3.056 -31.784  1.00  0.00     0.040 A 
HETATM   33  N   UNL     1      -4.179  -0.098 -33.405  1.00  0.00    -0.221 NA
HETATM   34  C   UNL     1      -4.482  -2.501 -34.126  1.00  0.00     0.041 A 
HETATM   35  C   UNL     1      -4.224  -3.829 -33.729  1.00  0.00    -0.056 A 
HETATM   36  C   UNL     1      -3.457  -4.089 -32.576  1.00  0.00     0.010 A 
BRANCH  35  37
HETATM   37  C   UNL     1      -4.839  -4.972 -34.498  1.00  0.00     0.034 C 
HETATM   38  C   UNL     1      -6.143  -4.552 -35.163  1.00  0.00     0.010 C 
ENDBRANCH  35  37
ENDBRANCH   4  28
TORSDOF 11
ENDMDL
MODEL 3
REMARK VINA RESULT:      -8.5      3.924     10.682
REMARK  11 active torsions:
REMARK  status: ('A' for Active; 'I' for Inactive)
REMARK    1  A    between atoms: C_2  and  C_3 
REMARK    2  A    between atoms: C_3  and  C_4 
REMARK    3  A    between atoms: C_4  and  O_5 
REMARK    4  A    between atoms: O_5  and  C_6 
REMARK    5  A    between atoms: C_8  and  C_9 
REMARK       I    between atoms: C_9  and  N_10 
REMARK    6  A    between atoms: N_10  and  C_11 
REMARK    7  A    between atoms: C_11  and  N_12 
REMARK    8  A    between atoms: N_12  and  C_13 
REMARK    9  A    between atoms: C_15  and  O_16 
REMARK   10  A    between atoms: C_17  and  C_18 
REMARK   11  A    between atoms: C_25  and  C_26 
ROOT
HETATM    1  C   UNL     1      -0.936   5.722 -31.656  1.00  0.00     0.036 C 
HETATM    2  C   UNL     1      -0.259   5.081 -30.619  1.00  0.00     0.067 C 
HETATM    3  C   UNL     1       0.048   5.764 -29.440  1.00  0.00     0.082 C 
HETATM    4  C   UNL     1      -0.331   7.101 -29.269  1.00  0.00     0.050 C 
HETATM    5  C   UNL     1      -1.170   7.671 -30.245  1.00  0.00     0.021 C 
HETATM    6  C   UNL     1      -1.484   6.982 -31.424  1.00  0.00     0.030 C 
ENDROOT
BRANCH   1   7
HETATM    7  N   UNL     1      -1.061   5.164 -32.947  1.00  0.00    -0.333 N 
HETATM    8  H   UNL     1      -0.209   4.779 -33.357  1.00  0.00     0.168 HD
BRANCH   7   9
HETATM    9  C   UNL     1      -2.216   4.749 -33.574  1.00  0.00     0.179 C 
HETATM   10  S   UNL     1      -3.094   5.481 -34.801  1.00  0.00    -0.040 SA
BRANCH   9  11
HETATM   11  N   UNL     1      -2.770   3.582 -33.097  1.00  0.00    -0.299 N 
HETATM   12  C   UNL     1      -3.891   3.363 -32.313  1.00  0.00     0.257 C 
HETATM   13  O   UNL     1      -4.584   4.244 -31.817  1.00  0.00    -0.267 OA
HETATM   14  H   UNL     1      -2.248   2.772 -33.405  1.00  0.00     0.171 HD
BRANCH  12  15
HETATM   15  C   UNL     1      -4.173   1.921 -32.075  1.00  0.00     0.035 A 
HETATM   16  C   UNL     1      -5.313   1.325 -32.630  1.00  0.00     0.053 A 
HETATM   17  C   UNL     1      -5.494  -0.051 -32.515  1.00  0.00     0.069 A 
HETATM   18  C   UNL     1      -4.589  -0.822 -31.787  1.00  0.00     0.037 A 
HETATM   19  C   UNL     1      -3.473  -0.219 -31.202  1.00  0.00     0.004 A 
HETATM   20  C   UNL     1      -3.260   1.155 -31.345  1.00  0.00     0.017 A 
BRANCH  17  21
HETATM   21  O   UNL     1      -6.582  -0.668 -33.065  1.00  0.00    -0.351 OA
BRANCH  21  22
HETATM   22  C   UNL     1      -6.398  -0.958 -34.459  1.00  0.00     0.175 C 
BRANCH  22  23
HETATM   23  C   UNL     1      -5.772  -2.340 -34.649  1.00  0.00     0.026 C 
BRANCH  23  24
HETATM   24  C   UNL     1      -6.808  -3.464 -34.592  1.00  0.00    -0.002 C 
HETATM   25  C   UNL     1      -6.488  -4.562 -35.596  1.00  0.00     0.005 C 
ENDBRANCH  23  24
ENDBRANCH  22  23
ENDBRANCH  21  22
ENDBRANCH  17  21
ENDBRANCH  12  15
ENDBRANCH   9  11
ENDBRANCH   7   9
ENDBRANCH   1   7
BRANCH   3  26
HETATM   26  O   UNL     1       0.757   5.104 -28.472  1.00  0.00    -0.360 OA
HETATM   27  H   UNL     1       0.961   5.718 -27.748  1.00  0.00     0.217 HD
ENDBRANCH   3  26
BRANCH   4  28
HETATM   28  C   UNL     1       0.225   7.974 -28.232  1.00  0.00     0.183 A 
HETATM   29  O   UNL     1      -0.680   8.610 -27.419  1.00  0.00    -0.289 OA
HETATM   30  C   UNL     1       0.057   9.038 -26.362  1.00  0.00     0.106 A 
HETATM   31  C   UNL     1       1.372   8.683 -26.594  1.00  0.00     0.094 A 
HETATM   32  C   UNL     1      -0.412   9.662 -25.214  1.00  0.00     0.040 A 
HETATM   33  N   UNL     1       1.477   8.043 -27.805  1.00  0.00    -0.221 NA
HETATM   34  C   UNL     1       2.326   8.951 -25.604  1.00  0.00     0.041 A 
HETATM   35  C   UNL     1       1.897   9.539 -24.396  1.00  0.00    -0.056 A 
HETATM   36  C   UNL     1       0.544   9.892 -24.220  1.00  0.00     0.010 A 
BRANCH  35  37
HETATM   37  C   UNL     1       2.875   9.716 -23.262  1.00  0.00     0.034 C 
HETATM   38  C   UNL     1       3.175   8.389 -22.578  1.00  0.00     0.010 C 
ENDBRANCH  35  37
ENDBRANCH   4  28
TORSDOF 11
ENDMDL
MODEL 4
REMARK VINA RESULT:      -8.5      1.544      2.250
REMARK  11 active torsions:
REMARK  status: ('A' for Active; 'I' for Inactive)
REMARK    1  A    between atoms: C_2  and  C_3 
REMARK    2  A    between atoms: C_3  and  C_4 
REMARK    3  A    between atoms: C_4  and  O_5 
REMARK    4  A    between atoms: O_5  and  C_6 
REMARK    5  A    between atoms: C_8  and  C_9 
REMARK       I    between atoms: C_9  and  N_10 
REMARK    6  A    between atoms: N_10  and  C_11 
REMARK    7  A    between atoms: C_11  and  N_12 
REMARK    8  A    between atoms: N_12  and  C_13 
REMARK    9  A    between atoms: C_15  and  O_16 
REMARK   10  A    between atoms: C_17  and  C_18 
REMARK   11  A    between atoms: C_25  and  C_26 
ROOT
HETATM    1  C   UNL     1      -5.598   4.436 -29.569  1.00  0.00     0.036 C 
HETATM    2  C   UNL     1      -4.756   4.561 -30.674  1.00  0.00     0.067 C 
HETATM    3  C   UNL     1      -4.882   3.701 -31.766  1.00  0.00     0.082 C 
HETATM    4  C   UNL     1      -5.867   2.705 -31.783  1.00  0.00     0.050 C 
HETATM    5  C   UNL     1      -6.820   2.713 -30.747  1.00  0.00     0.021 C 
HETATM    6  C   UNL     1      -6.697   3.582 -29.655  1.00  0.00     0.030 C 
ENDROOT
BRANCH   1   7
HETATM    7  N   UNL     1      -5.367   5.110 -28.351  1.00  0.00    -0.333 N 
HETATM    8  H   UNL     1      -5.115   4.526 -27.552  1.00  0.00     0.168 HD
BRANCH   7   9
HETATM    9  C   UNL     1      -5.085   6.447 -28.171  1.00  0.00     0.179 C 
HETATM   10  S   UNL     1      -6.125   7.747 -27.968  1.00  0.00    -0.040 SA
BRANCH   9  11
HETATM   11  N   UNL     1      -3.751   6.788 -28.211  1.00  0.00    -0.299 N 
HETATM   12  C   UNL     1      -2.840   7.016 -27.192  1.00  0.00     0.257 C 
HETATM   13  O   UNL     1      -3.111   7.023 -25.997  1.00  0.00    -0.267 OA
HETATM   14  H   UNL     1      -3.416   6.862 -29.164  1.00  0.00     0.171 HD
BRANCH  12  15
HETATM   15  C   UNL     1      -1.465   7.305 -27.682  1.00  0.00     0.035 A 
HETATM   16  C   UNL     1      -1.033   6.793 -28.912  1.00  0.00     0.053 A 
HETATM   17  C   UNL     1       0.204   7.182 -29.422  1.00  0.00     0.069 A 
HETATM   18  C   UNL     1       1.041   8.012 -28.681  1.00  0.00     0.037 A 
HETATM   19  C   UNL     1       0.624   8.491 -27.437  1.00  0.00     0.004 A 
HETATM   20  C   UNL     1      -0.631   8.140 -26.933  1.00  0.00     0.017 A 
BRANCH  17  21
HETATM   21  O   UNL     1       0.645   6.720 -30.630  1.00  0.00    -0.351 OA
BRANCH  21  22
HETATM   22  C   UNL     1      -0.425   6.218 -31.447  1.00  0.00     0.175 C 
BRANCH  22  23
HETATM   23  C   UNL     1      -0.695   7.155 -32.624  1.00  0.00     0.026 C 
BRANCH  23  24
HETATM   24  C   UNL     1      -1.833   6.658 -33.518  1.00  0.00    -0.002 C 
HETATM   25  C   UNL     1      -1.329   5.661 -34.551  1.00  0.00     0.005 C 
ENDBRANCH  23  24
ENDBRANCH  22  23
ENDBRANCH  21  22
ENDBRANCH  17  21
ENDBRANCH  12  15
ENDBRANCH   9  11
ENDBRANCH   7   9
ENDBRANCH   1   7
BRANCH   3  26
HETATM   26  O   UNL     1      -3.999   3.834 -32.804  1.00  0.00    -0.360 OA
HETATM   27  H   UNL     1      -3.296   4.454 -32.550  1.00  0.00     0.217 HD
ENDBRANCH   3  26
BRANCH   4  28
HETATM   28  C   UNL     1      -5.858   1.574 -32.713  1.00  0.00     0.183 A 
HETATM   29  O   UNL     1      -4.673   0.893 -32.837  1.00  0.00    -0.289 OA
HETATM   30  C   UNL     1      -5.014  -0.275 -33.440  1.00  0.00     0.106 A 
HETATM   31  C   UNL     1      -6.373  -0.237 -33.692  1.00  0.00     0.094 A 
HETATM   32  C   UNL     1      -4.181  -1.352 -33.705  1.00  0.00     0.040 A 
HETATM   33  N   UNL     1      -6.895   0.959 -33.264  1.00  0.00    -0.221 NA
HETATM   34  C   UNL     1      -6.985  -1.368 -34.247  1.00  0.00     0.041 A 
HETATM   35  C   UNL     1      -6.195  -2.510 -34.492  1.00  0.00    -0.056 A 
HETATM   36  C   UNL     1      -4.811  -2.487 -34.228  1.00  0.00     0.010 A 
BRANCH  35  37
HETATM   37  C   UNL     1      -6.850  -3.785 -34.963  1.00  0.00     0.034 C 
HETATM   38  C   UNL     1      -5.836  -4.915 -35.085  1.00  0.00     0.010 C 
ENDBRANCH  35  37
ENDBRANCH   4  28
TORSDOF 11
ENDMDL
MODEL 5
REMARK VINA RESULT:      -8.4      1.005      1.331
REMARK  11 active torsions:
REMARK  status: ('A' for Active; 'I' for Inactive)
REMARK    1  A    between atoms: C_2  and  C_3 
REMARK    2  A    between atoms: C_3  and  C_4 
REMARK    3  A    between atoms: C_4  and  O_5 
REMARK    4  A    between atoms: O_5  and  C_6 
REMARK    5  A    between atoms: C_8  and  C_9 
REMARK       I    between atoms: C_9  and  N_10 
REMARK    6  A    between atoms: N_10  and  C_11 
REMARK    7  A    between atoms: C_11  and  N_12 
REMARK    8  A    between atoms: N_12  and  C_13 
REMARK    9  A    between atoms: C_15  and  O_16 
REMARK   10  A    between atoms: C_17  and  C_18 
REMARK   11  A    between atoms: C_25  and  C_26 
ROOT
HETATM    1  C   UNL     1      -6.594   5.111 -29.469  1.00  0.00     0.036 C 
HETATM    2  C   UNL     1      -7.860   4.542 -29.606  1.00  0.00     0.067 C 
HETATM    3  C   UNL     1      -8.009   3.245 -30.099  1.00  0.00     0.082 C 
HETATM    4  C   UNL     1      -6.889   2.481 -30.451  1.00  0.00     0.050 C 
HETATM    5  C   UNL     1      -5.620   2.999 -30.134  1.00  0.00     0.021 C 
HETATM    6  C   UNL     1      -5.472   4.299 -29.631  1.00  0.00     0.030 C 
ENDROOT
BRANCH   1   7
HETATM    7  N   UNL     1      -6.396   6.483 -29.207  1.00  0.00    -0.333 N 
HETATM    8  H   UNL     1      -6.413   6.763 -28.225  1.00  0.00     0.168 HD
BRANCH   7   9
HETATM    9  C   UNL     1      -5.837   7.426 -30.043  1.00  0.00     0.179 C 
HETATM   10  S   UNL     1      -6.562   8.682 -30.884  1.00  0.00    -0.040 SA
BRANCH   9  11
HETATM   11  N   UNL     1      -4.484   7.298 -30.269  1.00  0.00    -0.299 N 
HETATM   12  C   UNL     1      -3.415   7.252 -29.387  1.00  0.00     0.257 C 
HETATM   13  O   UNL     1      -3.500   7.403 -28.174  1.00  0.00    -0.267 OA
HETATM   14  H   UNL     1      -4.280   7.212 -31.256  1.00  0.00     0.171 HD
BRANCH  12  15
HETATM   15  C   UNL     1      -2.104   7.041 -30.058  1.00  0.00     0.035 A 
HETATM   16  C   UNL     1      -2.051   6.773 -31.432  1.00  0.00     0.053 A 
HETATM   17  C   UNL     1      -0.815   6.713 -32.073  1.00  0.00     0.069 A 
HETATM   18  C   UNL     1       0.363   6.840 -31.343  1.00  0.00     0.037 A 
HETATM   19  C   UNL     1       0.309   7.069 -29.966  1.00  0.00     0.004 A 
HETATM   20  C   UNL     1      -0.926   7.172 -29.319  1.00  0.00     0.017 A 
BRANCH  17  21
HETATM   21  O   UNL     1      -0.729   6.477 -33.416  1.00  0.00    -0.351 OA
BRANCH  21  22
HETATM   22  C   UNL     1      -1.991   6.638 -34.082  1.00  0.00     0.175 C 
BRANCH  22  23
HETATM   23  C   UNL     1      -2.375   5.363 -34.833  1.00  0.00     0.026 C 
BRANCH  23  24
HETATM   24  C   UNL     1      -3.888   5.221 -35.007  1.00  0.00    -0.002 C 
HETATM   25  C   UNL     1      -4.606   5.266 -33.666  1.00  0.00     0.005 C 
ENDBRANCH  23  24
ENDBRANCH  22  23
ENDBRANCH  21  22
ENDBRANCH  17  21
ENDBRANCH  12  15
ENDBRANCH   9  11
ENDBRANCH   7   9
ENDBRANCH   1   7
BRANCH   3  26
HETATM   26  O   UNL     1      -9.276   2.752 -30.261  1.00  0.00    -0.360 OA
HETATM   27  H   UNL     1      -9.311   1.840 -29.927  1.00  0.00     0.217 HD
ENDBRANCH   3  26
BRANCH   4  28
HETATM   28  C   UNL     1      -6.961   1.267 -31.268  1.00  0.00     0.183 A 
HETATM   29  O   UNL     1      -7.770   1.323 -32.376  1.00  0.00    -0.289 OA
HETATM   30  C   UNL     1      -7.390   0.258 -33.127  1.00  0.00     0.106 A 
HETATM   31  C   UNL     1      -6.405  -0.417 -32.432  1.00  0.00     0.094 A 
HETATM   32  C   UNL     1      -7.846  -0.075 -34.395  1.00  0.00     0.040 A 
HETATM   33  N   UNL     1      -6.167   0.207 -31.232  1.00  0.00    -0.221 NA
HETATM   34  C   UNL     1      -5.792  -1.522 -33.037  1.00  0.00     0.041 A 
HETATM   35  C   UNL     1      -6.182  -1.876 -34.345  1.00  0.00    -0.056 A 
HETATM   36  C   UNL     1      -7.202  -1.159 -35.001  1.00  0.00     0.010 A 
BRANCH  35  37
HETATM   37  C   UNL     1      -5.448  -2.976 -35.072  1.00  0.00     0.034 C 
HETATM   38  C   UNL     1      -6.304  -4.229 -35.188  1.00  0.00     0.010 C 
ENDBRANCH  35  37
ENDBRANCH   4  28
TORSDOF 11
ENDMDL
MODEL 6
REMARK VINA RESULT:      -8.4      4.545      6.599
REMARK  11 active torsions:
REMARK  status: ('A' for Active; 'I' for Inactive)
REMARK    1  A    between atoms: C_2  and  C_3 
REMARK    2  A    between atoms: C_3  and  C_4 
REMARK    3  A    between atoms: C_4  and  O_5 
REMARK    4  A    between atoms: O_5  and  C_6 
REMARK    5  A    between atoms: C_8  and  C_9 
REMARK       I    between atoms: C_9  and  N_10 
REMARK    6  A    between atoms: N_10  and  C_11 
REMARK    7  A    between atoms: C_11  and  N_12 
REMARK    8  A    between atoms: N_12  and  C_13 
REMARK    9  A    between atoms: C_15  and  O_16 
REMARK   10  A    between atoms: C_17  and  C_18 
REMARK   11  A    between atoms: C_25  and  C_26 
ROOT
HETATM    1  C   UNL     1      -6.570   1.119 -32.216  1.00  0.00     0.036 C 
HETATM    2  C   UNL     1      -6.997   0.727 -33.484  1.00  0.00     0.067 C 
HETATM    3  C   UNL     1      -8.266   1.074 -33.949  1.00  0.00     0.082 C 
HETATM    4  C   UNL     1      -9.132   1.839 -33.157  1.00  0.00     0.050 C 
HETATM    5  C   UNL     1      -8.620   2.379 -31.963  1.00  0.00     0.021 C 
HETATM    6  C   UNL     1      -7.341   2.035 -31.502  1.00  0.00     0.030 C 
ENDROOT
BRANCH   1   7
HETATM    7  N   UNL     1      -5.407   0.602 -31.605  1.00  0.00    -0.333 N 
HETATM    8  H   UNL     1      -5.555  -0.038 -30.824  1.00  0.00     0.168 HD
BRANCH   7   9
HETATM    9  C   UNL     1      -4.134   0.556 -32.129  1.00  0.00     0.179 C 
HETATM   10  S   UNL     1      -3.174  -0.766 -32.506  1.00  0.00    -0.040 SA
BRANCH   9  11
HETATM   11  N   UNL     1      -3.526   1.775 -32.333  1.00  0.00    -0.299 N 
HETATM   12  C   UNL     1      -3.555   2.942 -31.585  1.00  0.00     0.257 C 
HETATM   13  O   UNL     1      -4.236   3.115 -30.581  1.00  0.00    -0.267 OA
HETATM   14  H   UNL     1      -2.963   1.772 -33.174  1.00  0.00     0.171 HD
BRANCH  12  15
HETATM   15  C   UNL     1      -2.695   4.022 -32.141  1.00  0.00     0.035 A 
HETATM   16  C   UNL     1      -1.675   4.582 -31.361  1.00  0.00     0.053 A 
HETATM   17  C   UNL     1      -0.792   5.493 -31.937  1.00  0.00     0.069 A 
HETATM   18  C   UNL     1      -0.966   5.904 -33.256  1.00  0.00     0.037 A 
HETATM   19  C   UNL     1      -2.007   5.373 -34.020  1.00  0.00     0.004 A 
HETATM   20  C   UNL     1      -2.874   4.428 -33.466  1.00  0.00     0.017 A 
BRANCH  17  21
HETATM   21  O   UNL     1       0.228   6.041 -31.211  1.00  0.00    -0.351 OA
BRANCH  21  22
HETATM   22  C   UNL     1       0.568   5.248 -30.062  1.00  0.00     0.175 C 
BRANCH  22  23
HETATM   23  C   UNL     1       0.453   6.073 -28.780  1.00  0.00     0.026 C 
BRANCH  23  24
HETATM   24  C   UNL     1       0.518   7.578 -29.045  1.00  0.00    -0.002 C 
HETATM   25  C   UNL     1       1.307   8.297 -27.961  1.00  0.00     0.005 C 
ENDBRANCH  23  24
ENDBRANCH  22  23
ENDBRANCH  21  22
ENDBRANCH  17  21
ENDBRANCH  12  15
ENDBRANCH   9  11
ENDBRANCH   7   9
ENDBRANCH   1   7
BRANCH   3  26
HETATM   26  O   UNL     1      -8.654   0.622 -35.182  1.00  0.00    -0.360 OA
HETATM   27  H   UNL     1      -8.339  -0.289 -35.304  1.00  0.00     0.217 HD
ENDBRANCH   3  26
BRANCH   4  28
HETATM   28  C   UNL     1     -10.569   1.965 -33.419  1.00  0.00     0.183 A 
HETATM   29  O   UNL     1     -11.189   0.868 -33.962  1.00  0.00    -0.289 OA
HETATM   30  C   UNL     1     -12.513   1.097 -33.768  1.00  0.00     0.106 A 
HETATM   31  C   UNL     1     -12.642   2.330 -33.157  1.00  0.00     0.094 A 
HETATM   32  C   UNL     1     -13.562   0.236 -34.059  1.00  0.00     0.040 A 
HETATM   33  N   UNL     1     -11.403   2.894 -32.976  1.00  0.00    -0.221 NA
HETATM   34  C   UNL     1     -13.919   2.765 -32.781  1.00  0.00     0.041 A 
HETATM   35  C   UNL     1     -15.017   1.908 -33.009  1.00  0.00    -0.056 A 
HETATM   36  C   UNL     1     -14.828   0.667 -33.648  1.00  0.00     0.010 A 
BRANCH  35  37
HETATM   37  C   UNL     1     -16.383   2.290 -32.495  1.00  0.00     0.034 C 
HETATM   38  C   UNL     1     -16.393   3.716 -31.961  1.00  0.00     0.010 C 
ENDBRANCH  35  37
ENDBRANCH   4  28
TORSDOF 11
ENDMDL
MODEL 7
REMARK VINA RESULT:      -8.4      1.136      1.329
REMARK  11 active torsions:
REMARK  status: ('A' for Active; 'I' for Inactive)
REMARK    1  A    between atoms: C_2  and  C_3 
REMARK    2  A    between atoms: C_3  and  C_4 
REMARK    3  A    between atoms: C_4  and  O_5 
REMARK    4  A    between atoms: O_5  and  C_6 
REMARK    5  A    between atoms: C_8  and  C_9 
REMARK       I    between atoms: C_9  and  N_10 
REMARK    6  A    between atoms: N_10  and  C_11 
REMARK    7  A    between atoms: C_11  and  N_12 
REMARK    8  A    between atoms: N_12  and  C_13 
REMARK    9  A    between atoms: C_15  and  O_16 
REMARK   10  A    between atoms: C_17  and  C_18 
REMARK   11  A    between atoms: C_25  and  C_26 
ROOT
HETATM    1  C   UNL     1      -7.186   4.174 -29.580  1.00  0.00     0.036 C 
HETATM    2  C   UNL     1      -8.311   3.457 -29.987  1.00  0.00     0.067 C 
HETATM    3  C   UNL     1      -8.181   2.317 -30.781  1.00  0.00     0.082 C 
HETATM    4  C   UNL     1      -6.917   1.859 -31.172  1.00  0.00     0.050 C 
HETATM    5  C   UNL     1      -5.792   2.483 -30.603  1.00  0.00     0.021 C 
HETATM    6  C   UNL     1      -5.924   3.623 -29.799  1.00  0.00     0.030 C 
ENDROOT
BRANCH   1   7
HETATM    7  N   UNL     1      -7.266   5.452 -28.986  1.00  0.00    -0.333 N 
HETATM    8  H   UNL     1      -7.167   5.484 -27.970  1.00  0.00     0.168 HD
BRANCH   7   9
HETATM    9  C   UNL     1      -7.102   6.675 -29.600  1.00  0.00     0.179 C 
HETATM   10  S   UNL     1      -8.224   7.885 -29.900  1.00  0.00    -0.040 SA
BRANCH   9  11
HETATM   11  N   UNL     1      -5.841   6.935 -30.089  1.00  0.00    -0.299 N 
HETATM   12  C   UNL     1      -4.603   6.918 -29.466  1.00  0.00     0.257 C 
HETATM   13  O   UNL     1      -4.423   6.726 -28.269  1.00  0.00    -0.267 OA
HETATM   14  H   UNL     1      -5.866   7.159 -31.076  1.00  0.00     0.171 HD
BRANCH  12  15
HETATM   15  C   UNL     1      -3.473   7.206 -30.389  1.00  0.00     0.035 A 
HETATM   16  C   UNL     1      -2.789   6.155 -31.015  1.00  0.00     0.053 A 
HETATM   17  C   UNL     1      -1.826   6.440 -31.980  1.00  0.00     0.069 A 
HETATM   18  C   UNL     1      -1.486   7.760 -32.267  1.00  0.00     0.037 A 
HETATM   19  C   UNL     1      -2.142   8.806 -31.613  1.00  0.00     0.004 A 
HETATM   20  C   UNL     1      -3.139   8.533 -30.673  1.00  0.00     0.017 A 
BRANCH  17  21
HETATM   21  O   UNL     1      -1.157   5.439 -32.626  1.00  0.00    -0.351 OA
BRANCH  21  22
HETATM   22  C   UNL     1      -2.041   4.582 -33.366  1.00  0.00     0.175 C 
BRANCH  22  23
HETATM   23  C   UNL     1      -2.212   5.085 -34.800  1.00  0.00     0.026 C 
BRANCH  23  24
HETATM   24  C   UNL     1      -3.680   5.268 -35.184  1.00  0.00    -0.002 C 
HETATM   25  C   UNL     1      -4.603   4.931 -34.022  1.00  0.00     0.005 C 
ENDBRANCH  23  24
ENDBRANCH  22  23
ENDBRANCH  21  22
ENDBRANCH  17  21
ENDBRANCH  12  15
ENDBRANCH   9  11
ENDBRANCH   7   9
ENDBRANCH   1   7
BRANCH   3  26
HETATM   26  O   UNL     1      -9.320   1.678 -31.194  1.00  0.00    -0.360 OA
HETATM   27  H   UNL     1      -9.163   0.720 -31.210  1.00  0.00     0.217 HD
ENDBRANCH   3  26
BRANCH   4  28
HETATM   28  C   UNL     1      -6.705   0.891 -32.252  1.00  0.00     0.183 A 
HETATM   29  O   UNL     1      -5.403   0.547 -32.517  1.00  0.00    -0.289 OA
HETATM   30  C   UNL     1      -5.497  -0.584 -33.264  1.00  0.00     0.106 A 
HETATM   31  C   UNL     1      -6.840  -0.852 -33.454  1.00  0.00     0.094 A 
HETATM   32  C   UNL     1      -4.452  -1.379 -33.711  1.00  0.00     0.040 A 
HETATM   33  N   UNL     1      -7.601   0.113 -32.842  1.00  0.00    -0.221 NA
HETATM   34  C   UNL     1      -7.202  -2.020 -34.137  1.00  0.00     0.041 A 
HETATM   35  C   UNL     1      -6.181  -2.891 -34.572  1.00  0.00    -0.056 A 
HETATM   36  C   UNL     1      -4.828  -2.559 -34.362  1.00  0.00     0.010 A 
BRANCH  35  37
HETATM   37  C   UNL     1      -6.543  -4.218 -35.190  1.00  0.00     0.034 C 
HETATM   38  C   UNL     1      -5.446  -5.250 -34.966  1.00  0.00     0.010 C 
ENDBRANCH  35  37
ENDBRANCH   4  28
TORSDOF 11
ENDMDL
MODEL 8
REMARK VINA RESULT:      -8.4      2.031      3.522
REMARK  11 active torsions:
REMARK  status: ('A' for Active; 'I' for Inactive)
REMARK    1  A    between atoms: C_2  and  C_3 
REMARK    2  A    between atoms: C_3  and  C_4 
REMARK    3  A    between atoms: C_4  and  O_5 
REMARK    4  A    between atoms: O_5  and  C_6 
REMARK    5  A    between atoms: C_8  and  C_9 
REMARK       I    between atoms: C_9  and  N_10 
REMARK    6  A    between atoms: N_10  and  C_11 
REMARK    7  A    between atoms: C_11  and  N_12 
REMARK    8  A    between atoms: N_12  and  C_13 
REMARK    9  A    between atoms: C_15  and  O_16 
REMARK   10  A    between atoms: C_17  and  C_18 
REMARK   11  A    between atoms: C_25  and  C_26 
ROOT
HETATM    1  C   UNL     1      -6.374   4.719 -30.865  1.00  0.00     0.036 C 
HETATM    2  C   UNL     1      -6.314   4.753 -32.258  1.00  0.00     0.067 C 
HETATM    3  C   UNL     1      -6.152   3.578 -32.993  1.00  0.00     0.082 C 
HETATM    4  C   UNL     1      -6.062   2.338 -32.348  1.00  0.00     0.050 C 
HETATM    5  C   UNL     1      -6.308   2.304 -30.963  1.00  0.00     0.021 C 
HETATM    6  C   UNL     1      -6.479   3.484 -30.227  1.00  0.00     0.030 C 
ENDROOT
BRANCH   1   7
HETATM    7  N   UNL     1      -6.297   5.881 -30.067  1.00  0.00    -0.333 N 
HETATM    8  H   UNL     1      -7.138   6.459 -30.028  1.00  0.00     0.168 HD
BRANCH   7   9
HETATM    9  C   UNL     1      -5.388   6.155 -29.067  1.00  0.00     0.179 C 
HETATM   10  S   UNL     1      -5.639   6.421 -27.430  1.00  0.00    -0.040 SA
BRANCH   9  11
HETATM   11  N   UNL     1      -4.076   6.279 -29.468  1.00  0.00    -0.299 N 
HETATM   12  C   UNL     1      -3.506   7.006 -30.501  1.00  0.00     0.257 C 
HETATM   13  O   UNL     1      -4.133   7.649 -31.335  1.00  0.00    -0.267 OA
HETATM   14  H   UNL     1      -3.456   5.743 -28.874  1.00  0.00     0.171 HD
BRANCH  12  15
HETATM   15  C   UNL     1      -2.022   6.906 -30.546  1.00  0.00     0.035 A 
HETATM   16  C   UNL     1      -1.309   6.508 -29.409  1.00  0.00     0.053 A 
HETATM   17  C   UNL     1       0.064   6.287 -29.501  1.00  0.00     0.069 A 
HETATM   18  C   UNL     1       0.737   6.534 -30.695  1.00  0.00     0.037 A 
HETATM   19  C   UNL     1       0.029   6.968 -31.817  1.00  0.00     0.004 A 
HETATM   20  C   UNL     1      -1.354   7.155 -31.747  1.00  0.00     0.017 A 
BRANCH  17  21
HETATM   21  O   UNL     1       0.786   5.875 -28.417  1.00  0.00    -0.351 OA
BRANCH  21  22
HETATM   22  C   UNL     1       0.429   6.585 -27.220  1.00  0.00     0.175 C 
BRANCH  22  23
HETATM   23  C   UNL     1       1.581   7.474 -26.752  1.00  0.00     0.026 C 
BRANCH  23  24
HETATM   24  C   UNL     1       1.528   8.873 -27.369  1.00  0.00    -0.002 C 
HETATM   25  C   UNL     1       0.102   9.400 -27.426  1.00  0.00     0.005 C 
ENDBRANCH  23  24
ENDBRANCH  22  23
ENDBRANCH  21  22
ENDBRANCH  17  21
ENDBRANCH  12  15
ENDBRANCH   9  11
ENDBRANCH   7   9
ENDBRANCH   1   7
BRANCH   3  26
HETATM   26  O   UNL     1      -6.050   3.672 -34.355  1.00  0.00    -0.360 OA
HETATM   27  H   UNL     1      -6.261   2.811 -34.753  1.00  0.00     0.217 HD
ENDBRANCH   3  26
BRANCH   4  28
HETATM   28  C   UNL     1      -5.569   1.121 -32.999  1.00  0.00     0.183 A 
HETATM   29  O   UNL     1      -4.515   0.487 -32.390  1.00  0.00    -0.289 OA
HETATM   30  C   UNL     1      -4.494  -0.750 -32.951  1.00  0.00     0.106 A 
HETATM   31  C   UNL     1      -5.500  -0.799 -33.897  1.00  0.00     0.094 A 
HETATM   32  C   UNL     1      -3.667  -1.809 -32.607  1.00  0.00     0.040 A 
HETATM   33  N   UNL     1      -6.152   0.408 -33.951  1.00  0.00    -0.221 NA
HETATM   34  C   UNL     1      -5.732  -2.006 -34.569  1.00  0.00     0.041 A 
HETATM   35  C   UNL     1      -4.953  -3.130 -34.225  1.00  0.00    -0.056 A 
HETATM   36  C   UNL     1      -3.932  -3.017 -33.261  1.00  0.00     0.010 A 
BRANCH  35  37
HETATM   37  C   UNL     1      -5.269  -4.474 -34.834  1.00  0.00     0.034 C 
HETATM   38  C   UNL     1      -6.728  -4.557 -35.260  1.00  0.00     0.010 C 
ENDBRANCH  35  37
ENDBRANCH   4  28
TORSDOF 11
ENDMDL
MODEL 9
REMARK VINA RESULT:      -8.4      2.642      4.558
REMARK  11 active torsions:
REMARK  status: ('A' for Active; 'I' for Inactive)
REMARK    1  A    between atoms: C_2  and  C_3 
REMARK    2  A    between atoms: C_3  and  C_4 
REMARK    3  A    between atoms: C_4  and  O_5 
REMARK    4  A    between atoms: O_5  and  C_6 
REMARK    5  A    between atoms: C_8  and  C_9 
REMARK       I    between atoms: C_9  and  N_10 
REMARK    6  A    between atoms: N_10  and  C_11 
REMARK    7  A    between atoms: C_11  and  N_12 
REMARK    8  A    between atoms: N_12  and  C_13 
REMARK    9  A    between atoms: C_15  and  O_16 
REMARK   10  A    between atoms: C_17  and  C_18 
REMARK   11  A    between atoms: C_25  and  C_26 
ROOT
HETATM    1  C   UNL     1      -3.406   5.472 -31.783  1.00  0.00     0.036 C 
HETATM    2  C   UNL     1      -4.280   4.895 -30.863  1.00  0.00     0.067 C 
HETATM    3  C   UNL     1      -4.579   3.532 -30.923  1.00  0.00     0.082 C 
HETATM    4  C   UNL     1      -3.993   2.714 -31.896  1.00  0.00     0.050 C 
HETATM    5  C   UNL     1      -2.978   3.273 -32.694  1.00  0.00     0.021 C 
HETATM    6  C   UNL     1      -2.674   4.640 -32.628  1.00  0.00     0.030 C 
ENDROOT
BRANCH   1   7
HETATM    7  N   UNL     1      -3.254   6.869 -31.922  1.00  0.00    -0.333 N 
HETATM    8  H   UNL     1      -3.217   7.226 -32.877  1.00  0.00     0.168 HD
BRANCH   7   9
HETATM    9  C   UNL     1      -3.504   7.839 -30.975  1.00  0.00     0.179 C 
HETATM   10  S   UNL     1      -4.821   8.863 -30.808  1.00  0.00    -0.040 SA
BRANCH   9  11
HETATM   11  N   UNL     1      -2.506   8.041 -30.047  1.00  0.00    -0.299 N 
HETATM   12  C   UNL     1      -1.137   7.833 -30.125  1.00  0.00     0.257 C 
HETATM   13  O   UNL     1      -0.557   7.328 -31.078  1.00  0.00    -0.267 OA
HETATM   14  H   UNL     1      -2.874   8.418 -29.184  1.00  0.00     0.171 HD
BRANCH  12  15
HETATM   15  C   UNL     1      -0.407   8.247 -28.896  1.00  0.00     0.035 A 
HETATM   16  C   UNL     1      -0.897   9.292 -28.103  1.00  0.00     0.053 A 
HETATM   17  C   UNL     1      -0.282   9.579 -26.887  1.00  0.00     0.069 A 
HETATM   18  C   UNL     1       0.860   8.885 -26.495  1.00  0.00     0.037 A 
HETATM   19  C   UNL     1       1.371   7.869 -27.306  1.00  0.00     0.004 A 
HETATM   20  C   UNL     1       0.737   7.545 -28.509  1.00  0.00     0.017 A 
BRANCH  17  21
HETATM   21  O   UNL     1      -0.749  10.577 -26.078  1.00  0.00    -0.351 OA
BRANCH  21  22
HETATM   22  C   UNL     1      -2.082  10.320 -25.610  1.00  0.00     0.175 C 
BRANCH  22  23
HETATM   23  C   UNL     1      -2.068   9.327 -24.448  1.00  0.00     0.026 C 
BRANCH  23  24
HETATM   24  C   UNL     1      -3.024   8.154 -24.670  1.00  0.00    -0.002 C 
HETATM   25  C   UNL     1      -2.369   7.055 -25.495  1.00  0.00     0.005 C 
ENDBRANCH  23  24
ENDBRANCH  22  23
ENDBRANCH  21  22
ENDBRANCH  17  21
ENDBRANCH  12  15
ENDBRANCH   9  11
ENDBRANCH   7   9
ENDBRANCH   1   7
BRANCH   3  26
HETATM   26  O   UNL     1      -5.482   3.025 -30.027  1.00  0.00    -0.360 OA
HETATM   27  H   UNL     1      -5.233   3.300 -29.129  1.00  0.00     0.217 HD
ENDBRANCH   3  26
BRANCH   4  28
HETATM   28  C   UNL     1      -4.489   1.377 -32.235  1.00  0.00     0.183 A 
HETATM   29  O   UNL     1      -5.825   1.279 -32.534  1.00  0.00    -0.289 OA
HETATM   30  C   UNL     1      -5.947   0.073 -33.146  1.00  0.00     0.106 A 
HETATM   31  C   UNL     1      -4.700  -0.523 -33.156  1.00  0.00     0.094 A 
HETATM   32  C   UNL     1      -7.092  -0.459 -33.723  1.00  0.00     0.040 A 
HETATM   33  N   UNL     1      -3.786   0.296 -32.538  1.00  0.00    -0.221 NA
HETATM   34  C   UNL     1      -4.548  -1.755 -33.805  1.00  0.00     0.041 A 
HETATM   35  C   UNL     1      -5.668  -2.318 -34.451  1.00  0.00    -0.056 A 
HETATM   36  C   UNL     1      -6.918  -1.673 -34.397  1.00  0.00     0.010 A 
BRANCH  35  37
HETATM   37  C   UNL     1      -5.503  -3.575 -35.270  1.00  0.00     0.034 C 
HETATM   38  C   UNL     1      -6.698  -4.504 -35.102  1.00  0.00     0.010 C 
ENDBRANCH  35  37
ENDBRANCH   4  28
TORSDOF 11
ENDMDL
MODEL 10
REMARK VINA RESULT:      -8.3      2.544      8.763
REMARK  11 active torsions:
REMARK  status: ('A' for Active; 'I' for Inactive)
REMARK    1  A    between atoms: C_2  and  C_3 
REMARK    2  A    between atoms: C_3  and  C_4 
REMARK    3  A    between atoms: C_4  and  O_5 
REMARK    4  A    between atoms: O_5  and  C_6 
REMARK    5  A    between atoms: C_8  and  C_9 
REMARK       I    between atoms: C_9  and  N_10 
REMARK    6  A    between atoms: N_10  and  C_11 
REMARK    7  A    between atoms: C_11  and  N_12 
REMARK    8  A    between atoms: N_12  and  C_13 
REMARK    9  A    between atoms: C_15  and  O_16 
REMARK   10  A    between atoms: C_17  and  C_18 
REMARK   11  A    between atoms: C_25  and  C_26 
ROOT
HETATM    1  C   UNL     1      -6.933   4.315 -33.413  1.00  0.00     0.036 C 
HETATM    2  C   UNL     1      -7.105   4.868 -32.144  1.00  0.00     0.067 C 
HETATM    3  C   UNL     1      -6.016   5.376 -31.435  1.00  0.00     0.082 C 
HETATM    4  C   UNL     1      -4.730   5.356 -31.988  1.00  0.00     0.050 C 
HETATM    5  C   UNL     1      -4.605   4.967 -33.334  1.00  0.00     0.021 C 
HETATM    6  C   UNL     1      -5.701   4.464 -34.048  1.00  0.00     0.030 C 
ENDROOT
BRANCH   1   7
HETATM    7  N   UNL     1      -7.941   3.578 -34.070  1.00  0.00    -0.333 N 
HETATM    8  H   UNL     1      -8.323   3.994 -34.921  1.00  0.00     0.168 HD
BRANCH   7   9
HETATM    9  C   UNL     1      -8.227   2.237 -33.931  1.00  0.00     0.179 C 
HETATM   10  S   UNL     1      -9.672   1.416 -34.157  1.00  0.00    -0.040 SA
BRANCH   9  11
HETATM   11  N   UNL     1      -7.188   1.445 -33.493  1.00  0.00    -0.299 N 
HETATM   12  C   UNL     1      -6.926   0.896 -32.247  1.00  0.00     0.257 C 
HETATM   13  O   UNL     1      -7.588   1.101 -31.237  1.00  0.00    -0.267 OA
HETATM   14  H   UNL     1      -6.536   1.244 -34.240  1.00  0.00     0.171 HD
BRANCH  12  15
HETATM   15  C   UNL     1      -5.707   0.042 -32.223  1.00  0.00     0.035 A 
HETATM   16  C   UNL     1      -5.530  -0.960 -33.185  1.00  0.00     0.053 A 
HETATM   17  C   UNL     1      -4.326  -1.660 -33.234  1.00  0.00     0.069 A 
HETATM   18  C   UNL     1      -3.334  -1.421 -32.286  1.00  0.00     0.037 A 
HETATM   19  C   UNL     1      -3.529  -0.447 -31.304  1.00  0.00     0.004 A 
HETATM   20  C   UNL     1      -4.716   0.290 -31.270  1.00  0.00     0.017 A 
BRANCH  17  21
HETATM   21  O   UNL     1      -4.111  -2.628 -34.174  1.00  0.00    -0.351 OA
BRANCH  21  22
HETATM   22  C   UNL     1      -3.977  -3.934 -33.593  1.00  0.00     0.175 C 
BRANCH  22  23
HETATM   23  C   UNL     1      -4.725  -4.977 -34.423  1.00  0.00     0.026 C 
BRANCH  23  24
HETATM   24  C   UNL     1      -5.823  -4.358 -35.289  1.00  0.00    -0.002 C 
HETATM   25  C   UNL     1      -7.118  -4.196 -34.507  1.00  0.00     0.005 C 
ENDBRANCH  23  24
ENDBRANCH  22  23
ENDBRANCH  21  22
ENDBRANCH  17  21
ENDBRANCH  12  15
ENDBRANCH   9  11
ENDBRANCH   7   9
ENDBRANCH   1   7
BRANCH   3  26
HETATM   26  O   UNL     1      -6.232   5.863 -30.173  1.00  0.00    -0.360 OA
HETATM   27  H   UNL     1      -6.160   5.137 -29.532  1.00  0.00     0.217 HD
ENDBRANCH   3  26
BRANCH   4  28
HETATM   28  C   UNL     1      -3.508   5.557 -31.204  1.00  0.00     0.183 A 
HETATM   29  O   UNL     1      -2.326   5.234 -31.822  1.00  0.00    -0.289 OA
HETATM   30  C   UNL     1      -1.372   5.832 -31.063  1.00  0.00     0.106 A 
HETATM   31  C   UNL     1      -2.006   6.453 -30.003  1.00  0.00     0.094 A 
HETATM   32  C   UNL     1      -0.009   5.882 -31.321  1.00  0.00     0.040 A 
HETATM   33  N   UNL     1      -3.361   6.238 -30.078  1.00  0.00    -0.221 NA
HETATM   34  C   UNL     1      -1.237   7.209 -29.109  1.00  0.00     0.041 A 
HETATM   35  C   UNL     1       0.147   7.334 -29.350  1.00  0.00    -0.056 A 
HETATM   36  C   UNL     1       0.741   6.668 -30.440  1.00  0.00     0.010 A 
BRANCH  35  37
HETATM   37  C   UNL     1       0.976   8.249 -28.483  1.00  0.00     0.034 C 
HETATM   38  C   UNL     1       1.311   7.594 -27.150  1.00  0.00     0.010 C 
ENDBRANCH  35  37
ENDBRANCH   4  28
TORSDOF 11
ENDMDL
