MODEL 1
REMARK VINA RESULT:     -10.0      0.000      0.000
REMARK  5 active torsions:
REMARK  status: ('A' for Active; 'I' for Inactive)
REMARK    1  A    between atoms: C_2  and  N_3 
REMARK    2  A    between atoms: C_5  and  C_6 
REMARK    3  A    between atoms: C_6  and  C_7 
REMARK       I    between atoms: C_7  and  N_8 
REMARK    4  A    between atoms: N_8  and  C_9 
REMARK    5  A    between atoms: C_16  and  O_17 
ROOT
HETATM    1  C   UNL     1      -8.236   0.919 -34.358  1.00  0.00     0.224 C 
HETATM    2  N   UNL     1      -9.585   0.828 -34.561  1.00  0.00    -0.351 N 
HETATM    3  O   UNL     1      -7.746   1.784 -33.627  1.00  0.00    -0.273 OA
HETATM    4  H   UNL     1      -9.941   0.056 -35.120  1.00  0.00     0.163 HD
ENDROOT
BRANCH   2   5
HETATM    5  C   UNL     1     -10.495   1.597 -33.742  1.00  0.00     0.135 C 
HETATM    6  C   UNL     1     -10.813   2.879 -34.429  1.00  0.00     0.040 A 
HETATM    7  C   UNL     1     -12.031   3.240 -34.973  1.00  0.00    -0.021 A 
HETATM    8  N   UNL     1      -9.960   3.942 -34.546  1.00  0.00    -0.357 N 
HETATM    9  C   UNL     1     -11.941   4.611 -35.340  1.00  0.00     0.002 A 
HETATM   10  C   UNL     1     -13.205   2.322 -34.998  1.00  0.00     0.042 C 
HETATM   11  C   UNL     1     -10.638   5.027 -35.060  1.00  0.00     0.043 A 
HETATM   12  C   UNL     1     -12.858   5.555 -35.845  1.00  0.00     0.051 A 
HETATM   13  C   UNL     1     -10.209   6.341 -35.276  1.00  0.00     0.033 A 
HETATM   14  C   UNL     1     -11.148   7.265 -35.757  1.00  0.00     0.039 A 
HETATM   15  C   UNL     1     -12.463   6.887 -36.023  1.00  0.00     0.069 A 
HETATM   16  C   UNL     1     -12.785   0.877 -34.668  1.00  0.00     0.007 C 
HETATM   17  C   UNL     1     -11.808   0.819 -33.475  1.00  0.00     0.032 C 
HETATM   18  H   UNL     1      -8.999   3.955 -34.233  1.00  0.00     0.166 HD
BRANCH  15  19
HETATM   19  O   UNL     1     -13.455   7.721 -36.469  1.00  0.00    -0.356 OA
HETATM   20  C   UNL     1     -14.446   7.129 -37.300  1.00  0.00     0.210 C 
ENDBRANCH  15  19
ENDBRANCH   2   5
BRANCH   1  21
HETATM   21  C   UNL     1      -7.324  -0.103 -34.984  1.00  0.00     0.164 C 
BRANCH  21  22
HETATM   22  C   UNL     1      -6.118  -0.678 -34.276  1.00  0.00     0.075 A 
HETATM   23  N   UNL     1      -5.364   0.083 -33.542  1.00  0.00    -0.172 NA
HETATM   24  N   UNL     1      -4.275  -0.459 -32.893  1.00  0.00    -0.230 N 
HETATM   25  C   UNL     1      -3.964  -1.821 -32.902  1.00  0.00     0.275 A 
HETATM   26  C   UNL     1      -4.785  -2.680 -33.768  1.00  0.00     0.046 A 
HETATM   27  O   UNL     1      -3.058  -2.331 -32.246  1.00  0.00    -0.266 OA
HETATM   28  C   UNL     1      -5.854  -2.129 -34.461  1.00  0.00     0.006 A 
HETATM   29  C   UNL     1      -4.490  -4.046 -33.891  1.00  0.00     0.018 A 
HETATM   30  C   UNL     1      -6.635  -2.952 -35.288  1.00  0.00     0.014 A 
HETATM   31  C   UNL     1      -6.338  -4.312 -35.413  1.00  0.00     0.001 A 
HETATM   32  C   UNL     1      -5.266  -4.860 -34.715  1.00  0.00     0.001 A 
BRANCH  24  33
HETATM   33  C   UNL     1      -3.525   0.427 -31.986  1.00  0.00     0.105 C 
HETATM   34  C   UNL     1      -4.129   0.390 -30.583  1.00  0.00     0.034 C 
HETATM   35  C   UNL     1      -3.433   1.859 -32.509  1.00  0.00     0.034 C 
ENDBRANCH  24  33
ENDBRANCH  21  22
ENDBRANCH   1  21
TORSDOF 5
ENDMDL
MODEL 2
REMARK VINA RESULT:     -10.0      4.634      9.441
REMARK  5 active torsions:
REMARK  status: ('A' for Active; 'I' for Inactive)
REMARK    1  A    between atoms: C_2  and  N_3 
REMARK    2  A    between atoms: C_5  and  C_6 
REMARK    3  A    between atoms: C_6  and  C_7 
REMARK       I    between atoms: C_7  and  N_8 
REMARK    4  A    between atoms: N_8  and  C_9 
REMARK    5  A    between atoms: C_16  and  O_17 
ROOT
HETATM    1  C   UNL     1      -6.388   4.234 -32.292  1.00  0.00     0.224 C 
HETATM    2  N   UNL     1      -5.783   3.065 -32.662  1.00  0.00    -0.351 N 
HETATM    3  O   UNL     1      -7.151   4.291 -31.324  1.00  0.00    -0.273 OA
HETATM    4  H   UNL     1      -5.111   3.086 -33.426  1.00  0.00     0.163 HD
ENDROOT
BRANCH   2   5
HETATM    5  C   UNL     1      -5.837   1.913 -31.791  1.00  0.00     0.135 C 
HETATM    6  C   UNL     1      -5.721   0.673 -32.605  1.00  0.00     0.040 A 
HETATM    7  C   UNL     1      -4.654  -0.205 -32.621  1.00  0.00    -0.021 A 
HETATM    8  N   UNL     1      -6.707   0.162 -33.404  1.00  0.00    -0.357 N 
HETATM    9  C   UNL     1      -5.051  -1.342 -33.378  1.00  0.00     0.002 A 
HETATM   10  C   UNL     1      -3.407   0.031 -31.839  1.00  0.00     0.042 C 
HETATM   11  C   UNL     1      -6.340  -1.089 -33.853  1.00  0.00     0.043 A 
HETATM   12  C   UNL     1      -4.455  -2.585 -33.669  1.00  0.00     0.051 A 
HETATM   13  C   UNL     1      -7.050  -2.019 -34.619  1.00  0.00     0.033 A 
HETATM   14  C   UNL     1      -6.443  -3.257 -34.875  1.00  0.00     0.039 A 
HETATM   15  C   UNL     1      -5.168  -3.549 -34.392  1.00  0.00     0.069 A 
HETATM   16  C   UNL     1      -3.344   1.480 -31.322  1.00  0.00     0.007 C 
HETATM   17  C   UNL     1      -4.695   1.945 -30.742  1.00  0.00     0.032 C 
HETATM   18  H   UNL     1      -7.601   0.600 -33.579  1.00  0.00     0.166 HD
BRANCH  15  19
HETATM   19  O   UNL     1      -4.505  -4.735 -34.569  1.00  0.00    -0.356 OA
HETATM   20  C   UNL     1      -3.317  -4.910 -33.806  1.00  0.00     0.210 C 
ENDBRANCH  15  19
ENDBRANCH   2   5
BRANCH   1  21
HETATM   21  C   UNL     1      -6.065   5.501 -33.037  1.00  0.00     0.164 C 
BRANCH  21  22
HETATM   22  C   UNL     1      -4.904   6.401 -32.675  1.00  0.00     0.075 A 
HETATM   23  N   UNL     1      -5.056   7.343 -31.794  1.00  0.00    -0.172 NA
HETATM   24  N   UNL     1      -3.984   8.146 -31.465  1.00  0.00    -0.230 N 
HETATM   25  C   UNL     1      -2.692   7.962 -31.964  1.00  0.00     0.275 A 
HETATM   26  C   UNL     1      -2.525   6.928 -32.996  1.00  0.00     0.046 A 
HETATM   27  O   UNL     1      -1.710   8.604 -31.602  1.00  0.00    -0.266 OA
HETATM   28  C   UNL     1      -3.612   6.148 -33.364  1.00  0.00     0.006 A 
HETATM   29  C   UNL     1      -1.275   6.731 -33.601  1.00  0.00     0.018 A 
HETATM   30  C   UNL     1      -3.449   5.162 -34.351  1.00  0.00     0.014 A 
HETATM   31  C   UNL     1      -2.204   4.970 -34.957  1.00  0.00     0.001 A 
HETATM   32  C   UNL     1      -1.117   5.753 -34.582  1.00  0.00     0.001 A 
BRANCH  24  33
HETATM   33  C   UNL     1      -4.185   9.121 -30.380  1.00  0.00     0.105 C 
HETATM   34  C   UNL     1      -4.651   8.415 -29.107  1.00  0.00     0.034 C 
HETATM   35  C   UNL     1      -5.145  10.244 -30.770  1.00  0.00     0.034 C 
ENDBRANCH  24  33
ENDBRANCH  21  22
ENDBRANCH   1  21
TORSDOF 5
ENDMDL
MODEL 3
REMARK VINA RESULT:      -9.7      3.011      3.872
REMARK  5 active torsions:
REMARK  status: ('A' for Active; 'I' for Inactive)
REMARK    1  A    between atoms: C_2  and  N_3 
REMARK    2  A    between atoms: C_5  and  C_6 
REMARK    3  A    between atoms: C_6  and  C_7 
REMARK       I    between atoms: C_7  and  N_8 
REMARK    4  A    between atoms: N_8  and  C_9 
REMARK    5  A    between atoms: C_16  and  O_17 
ROOT
HETATM    1  C   UNL     1      -9.406   0.753 -33.361  1.00  0.00     0.224 C 
HETATM    2  N   UNL     1     -10.417   1.498 -32.819  1.00  0.00    -0.351 N 
HETATM    3  O   UNL     1      -9.199   0.729 -34.577  1.00  0.00    -0.273 OA
HETATM    4  H   UNL     1     -10.503   1.536 -31.805  1.00  0.00     0.163 HD
ENDROOT
BRANCH   2   5
HETATM    5  C   UNL     1     -11.125   2.460 -33.632  1.00  0.00     0.135 C 
HETATM    6  C   UNL     1     -12.474   2.700 -33.050  1.00  0.00     0.040 A 
HETATM    7  C   UNL     1     -12.915   3.862 -32.446  1.00  0.00    -0.021 A 
HETATM    8  N   UNL     1     -13.523   1.823 -33.107  1.00  0.00    -0.357 N 
HETATM    9  C   UNL     1     -14.313   3.720 -32.223  1.00  0.00     0.002 A 
HETATM   10  C   UNL     1     -12.032   5.044 -32.236  1.00  0.00     0.042 C 
HETATM   11  C   UNL     1     -14.668   2.438 -32.648  1.00  0.00     0.043 A 
HETATM   12  C   UNL     1     -15.322   4.576 -31.739  1.00  0.00     0.051 A 
HETATM   13  C   UNL     1     -15.986   1.971 -32.597  1.00  0.00     0.033 A 
HETATM   14  C   UNL     1     -16.974   2.851 -32.133  1.00  0.00     0.039 A 
HETATM   15  C   UNL     1     -16.655   4.146 -31.726  1.00  0.00     0.069 A 
HETATM   16  C   UNL     1     -10.553   4.677 -32.457  1.00  0.00     0.007 C 
HETATM   17  C   UNL     1     -10.357   3.804 -33.714  1.00  0.00     0.032 C 
HETATM   18  H   UNL     1     -13.482   0.891 -33.496  1.00  0.00     0.166 HD
BRANCH  15  19
HETATM   19  O   UNL     1     -17.552   5.083 -31.283  1.00  0.00    -0.356 OA
HETATM   20  C   UNL     1     -18.921   4.700 -31.304  1.00  0.00     0.210 C 
ENDBRANCH  15  19
ENDBRANCH   2   5
BRANCH   1  21
HETATM   21  C   UNL     1      -8.475  -0.002 -32.451  1.00  0.00     0.164 C 
BRANCH  21  22
HETATM   22  C   UNL     1      -6.975  -0.029 -32.640  1.00  0.00     0.075 A 
HETATM   23  N   UNL     1      -6.233   0.904 -32.123  1.00  0.00    -0.172 NA
HETATM   24  N   UNL     1      -4.865   0.859 -32.293  1.00  0.00    -0.230 N 
HETATM   25  C   UNL     1      -4.195  -0.191 -32.927  1.00  0.00     0.275 A 
HETATM   26  C   UNL     1      -5.031  -1.225 -33.553  1.00  0.00     0.046 A 
HETATM   27  O   UNL     1      -2.973  -0.294 -32.994  1.00  0.00    -0.266 OA
HETATM   28  C   UNL     1      -6.412  -1.158 -33.425  1.00  0.00     0.006 A 
HETATM   29  C   UNL     1      -4.437  -2.272 -34.273  1.00  0.00     0.018 A 
HETATM   30  C   UNL     1      -7.207  -2.147 -34.026  1.00  0.00     0.014 A 
HETATM   31  C   UNL     1      -6.615  -3.187 -34.747  1.00  0.00     0.001 A 
HETATM   32  C   UNL     1      -5.230  -3.251 -34.870  1.00  0.00     0.001 A 
BRANCH  24  33
HETATM   33  C   UNL     1      -4.068   1.879 -31.590  1.00  0.00     0.105 C 
HETATM   34  C   UNL     1      -4.871   2.483 -30.439  1.00  0.00     0.034 C 
HETATM   35  C   UNL     1      -3.548   2.966 -32.529  1.00  0.00     0.034 C 
ENDBRANCH  24  33
ENDBRANCH  21  22
ENDBRANCH   1  21
TORSDOF 5
ENDMDL
MODEL 4
REMARK VINA RESULT:      -9.6      5.755     10.076
REMARK  5 active torsions:
REMARK  status: ('A' for Active; 'I' for Inactive)
REMARK    1  A    between atoms: C_2  and  N_3 
REMARK    2  A    between atoms: C_5  and  C_6 
REMARK    3  A    between atoms: C_6  and  C_7 
REMARK       I    between atoms: C_7  and  N_8 
REMARK    4  A    between atoms: N_8  and  C_9 
REMARK    5  A    between atoms: C_16  and  O_17 
ROOT
HETATM    1  C   UNL     1      -3.920   3.803 -31.937  1.00  0.00     0.224 C 
HETATM    2  N   UNL     1      -3.072   4.428 -31.065  1.00  0.00    -0.351 N 
HETATM    3  O   UNL     1      -4.466   4.413 -32.861  1.00  0.00    -0.273 OA
HETATM    4  H   UNL     1      -2.597   3.865 -30.363  1.00  0.00     0.163 HD
ENDROOT
BRANCH   2   5
HETATM    5  C   UNL     1      -2.608   5.769 -31.340  1.00  0.00     0.135 C 
HETATM    6  C   UNL     1      -1.866   6.286 -30.158  1.00  0.00     0.040 A 
HETATM    7  C   UNL     1      -0.509   6.533 -30.083  1.00  0.00    -0.021 A 
HETATM    8  N   UNL     1      -2.440   6.685 -28.982  1.00  0.00    -0.357 N 
HETATM    9  C   UNL     1      -0.268   7.203 -28.851  1.00  0.00     0.002 A 
HETATM   10  C   UNL     1       0.427   6.234 -31.204  1.00  0.00     0.042 C 
HETATM   11  C   UNL     1      -1.492   7.289 -28.184  1.00  0.00     0.043 A 
HETATM   12  C   UNL     1       0.869   7.786 -28.256  1.00  0.00     0.051 A 
HETATM   13  C   UNL     1      -1.624   7.919 -26.942  1.00  0.00     0.033 A 
HETATM   14  C   UNL     1      -0.483   8.511 -26.384  1.00  0.00     0.039 A 
HETATM   15  C   UNL     1       0.748   8.465 -27.037  1.00  0.00     0.069 A 
HETATM   16  C   UNL     1      -0.244   5.339 -32.262  1.00  0.00     0.007 C 
HETATM   17  C   UNL     1      -1.680   5.802 -32.582  1.00  0.00     0.032 C 
HETATM   18  H   UNL     1      -3.424   6.616 -28.761  1.00  0.00     0.166 HD
BRANCH  15  19
HETATM   19  O   UNL     1       1.910   9.034 -26.584  1.00  0.00    -0.356 OA
HETATM   20  C   UNL     1       2.348   8.624 -25.295  1.00  0.00     0.210 C 
ENDBRANCH  15  19
ENDBRANCH   2   5
BRANCH   1  21
HETATM   21  C   UNL     1      -4.144   2.320 -31.816  1.00  0.00     0.164 C 
BRANCH  21  22
HETATM   22  C   UNL     1      -5.465   1.653 -32.129  1.00  0.00     0.075 A 
HETATM   23  N   UNL     1      -6.582   2.235 -31.815  1.00  0.00    -0.172 NA
HETATM   24  N   UNL     1      -7.779   1.621 -32.119  1.00  0.00    -0.230 N 
HETATM   25  C   UNL     1      -7.879   0.424 -32.832  1.00  0.00     0.275 A 
HETATM   26  C   UNL     1      -6.618  -0.263 -33.149  1.00  0.00     0.046 A 
HETATM   27  O   UNL     1      -8.938  -0.080 -33.198  1.00  0.00    -0.266 OA
HETATM   28  C   UNL     1      -5.412   0.330 -32.803  1.00  0.00     0.006 A 
HETATM   29  C   UNL     1      -6.636  -1.506 -33.798  1.00  0.00     0.018 A 
HETATM   30  C   UNL     1      -4.209  -0.329 -33.106  1.00  0.00     0.014 A 
HETATM   31  C   UNL     1      -4.228  -1.571 -33.748  1.00  0.00     0.001 A 
HETATM   32  C   UNL     1      -5.440  -2.160 -34.095  1.00  0.00     0.001 A 
BRANCH  24  33
HETATM   33  C   UNL     1      -9.011   2.379 -31.842  1.00  0.00     0.105 C 
HETATM   34  C   UNL     1      -9.273   3.396 -32.951  1.00  0.00     0.034 C 
HETATM   35  C   UNL     1      -8.990   3.052 -30.471  1.00  0.00     0.034 C 
ENDBRANCH  24  33
ENDBRANCH  21  22
ENDBRANCH   1  21
TORSDOF 5
ENDMDL
MODEL 5
REMARK VINA RESULT:      -9.2      4.884      9.245
REMARK  5 active torsions:
REMARK  status: ('A' for Active; 'I' for Inactive)
REMARK    1  A    between atoms: C_2  and  N_3 
REMARK    2  A    between atoms: C_5  and  C_6 
REMARK    3  A    between atoms: C_6  and  C_7 
REMARK       I    between atoms: C_7  and  N_8 
REMARK    4  A    between atoms: N_8  and  C_9 
REMARK    5  A    between atoms: C_16  and  O_17 
ROOT
HETATM    1  C   UNL     1      -7.127   5.816 -31.591  1.00  0.00     0.224 C 
HETATM    2  N   UNL     1      -6.682   4.587 -31.992  1.00  0.00    -0.351 N 
HETATM    3  O   UNL     1      -8.150   5.947 -30.913  1.00  0.00    -0.273 OA
HETATM    4  H   UNL     1      -5.798   4.529 -32.493  1.00  0.00     0.163 HD
ENDROOT
BRANCH   2   5
HETATM    5  C   UNL     1      -7.269   3.387 -31.439  1.00  0.00     0.135 C 
HETATM    6  C   UNL     1      -6.914   2.223 -32.296  1.00  0.00     0.040 A 
HETATM    7  C   UNL     1      -6.071   1.182 -31.962  1.00  0.00    -0.021 A 
HETATM    8  N   UNL     1      -7.449   1.962 -33.528  1.00  0.00    -0.357 N 
HETATM    9  C   UNL     1      -6.180   0.202 -32.987  1.00  0.00     0.002 A 
HETATM   10  C   UNL     1      -5.329   1.131 -30.670  1.00  0.00     0.042 C 
HETATM   11  C   UNL     1      -7.050   0.712 -33.952  1.00  0.00     0.043 A 
HETATM   12  C   UNL     1      -5.655  -1.094 -33.167  1.00  0.00     0.051 A 
HETATM   13  C   UNL     1      -7.407  -0.011 -35.095  1.00  0.00     0.033 A 
HETATM   14  C   UNL     1      -6.889  -1.306 -35.238  1.00  0.00     0.039 A 
HETATM   15  C   UNL     1      -6.037  -1.853 -34.280  1.00  0.00     0.069 A 
HETATM   16  C   UNL     1      -5.364   2.495 -29.957  1.00  0.00     0.007 C 
HETATM   17  C   UNL     1      -6.769   3.130 -29.994  1.00  0.00     0.032 C 
HETATM   18  H   UNL     1      -8.099   2.560 -34.020  1.00  0.00     0.166 HD
BRANCH  15  19
HETATM   19  O   UNL     1      -5.503  -3.115 -34.319  1.00  0.00    -0.356 OA
HETATM   20  C   UNL     1      -6.297  -4.113 -34.948  1.00  0.00     0.210 C 
ENDBRANCH  15  19
ENDBRANCH   2   5
BRANCH   1  21
HETATM   21  C   UNL     1      -6.314   7.039 -31.921  1.00  0.00     0.164 C 
BRANCH  21  22
HETATM   22  C   UNL     1      -4.802   7.045 -31.950  1.00  0.00     0.075 A 
HETATM   23  N   UNL     1      -4.153   6.039 -32.452  1.00  0.00    -0.172 NA
HETATM   24  N   UNL     1      -2.774   6.065 -32.482  1.00  0.00    -0.230 N 
HETATM   25  C   UNL     1      -2.009   7.161 -32.076  1.00  0.00     0.275 A 
HETATM   26  C   UNL     1      -2.735   8.284 -31.465  1.00  0.00     0.046 A 
HETATM   27  O   UNL     1      -0.788   7.237 -32.194  1.00  0.00    -0.266 OA
HETATM   28  C   UNL     1      -4.120   8.240 -31.389  1.00  0.00     0.006 A 
HETATM   29  C   UNL     1      -2.032   9.389 -30.964  1.00  0.00     0.018 A 
HETATM   30  C   UNL     1      -4.811   9.314 -30.803  1.00  0.00     0.014 A 
HETATM   31  C   UNL     1      -4.110  10.413 -30.300  1.00  0.00     0.001 A 
HETATM   32  C   UNL     1      -2.721  10.452 -30.380  1.00  0.00     0.001 A 
BRANCH  24  33
HETATM   33  C   UNL     1      -2.097   4.949 -33.164  1.00  0.00     0.105 C 
HETATM   34  C   UNL     1      -2.051   5.194 -34.672  1.00  0.00     0.034 C 
HETATM   35  C   UNL     1      -2.731   3.596 -32.845  1.00  0.00     0.034 C 
ENDBRANCH  24  33
ENDBRANCH  21  22
ENDBRANCH   1  21
TORSDOF 5
ENDMDL
MODEL 6
REMARK VINA RESULT:      -9.1      4.089      6.993
REMARK  5 active torsions:
REMARK  status: ('A' for Active; 'I' for Inactive)
REMARK    1  A    between atoms: C_2  and  N_3 
REMARK    2  A    between atoms: C_5  and  C_6 
REMARK    3  A    between atoms: C_6  and  C_7 
REMARK       I    between atoms: C_7  and  N_8 
REMARK    4  A    between atoms: N_8  and  C_9 
REMARK    5  A    between atoms: C_16  and  O_17 
ROOT
HETATM    1  C   UNL     1      -5.110   2.379 -31.300  1.00  0.00     0.224 C 
HETATM    2  N   UNL     1      -5.477   1.634 -32.386  1.00  0.00    -0.351 N 
HETATM    3  O   UNL     1      -5.766   2.369 -30.254  1.00  0.00    -0.273 OA
HETATM    4  H   UNL     1      -4.865   1.627 -33.199  1.00  0.00     0.163 HD
ENDROOT
BRANCH   2   5
HETATM    5  C   UNL     1      -6.514   0.635 -32.264  1.00  0.00     0.135 C 
HETATM    6  C   UNL     1      -7.808   1.206 -32.727  1.00  0.00     0.040 A 
HETATM    7  C   UNL     1      -8.504   0.850 -33.865  1.00  0.00    -0.021 A 
HETATM    8  N   UNL     1      -8.555   2.121 -32.036  1.00  0.00    -0.357 N 
HETATM    9  C   UNL     1      -9.770   1.497 -33.808  1.00  0.00     0.002 A 
HETATM   10  C   UNL     1      -7.988  -0.148 -34.845  1.00  0.00     0.042 C 
HETATM   11  C   UNL     1      -9.778   2.282 -32.653  1.00  0.00     0.043 A 
HETATM   12  C   UNL     1     -10.931   1.456 -34.606  1.00  0.00     0.051 A 
HETATM   13  C   UNL     1     -10.890   3.040 -32.271  1.00  0.00     0.033 A 
HETATM   14  C   UNL     1     -12.040   2.963 -33.070  1.00  0.00     0.039 A 
HETATM   15  C   UNL     1     -12.071   2.168 -34.215  1.00  0.00     0.069 A 
HETATM   16  C   UNL     1      -6.496  -0.443 -34.601  1.00  0.00     0.007 C 
HETATM   17  C   UNL     1      -6.182  -0.627 -33.102  1.00  0.00     0.032 C 
HETATM   18  H   UNL     1      -8.285   2.556 -31.164  1.00  0.00     0.166 HD
BRANCH  15  19
HETATM   19  O   UNL     1     -13.153   2.010 -35.042  1.00  0.00    -0.356 OA
HETATM   20  C   UNL     1     -14.220   1.218 -34.536  1.00  0.00     0.210 C 
ENDBRANCH  15  19
ENDBRANCH   2   5
BRANCH   1  21
HETATM   21  C   UNL     1      -3.836   3.179 -31.348  1.00  0.00     0.164 C 
BRANCH  21  22
HETATM   22  C   UNL     1      -3.810   4.689 -31.434  1.00  0.00     0.075 A 
HETATM   23  N   UNL     1      -4.529   5.403 -30.622  1.00  0.00    -0.172 NA
HETATM   24  N   UNL     1      -4.484   6.779 -30.704  1.00  0.00    -0.230 N 
HETATM   25  C   UNL     1      -3.635   7.479 -31.565  1.00  0.00     0.275 A 
HETATM   26  C   UNL     1      -2.853   6.677 -32.518  1.00  0.00     0.046 A 
HETATM   27  O   UNL     1      -3.511   8.702 -31.576  1.00  0.00    -0.266 OA
HETATM   28  C   UNL     1      -2.932   5.292 -32.470  1.00  0.00     0.006 A 
HETATM   29  C   UNL     1      -2.034   7.308 -33.466  1.00  0.00     0.018 A 
HETATM   30  C   UNL     1      -2.185   4.529 -33.382  1.00  0.00     0.014 A 
HETATM   31  C   UNL     1      -1.372   5.158 -34.329  1.00  0.00     0.001 A 
HETATM   32  C   UNL     1      -1.296   6.547 -34.372  1.00  0.00     0.001 A 
BRANCH  24  33
HETATM   33  C   UNL     1      -5.232   7.536 -29.686  1.00  0.00     0.105 C 
HETATM   34  C   UNL     1      -5.366   6.717 -28.404  1.00  0.00     0.034 C 
HETATM   35  C   UNL     1      -6.597   8.003 -30.187  1.00  0.00     0.034 C 
ENDBRANCH  24  33
ENDBRANCH  21  22
ENDBRANCH   1  21
TORSDOF 5
ENDMDL
MODEL 7
REMARK VINA RESULT:      -9.1      5.147      9.300
REMARK  5 active torsions:
REMARK  status: ('A' for Active; 'I' for Inactive)
REMARK    1  A    between atoms: C_2  and  N_3 
REMARK    2  A    between atoms: C_5  and  C_6 
REMARK    3  A    between atoms: C_6  and  C_7 
REMARK       I    between atoms: C_7  and  N_8 
REMARK    4  A    between atoms: N_8  and  C_9 
REMARK    5  A    between atoms: C_16  and  O_17 
ROOT
HETATM    1  C   UNL     1      -5.549   3.935 -30.503  1.00  0.00     0.224 C 
HETATM    2  N   UNL     1      -4.394   3.992 -31.232  1.00  0.00    -0.351 N 
HETATM    3  O   UNL     1      -6.091   4.953 -30.065  1.00  0.00    -0.273 OA
HETATM    4  H   UNL     1      -4.025   3.130 -31.626  1.00  0.00     0.163 HD
ENDROOT
BRANCH   2   5
HETATM    5  C   UNL     1      -3.899   5.264 -31.708  1.00  0.00     0.135 C 
HETATM    6  C   UNL     1      -2.926   5.814 -30.725  1.00  0.00     0.040 A 
HETATM    7  C   UNL     1      -1.564   5.955 -30.906  1.00  0.00    -0.021 A 
HETATM    8  N   UNL     1      -3.254   6.353 -29.511  1.00  0.00    -0.357 N 
HETATM    9  C   UNL     1      -1.064   6.702 -29.804  1.00  0.00     0.002 A 
HETATM   10  C   UNL     1      -0.864   5.491 -32.138  1.00  0.00     0.042 C 
HETATM   11  C   UNL     1      -2.141   6.941 -28.948  1.00  0.00     0.043 A 
HETATM   12  C   UNL     1       0.196   7.237 -29.470  1.00  0.00     0.051 A 
HETATM   13  C   UNL     1      -2.009   7.680 -27.767  1.00  0.00     0.033 A 
HETATM   14  C   UNL     1      -0.750   8.221 -27.471  1.00  0.00     0.039 A 
HETATM   15  C   UNL     1       0.339   8.021 -28.318  1.00  0.00     0.069 A 
HETATM   16  C   UNL     1      -1.770   4.569 -32.975  1.00  0.00     0.007 C 
HETATM   17  C   UNL     1      -3.206   5.120 -33.088  1.00  0.00     0.032 C 
HETATM   18  H   UNL     1      -4.186   6.384 -29.119  1.00  0.00     0.166 HD
BRANCH  15  19
HETATM   19  O   UNL     1       1.598   8.529 -28.127  1.00  0.00    -0.356 OA
HETATM   20  C   UNL     1       1.987   8.751 -26.777  1.00  0.00     0.210 C 
ENDBRANCH  15  19
ENDBRANCH   2   5
BRANCH   1  21
HETATM   21  C   UNL     1      -6.220   2.605 -30.286  1.00  0.00     0.164 C 
BRANCH  21  22
HETATM   22  C   UNL     1      -6.242   1.509 -31.328  1.00  0.00     0.075 A 
HETATM   23  N   UNL     1      -5.142   0.912 -31.672  1.00  0.00    -0.172 NA
HETATM   24  N   UNL     1      -5.179  -0.095 -32.614  1.00  0.00    -0.230 N 
HETATM   25  C   UNL     1      -6.359  -0.587 -33.179  1.00  0.00     0.275 A 
HETATM   26  C   UNL     1      -7.602   0.117 -32.829  1.00  0.00     0.046 A 
HETATM   27  O   UNL     1      -6.415  -1.549 -33.941  1.00  0.00    -0.266 OA
HETATM   28  C   UNL     1      -7.561   1.161 -31.916  1.00  0.00     0.006 A 
HETATM   29  C   UNL     1      -8.818  -0.268 -33.412  1.00  0.00     0.018 A 
HETATM   30  C   UNL     1      -8.750   1.832 -31.585  1.00  0.00     0.014 A 
HETATM   31  C   UNL     1      -9.961   1.451 -32.169  1.00  0.00     0.001 A 
HETATM   32  C   UNL     1      -9.996   0.401 -33.083  1.00  0.00     0.001 A 
BRANCH  24  33
HETATM   33  C   UNL     1      -3.921  -0.812 -32.881  1.00  0.00     0.105 C 
HETATM   34  C   UNL     1      -3.636  -1.821 -31.770  1.00  0.00     0.034 C 
HETATM   35  C   UNL     1      -2.738   0.134 -33.082  1.00  0.00     0.034 C 
ENDBRANCH  24  33
ENDBRANCH  21  22
ENDBRANCH   1  21
TORSDOF 5
ENDMDL
MODEL 8
REMARK VINA RESULT:      -9.0      5.159      9.018
REMARK  5 active torsions:
REMARK  status: ('A' for Active; 'I' for Inactive)
REMARK    1  A    between atoms: C_2  and  N_3 
REMARK    2  A    between atoms: C_5  and  C_6 
REMARK    3  A    between atoms: C_6  and  C_7 
REMARK       I    between atoms: C_7  and  N_8 
REMARK    4  A    between atoms: N_8  and  C_9 
REMARK    5  A    between atoms: C_16  and  O_17 
ROOT
HETATM    1  C   UNL     1      -5.714   5.441 -32.115  1.00  0.00     0.224 C 
HETATM    2  N   UNL     1      -5.614   4.319 -31.341  1.00  0.00    -0.351 N 
HETATM    3  O   UNL     1      -6.690   5.644 -32.842  1.00  0.00    -0.273 OA
HETATM    4  H   UNL     1      -4.820   4.232 -30.709  1.00  0.00     0.163 HD
ENDROOT
BRANCH   2   5
HETATM    5  C   UNL     1      -6.756   3.448 -31.176  1.00  0.00     0.135 C 
HETATM    6  C   UNL     1      -6.644   2.303 -32.121  1.00  0.00     0.040 A 
HETATM    7  C   UNL     1      -6.412   0.983 -31.790  1.00  0.00    -0.021 A 
HETATM    8  N   UNL     1      -6.847   2.376 -33.472  1.00  0.00    -0.357 N 
HETATM    9  C   UNL     1      -6.584   0.212 -32.974  1.00  0.00     0.002 A 
HETATM   10  C   UNL     1      -6.168   0.535 -30.389  1.00  0.00     0.042 C 
HETATM   11  C   UNL     1      -6.859   1.107 -34.010  1.00  0.00     0.043 A 
HETATM   12  C   UNL     1      -6.576  -1.168 -33.257  1.00  0.00     0.051 A 
HETATM   13  C   UNL     1      -7.112   0.682 -35.318  1.00  0.00     0.033 A 
HETATM   14  C   UNL     1      -7.121  -0.698 -35.568  1.00  0.00     0.039 A 
HETATM   15  C   UNL     1      -6.875  -1.617 -34.549  1.00  0.00     0.069 A 
HETATM   16  C   UNL     1      -5.880   1.735 -29.467  1.00  0.00     0.007 C 
HETATM   17  C   UNL     1      -6.848   2.907 -29.726  1.00  0.00     0.032 C 
HETATM   18  H   UNL     1      -7.036   3.226 -33.989  1.00  0.00     0.166 HD
BRANCH  15  19
HETATM   19  O   UNL     1      -6.887  -2.981 -34.690  1.00  0.00    -0.356 OA
HETATM   20  C   UNL     1      -5.618  -3.623 -34.695  1.00  0.00     0.210 C 
ENDBRANCH  15  19
ENDBRANCH   2   5
BRANCH   1  21
HETATM   21  C   UNL     1      -4.642   6.495 -32.028  1.00  0.00     0.164 C 
BRANCH  21  22
HETATM   22  C   UNL     1      -3.808   6.728 -30.788  1.00  0.00     0.075 A 
HETATM   23  N   UNL     1      -4.379   6.844 -29.628  1.00  0.00    -0.172 NA
HETATM   24  N   UNL     1      -3.604   7.042 -28.504  1.00  0.00    -0.230 N 
HETATM   25  C   UNL     1      -2.207   7.045 -28.514  1.00  0.00     0.275 A 
HETATM   26  C   UNL     1      -1.557   6.961 -29.830  1.00  0.00     0.046 A 
HETATM   27  O   UNL     1      -1.506   7.118 -27.508  1.00  0.00    -0.266 OA
HETATM   28  C   UNL     1      -2.336   6.808 -30.969  1.00  0.00     0.006 A 
HETATM   29  C   UNL     1      -0.160   7.033 -29.932  1.00  0.00     0.018 A 
HETATM   30  C   UNL     1      -1.711   6.730 -32.224  1.00  0.00     0.014 A 
HETATM   31  C   UNL     1      -0.319   6.806 -32.325  1.00  0.00     0.001 A 
HETATM   32  C   UNL     1       0.457   6.958 -31.180  1.00  0.00     0.001 A 
BRANCH  24  33
HETATM   33  C   UNL     1      -4.298   7.053 -27.205  1.00  0.00     0.105 C 
HETATM   34  C   UNL     1      -5.245   5.859 -27.095  1.00  0.00     0.034 C 
HETATM   35  C   UNL     1      -5.033   8.366 -26.943  1.00  0.00     0.034 C 
ENDBRANCH  24  33
ENDBRANCH  21  22
ENDBRANCH   1  21
TORSDOF 5
ENDMDL
MODEL 9
REMARK VINA RESULT:      -8.8      3.504      4.446
REMARK  5 active torsions:
REMARK  status: ('A' for Active; 'I' for Inactive)
REMARK    1  A    between atoms: C_2  and  N_3 
REMARK    2  A    between atoms: C_5  and  C_6 
REMARK    3  A    between atoms: C_6  and  C_7 
REMARK       I    between atoms: C_7  and  N_8 
REMARK    4  A    between atoms: N_8  and  C_9 
REMARK    5  A    between atoms: C_16  and  O_17 
ROOT
HETATM    1  C   UNL     1      -8.773   0.361 -33.374  1.00  0.00     0.224 C 
HETATM    2  N   UNL     1      -8.438   1.644 -33.040  1.00  0.00    -0.351 N 
HETATM    3  O   UNL     1      -9.869  -0.122 -33.078  1.00  0.00    -0.273 OA
HETATM    4  H   UNL     1      -7.548   2.015 -33.366  1.00  0.00     0.163 HD
ENDROOT
BRANCH   2   5
HETATM    5  C   UNL     1      -9.446   2.547 -32.532  1.00  0.00     0.135 C 
HETATM    6  C   UNL     1      -8.790   3.619 -31.733  1.00  0.00     0.040 A 
HETATM    7  C   UNL     1      -8.695   4.955 -32.070  1.00  0.00    -0.021 A 
HETATM    8  N   UNL     1      -8.256   3.453 -30.485  1.00  0.00    -0.357 N 
HETATM    9  C   UNL     1      -8.175   5.642 -30.939  1.00  0.00     0.002 A 
HETATM   10  C   UNL     1      -9.200   5.496 -33.364  1.00  0.00     0.042 C 
HETATM   11  C   UNL     1      -7.913   4.681 -29.960  1.00  0.00     0.043 A 
HETATM   12  C   UNL     1      -7.943   6.998 -30.634  1.00  0.00     0.051 A 
HETATM   13  C   UNL     1      -7.415   5.017 -28.696  1.00  0.00     0.033 A 
HETATM   14  C   UNL     1      -7.215   6.375 -28.411  1.00  0.00     0.039 A 
HETATM   15  C   UNL     1      -7.492   7.360 -29.358  1.00  0.00     0.069 A 
HETATM   16  C   UNL     1      -9.507   4.360 -34.358  1.00  0.00     0.007 C 
HETATM   17  C   UNL     1     -10.257   3.192 -33.685  1.00  0.00     0.032 C 
HETATM   18  H   UNL     1      -8.191   2.573 -29.990  1.00  0.00     0.166 HD
BRANCH  15  19
HETATM   19  O   UNL     1      -7.353   8.710 -29.165  1.00  0.00    -0.356 OA
HETATM   20  C   UNL     1      -8.541   9.424 -28.850  1.00  0.00     0.210 C 
ENDBRANCH  15  19
ENDBRANCH   2   5
BRANCH   1  21
HETATM   21  C   UNL     1      -7.812  -0.465 -34.188  1.00  0.00     0.164 C 
BRANCH  21  22
HETATM   22  C   UNL     1      -6.446  -0.876 -33.687  1.00  0.00     0.075 A 
HETATM   23  N   UNL     1      -5.743  -0.062 -32.960  1.00  0.00    -0.172 NA
HETATM   24  N   UNL     1      -4.504  -0.457 -32.500  1.00  0.00    -0.230 N 
HETATM   25  C   UNL     1      -3.973  -1.734 -32.697  1.00  0.00     0.275 A 
HETATM   26  C   UNL     1      -4.742  -2.643 -33.558  1.00  0.00     0.046 A 
HETATM   27  O   UNL     1      -2.918  -2.130 -32.207  1.00  0.00    -0.266 OA
HETATM   28  C   UNL     1      -5.969  -2.232 -34.062  1.00  0.00     0.006 A 
HETATM   29  C   UNL     1      -4.241  -3.917 -33.866  1.00  0.00     0.018 A 
HETATM   30  C   UNL     1      -6.701  -3.103 -34.885  1.00  0.00     0.014 A 
HETATM   31  C   UNL     1      -6.198  -4.370 -35.195  1.00  0.00     0.001 A 
HETATM   32  C   UNL     1      -4.969  -4.778 -34.686  1.00  0.00     0.001 A 
BRANCH  24  33
HETATM   33  C   UNL     1      -3.803   0.463 -31.588  1.00  0.00     0.105 C 
HETATM   34  C   UNL     1      -4.609   0.659 -30.305  1.00  0.00     0.034 C 
HETATM   35  C   UNL     1      -3.475   1.803 -32.243  1.00  0.00     0.034 C 
ENDBRANCH  24  33
ENDBRANCH  21  22
ENDBRANCH   1  21
TORSDOF 5
ENDMDL
MODEL 10
REMARK VINA RESULT:      -8.8      1.927      2.404
REMARK  5 active torsions:
REMARK  status: ('A' for Active; 'I' for Inactive)
REMARK    1  A    between atoms: C_2  and  N_3 
REMARK    2  A    between atoms: C_5  and  C_6 
REMARK    3  A    between atoms: C_6  and  C_7 
REMARK       I    between atoms: C_7  and  N_8 
REMARK    4  A    between atoms: N_8  and  C_9 
REMARK    5  A    between atoms: C_16  and  O_17 
ROOT
HETATM    1  C   UNL     1      -9.491   0.809 -33.007  1.00  0.00     0.224 C 
HETATM    2  N   UNL     1     -10.284   1.405 -33.947  1.00  0.00    -0.351 N 
HETATM    3  O   UNL     1      -9.529   1.141 -31.819  1.00  0.00    -0.273 OA
HETATM    4  H   UNL     1     -10.262   1.047 -34.900  1.00  0.00     0.163 HD
ENDROOT
BRANCH   2   5
HETATM    5  C   UNL     1     -11.359   2.281 -33.538  1.00  0.00     0.135 C 
HETATM    6  C   UNL     1     -10.880   3.691 -33.557  1.00  0.00     0.040 A 
HETATM    7  C   UNL     1     -11.278   4.683 -34.432  1.00  0.00    -0.021 A 
HETATM    8  N   UNL     1     -10.029   4.244 -32.640  1.00  0.00    -0.357 N 
HETATM    9  C   UNL     1     -10.726   5.907 -33.963  1.00  0.00     0.002 A 
HETATM   10  C   UNL     1     -12.226   4.433 -35.554  1.00  0.00     0.042 C 
HETATM   11  C   UNL     1      -9.952   5.606 -32.840  1.00  0.00     0.043 A 
HETATM   12  C   UNL     1     -10.845   7.254 -34.361  1.00  0.00     0.051 A 
HETATM   13  C   UNL     1      -9.282   6.591 -32.107  1.00  0.00     0.033 A 
HETATM   14  C   UNL     1      -9.436   7.925 -32.510  1.00  0.00     0.039 A 
HETATM   15  C   UNL     1     -10.222   8.260 -33.612  1.00  0.00     0.069 A 
HETATM   16  C   UNL     1     -12.413   2.924 -35.796  1.00  0.00     0.007 C 
HETATM   17  C   UNL     1     -12.586   2.145 -34.476  1.00  0.00     0.032 C 
HETATM   18  H   UNL     1      -9.582   3.744 -31.883  1.00  0.00     0.166 HD
BRANCH  15  19
HETATM   19  O   UNL     1     -10.452   9.533 -34.066  1.00  0.00    -0.356 OA
HETATM   20  C   UNL     1     -10.776  10.503 -33.077  1.00  0.00     0.210 C 
ENDBRANCH  15  19
ENDBRANCH   2   5
BRANCH   1  21
HETATM   21  C   UNL     1      -8.595  -0.332 -33.412  1.00  0.00     0.164 C 
BRANCH  21  22
HETATM   22  C   UNL     1      -7.089  -0.284 -33.291  1.00  0.00     0.075 A 
HETATM   23  N   UNL     1      -6.506   0.750 -32.764  1.00  0.00    -0.172 NA
HETATM   24  N   UNL     1      -5.132   0.773 -32.649  1.00  0.00    -0.230 N 
HETATM   25  C   UNL     1      -4.306  -0.300 -32.992  1.00  0.00     0.275 A 
HETATM   26  C   UNL     1      -4.954  -1.455 -33.631  1.00  0.00     0.046 A 
HETATM   27  O   UNL     1      -3.093  -0.332 -32.799  1.00  0.00    -0.266 OA
HETATM   28  C   UNL     1      -6.333  -1.461 -33.792  1.00  0.00     0.006 A 
HETATM   29  C   UNL     1      -4.184  -2.541 -34.073  1.00  0.00     0.018 A 
HETATM   30  C   UNL     1      -6.948  -2.565 -34.404  1.00  0.00     0.014 A 
HETATM   31  C   UNL     1      -6.180  -3.645 -34.848  1.00  0.00     0.001 A 
HETATM   32  C   UNL     1      -4.798  -3.634 -34.683  1.00  0.00     0.001 A 
BRANCH  24  33
HETATM   33  C   UNL     1      -4.538   1.920 -31.942  1.00  0.00     0.105 C 
HETATM   34  C   UNL     1      -5.256   2.160 -30.615  1.00  0.00     0.034 C 
HETATM   35  C   UNL     1      -4.517   3.187 -32.794  1.00  0.00     0.034 C 
ENDBRANCH  24  33
ENDBRANCH  21  22
ENDBRANCH   1  21
TORSDOF 5
ENDMDL
