MODEL 1
REMARK VINA RESULT:      -7.8      0.000      0.000
REMARK  5 active torsions:
REMARK  status: ('A' for Active; 'I' for Inactive)
REMARK    1  A    between atoms: C_3  and  C_4 
REMARK    2  A    between atoms: C_4  and  C_5 
REMARK    3  A    between atoms: C_5  and  N_6 
REMARK       I    between atoms: N_6  and  C_7 
REMARK       I    between atoms: C_7  and  N_8 
REMARK    4  A    between atoms: N_8  and  C_9 
REMARK    5  A    between atoms: N_11  and  C_12 
ROOT
HETATM    1  C   UNL     1      -3.665   0.654 -31.417  1.00  0.00     0.159 A 
HETATM    2  N   UNL     1      -3.052   1.504 -32.238  1.00  0.00    -0.149 NA
HETATM    3  N   UNL     1      -3.690   2.688 -32.110  1.00  0.00    -0.241 N 
HETATM    4  C   UNL     1      -4.743   2.567 -31.221  1.00  0.00     0.129 A 
HETATM    5  C   UNL     1      -4.750   1.272 -30.751  1.00  0.00     0.003 A 
HETATM    6  C   UNL     1      -5.689   0.676 -29.772  1.00  0.00     0.054 C 
ENDROOT
BRANCH   1   7
HETATM    7  N   UNL     1      -3.293  -0.659 -31.235  1.00  0.00    -0.291 N 
HETATM    8  C   UNL     1      -3.488  -1.730 -32.052  1.00  0.00     0.321 C 
HETATM    9  N   UNL     1      -4.180  -1.522 -33.201  1.00  0.00    -0.343 N 
HETATM   10  O   UNL     1      -3.039  -2.827 -31.723  1.00  0.00    -0.247 OA
HETATM   11  H   UNL     1      -4.522  -0.575 -33.359  1.00  0.00     0.164 HD
HETATM   12  H   UNL     1      -2.781  -0.888 -30.396  1.00  0.00     0.172 HD
BRANCH   9  13
HETATM   13  C   UNL     1      -4.447  -2.562 -34.170  1.00  0.00     0.128 C 
BRANCH  13  14
HETATM   14  C   UNL     1      -5.923  -2.623 -34.573  1.00  0.00     0.046 C 
BRANCH  14  15
HETATM   15  C   UNL     1      -6.644  -1.346 -34.231  1.00  0.00    -0.029 C 
HETATM   16  C   UNL     1      -7.097  -0.469 -35.139  1.00  0.00    -0.035 C 
HETATM   17  C   UNL     1      -7.805   0.800 -34.790  1.00  0.00     0.036 C 
ENDBRANCH  14  15
ENDBRANCH  13  14
ENDBRANCH   9  13
ENDBRANCH   1   7
BRANCH   3  18
HETATM   18  C   UNL     1      -3.269   3.871 -32.799  1.00  0.00     0.079 A 
HETATM   19  C   UNL     1      -4.041   4.511 -33.790  1.00  0.00     0.062 A 
HETATM   20 CL   UNL     1      -5.630   4.047 -34.299  1.00  0.00    -0.082 Cl
HETATM   21  C   UNL     1      -3.541   5.656 -34.434  1.00  0.00     0.026 A 
HETATM   22  C   UNL     1      -2.292   6.180 -34.110  1.00  0.00     0.002 A 
HETATM   23  C   UNL     1      -1.526   5.563 -33.132  1.00  0.00     0.002 A 
HETATM   24  C   UNL     1      -2.007   4.422 -32.482  1.00  0.00     0.033 A 
ENDBRANCH   3  18
TORSDOF 5
ENDMDL
MODEL 2
REMARK VINA RESULT:      -7.5      2.956      7.131
REMARK  5 active torsions:
REMARK  status: ('A' for Active; 'I' for Inactive)
REMARK    1  A    between atoms: C_3  and  C_4 
REMARK    2  A    between atoms: C_4  and  C_5 
REMARK    3  A    between atoms: C_5  and  N_6 
REMARK       I    between atoms: N_6  and  C_7 
REMARK       I    between atoms: C_7  and  N_8 
REMARK    4  A    between atoms: N_8  and  C_9 
REMARK    5  A    between atoms: N_11  and  C_12 
ROOT
HETATM    1  C   UNL     1      -6.945   1.182 -34.180  1.00  0.00     0.159 A 
HETATM    2  N   UNL     1      -6.048   0.214 -34.361  1.00  0.00    -0.149 NA
HETATM    3  N   UNL     1      -6.670  -0.946 -34.056  1.00  0.00    -0.241 N 
HETATM    4  C   UNL     1      -7.966  -0.696 -33.642  1.00  0.00     0.129 A 
HETATM    5  C   UNL     1      -8.177   0.663 -33.717  1.00  0.00     0.003 A 
HETATM    6  C   UNL     1      -9.419   1.400 -33.384  1.00  0.00     0.054 C 
ENDROOT
BRANCH   1   7
HETATM    7  N   UNL     1      -6.706   2.517 -34.414  1.00  0.00    -0.291 N 
HETATM    8  C   UNL     1      -5.935   3.390 -33.709  1.00  0.00     0.321 C 
HETATM    9  N   UNL     1      -5.330   2.925 -32.587  1.00  0.00    -0.343 N 
HETATM   10  O   UNL     1      -5.819   4.548 -34.108  1.00  0.00    -0.247 OA
HETATM   11  H   UNL     1      -5.515   1.953 -32.342  1.00  0.00     0.164 HD
HETATM   12  H   UNL     1      -7.133   2.933 -35.228  1.00  0.00     0.172 HD
BRANCH   9  13
HETATM   13  C   UNL     1      -4.469   3.733 -31.752  1.00  0.00     0.128 C 
BRANCH  13  14
HETATM   14  C   UNL     1      -2.997   3.329 -31.862  1.00  0.00     0.046 C 
BRANCH  14  15
HETATM   15  C   UNL     1      -2.191   4.367 -32.597  1.00  0.00    -0.029 C 
HETATM   16  C   UNL     1      -2.203   4.525 -33.929  1.00  0.00    -0.035 C 
HETATM   17  C   UNL     1      -1.394   5.553 -34.653  1.00  0.00     0.036 C 
ENDBRANCH  14  15
ENDBRANCH  13  14
ENDBRANCH   9  13
ENDBRANCH   1   7
BRANCH   3  18
HETATM   18  C   UNL     1      -6.035  -2.222 -34.193  1.00  0.00     0.079 A 
HETATM   19  C   UNL     1      -4.703  -2.475 -33.806  1.00  0.00     0.062 A 
HETATM   20 CL   UNL     1      -3.634  -1.345 -33.045  1.00  0.00    -0.082 Cl
HETATM   21  C   UNL     1      -4.149  -3.753 -33.998  1.00  0.00     0.026 A 
HETATM   22  C   UNL     1      -4.894  -4.785 -34.563  1.00  0.00     0.002 A 
HETATM   23  C   UNL     1      -6.207  -4.551 -34.942  1.00  0.00     0.002 A 
HETATM   24  C   UNL     1      -6.773  -3.285 -34.760  1.00  0.00     0.033 A 
ENDBRANCH   3  18
TORSDOF 5
ENDMDL
MODEL 3
REMARK VINA RESULT:      -7.5      2.728      6.953
REMARK  5 active torsions:
REMARK  status: ('A' for Active; 'I' for Inactive)
REMARK    1  A    between atoms: C_3  and  C_4 
REMARK    2  A    between atoms: C_4  and  C_5 
REMARK    3  A    between atoms: C_5  and  N_6 
REMARK       I    between atoms: N_6  and  C_7 
REMARK       I    between atoms: C_7  and  N_8 
REMARK    4  A    between atoms: N_8  and  C_9 
REMARK    5  A    between atoms: N_11  and  C_12 
ROOT
HETATM    1  C   UNL     1      -7.758   0.739 -32.519  1.00  0.00     0.159 A 
HETATM    2  N   UNL     1      -7.025  -0.372 -32.472  1.00  0.00    -0.149 NA
HETATM    3  N   UNL     1      -7.087  -0.924 -33.704  1.00  0.00    -0.241 N 
HETATM    4  C   UNL     1      -7.903  -0.165 -34.524  1.00  0.00     0.129 A 
HETATM    5  C   UNL     1      -8.345   0.916 -33.795  1.00  0.00     0.003 A 
HETATM    6  C   UNL     1      -9.234   2.008 -34.255  1.00  0.00     0.054 C 
ENDROOT
BRANCH   1   7
HETATM    7  N   UNL     1      -7.925   1.607 -31.463  1.00  0.00    -0.291 N 
HETATM    8  C   UNL     1      -7.027   2.459 -30.900  1.00  0.00     0.321 C 
HETATM    9  N   UNL     1      -5.763   2.454 -31.395  1.00  0.00    -0.343 N 
HETATM   10  O   UNL     1      -7.387   3.189 -29.977  1.00  0.00    -0.247 OA
HETATM   11  H   UNL     1      -5.574   1.792 -32.147  1.00  0.00     0.164 HD
HETATM   12  H   UNL     1      -8.840   1.657 -31.040  1.00  0.00     0.172 HD
BRANCH   9  13
HETATM   13  C   UNL     1      -4.711   3.317 -30.906  1.00  0.00     0.128 C 
BRANCH  13  14
HETATM   14  C   UNL     1      -3.325   2.888 -31.394  1.00  0.00     0.046 C 
BRANCH  14  15
HETATM   15  C   UNL     1      -3.041   3.407 -32.779  1.00  0.00    -0.029 C 
HETATM   16  C   UNL     1      -2.209   4.424 -33.047  1.00  0.00    -0.035 C 
HETATM   17  C   UNL     1      -1.938   4.939 -34.424  1.00  0.00     0.036 C 
ENDBRANCH  14  15
ENDBRANCH  13  14
ENDBRANCH   9  13
ENDBRANCH   1   7
BRANCH   3  18
HETATM   18  C   UNL     1      -6.364  -2.108 -34.057  1.00  0.00     0.079 A 
HETATM   19  C   UNL     1      -4.958  -2.201 -34.022  1.00  0.00     0.062 A 
HETATM   20 CL   UNL     1      -3.870  -0.964 -33.490  1.00  0.00    -0.082 Cl
HETATM   21  C   UNL     1      -4.326  -3.397 -34.409  1.00  0.00     0.026 A 
HETATM   22  C   UNL     1      -5.065  -4.501 -34.826  1.00  0.00     0.002 A 
HETATM   23  C   UNL     1      -6.450  -4.424 -34.858  1.00  0.00     0.002 A 
HETATM   24  C   UNL     1      -7.094  -3.243 -34.478  1.00  0.00     0.033 A 
ENDBRANCH   3  18
TORSDOF 5
ENDMDL
MODEL 4
REMARK VINA RESULT:      -7.4      3.678      6.677
REMARK  5 active torsions:
REMARK  status: ('A' for Active; 'I' for Inactive)
REMARK    1  A    between atoms: C_3  and  C_4 
REMARK    2  A    between atoms: C_4  and  C_5 
REMARK    3  A    between atoms: C_5  and  N_6 
REMARK       I    between atoms: N_6  and  C_7 
REMARK       I    between atoms: C_7  and  N_8 
REMARK    4  A    between atoms: N_8  and  C_9 
REMARK    5  A    between atoms: N_11  and  C_12 
ROOT
HETATM    1  C   UNL     1      -5.536   0.578 -31.943  1.00  0.00     0.159 A 
HETATM    2  N   UNL     1      -5.956  -0.609 -32.378  1.00  0.00    -0.149 NA
HETATM    3  N   UNL     1      -4.931  -1.144 -33.077  1.00  0.00    -0.241 N 
HETATM    4  C   UNL     1      -3.866  -0.262 -33.109  1.00  0.00     0.129 A 
HETATM    5  C   UNL     1      -4.220   0.853 -32.383  1.00  0.00     0.003 A 
HETATM    6  C   UNL     1      -3.398   2.060 -32.130  1.00  0.00     0.054 C 
ENDROOT
BRANCH   1   7
HETATM    7  N   UNL     1      -6.285   1.431 -31.163  1.00  0.00    -0.291 N 
HETATM    8  C   UNL     1      -7.578   1.827 -31.318  1.00  0.00     0.321 C 
HETATM    9  N   UNL     1      -8.246   1.370 -32.407  1.00  0.00    -0.343 N 
HETATM   10  O   UNL     1      -8.083   2.573 -30.481  1.00  0.00    -0.247 OA
HETATM   11  H   UNL     1      -7.719   0.773 -33.044  1.00  0.00     0.164 HD
HETATM   12  H   UNL     1      -5.849   1.816 -30.339  1.00  0.00     0.172 HD
BRANCH   9  13
HETATM   13  C   UNL     1      -9.627   1.693 -32.690  1.00  0.00     0.128 C 
BRANCH  13  14
HETATM   14  C   UNL     1     -10.423   0.484 -33.188  1.00  0.00     0.046 C 
BRANCH  14  15
HETATM   15  C   UNL     1     -11.732   0.900 -33.805  1.00  0.00    -0.029 C 
HETATM   16  C   UNL     1     -12.887   0.236 -33.644  1.00  0.00    -0.035 C 
HETATM   17  C   UNL     1     -14.180   0.651 -34.267  1.00  0.00     0.036 C 
ENDBRANCH  14  15
ENDBRANCH  13  14
ENDBRANCH   9  13
ENDBRANCH   1   7
BRANCH   3  18
HETATM   18  C   UNL     1      -4.989  -2.455 -33.650  1.00  0.00     0.079 A 
HETATM   19  C   UNL     1      -4.132  -3.509 -33.270  1.00  0.00     0.062 A 
HETATM   20 CL   UNL     1      -2.932  -3.445 -32.024  1.00  0.00    -0.082 Cl
HETATM   21  C   UNL     1      -4.241  -4.760 -33.903  1.00  0.00     0.026 A 
HETATM   22  C   UNL     1      -5.185  -4.985 -34.901  1.00  0.00     0.002 A 
HETATM   23  C   UNL     1      -6.037  -3.958 -35.279  1.00  0.00     0.002 A 
HETATM   24  C   UNL     1      -5.942  -2.707 -34.662  1.00  0.00     0.033 A 
ENDBRANCH   3  18
TORSDOF 5
ENDMDL
MODEL 5
REMARK VINA RESULT:      -7.4      3.146      7.218
REMARK  5 active torsions:
REMARK  status: ('A' for Active; 'I' for Inactive)
REMARK    1  A    between atoms: C_3  and  C_4 
REMARK    2  A    between atoms: C_4  and  C_5 
REMARK    3  A    between atoms: C_5  and  N_6 
REMARK       I    between atoms: N_6  and  C_7 
REMARK       I    between atoms: C_7  and  N_8 
REMARK    4  A    between atoms: N_8  and  C_9 
REMARK    5  A    between atoms: N_11  and  C_12 
ROOT
HETATM    1  C   UNL     1      -7.122   1.818 -33.455  1.00  0.00     0.159 A 
HETATM    2  N   UNL     1      -6.441   0.861 -34.084  1.00  0.00    -0.149 NA
HETATM    3  N   UNL     1      -6.693  -0.288 -33.420  1.00  0.00    -0.241 N 
HETATM    4  C   UNL     1      -7.515  -0.039 -32.335  1.00  0.00     0.129 A 
HETATM    5  C   UNL     1      -7.815   1.305 -32.333  1.00  0.00     0.003 A 
HETATM    6  C   UNL     1      -8.671   2.035 -31.368  1.00  0.00     0.054 C 
ENDROOT
BRANCH   1   7
HETATM    7  N   UNL     1      -7.149   3.138 -33.845  1.00  0.00    -0.291 N 
HETATM    8  C   UNL     1      -6.156   4.068 -33.808  1.00  0.00     0.321 C 
HETATM    9  N   UNL     1      -4.964   3.689 -33.282  1.00  0.00    -0.343 N 
HETATM   10  O   UNL     1      -6.373   5.197 -34.244  1.00  0.00    -0.247 OA
HETATM   11  H   UNL     1      -4.906   2.732 -32.933  1.00  0.00     0.164 HD
HETATM   12  H   UNL     1      -8.009   3.492 -34.239  1.00  0.00     0.172 HD
BRANCH   9  13
HETATM   13  C   UNL     1      -3.815   4.563 -33.195  1.00  0.00     0.128 C 
BRANCH  13  14
HETATM   14  C   UNL     1      -2.583   3.859 -32.622  1.00  0.00     0.046 C 
BRANCH  14  15
HETATM   15  C   UNL     1      -1.710   4.812 -31.849  1.00  0.00    -0.029 C 
HETATM   16  C   UNL     1      -0.964   5.775 -32.410  1.00  0.00    -0.035 C 
HETATM   17  C   UNL     1      -0.094   6.713 -31.637  1.00  0.00     0.036 C 
ENDBRANCH  14  15
ENDBRANCH  13  14
ENDBRANCH   9  13
ENDBRANCH   1   7
BRANCH   3  18
HETATM   18  C   UNL     1      -6.179  -1.555 -33.845  1.00  0.00     0.079 A 
HETATM   19  C   UNL     1      -4.817  -1.910 -33.762  1.00  0.00     0.062 A 
HETATM   20 CL   UNL     1      -3.553  -0.941 -33.081  1.00  0.00    -0.082 Cl
HETATM   21  C   UNL     1      -4.393  -3.168 -34.225  1.00  0.00     0.026 A 
HETATM   22  C   UNL     1      -5.296  -4.080 -34.765  1.00  0.00     0.002 A 
HETATM   23  C   UNL     1      -6.640  -3.745 -34.847  1.00  0.00     0.002 A 
HETATM   24  C   UNL     1      -7.078  -2.497 -34.392  1.00  0.00     0.033 A 
ENDBRANCH   3  18
TORSDOF 5
ENDMDL
MODEL 6
REMARK VINA RESULT:      -7.1      4.119      6.695
REMARK  5 active torsions:
REMARK  status: ('A' for Active; 'I' for Inactive)
REMARK    1  A    between atoms: C_3  and  C_4 
REMARK    2  A    between atoms: C_4  and  C_5 
REMARK    3  A    between atoms: C_5  and  N_6 
REMARK       I    between atoms: N_6  and  C_7 
REMARK       I    between atoms: C_7  and  N_8 
REMARK    4  A    between atoms: N_8  and  C_9 
REMARK    5  A    between atoms: N_11  and  C_12 
ROOT
HETATM    1  C   UNL     1      -7.028   1.465 -31.352  1.00  0.00     0.159 A 
HETATM    2  N   UNL     1      -7.196   0.324 -32.020  1.00  0.00    -0.149 NA
HETATM    3  N   UNL     1      -5.987  -0.005 -32.526  1.00  0.00    -0.241 N 
HETATM    4  C   UNL     1      -5.056   0.965 -32.200  1.00  0.00     0.129 A 
HETATM    5  C   UNL     1      -5.692   1.921 -31.440  1.00  0.00     0.003 A 
HETATM    6  C   UNL     1      -5.097   3.145 -30.853  1.00  0.00     0.054 C 
ENDROOT
BRANCH   1   7
HETATM    7  N   UNL     1      -8.026   2.118 -30.664  1.00  0.00    -0.291 N 
HETATM    8  C   UNL     1      -9.265   2.486 -31.088  1.00  0.00     0.321 C 
HETATM    9  N   UNL     1      -9.587   2.226 -32.381  1.00  0.00    -0.343 N 
HETATM   10  O   UNL     1     -10.033   3.034 -30.299  1.00  0.00    -0.247 OA
HETATM   11  H   UNL     1      -8.863   1.787 -32.948  1.00  0.00     0.164 HD
HETATM   12  H   UNL     1      -7.852   2.351 -29.698  1.00  0.00     0.172 HD
BRANCH   9  13
HETATM   13  C   UNL     1     -10.871   2.545 -32.963  1.00  0.00     0.128 C 
BRANCH  13  14
HETATM   14  C   UNL     1     -11.206   1.661 -34.167  1.00  0.00     0.046 C 
BRANCH  14  15
HETATM   15  C   UNL     1     -12.687   1.637 -34.441  1.00  0.00    -0.029 C 
HETATM   16  C   UNL     1     -13.511   0.655 -34.045  1.00  0.00    -0.035 C 
HETATM   17  C   UNL     1     -14.979   0.635 -34.328  1.00  0.00     0.036 C 
ENDBRANCH  14  15
ENDBRANCH  13  14
ENDBRANCH   9  13
ENDBRANCH   1   7
BRANCH   3  18
HETATM   18  C   UNL     1      -5.759  -1.214 -33.258  1.00  0.00     0.079 A 
HETATM   19  C   UNL     1      -4.545  -1.930 -33.220  1.00  0.00     0.062 A 
HETATM   20 CL   UNL     1      -3.164  -1.539 -32.251  1.00  0.00    -0.082 Cl
HETATM   21  C   UNL     1      -4.397  -3.097 -33.991  1.00  0.00     0.026 A 
HETATM   22  C   UNL     1      -5.432  -3.567 -34.795  1.00  0.00     0.002 A 
HETATM   23  C   UNL     1      -6.634  -2.874 -34.836  1.00  0.00     0.002 A 
HETATM   24  C   UNL     1      -6.797  -1.711 -34.077  1.00  0.00     0.033 A 
ENDBRANCH   3  18
TORSDOF 5
ENDMDL
MODEL 7
REMARK VINA RESULT:      -7.1      4.439      7.001
REMARK  5 active torsions:
REMARK  status: ('A' for Active; 'I' for Inactive)
REMARK    1  A    between atoms: C_3  and  C_4 
REMARK    2  A    between atoms: C_4  and  C_5 
REMARK    3  A    between atoms: C_5  and  N_6 
REMARK       I    between atoms: N_6  and  C_7 
REMARK       I    between atoms: C_7  and  N_8 
REMARK    4  A    between atoms: N_8  and  C_9 
REMARK    5  A    between atoms: N_11  and  C_12 
ROOT
HETATM    1  C   UNL     1      -7.518   2.357 -33.235  1.00  0.00     0.159 A 
HETATM    2  N   UNL     1      -6.933   1.422 -33.983  1.00  0.00    -0.149 NA
HETATM    3  N   UNL     1      -6.819   0.325 -33.202  1.00  0.00    -0.241 N 
HETATM    4  C   UNL     1      -7.306   0.590 -31.935  1.00  0.00     0.129 A 
HETATM    5  C   UNL     1      -7.770   1.887 -31.925  1.00  0.00     0.003 A 
HETATM    6  C   UNL     1      -8.390   2.611 -30.791  1.00  0.00     0.054 C 
ENDROOT
BRANCH   1   7
HETATM    7  N   UNL     1      -7.838   3.620 -33.679  1.00  0.00    -0.291 N 
HETATM    8  C   UNL     1      -8.953   4.047 -34.332  1.00  0.00     0.321 C 
HETATM    9  N   UNL     1      -9.891   3.116 -34.643  1.00  0.00    -0.343 N 
HETATM   10  O   UNL     1      -9.067   5.239 -34.612  1.00  0.00    -0.247 OA
HETATM   11  H   UNL     1      -9.679   2.154 -34.379  1.00  0.00     0.164 HD
HETATM   12  H   UNL     1      -7.181   4.363 -33.490  1.00  0.00     0.172 HD
BRANCH   9  13
HETATM   13  C   UNL     1     -11.131   3.427 -35.317  1.00  0.00     0.128 C 
BRANCH  13  14
HETATM   14  C   UNL     1     -12.345   3.327 -34.390  1.00  0.00     0.046 C 
BRANCH  14  15
HETATM   15  C   UNL     1     -12.457   1.960 -33.770  1.00  0.00    -0.029 C 
HETATM   16  C   UNL     1     -13.197   0.961 -34.274  1.00  0.00    -0.035 C 
HETATM   17  C   UNL     1     -13.309  -0.391 -33.648  1.00  0.00     0.036 C 
ENDBRANCH  14  15
ENDBRANCH  13  14
ENDBRANCH   9  13
ENDBRANCH   1   7
BRANCH   3  18
HETATM   18  C   UNL     1      -6.289  -0.915 -33.685  1.00  0.00     0.079 A 
HETATM   19  C   UNL     1      -4.915  -1.232 -33.673  1.00  0.00     0.062 A 
HETATM   20 CL   UNL     1      -3.650  -0.245 -33.023  1.00  0.00    -0.082 Cl
HETATM   21  C   UNL     1      -4.478  -2.464 -34.190  1.00  0.00     0.026 A 
HETATM   22  C   UNL     1      -5.378  -3.388 -34.714  1.00  0.00     0.002 A 
HETATM   23  C   UNL     1      -6.733  -3.090 -34.726  1.00  0.00     0.002 A 
HETATM   24  C   UNL     1      -7.185  -1.868 -34.218  1.00  0.00     0.033 A 
ENDBRANCH   3  18
TORSDOF 5
ENDMDL
MODEL 8
REMARK VINA RESULT:      -7.0      2.931      6.809
REMARK  5 active torsions:
REMARK  status: ('A' for Active; 'I' for Inactive)
REMARK    1  A    between atoms: C_3  and  C_4 
REMARK    2  A    between atoms: C_4  and  C_5 
REMARK    3  A    between atoms: C_5  and  N_6 
REMARK       I    between atoms: N_6  and  C_7 
REMARK       I    between atoms: C_7  and  N_8 
REMARK    4  A    between atoms: N_8  and  C_9 
REMARK    5  A    between atoms: N_11  and  C_12 
ROOT
HETATM    1  C   UNL     1      -6.236   2.937 -32.361  1.00  0.00     0.159 A 
HETATM    2  N   UNL     1      -5.886   2.045 -33.288  1.00  0.00    -0.149 NA
HETATM    3  N   UNL     1      -5.943   0.833 -32.694  1.00  0.00    -0.241 N 
HETATM    4  C   UNL     1      -6.299   0.973 -31.364  1.00  0.00     0.129 A 
HETATM    5  C   UNL     1      -6.501   2.313 -31.120  1.00  0.00     0.003 A 
HETATM    6  C   UNL     1      -6.904   2.943 -29.841  1.00  0.00     0.054 C 
ENDROOT
BRANCH   1   7
HETATM    7  N   UNL     1      -6.329   4.293 -32.582  1.00  0.00    -0.291 N 
HETATM    8  C   UNL     1      -5.516   5.103 -33.314  1.00  0.00     0.321 C 
HETATM    9  N   UNL     1      -4.426   4.539 -33.892  1.00  0.00    -0.343 N 
HETATM   10  O   UNL     1      -5.796   6.297 -33.420  1.00  0.00    -0.247 OA
HETATM   11  H   UNL     1      -4.284   3.545 -33.718  1.00  0.00     0.164 HD
HETATM   12  H   UNL     1      -7.112   4.780 -32.174  1.00  0.00     0.172 HD
BRANCH   9  13
HETATM   13  C   UNL     1      -3.487   5.274 -34.710  1.00  0.00     0.128 C 
BRANCH  13  14
HETATM   14  C   UNL     1      -2.034   4.876 -34.438  1.00  0.00     0.046 C 
BRANCH  14  15
HETATM   15  C   UNL     1      -1.313   5.928 -33.638  1.00  0.00    -0.029 C 
HETATM   16  C   UNL     1      -0.830   5.736 -32.401  1.00  0.00    -0.035 C 
HETATM   17  C   UNL     1      -0.122   6.788 -31.611  1.00  0.00     0.036 C 
ENDBRANCH  14  15
ENDBRANCH  13  14
ENDBRANCH   9  13
ENDBRANCH   1   7
BRANCH   3  18
HETATM   18  C   UNL     1      -5.692  -0.386 -33.400  1.00  0.00     0.079 A 
HETATM   19  C   UNL     1      -6.503  -0.857 -34.453  1.00  0.00     0.062 A 
HETATM   20 CL   UNL     1      -7.873  -0.039 -35.125  1.00  0.00    -0.082 Cl
HETATM   21  C   UNL     1      -6.198  -2.079 -35.078  1.00  0.00     0.026 A 
HETATM   22  C   UNL     1      -5.102  -2.840 -34.679  1.00  0.00     0.002 A 
HETATM   23  C   UNL     1      -4.293  -2.384 -33.648  1.00  0.00     0.002 A 
HETATM   24  C   UNL     1      -4.583  -1.172 -33.015  1.00  0.00     0.033 A 
ENDBRANCH   3  18
TORSDOF 5
ENDMDL
MODEL 9
REMARK VINA RESULT:      -7.0      2.954      6.797
REMARK  5 active torsions:
REMARK  status: ('A' for Active; 'I' for Inactive)
REMARK    1  A    between atoms: C_3  and  C_4 
REMARK    2  A    between atoms: C_4  and  C_5 
REMARK    3  A    between atoms: C_5  and  N_6 
REMARK       I    between atoms: N_6  and  C_7 
REMARK       I    between atoms: C_7  and  N_8 
REMARK    4  A    between atoms: N_8  and  C_9 
REMARK    5  A    between atoms: N_11  and  C_12 
ROOT
HETATM    1  C   UNL     1      -7.372   1.510 -33.959  1.00  0.00     0.159 A 
HETATM    2  N   UNL     1      -6.458   0.593 -34.273  1.00  0.00    -0.149 NA
HETATM    3  N   UNL     1      -6.960  -0.598 -33.880  1.00  0.00    -0.241 N 
HETATM    4  C   UNL     1      -8.192  -0.419 -33.277  1.00  0.00     0.129 A 
HETATM    5  C   UNL     1      -8.490   0.925 -33.318  1.00  0.00     0.003 A 
HETATM    6  C   UNL     1      -9.709   1.593 -32.803  1.00  0.00     0.054 C 
ENDROOT
BRANCH   1   7
HETATM    7  N   UNL     1      -7.248   2.856 -34.224  1.00  0.00    -0.291 N 
HETATM    8  C   UNL     1      -6.224   3.700 -33.927  1.00  0.00     0.321 C 
HETATM    9  N   UNL     1      -5.172   3.190 -33.237  1.00  0.00    -0.343 N 
HETATM   10  O   UNL     1      -6.288   4.875 -34.288  1.00  0.00    -0.247 OA
HETATM   11  H   UNL     1      -5.237   2.208 -32.973  1.00  0.00     0.164 HD
HETATM   12  H   UNL     1      -7.999   3.304 -34.728  1.00  0.00     0.172 HD
BRANCH   9  13
HETATM   13  C   UNL     1      -4.008   3.965 -32.869  1.00  0.00     0.128 C 
BRANCH  13  14
HETATM   14  C   UNL     1      -3.372   3.485 -31.562  1.00  0.00     0.046 C 
BRANCH  14  15
HETATM   15  C   UNL     1      -3.913   2.143 -31.144  1.00  0.00    -0.029 C 
HETATM   16  C   UNL     1      -5.065   1.968 -30.480  1.00  0.00    -0.035 C 
HETATM   17  C   UNL     1      -5.591   0.633 -30.062  1.00  0.00     0.036 C 
ENDBRANCH  14  15
ENDBRANCH  13  14
ENDBRANCH   9  13
ENDBRANCH   1   7
BRANCH   3  18
HETATM   18  C   UNL     1      -6.280  -1.837 -34.111  1.00  0.00     0.079 A 
HETATM   19  C   UNL     1      -4.909  -2.034 -33.846  1.00  0.00     0.062 A 
HETATM   20 CL   UNL     1      -3.833  -0.875 -33.142  1.00  0.00    -0.082 Cl
HETATM   21  C   UNL     1      -4.315  -3.277 -34.126  1.00  0.00     0.026 A 
HETATM   22  C   UNL     1      -5.057  -4.328 -34.660  1.00  0.00     0.002 A 
HETATM   23  C   UNL     1      -6.408  -4.148 -34.919  1.00  0.00     0.002 A 
HETATM   24  C   UNL     1      -7.014  -2.918 -34.648  1.00  0.00     0.033 A 
ENDBRANCH   3  18
TORSDOF 5
ENDMDL
MODEL 10
REMARK VINA RESULT:      -6.9      3.115      3.848
REMARK  5 active torsions:
REMARK  status: ('A' for Active; 'I' for Inactive)
REMARK    1  A    between atoms: C_3  and  C_4 
REMARK    2  A    between atoms: C_4  and  C_5 
REMARK    3  A    between atoms: C_5  and  N_6 
REMARK       I    between atoms: N_6  and  C_7 
REMARK       I    between atoms: C_7  and  N_8 
REMARK    4  A    between atoms: N_8  and  C_9 
REMARK    5  A    between atoms: N_11  and  C_12 
ROOT
HETATM    1  C   UNL     1      -6.499   3.769 -32.786  1.00  0.00     0.159 A 
HETATM    2  N   UNL     1      -5.613   4.465 -33.496  1.00  0.00    -0.149 NA
HETATM    3  N   UNL     1      -4.582   4.733 -32.664  1.00  0.00    -0.241 N 
HETATM    4  C   UNL     1      -4.845   4.227 -31.404  1.00  0.00     0.129 A 
HETATM    5  C   UNL     1      -6.068   3.595 -31.450  1.00  0.00     0.003 A 
HETATM    6  C   UNL     1      -6.761   2.895 -30.343  1.00  0.00     0.054 C 
ENDROOT
BRANCH   1   7
HETATM    7  N   UNL     1      -7.685   3.279 -33.287  1.00  0.00    -0.291 N 
HETATM    8  C   UNL     1      -7.914   2.140 -33.996  1.00  0.00     0.321 C 
HETATM    9  N   UNL     1      -6.841   1.371 -34.310  1.00  0.00    -0.343 N 
HETATM   10  O   UNL     1      -9.066   1.857 -34.323  1.00  0.00    -0.247 OA
HETATM   11  H   UNL     1      -5.932   1.716 -34.004  1.00  0.00     0.164 HD
HETATM   12  H   UNL     1      -8.525   3.805 -33.098  1.00  0.00     0.172 HD
BRANCH   9  13
HETATM   13  C   UNL     1      -6.937   0.128 -35.043  1.00  0.00     0.128 C 
BRANCH  13  14
HETATM   14  C   UNL     1      -6.991  -1.094 -34.122  1.00  0.00     0.046 C 
BRANCH  14  15
HETATM   15  C   UNL     1      -6.316  -2.286 -34.745  1.00  0.00    -0.029 C 
HETATM   16  C   UNL     1      -6.846  -3.518 -34.784  1.00  0.00    -0.035 C 
HETATM   17  C   UNL     1      -6.166  -4.699 -35.397  1.00  0.00     0.036 C 
ENDBRANCH  14  15
ENDBRANCH  13  14
ENDBRANCH   9  13
ENDBRANCH   1   7
BRANCH   3  18
HETATM   18  C   UNL     1      -3.401   5.419 -33.094  1.00  0.00     0.079 A 
HETATM   19  C   UNL     1      -3.079   6.734 -32.702  1.00  0.00     0.062 A 
HETATM   20 CL   UNL     1      -3.982   7.718 -31.601  1.00  0.00    -0.082 Cl
HETATM   21  C   UNL     1      -1.908   7.342 -33.191  1.00  0.00     0.026 A 
HETATM   22  C   UNL     1      -1.052   6.667 -34.057  1.00  0.00     0.002 A 
HETATM   23  C   UNL     1      -1.355   5.370 -34.445  1.00  0.00     0.002 A 
HETATM   24  C   UNL     1      -2.516   4.751 -33.970  1.00  0.00     0.033 A 
ENDBRANCH   3  18
TORSDOF 5
ENDMDL
