MODEL 1
REMARK VINA RESULT:     -10.3      0.000      0.000
REMARK  5 active torsions:
REMARK  status: ('A' for Active; 'I' for Inactive)
REMARK    1  A    between atoms: C_6  and  S_7 
REMARK    2  A    between atoms: S_7  and  C_8 
REMARK    3  A    between atoms: C_8  and  C_9 
REMARK       I    between atoms: C_9  and  N_10 
REMARK    4  A    between atoms: N_10  and  C_11 
REMARK    5  A    between atoms: N_22  and  C_23 
ROOT
HETATM    1  C   UNL     1      -3.502  -4.478 -33.128  1.00  0.00     0.001 A 
HETATM    2  C   UNL     1      -3.365  -3.263 -32.458  1.00  0.00     0.019 A 
HETATM    3  C   UNL     1      -4.107  -2.153 -32.877  1.00  0.00     0.061 A 
HETATM    4  C   UNL     1      -4.983  -2.244 -33.956  1.00  0.00     0.075 A 
HETATM    5  N   UNL     1      -5.744  -1.157 -34.396  1.00  0.00    -0.223 NA
HETATM    6  C   UNL     1      -5.619  -0.026 -33.781  1.00  0.00     0.177 A 
HETATM    7  N   UNL     1      -4.787   0.183 -32.690  1.00  0.00    -0.255 N 
HETATM    8  C   UNL     1      -3.978  -0.848 -32.203  1.00  0.00     0.267 A 
HETATM    9  O   UNL     1      -3.150  -0.733 -31.301  1.00  0.00    -0.267 OA
HETATM   10  C   UNL     1      -5.109  -3.466 -34.623  1.00  0.00     0.032 A 
HETATM   11  C   UNL     1      -4.372  -4.579 -34.212  1.00  0.00     0.002 A 
ENDROOT
BRANCH   6  12
HETATM   12  S   UNL     1      -6.654   1.275 -34.356  1.00  0.00    -0.082 SA
BRANCH  12  13
HETATM   13  C   UNL     1      -8.118   0.324 -34.876  1.00  0.00     0.185 C 
BRANCH  13  14
HETATM   14  C   UNL     1      -9.352   0.586 -34.017  1.00  0.00     0.231 C 
HETATM   15  N   UNL     1     -10.343   1.316 -34.642  1.00  0.00    -0.326 N 
HETATM   16  H   UNL     1     -10.157   1.556 -35.614  1.00  0.00     0.169 HD
HETATM   17  O   UNL     1      -9.375   0.213 -32.845  1.00  0.00    -0.272 OA
BRANCH  15  18
HETATM   18  C   UNL     1     -11.563   1.775 -34.113  1.00  0.00     0.037 A 
HETATM   19  C   UNL     1     -12.792   1.147 -34.342  1.00  0.00     0.061 A 
HETATM   20  C   UNL     1     -13.898   1.697 -33.732  1.00  0.00     0.065 A 
HETATM   21  C   UNL     1     -13.823   2.833 -32.930  1.00  0.00     0.063 A 
HETATM   22  N   UNL     1     -15.225   1.280 -33.759  1.00  0.00    -0.306 N 
HETATM   23  N   UNL     1     -15.102   3.119 -32.471  1.00  0.00    -0.307 N 
HETATM   24  C   UNL     1     -12.638   3.481 -32.693  1.00  0.00     0.034 A 
HETATM   25  C   UNL     1     -15.989   2.157 -32.975  1.00  0.00     0.325 A 
HETATM   26  H   UNL     1     -15.384   3.877 -31.870  1.00  0.00     0.170 HD
HETATM   27  O   UNL     1     -17.187   2.095 -32.769  1.00  0.00    -0.247 OA
HETATM   28  C   UNL     1     -11.497   2.933 -33.292  1.00  0.00     0.032 A 
HETATM   29  H   UNL     1     -15.602   0.485 -34.247  1.00  0.00     0.170 HD
ENDBRANCH  15  18
ENDBRANCH  13  14
ENDBRANCH  12  13
ENDBRANCH   6  12
BRANCH   7  30
HETATM   30  C   UNL     1      -4.695   1.438 -32.017  1.00  0.00     0.066 A 
HETATM   31  C   UNL     1      -5.520   1.742 -30.919  1.00  0.00     0.061 A 
HETATM   32 CL   UNL     1      -6.786   0.681 -30.406  1.00  0.00    -0.082 Cl
HETATM   33  C   UNL     1      -5.377   2.960 -30.250  1.00  0.00     0.026 A 
HETATM   34  C   UNL     1      -4.414   3.879 -30.668  1.00  0.00     0.002 A 
HETATM   35  C   UNL     1      -3.593   3.585 -31.756  1.00  0.00     0.002 A 
HETATM   36  C   UNL     1      -3.728   2.369 -32.429  1.00  0.00     0.032 A 
ENDBRANCH   7  30
TORSDOF 5
ENDMDL
MODEL 2
REMARK VINA RESULT:      -9.8      1.590      1.831
REMARK  5 active torsions:
REMARK  status: ('A' for Active; 'I' for Inactive)
REMARK    1  A    between atoms: C_6  and  S_7 
REMARK    2  A    between atoms: S_7  and  C_8 
REMARK    3  A    between atoms: C_8  and  C_9 
REMARK       I    between atoms: C_9  and  N_10 
REMARK    4  A    between atoms: N_10  and  C_11 
REMARK    5  A    between atoms: N_22  and  C_23 
ROOT
HETATM    1  C   UNL     1      -4.734  -3.810 -34.785  1.00  0.00     0.001 A 
HETATM    2  C   UNL     1      -4.346  -2.602 -34.205  1.00  0.00     0.019 A 
HETATM    3  C   UNL     1      -5.321  -1.679 -33.809  1.00  0.00     0.061 A 
HETATM    4  C   UNL     1      -6.675  -1.950 -33.984  1.00  0.00     0.075 A 
HETATM    5  N   UNL     1      -7.674  -1.053 -33.593  1.00  0.00    -0.223 NA
HETATM    6  C   UNL     1      -7.321   0.071 -33.059  1.00  0.00     0.177 A 
HETATM    7  N   UNL     1      -6.005   0.447 -32.825  1.00  0.00    -0.255 N 
HETATM    8  C   UNL     1      -4.948  -0.385 -33.207  1.00  0.00     0.267 A 
HETATM    9  O   UNL     1      -3.755  -0.100 -33.120  1.00  0.00    -0.267 OA
HETATM   10  C   UNL     1      -7.053  -3.161 -34.570  1.00  0.00     0.032 A 
HETATM   11  C   UNL     1      -6.087  -4.088 -34.968  1.00  0.00     0.002 A 
ENDROOT
BRANCH   6  12
HETATM   12  S   UNL     1      -8.636   1.117 -32.539  1.00  0.00    -0.082 SA
BRANCH  12  13
HETATM   13  C   UNL     1      -9.076   1.903 -34.122  1.00  0.00     0.185 C 
BRANCH  13  14
HETATM   14  C   UNL     1     -10.462   2.543 -34.121  1.00  0.00     0.231 C 
HETATM   15  N   UNL     1     -11.226   2.255 -33.008  1.00  0.00    -0.326 N 
HETATM   16  H   UNL     1     -10.764   1.689 -32.298  1.00  0.00     0.169 HD
HETATM   17  O   UNL     1     -10.838   3.195 -35.093  1.00  0.00    -0.272 OA
BRANCH  15  18
HETATM   18  C   UNL     1     -12.553   2.632 -32.732  1.00  0.00     0.037 A 
HETATM   19  C   UNL     1     -13.670   1.898 -33.143  1.00  0.00     0.061 A 
HETATM   20  C   UNL     1     -14.906   2.379 -32.771  1.00  0.00     0.065 A 
HETATM   21  C   UNL     1     -15.063   3.548 -32.031  1.00  0.00     0.063 A 
HETATM   22  N   UNL     1     -16.172   1.855 -33.014  1.00  0.00    -0.306 N 
HETATM   23  N   UNL     1     -16.421   3.747 -31.824  1.00  0.00    -0.307 N 
HETATM   24  C   UNL     1     -13.991   4.299 -31.620  1.00  0.00     0.034 A 
HETATM   25  C   UNL     1     -17.128   2.697 -32.428  1.00  0.00     0.325 A 
HETATM   26  H   UNL     1     -16.863   4.502 -31.325  1.00  0.00     0.170 HD
HETATM   27  O   UNL     1     -18.336   2.545 -32.437  1.00  0.00    -0.247 OA
HETATM   28  C   UNL     1     -12.723   3.823 -31.974  1.00  0.00     0.032 A 
HETATM   29  H   UNL     1     -16.394   1.013 -33.519  1.00  0.00     0.170 HD
ENDBRANCH  15  18
ENDBRANCH  13  14
ENDBRANCH  12  13
ENDBRANCH   6  12
BRANCH   7  30
HETATM   30  C   UNL     1      -5.652   1.683 -32.207  1.00  0.00     0.066 A 
HETATM   31  C   UNL     1      -5.505   1.788 -30.812  1.00  0.00     0.061 A 
HETATM   32 CL   UNL     1      -5.877   0.472 -29.752  1.00  0.00    -0.082 Cl
HETATM   33  C   UNL     1      -5.114   2.999 -30.237  1.00  0.00     0.026 A 
HETATM   34  C   UNL     1      -4.866   4.110 -31.044  1.00  0.00     0.002 A 
HETATM   35  C   UNL     1      -5.010   4.014 -32.428  1.00  0.00     0.002 A 
HETATM   36  C   UNL     1      -5.398   2.806 -33.011  1.00  0.00     0.032 A 
ENDBRANCH   7  30
TORSDOF 5
ENDMDL
MODEL 3
REMARK VINA RESULT:      -9.5      3.245      5.525
REMARK  5 active torsions:
REMARK  status: ('A' for Active; 'I' for Inactive)
REMARK    1  A    between atoms: C_6  and  S_7 
REMARK    2  A    between atoms: S_7  and  C_8 
REMARK    3  A    between atoms: C_8  and  C_9 
REMARK       I    between atoms: C_9  and  N_10 
REMARK    4  A    between atoms: N_10  and  C_11 
REMARK    5  A    between atoms: N_22  and  C_23 
ROOT
HETATM    1  C   UNL     1      -0.809   6.222 -32.842  1.00  0.00     0.001 A 
HETATM    2  C   UNL     1      -1.415   4.992 -32.587  1.00  0.00     0.019 A 
HETATM    3  C   UNL     1      -2.757   4.949 -32.193  1.00  0.00     0.061 A 
HETATM    4  C   UNL     1      -3.499   6.118 -32.052  1.00  0.00     0.075 A 
HETATM    5  N   UNL     1      -4.843   6.110 -31.667  1.00  0.00    -0.223 NA
HETATM    6  C   UNL     1      -5.410   4.973 -31.425  1.00  0.00     0.177 A 
HETATM    7  N   UNL     1      -4.776   3.743 -31.541  1.00  0.00    -0.255 N 
HETATM    8  C   UNL     1      -3.427   3.668 -31.900  1.00  0.00     0.267 A 
HETATM    9  O   UNL     1      -2.762   2.635 -31.944  1.00  0.00    -0.267 OA
HETATM   10  C   UNL     1      -2.881   7.346 -32.305  1.00  0.00     0.032 A 
HETATM   11  C   UNL     1      -1.542   7.399 -32.700  1.00  0.00     0.002 A 
ENDROOT
BRANCH   6  12
HETATM   12  S   UNL     1      -7.116   5.043 -31.006  1.00  0.00    -0.082 SA
BRANCH  12  13
HETATM   13  C   UNL     1      -7.793   5.813 -32.511  1.00  0.00     0.185 C 
BRANCH  13  14
HETATM   14  C   UNL     1      -8.739   4.901 -33.289  1.00  0.00     0.231 C 
HETATM   15  N   UNL     1      -9.555   4.115 -32.502  1.00  0.00    -0.326 N 
HETATM   16  H   UNL     1      -9.467   4.265 -31.499  1.00  0.00     0.169 HD
HETATM   17  O   UNL     1      -8.682   4.863 -34.517  1.00  0.00    -0.272 OA
BRANCH  15  18
HETATM   18  C   UNL     1     -10.483   3.135 -32.902  1.00  0.00     0.037 A 
HETATM   19  C   UNL     1     -11.820   3.411 -33.206  1.00  0.00     0.061 A 
HETATM   20  C   UNL     1     -12.600   2.351 -33.612  1.00  0.00     0.065 A 
HETATM   21  C   UNL     1     -12.107   1.053 -33.711  1.00  0.00     0.063 A 
HETATM   22  N   UNL     1     -13.937   2.330 -33.996  1.00  0.00    -0.306 N 
HETATM   23  N   UNL     1     -13.139   0.233 -34.148  1.00  0.00    -0.307 N 
HETATM   24  C   UNL     1     -10.805   0.743 -33.411  1.00  0.00     0.034 A 
HETATM   25  C   UNL     1     -14.288   1.015 -34.334  1.00  0.00     0.325 A 
HETATM   26  H   UNL     1     -13.106  -0.759 -34.319  1.00  0.00     0.170 HD
HETATM   27  O   UNL     1     -15.376   0.627 -34.719  1.00  0.00    -0.247 OA
HETATM   28  C   UNL     1      -9.988   1.807 -33.008  1.00  0.00     0.032 A 
HETATM   29  H   UNL     1     -14.570   3.112 -34.036  1.00  0.00     0.170 HD
ENDBRANCH  15  18
ENDBRANCH  13  14
ENDBRANCH  12  13
ENDBRANCH   6  12
BRANCH   7  30
HETATM   30  C   UNL     1      -5.440   2.505 -31.294  1.00  0.00     0.066 A 
HETATM   31  C   UNL     1      -6.063   1.789 -32.332  1.00  0.00     0.061 A 
HETATM   32 CL   UNL     1      -6.187   2.426 -33.935  1.00  0.00    -0.082 Cl
HETATM   33  C   UNL     1      -6.667   0.557 -32.070  1.00  0.00     0.026 A 
HETATM   34  C   UNL     1      -6.652   0.030 -30.778  1.00  0.00     0.002 A 
HETATM   35  C   UNL     1      -6.037   0.734 -29.744  1.00  0.00     0.002 A 
HETATM   36  C   UNL     1      -5.430   1.966 -29.997  1.00  0.00     0.032 A 
ENDBRANCH   7  30
TORSDOF 5
ENDMDL
MODEL 4
REMARK VINA RESULT:      -9.5      3.572      7.986
REMARK  5 active torsions:
REMARK  status: ('A' for Active; 'I' for Inactive)
REMARK    1  A    between atoms: C_6  and  S_7 
REMARK    2  A    between atoms: S_7  and  C_8 
REMARK    3  A    between atoms: C_8  and  C_9 
REMARK       I    between atoms: C_9  and  N_10 
REMARK    4  A    between atoms: N_10  and  C_11 
REMARK    5  A    between atoms: N_22  and  C_23 
ROOT
HETATM    1  C   UNL     1      -4.948  -1.174 -33.361  1.00  0.00     0.001 A 
HETATM    2  C   UNL     1      -6.077  -0.715 -34.039  1.00  0.00     0.019 A 
HETATM    3  C   UNL     1      -7.025   0.060 -33.361  1.00  0.00     0.061 A 
HETATM    4  C   UNL     1      -6.856   0.382 -32.017  1.00  0.00     0.075 A 
HETATM    5  N   UNL     1      -7.780   1.160 -31.312  1.00  0.00    -0.223 NA
HETATM    6  C   UNL     1      -8.832   1.585 -31.934  1.00  0.00     0.177 A 
HETATM    7  N   UNL     1      -9.102   1.337 -33.273  1.00  0.00    -0.255 N 
HETATM    8  C   UNL     1      -8.239   0.550 -34.040  1.00  0.00     0.267 A 
HETATM    9  O   UNL     1      -8.439   0.207 -35.204  1.00  0.00    -0.267 OA
HETATM   10  C   UNL     1      -5.724  -0.087 -31.346  1.00  0.00     0.032 A 
HETATM   11  C   UNL     1      -4.772  -0.861 -32.014  1.00  0.00     0.002 A 
ENDROOT
BRANCH   6  12
HETATM   12  S   UNL     1      -9.914   2.606 -30.996  1.00  0.00    -0.082 SA
BRANCH  12  13
HETATM   13  C   UNL     1      -8.704   3.647 -30.119  1.00  0.00     0.185 C 
BRANCH  13  14
HETATM   14  C   UNL     1      -7.888   4.545 -31.045  1.00  0.00     0.231 C 
HETATM   15  N   UNL     1      -6.718   3.977 -31.509  1.00  0.00    -0.326 N 
HETATM   16  H   UNL     1      -6.557   3.015 -31.219  1.00  0.00     0.169 HD
HETATM   17  O   UNL     1      -8.257   5.697 -31.266  1.00  0.00    -0.272 OA
BRANCH  15  18
HETATM   18  C   UNL     1      -5.722   4.554 -32.319  1.00  0.00     0.037 A 
HETATM   19  C   UNL     1      -4.790   5.489 -31.855  1.00  0.00     0.061 A 
HETATM   20  C   UNL     1      -3.856   5.942 -32.760  1.00  0.00     0.065 A 
HETATM   21  C   UNL     1      -3.829   5.515 -34.085  1.00  0.00     0.063 A 
HETATM   22  N   UNL     1      -2.810   6.841 -32.580  1.00  0.00    -0.306 N 
HETATM   23  N   UNL     1      -2.773   6.155 -34.721  1.00  0.00    -0.307 N 
HETATM   24  C   UNL     1      -4.733   4.609 -34.578  1.00  0.00     0.034 A 
HETATM   25  C   UNL     1      -2.123   6.983 -33.794  1.00  0.00     0.325 A 
HETATM   26  H   UNL     1      -2.487   6.061 -35.682  1.00  0.00     0.170 HD
HETATM   27  O   UNL     1      -1.151   7.684 -34.005  1.00  0.00    -0.247 OA
HETATM   28  C   UNL     1      -5.685   4.123 -33.672  1.00  0.00     0.032 A 
HETATM   29  H   UNL     1      -2.561   7.321 -31.731  1.00  0.00     0.170 HD
ENDBRANCH  15  18
ENDBRANCH  13  14
ENDBRANCH  12  13
ENDBRANCH   6  12
BRANCH   7  30
HETATM   30  C   UNL     1     -10.259   1.846 -33.935  1.00  0.00     0.066 A 
HETATM   31  C   UNL     1     -10.261   3.123 -34.526  1.00  0.00     0.061 A 
HETATM   32 CL   UNL     1      -8.922   4.206 -34.367  1.00  0.00    -0.082 Cl
HETATM   33  C   UNL     1     -11.393   3.578 -35.208  1.00  0.00     0.026 A 
HETATM   34  C   UNL     1     -12.524   2.767 -35.306  1.00  0.00     0.002 A 
HETATM   35  C   UNL     1     -12.529   1.501 -34.723  1.00  0.00     0.002 A 
HETATM   36  C   UNL     1     -11.402   1.037 -34.042  1.00  0.00     0.032 A 
ENDBRANCH   7  30
TORSDOF 5
ENDMDL
MODEL 5
REMARK VINA RESULT:      -9.4      2.519      3.487
REMARK  5 active torsions:
REMARK  status: ('A' for Active; 'I' for Inactive)
REMARK    1  A    between atoms: C_6  and  S_7 
REMARK    2  A    between atoms: S_7  and  C_8 
REMARK    3  A    between atoms: C_8  and  C_9 
REMARK       I    between atoms: C_9  and  N_10 
REMARK    4  A    between atoms: N_10  and  C_11 
REMARK    5  A    between atoms: N_22  and  C_23 
ROOT
HETATM    1  C   UNL     1      -5.722  -1.447 -33.445  1.00  0.00     0.001 A 
HETATM    2  C   UNL     1      -5.120  -0.477 -32.646  1.00  0.00     0.019 A 
HETATM    3  C   UNL     1      -5.364   0.878 -32.898  1.00  0.00     0.061 A 
HETATM    4  C   UNL     1      -6.201   1.272 -33.938  1.00  0.00     0.075 A 
HETATM    5  N   UNL     1      -6.472   2.616 -34.212  1.00  0.00    -0.223 NA
HETATM    6  C   UNL     1      -5.912   3.522 -33.477  1.00  0.00     0.177 A 
HETATM    7  N   UNL     1      -5.068   3.251 -32.409  1.00  0.00    -0.255 N 
HETATM    8  C   UNL     1      -4.732   1.933 -32.084  1.00  0.00     0.267 A 
HETATM    9  O   UNL     1      -3.928   1.601 -31.215  1.00  0.00    -0.267 OA
HETATM   10  C   UNL     1      -6.797   0.292 -34.736  1.00  0.00     0.032 A 
HETATM   11  C   UNL     1      -6.560  -1.063 -34.491  1.00  0.00     0.002 A 
ENDROOT
BRANCH   6  12
HETATM   12  S   UNL     1      -6.350   5.185 -33.848  1.00  0.00    -0.082 SA
BRANCH  12  13
HETATM   13  C   UNL     1      -7.930   5.316 -32.952  1.00  0.00     0.185 C 
BRANCH  13  14
HETATM   14  C   UNL     1      -9.066   4.531 -33.601  1.00  0.00     0.231 C 
HETATM   15  N   UNL     1      -9.661   3.596 -32.778  1.00  0.00    -0.326 N 
HETATM   16  H   UNL     1      -9.307   3.570 -31.823  1.00  0.00     0.169 HD
HETATM   17  O   UNL     1      -9.337   4.710 -34.787  1.00  0.00    -0.272 OA
BRANCH  15  18
HETATM   18  C   UNL     1     -10.682   2.677 -33.085  1.00  0.00     0.037 A 
HETATM   19  C   UNL     1     -12.002   3.048 -33.361  1.00  0.00     0.061 A 
HETATM   20  C   UNL     1     -12.883   2.037 -33.674  1.00  0.00     0.065 A 
HETATM   21  C   UNL     1     -12.503   0.697 -33.708  1.00  0.00     0.063 A 
HETATM   22  N   UNL     1     -14.230   2.107 -34.011  1.00  0.00    -0.306 N 
HETATM   23  N   UNL     1     -13.616  -0.056 -34.058  1.00  0.00    -0.307 N 
HETATM   24  C   UNL     1     -11.221   0.296 -33.432  1.00  0.00     0.034 A 
HETATM   25  C   UNL     1     -14.703   0.809 -34.255  1.00  0.00     0.325 A 
HETATM   26  H   UNL     1     -13.672  -1.056 -34.168  1.00  0.00     0.170 HD
HETATM   27  O   UNL     1     -15.833   0.493 -34.578  1.00  0.00    -0.247 OA
HETATM   28  C   UNL     1     -10.303   1.308 -33.124  1.00  0.00     0.032 A 
HETATM   29  H   UNL     1     -14.797   2.936 -34.080  1.00  0.00     0.170 HD
ENDBRANCH  15  18
ENDBRANCH  13  14
ENDBRANCH  12  13
ENDBRANCH   6  12
BRANCH   7  30
HETATM   30  C   UNL     1      -4.491   4.274 -31.600  1.00  0.00     0.066 A 
HETATM   31  C   UNL     1      -3.238   4.833 -31.913  1.00  0.00     0.061 A 
HETATM   32 CL   UNL     1      -2.262   4.224 -33.204  1.00  0.00    -0.082 Cl
HETATM   33  C   UNL     1      -2.716   5.866 -31.130  1.00  0.00     0.026 A 
HETATM   34  C   UNL     1      -3.436   6.347 -30.036  1.00  0.00     0.002 A 
HETATM   35  C   UNL     1      -4.678   5.798 -29.720  1.00  0.00     0.002 A 
HETATM   36  C   UNL     1      -5.208   4.767 -30.498  1.00  0.00     0.032 A 
ENDBRANCH   7  30
TORSDOF 5
ENDMDL
MODEL 6
REMARK VINA RESULT:      -9.3      3.814      9.403
REMARK  5 active torsions:
REMARK  status: ('A' for Active; 'I' for Inactive)
REMARK    1  A    between atoms: C_6  and  S_7 
REMARK    2  A    between atoms: S_7  and  C_8 
REMARK    3  A    between atoms: C_8  and  C_9 
REMARK       I    between atoms: C_9  and  N_10 
REMARK    4  A    between atoms: N_10  and  C_11 
REMARK    5  A    between atoms: N_22  and  C_23 
ROOT
HETATM    1  C   UNL     1     -13.375   1.718 -34.147  1.00  0.00     0.001 A 
HETATM    2  C   UNL     1     -12.326   0.959 -33.631  1.00  0.00     0.019 A 
HETATM    3  C   UNL     1     -11.021   1.461 -33.673  1.00  0.00     0.061 A 
HETATM    4  C   UNL     1     -10.753   2.711 -34.224  1.00  0.00     0.075 A 
HETATM    5  N   UNL     1      -9.462   3.246 -34.275  1.00  0.00    -0.223 NA
HETATM    6  C   UNL     1      -8.484   2.544 -33.801  1.00  0.00     0.177 A 
HETATM    7  N   UNL     1      -8.629   1.292 -33.220  1.00  0.00    -0.255 N 
HETATM    8  C   UNL     1      -9.884   0.680 -33.151  1.00  0.00     0.267 A 
HETATM    9  O   UNL     1     -10.095  -0.458 -32.734  1.00  0.00    -0.267 OA
HETATM   10  C   UNL     1     -11.811   3.462 -34.743  1.00  0.00     0.032 A 
HETATM   11  C   UNL     1     -13.118   2.969 -34.705  1.00  0.00     0.002 A 
ENDROOT
BRANCH   6  12
HETATM   12  S   UNL     1      -6.901   3.311 -33.848  1.00  0.00    -0.082 SA
BRANCH  12  13
HETATM   13  C   UNL     1      -7.356   5.029 -33.454  1.00  0.00     0.185 C 
BRANCH  13  14
HETATM   14  C   UNL     1      -6.180   5.878 -32.980  1.00  0.00     0.231 C 
HETATM   15  N   UNL     1      -4.965   5.223 -32.973  1.00  0.00    -0.326 N 
HETATM   16  H   UNL     1      -4.984   4.268 -33.327  1.00  0.00     0.169 HD
HETATM   17  O   UNL     1      -6.372   7.025 -32.581  1.00  0.00    -0.272 OA
BRANCH  15  18
HETATM   18  C   UNL     1      -3.713   5.697 -32.539  1.00  0.00     0.037 A 
HETATM   19  C   UNL     1      -3.318   5.727 -31.197  1.00  0.00     0.061 A 
HETATM   20  C   UNL     1      -2.050   6.192 -30.930  1.00  0.00     0.065 A 
HETATM   21  C   UNL     1      -1.186   6.629 -31.931  1.00  0.00     0.063 A 
HETATM   22  N   UNL     1      -1.388   6.313 -29.713  1.00  0.00    -0.306 N 
HETATM   23  N   UNL     1       0.003   7.025 -31.331  1.00  0.00    -0.307 N 
HETATM   24  C   UNL     1      -1.542   6.623 -33.255  1.00  0.00     0.034 A 
HETATM   25  C   UNL     1      -0.105   6.830 -29.946  1.00  0.00     0.325 A 
HETATM   26  H   UNL     1       0.827   7.389 -31.781  1.00  0.00     0.170 HD
HETATM   27  O   UNL     1       0.751   7.061 -29.112  1.00  0.00    -0.247 OA
HETATM   28  C   UNL     1      -2.824   6.142 -33.554  1.00  0.00     0.032 A 
HETATM   29  H   UNL     1      -1.743   6.074 -28.802  1.00  0.00     0.170 HD
ENDBRANCH  15  18
ENDBRANCH  13  14
ENDBRANCH  12  13
ENDBRANCH   6  12
BRANCH   7  30
HETATM   30  C   UNL     1      -7.531   0.557 -32.681  1.00  0.00     0.066 A 
HETATM   31  C   UNL     1      -6.728  -0.261 -33.496  1.00  0.00     0.061 A 
HETATM   32 CL   UNL     1      -7.102  -0.539 -35.162  1.00  0.00    -0.082 Cl
HETATM   33  C   UNL     1      -5.632  -0.933 -32.951  1.00  0.00     0.026 A 
HETATM   34  C   UNL     1      -5.328  -0.794 -31.597  1.00  0.00     0.002 A 
HETATM   35  C   UNL     1      -6.119   0.015 -30.783  1.00  0.00     0.002 A 
HETATM   36  C   UNL     1      -7.215   0.692 -31.320  1.00  0.00     0.032 A 
ENDBRANCH   7  30
TORSDOF 5
ENDMDL
MODEL 7
REMARK VINA RESULT:      -9.2      2.227      4.856
REMARK  5 active torsions:
REMARK  status: ('A' for Active; 'I' for Inactive)
REMARK    1  A    between atoms: C_6  and  S_7 
REMARK    2  A    between atoms: S_7  and  C_8 
REMARK    3  A    between atoms: C_8  and  C_9 
REMARK       I    between atoms: C_9  and  N_10 
REMARK    4  A    between atoms: N_10  and  C_11 
REMARK    5  A    between atoms: N_22  and  C_23 
ROOT
HETATM    1  C   UNL     1      -0.790   6.061 -32.401  1.00  0.00     0.001 A 
HETATM    2  C   UNL     1      -1.332   4.843 -31.992  1.00  0.00     0.019 A 
HETATM    3  C   UNL     1      -2.598   4.459 -32.450  1.00  0.00     0.061 A 
HETATM    4  C   UNL     1      -3.325   5.276 -33.311  1.00  0.00     0.075 A 
HETATM    5  N   UNL     1      -4.588   4.920 -33.792  1.00  0.00    -0.223 NA
HETATM    6  C   UNL     1      -5.099   3.793 -33.413  1.00  0.00     0.177 A 
HETATM    7  N   UNL     1      -4.465   2.892 -32.568  1.00  0.00    -0.255 N 
HETATM    8  C   UNL     1      -3.210   3.186 -32.026  1.00  0.00     0.267 A 
HETATM    9  O   UNL     1      -2.613   2.492 -31.205  1.00  0.00    -0.267 OA
HETATM   10  C   UNL     1      -2.775   6.497 -33.711  1.00  0.00     0.032 A 
HETATM   11  C   UNL     1      -1.512   6.888 -33.260  1.00  0.00     0.002 A 
ENDROOT
BRANCH   6  12
HETATM   12  S   UNL     1      -6.663   3.390 -34.109  1.00  0.00    -0.082 SA
BRANCH  12  13
HETATM   13  C   UNL     1      -7.775   4.121 -32.867  1.00  0.00     0.185 C 
BRANCH  13  14
HETATM   14  C   UNL     1      -8.990   3.253 -32.549  1.00  0.00     0.231 C 
HETATM   15  N   UNL     1     -10.066   3.443 -33.393  1.00  0.00    -0.326 N 
HETATM   16  H   UNL     1      -9.912   4.102 -34.153  1.00  0.00     0.169 HD
HETATM   17  O   UNL     1      -8.977   2.515 -31.566  1.00  0.00    -0.272 OA
BRANCH  15  18
HETATM   18  C   UNL     1     -11.343   2.853 -33.335  1.00  0.00     0.037 A 
HETATM   19  C   UNL     1     -12.478   3.508 -32.847  1.00  0.00     0.061 A 
HETATM   20  C   UNL     1     -13.665   2.810 -32.882  1.00  0.00     0.065 A 
HETATM   21  C   UNL     1     -13.753   1.506 -33.362  1.00  0.00     0.063 A 
HETATM   22  N   UNL     1     -14.940   3.208 -32.492  1.00  0.00    -0.306 N 
HETATM   23  N   UNL     1     -15.077   1.099 -33.263  1.00  0.00    -0.307 N 
HETATM   24  C   UNL     1     -12.659   0.829 -33.838  1.00  0.00     0.034 A 
HETATM   25  C   UNL     1     -15.833   2.152 -32.725  1.00  0.00     0.325 A 
HETATM   26  H   UNL     1     -15.469   0.210 -33.527  1.00  0.00     0.170 HD
HETATM   27  O   UNL     1     -17.030   2.148 -32.507  1.00  0.00    -0.247 OA
HETATM   28  C   UNL     1     -11.442   1.523 -33.826  1.00  0.00     0.032 A 
HETATM   29  H   UNL     1     -15.207   4.099 -32.108  1.00  0.00     0.170 HD
ENDBRANCH  15  18
ENDBRANCH  13  14
ENDBRANCH  12  13
ENDBRANCH   6  12
BRANCH   7  30
HETATM   30  C   UNL     1      -5.046   1.644 -32.192  1.00  0.00     0.066 A 
HETATM   31  C   UNL     1      -5.814   1.518 -31.020  1.00  0.00     0.061 A 
HETATM   32 CL   UNL     1      -5.986   2.821 -29.896  1.00  0.00    -0.082 Cl
HETATM   33  C   UNL     1      -6.409   0.296 -30.700  1.00  0.00     0.026 A 
HETATM   34  C   UNL     1      -6.244  -0.805 -31.542  1.00  0.00     0.002 A 
HETATM   35  C   UNL     1      -5.483  -0.688 -32.704  1.00  0.00     0.002 A 
HETATM   36  C   UNL     1      -4.887   0.531 -33.033  1.00  0.00     0.032 A 
ENDBRANCH   7  30
TORSDOF 5
ENDMDL
MODEL 8
REMARK VINA RESULT:      -9.2      5.518      9.026
REMARK  5 active torsions:
REMARK  status: ('A' for Active; 'I' for Inactive)
REMARK    1  A    between atoms: C_6  and  S_7 
REMARK    2  A    between atoms: S_7  and  C_8 
REMARK    3  A    between atoms: C_8  and  C_9 
REMARK       I    between atoms: C_9  and  N_10 
REMARK    4  A    between atoms: N_10  and  C_11 
REMARK    5  A    between atoms: N_22  and  C_23 
ROOT
HETATM    1  C   UNL     1       1.185   7.552 -26.534  1.00  0.00     0.001 A 
HETATM    2  C   UNL     1       1.018   7.015 -27.810  1.00  0.00     0.019 A 
HETATM    3  C   UNL     1      -0.262   6.946 -28.371  1.00  0.00     0.061 A 
HETATM    4  C   UNL     1      -1.375   7.406 -27.672  1.00  0.00     0.075 A 
HETATM    5  N   UNL     1      -2.666   7.358 -28.206  1.00  0.00    -0.223 NA
HETATM    6  C   UNL     1      -2.829   6.858 -29.388  1.00  0.00     0.177 A 
HETATM    7  N   UNL     1      -1.796   6.378 -30.182  1.00  0.00    -0.255 N 
HETATM    8  C   UNL     1      -0.480   6.371 -29.711  1.00  0.00     0.267 A 
HETATM    9  O   UNL     1       0.483   5.889 -30.306  1.00  0.00    -0.267 OA
HETATM   10  C   UNL     1      -1.198   7.938 -26.392  1.00  0.00     0.032 A 
HETATM   11  C   UNL     1       0.077   8.011 -25.824  1.00  0.00     0.002 A 
ENDROOT
BRANCH   6  12
HETATM   12  S   UNL     1      -4.473   6.888 -30.011  1.00  0.00    -0.082 SA
BRANCH  12  13
HETATM   13  C   UNL     1      -5.308   5.830 -28.788  1.00  0.00     0.185 C 
BRANCH  13  14
HETATM   14  C   UNL     1      -6.030   4.635 -29.407  1.00  0.00     0.231 C 
HETATM   15  N   UNL     1      -5.198   3.700 -29.989  1.00  0.00    -0.326 N 
HETATM   16  H   UNL     1      -4.202   3.889 -29.899  1.00  0.00     0.169 HD
HETATM   17  O   UNL     1      -7.260   4.600 -29.418  1.00  0.00    -0.272 OA
BRANCH  15  18
HETATM   18  C   UNL     1      -5.545   2.531 -30.690  1.00  0.00     0.037 A 
HETATM   19  C   UNL     1      -5.645   2.464 -32.084  1.00  0.00     0.061 A 
HETATM   20  C   UNL     1      -5.966   1.240 -32.629  1.00  0.00     0.065 A 
HETATM   21  C   UNL     1      -6.198   0.110 -31.849  1.00  0.00     0.063 A 
HETATM   22  N   UNL     1      -6.109   0.873 -33.963  1.00  0.00    -0.306 N 
HETATM   23  N   UNL     1      -6.491  -0.948 -32.699  1.00  0.00    -0.307 N 
HETATM   24  C   UNL     1      -6.120   0.142 -30.480  1.00  0.00     0.034 A 
HETATM   25  C   UNL     1      -6.435  -0.489 -34.024  1.00  0.00     0.325 A 
HETATM   26  H   UNL     1      -6.705  -1.898 -32.447  1.00  0.00     0.170 HD
HETATM   27  O   UNL     1      -6.629  -1.148 -35.029  1.00  0.00    -0.247 OA
HETATM   28  C   UNL     1      -5.782   1.372 -29.902  1.00  0.00     0.032 A 
HETATM   29  H   UNL     1      -6.000   1.464 -34.770  1.00  0.00     0.170 HD
ENDBRANCH  15  18
ENDBRANCH  13  14
ENDBRANCH  12  13
ENDBRANCH   6  12
BRANCH   7  30
HETATM   30  C   UNL     1      -2.007   5.858 -31.494  1.00  0.00     0.066 A 
HETATM   31  C   UNL     1      -1.924   6.684 -32.629  1.00  0.00     0.061 A 
HETATM   32 CL   UNL     1      -1.702   8.394 -32.502  1.00  0.00    -0.082 Cl
HETATM   33  C   UNL     1      -2.090   6.140 -33.905  1.00  0.00     0.026 A 
HETATM   34  C   UNL     1      -2.338   4.775 -34.058  1.00  0.00     0.002 A 
HETATM   35  C   UNL     1      -2.422   3.951 -32.937  1.00  0.00     0.002 A 
HETATM   36  C   UNL     1      -2.256   4.486 -31.658  1.00  0.00     0.032 A 
ENDBRANCH   7  30
TORSDOF 5
ENDMDL
MODEL 9
REMARK VINA RESULT:      -9.1      4.433      8.125
REMARK  5 active torsions:
REMARK  status: ('A' for Active; 'I' for Inactive)
REMARK    1  A    between atoms: C_6  and  S_7 
REMARK    2  A    between atoms: S_7  and  C_8 
REMARK    3  A    between atoms: C_8  and  C_9 
REMARK       I    between atoms: C_9  and  N_10 
REMARK    4  A    between atoms: N_10  and  C_11 
REMARK    5  A    between atoms: N_22  and  C_23 
ROOT
HETATM    1  C   UNL     1      -1.112   5.601 -33.780  1.00  0.00     0.001 A 
HETATM    2  C   UNL     1      -1.835   5.924 -32.632  1.00  0.00     0.019 A 
HETATM    3  C   UNL     1      -3.233   5.898 -32.663  1.00  0.00     0.061 A 
HETATM    4  C   UNL     1      -3.916   5.553 -33.826  1.00  0.00     0.075 A 
HETATM    5  N   UNL     1      -5.313   5.511 -33.889  1.00  0.00    -0.223 NA
HETATM    6  C   UNL     1      -5.989   5.813 -32.829  1.00  0.00     0.177 A 
HETATM    7  N   UNL     1      -5.420   6.161 -31.611  1.00  0.00    -0.255 N 
HETATM    8  C   UNL     1      -4.031   6.248 -31.473  1.00  0.00     0.267 A 
HETATM    9  O   UNL     1      -3.442   6.631 -30.463  1.00  0.00    -0.267 OA
HETATM   10  C   UNL     1      -3.183   5.236 -34.973  1.00  0.00     0.032 A 
HETATM   11  C   UNL     1      -1.786   5.259 -34.951  1.00  0.00     0.002 A 
ENDROOT
BRANCH   6  12
HETATM   12  S   UNL     1      -7.737   5.677 -32.972  1.00  0.00    -0.082 SA
BRANCH  12  13
HETATM   13  C   UNL     1      -7.875   4.050 -33.777  1.00  0.00     0.185 C 
BRANCH  13  14
HETATM   14  C   UNL     1      -7.259   2.913 -32.966  1.00  0.00     0.231 C 
HETATM   15  N   UNL     1      -6.032   2.478 -33.426  1.00  0.00    -0.326 N 
HETATM   16  H   UNL     1      -5.660   2.992 -34.222  1.00  0.00     0.169 HD
HETATM   17  O   UNL     1      -7.884   2.418 -32.029  1.00  0.00    -0.272 OA
BRANCH  15  18
HETATM   18  C   UNL     1      -5.239   1.419 -32.947  1.00  0.00     0.037 A 
HETATM   19  C   UNL     1      -5.383   0.091 -33.364  1.00  0.00     0.061 A 
HETATM   20  C   UNL     1      -4.512  -0.830 -32.826  1.00  0.00     0.065 A 
HETATM   21  C   UNL     1      -3.533  -0.483 -31.898  1.00  0.00     0.063 A 
HETATM   22  N   UNL     1      -4.405  -2.196 -33.067  1.00  0.00    -0.306 N 
HETATM   23  N   UNL     1      -2.830  -1.633 -31.564  1.00  0.00    -0.307 N 
HETATM   24  C   UNL     1      -3.370   0.806 -31.459  1.00  0.00     0.034 A 
HETATM   25  C   UNL     1      -3.359  -2.711 -32.289  1.00  0.00     0.325 A 
HETATM   26  H   UNL     1      -2.060  -1.717 -30.920  1.00  0.00     0.170 HD
HETATM   27  O   UNL     1      -2.980  -3.867 -32.250  1.00  0.00    -0.247 OA
HETATM   28  C   UNL     1      -4.236   1.765 -32.002  1.00  0.00     0.032 A 
HETATM   29  H   UNL     1      -4.968  -2.747 -33.693  1.00  0.00     0.170 HD
ENDBRANCH  15  18
ENDBRANCH  13  14
ENDBRANCH  12  13
ENDBRANCH   6  12
BRANCH   7  30
HETATM   30  C   UNL     1      -6.196   6.461 -30.452  1.00  0.00     0.066 A 
HETATM   31  C   UNL     1      -6.450   5.487 -29.470  1.00  0.00     0.061 A 
HETATM   32 CL   UNL     1      -5.963   3.840 -29.669  1.00  0.00    -0.082 Cl
HETATM   33  C   UNL     1      -7.175   5.820 -28.323  1.00  0.00     0.026 A 
HETATM   34  C   UNL     1      -7.648   7.121 -28.147  1.00  0.00     0.002 A 
HETATM   35  C   UNL     1      -7.400   8.092 -29.116  1.00  0.00     0.002 A 
HETATM   36  C   UNL     1      -6.675   7.768 -30.265  1.00  0.00     0.032 A 
ENDBRANCH   7  30
TORSDOF 5
ENDMDL
MODEL 10
REMARK VINA RESULT:      -8.9      1.948      2.809
REMARK  5 active torsions:
REMARK  status: ('A' for Active; 'I' for Inactive)
REMARK    1  A    between atoms: C_6  and  S_7 
REMARK    2  A    between atoms: S_7  and  C_8 
REMARK    3  A    between atoms: C_8  and  C_9 
REMARK       I    between atoms: C_9  and  N_10 
REMARK    4  A    between atoms: N_10  and  C_11 
REMARK    5  A    between atoms: N_22  and  C_23 
ROOT
HETATM    1  C   UNL     1      -5.440  -2.005 -33.747  1.00  0.00     0.001 A 
HETATM    2  C   UNL     1      -4.771  -0.874 -33.279  1.00  0.00     0.019 A 
HETATM    3  C   UNL     1      -5.389   0.379 -33.358  1.00  0.00     0.061 A 
HETATM    4  C   UNL     1      -6.665   0.514 -33.897  1.00  0.00     0.075 A 
HETATM    5  N   UNL     1      -7.314   1.750 -33.985  1.00  0.00    -0.223 NA
HETATM    6  C   UNL     1      -6.697   2.803 -33.557  1.00  0.00     0.177 A 
HETATM    7  N   UNL     1      -5.429   2.791 -32.991  1.00  0.00    -0.255 N 
HETATM    8  C   UNL     1      -4.707   1.598 -32.888  1.00  0.00     0.267 A 
HETATM    9  O   UNL     1      -3.549   1.504 -32.484  1.00  0.00    -0.267 OA
HETATM   10  C   UNL     1      -7.326  -0.625 -34.368  1.00  0.00     0.032 A 
HETATM   11  C   UNL     1      -6.717  -1.880 -34.293  1.00  0.00     0.002 A 
ENDROOT
BRANCH   6  12
HETATM   12  S   UNL     1      -7.603   4.308 -33.645  1.00  0.00    -0.082 SA
BRANCH  12  13
HETATM   13  C   UNL     1      -8.316   4.362 -31.971  1.00  0.00     0.185 C 
BRANCH  13  14
HETATM   14  C   UNL     1      -9.596   3.542 -31.827  1.00  0.00     0.231 C 
HETATM   15  N   UNL     1     -10.447   3.611 -32.912  1.00  0.00    -0.326 N 
HETATM   16  H   UNL     1     -10.105   4.160 -33.698  1.00  0.00     0.169 HD
HETATM   17  O   UNL     1      -9.828   2.946 -30.777  1.00  0.00    -0.272 OA
BRANCH  15  18
HETATM   18  C   UNL     1     -11.719   3.031 -33.069  1.00  0.00     0.037 A 
HETATM   19  C   UNL     1     -12.881   3.537 -32.475  1.00  0.00     0.061 A 
HETATM   20  C   UNL     1     -14.059   2.876 -32.745  1.00  0.00     0.065 A 
HETATM   21  C   UNL     1     -14.115   1.748 -33.559  1.00  0.00     0.063 A 
HETATM   22  N   UNL     1     -15.353   3.160 -32.320  1.00  0.00    -0.306 N 
HETATM   23  N   UNL     1     -15.439   1.333 -33.629  1.00  0.00    -0.307 N 
HETATM   24  C   UNL     1     -12.996   1.218 -34.148  1.00  0.00     0.034 A 
HETATM   25  C   UNL     1     -16.226   2.207 -32.864  1.00  0.00     0.325 A 
HETATM   26  H   UNL     1     -15.810   0.547 -34.137  1.00  0.00     0.170 HD
HETATM   27  O   UNL     1     -17.431   2.149 -32.708  1.00  0.00    -0.247 OA
HETATM   28  C   UNL     1     -11.787   1.880 -33.899  1.00  0.00     0.032 A 
HETATM   29  H   UNL     1     -15.644   3.918 -31.725  1.00  0.00     0.170 HD
ENDBRANCH  15  18
ENDBRANCH  13  14
ENDBRANCH  12  13
ENDBRANCH   6  12
BRANCH   7  30
HETATM   30  C   UNL     1      -4.789   3.969 -32.502  1.00  0.00     0.066 A 
HETATM   31  C   UNL     1      -4.759   4.268 -31.129  1.00  0.00     0.061 A 
HETATM   32 CL   UNL     1      -5.609   3.311 -29.965  1.00  0.00    -0.082 Cl
HETATM   33  C   UNL     1      -4.086   5.404 -30.673  1.00  0.00     0.026 A 
HETATM   34  C   UNL     1      -3.440   6.246 -31.579  1.00  0.00     0.002 A 
HETATM   35  C   UNL     1      -3.466   5.956 -32.943  1.00  0.00     0.002 A 
HETATM   36  C   UNL     1      -4.135   4.821 -33.406  1.00  0.00     0.032 A 
ENDBRANCH   7  30
TORSDOF 5
ENDMDL
