MODEL 1
REMARK VINA RESULT:      -9.3      0.000      0.000
REMARK  8 active torsions:
REMARK  status: ('A' for Active; 'I' for Inactive)
REMARK    1  A    between atoms: O_2  and  C_3 
REMARK    2  A    between atoms: C_4  and  O_5 
REMARK    3  A    between atoms: C_8  and  C_9 
REMARK    4  A    between atoms: C_9  and  N_10 
REMARK    5  A    between atoms: C_19  and  C_20 
REMARK    6  A    between atoms: C_20  and  N_21 
REMARK    7  A    between atoms: C_25  and  O_26 
REMARK    8  A    between atoms: C_25  and  C_27 
ROOT
HETATM    1  N   UNL     1      -8.993   0.096 -33.248  1.00  0.00    -0.061 N 
HETATM    2  H   UNL     1      -9.154  -0.918 -33.271  1.00  0.00     0.280 HD
HETATM    3  C   UNL     1      -8.567   0.369 -31.818  1.00  0.00     0.276 C 
HETATM    4  C   UNL     1      -8.111   1.772 -31.528  1.00  0.00     0.002 A 
HETATM    5  C   UNL     1      -8.983   2.848 -31.696  1.00  0.00     0.076 A 
HETATM    6  O   UNL     1     -10.277   2.650 -32.085  1.00  0.00    -0.349 OA
HETATM    7  C   UNL     1     -10.368   2.238 -33.456  1.00  0.00     0.203 C 
HETATM    8  C   UNL     1     -10.345   0.711 -33.583  1.00  0.00     0.262 C 
HETATM    9  C   UNL     1      -6.812   2.035 -31.053  1.00  0.00     0.020 A 
HETATM   10  C   UNL     1      -6.373   3.348 -30.799  1.00  0.00    -0.032 A 
HETATM   11  C   UNL     1      -7.281   4.403 -30.966  1.00  0.00     0.011 A 
HETATM   12  C   UNL     1      -8.587   4.149 -31.393  1.00  0.00     0.038 A 
ENDROOT
BRANCH  10  13
HETATM   13  C   UNL     1      -4.944   3.613 -30.385  1.00  0.00     0.273 C 
BRANCH  13  14
HETATM   14  N   UNL     1      -4.131   4.430 -31.373  1.00  0.00    -0.067 N 
HETATM   15  H   UNL     1      -4.647   4.423 -32.262  1.00  0.00     0.280 HD
HETATM   16  C   UNL     1      -3.983   5.872 -30.948  1.00  0.00     0.238 C 
HETATM   17  C   UNL     1      -3.138   6.628 -31.958  1.00  0.00     0.071 C 
HETATM   18  C   UNL     1      -1.731   6.014 -32.104  1.00  0.00     0.089 C 
HETATM   19  C   UNL     1      -1.949   4.566 -32.585  1.00  0.00     0.071 C 
HETATM   20  C   UNL     1      -2.798   3.753 -31.621  1.00  0.00     0.238 C 
BRANCH  18  21
HETATM   21  O   UNL     1      -1.099   6.706 -33.181  1.00  0.00    -0.385 OA
HETATM   22  H   UNL     1      -0.354   6.181 -33.531  1.00  0.00     0.211 HD
ENDBRANCH  18  21
BRANCH  18  23
HETATM   23  C   UNL     1      -0.866   6.174 -30.857  1.00  0.00    -0.006 A 
HETATM   24  C   UNL     1      -0.067   5.146 -30.355  1.00  0.00     0.126 A 
HETATM   25  N   UNL     1       0.655   5.219 -29.217  1.00  0.00    -0.272 NA
HETATM   26  C   UNL     1       0.666   6.396 -28.562  1.00  0.00     0.116 A 
HETATM   27  C   UNL     1      -0.030   7.505 -28.999  1.00  0.00     0.020 A 
HETATM   28  C   UNL     1      -0.795   7.391 -30.159  1.00  0.00     0.013 A 
ENDBRANCH  18  23
ENDBRANCH  13  14
ENDBRANCH  10  13
BRANCH   1  29
HETATM   29  C   UNL     1      -7.946   0.338 -34.318  1.00  0.00     0.274 C 
BRANCH  29  30
HETATM   30  C   UNL     1      -6.805  -0.643 -34.288  1.00  0.00    -0.030 A 
HETATM   31  C   UNL     1      -5.562  -0.250 -33.776  1.00  0.00     0.048 A 
HETATM   32  C   UNL     1      -4.537  -1.180 -33.599  1.00  0.00     0.102 A 
HETATM   33  C   UNL     1      -4.717  -2.522 -33.960  1.00  0.00     0.101 A 
HETATM   34  C   UNL     1      -5.932  -2.902 -34.535  1.00  0.00     0.040 A 
HETATM   35  C   UNL     1      -6.971  -1.973 -34.695  1.00  0.00     0.012 A 
BRANCH  32  36
HETATM   36  O   UNL     1      -3.422  -0.729 -32.938  1.00  0.00    -0.353 OA
HETATM   37  C   UNL     1      -3.764  -0.191 -31.656  1.00  0.00     0.210 C 
ENDBRANCH  32  36
BRANCH  33  38
HETATM   38  O   UNL     1      -3.691  -3.379 -33.671  1.00  0.00    -0.353 OA
HETATM   39  C   UNL     1      -3.966  -4.775 -33.748  1.00  0.00     0.210 C 
ENDBRANCH  33  38
ENDBRANCH  29  30
ENDBRANCH   1  29
TORSDOF 8
ENDMDL
MODEL 2
REMARK VINA RESULT:      -9.0      1.642      2.394
REMARK  8 active torsions:
REMARK  status: ('A' for Active; 'I' for Inactive)
REMARK    1  A    between atoms: O_2  and  C_3 
REMARK    2  A    between atoms: C_4  and  O_5 
REMARK    3  A    between atoms: C_8  and  C_9 
REMARK    4  A    between atoms: C_9  and  N_10 
REMARK    5  A    between atoms: C_19  and  C_20 
REMARK    6  A    between atoms: C_20  and  N_21 
REMARK    7  A    between atoms: C_25  and  O_26 
REMARK    8  A    between atoms: C_25  and  C_27 
ROOT
HETATM    1  N   UNL     1      -8.792   0.411 -33.286  1.00  0.00    -0.061 N 
HETATM    2  H   UNL     1      -8.949  -0.461 -32.767  1.00  0.00     0.280 HD
HETATM    3  C   UNL     1      -8.047   1.295 -32.304  1.00  0.00     0.276 C 
HETATM    4  C   UNL     1      -7.542   2.601 -32.852  1.00  0.00     0.002 A 
HETATM    5  C   UNL     1      -8.434   3.550 -33.354  1.00  0.00     0.076 A 
HETATM    6  O   UNL     1      -9.781   3.334 -33.321  1.00  0.00    -0.349 OA
HETATM    7  C   UNL     1     -10.185   2.320 -34.252  1.00  0.00     0.203 C 
HETATM    8  C   UNL     1     -10.187   0.933 -33.602  1.00  0.00     0.262 C 
HETATM    9  C   UNL     1      -6.169   2.914 -32.846  1.00  0.00     0.020 A 
HETATM   10  C   UNL     1      -5.689   4.127 -33.376  1.00  0.00    -0.032 A 
HETATM   11  C   UNL     1      -6.615   5.061 -33.860  1.00  0.00     0.011 A 
HETATM   12  C   UNL     1      -7.983   4.779 -33.828  1.00  0.00     0.038 A 
ENDROOT
BRANCH  10  13
HETATM   13  C   UNL     1      -4.204   4.397 -33.449  1.00  0.00     0.273 C 
BRANCH  13  14
HETATM   14  N   UNL     1      -3.805   5.848 -33.246  1.00  0.00    -0.067 N 
HETATM   15  H   UNL     1      -4.384   6.409 -33.885  1.00  0.00     0.280 HD
HETATM   16  C   UNL     1      -4.083   6.332 -31.842  1.00  0.00     0.238 C 
HETATM   17  C   UNL     1      -3.637   7.777 -31.693  1.00  0.00     0.071 C 
HETATM   18  C   UNL     1      -2.132   7.946 -31.979  1.00  0.00     0.089 C 
HETATM   19  C   UNL     1      -1.924   7.483 -33.436  1.00  0.00     0.071 C 
HETATM   20  C   UNL     1      -2.360   6.044 -33.658  1.00  0.00     0.238 C 
BRANCH  18  21
HETATM   21  O   UNL     1      -1.873   9.350 -31.962  1.00  0.00    -0.385 OA
HETATM   22  H   UNL     1      -2.417   9.786 -31.278  1.00  0.00     0.211 HD
ENDBRANCH  18  21
BRANCH  18  23
HETATM   23  C   UNL     1      -1.236   7.279 -30.940  1.00  0.00    -0.006 A 
HETATM   24  C   UNL     1      -1.544   7.259 -29.579  1.00  0.00     0.126 A 
HETATM   25  N   UNL     1      -0.747   6.747 -28.617  1.00  0.00    -0.272 NA
HETATM   26  C   UNL     1       0.389   6.141 -29.010  1.00  0.00     0.116 A 
HETATM   27  C   UNL     1       0.768   6.038 -30.334  1.00  0.00     0.020 A 
HETATM   28  C   UNL     1      -0.058   6.607 -31.303  1.00  0.00     0.013 A 
ENDBRANCH  18  23
ENDBRANCH  13  14
ENDBRANCH  10  13
BRANCH   1  29
HETATM   29  C   UNL     1      -8.021  -0.018 -34.521  1.00  0.00     0.274 C 
BRANCH  29  30
HETATM   30  C   UNL     1      -6.870  -0.942 -34.231  1.00  0.00    -0.030 A 
HETATM   31  C   UNL     1      -7.050  -2.328 -34.322  1.00  0.00     0.048 A 
HETATM   32  C   UNL     1      -5.965  -3.198 -34.205  1.00  0.00     0.102 A 
HETATM   33  C   UNL     1      -4.675  -2.706 -33.962  1.00  0.00     0.101 A 
HETATM   34  C   UNL     1      -4.505  -1.328 -33.802  1.00  0.00     0.040 A 
HETATM   35  C   UNL     1      -5.591  -0.451 -33.940  1.00  0.00     0.012 A 
BRANCH  32  36
HETATM   36  O   UNL     1      -6.220  -4.519 -34.475  1.00  0.00    -0.353 OA
HETATM   37  C   UNL     1      -6.611  -4.701 -35.840  1.00  0.00     0.210 C 
ENDBRANCH  32  36
BRANCH  33  38
HETATM   38  O   UNL     1      -3.660  -3.622 -33.950  1.00  0.00    -0.353 OA
HETATM   39  C   UNL     1      -3.253  -4.128 -32.682  1.00  0.00     0.210 C 
ENDBRANCH  33  38
ENDBRANCH  29  30
ENDBRANCH   1  29
TORSDOF 8
ENDMDL
MODEL 3
REMARK VINA RESULT:      -8.9      1.949      5.220
REMARK  8 active torsions:
REMARK  status: ('A' for Active; 'I' for Inactive)
REMARK    1  A    between atoms: O_2  and  C_3 
REMARK    2  A    between atoms: C_4  and  O_5 
REMARK    3  A    between atoms: C_8  and  C_9 
REMARK    4  A    between atoms: C_9  and  N_10 
REMARK    5  A    between atoms: C_19  and  C_20 
REMARK    6  A    between atoms: C_20  and  N_21 
REMARK    7  A    between atoms: C_25  and  O_26 
REMARK    8  A    between atoms: C_25  and  C_27 
ROOT
HETATM    1  N   UNL     1      -7.771  -0.189 -34.439  1.00  0.00    -0.061 N 
HETATM    2  H   UNL     1      -8.425  -0.053 -35.219  1.00  0.00     0.280 HD
HETATM    3  C   UNL     1      -6.659   0.806 -34.714  1.00  0.00     0.276 C 
HETATM    4  C   UNL     1      -5.620   0.940 -33.635  1.00  0.00     0.002 A 
HETATM    5  C   UNL     1      -4.836  -0.154 -33.268  1.00  0.00     0.076 A 
HETATM    6  O   UNL     1      -4.964  -1.356 -33.904  1.00  0.00    -0.349 OA
HETATM    7  C   UNL     1      -6.199  -2.007 -33.576  1.00  0.00     0.203 C 
HETATM    8  C   UNL     1      -7.308  -1.634 -34.565  1.00  0.00     0.262 C 
HETATM    9  C   UNL     1      -5.388   2.172 -32.993  1.00  0.00     0.020 A 
HETATM   10  C   UNL     1      -4.431   2.298 -31.968  1.00  0.00    -0.032 A 
HETATM   11  C   UNL     1      -3.654   1.181 -31.634  1.00  0.00     0.011 A 
HETATM   12  C   UNL     1      -3.843  -0.034 -32.298  1.00  0.00     0.038 A 
ENDROOT
BRANCH  10  13
HETATM   13  C   UNL     1      -4.270   3.605 -31.226  1.00  0.00     0.273 C 
BRANCH  13  14
HETATM   14  N   UNL     1      -3.752   4.759 -32.063  1.00  0.00    -0.067 N 
HETATM   15  H   UNL     1      -4.203   4.685 -32.985  1.00  0.00     0.280 HD
HETATM   16  C   UNL     1      -4.124   6.105 -31.486  1.00  0.00     0.238 C 
HETATM   17  C   UNL     1      -3.554   7.217 -32.350  1.00  0.00     0.071 C 
HETATM   18  C   UNL     1      -2.018   7.136 -32.451  1.00  0.00     0.089 C 
HETATM   19  C   UNL     1      -1.708   5.767 -33.090  1.00  0.00     0.071 C 
HETATM   20  C   UNL     1      -2.260   4.606 -32.278  1.00  0.00     0.238 C 
BRANCH  18  21
HETATM   21  O   UNL     1      -1.624   8.124 -33.403  1.00  0.00    -0.385 OA
HETATM   22  H   UNL     1      -2.377   8.706 -33.619  1.00  0.00     0.211 HD
ENDBRANCH  18  21
BRANCH  18  23
HETATM   23  C   UNL     1      -1.306   7.427 -31.134  1.00  0.00    -0.006 A 
HETATM   24  C   UNL     1      -1.852   8.244 -30.144  1.00  0.00     0.126 A 
HETATM   25  N   UNL     1      -1.228   8.588 -28.998  1.00  0.00    -0.272 NA
HETATM   26  C   UNL     1      -0.022   8.038 -28.758  1.00  0.00     0.116 A 
HETATM   27  C   UNL     1       0.590   7.161 -29.631  1.00  0.00     0.020 A 
HETATM   28  C   UNL     1      -0.063   6.851 -30.824  1.00  0.00     0.013 A 
ENDBRANCH  18  23
ENDBRANCH  13  14
ENDBRANCH  10  13
BRANCH   1  29
HETATM   29  C   UNL     1      -8.605   0.064 -33.197  1.00  0.00     0.274 C 
BRANCH  29  30
HETATM   30  C   UNL     1     -10.023   0.474 -33.488  1.00  0.00    -0.030 A 
HETATM   31  C   UNL     1     -10.274   1.636 -34.227  1.00  0.00     0.048 A 
HETATM   32  C   UNL     1     -11.569   1.957 -34.637  1.00  0.00     0.102 A 
HETATM   33  C   UNL     1     -12.653   1.138 -34.291  1.00  0.00     0.101 A 
HETATM   34  C   UNL     1     -12.414   0.014 -33.495  1.00  0.00     0.040 A 
HETATM   35  C   UNL     1     -11.110  -0.320 -33.099  1.00  0.00     0.012 A 
BRANCH  32  36
HETATM   36  O   UNL     1     -11.684   3.022 -35.494  1.00  0.00    -0.353 OA
HETATM   37  C   UNL     1     -11.095   4.201 -34.936  1.00  0.00     0.210 C 
ENDBRANCH  32  36
BRANCH  33  38
HETATM   38  O   UNL     1     -13.872   1.479 -34.808  1.00  0.00    -0.353 OA
HETATM   39  C   UNL     1     -15.012   0.796 -34.297  1.00  0.00     0.210 C 
ENDBRANCH  33  38
ENDBRANCH  29  30
ENDBRANCH   1  29
TORSDOF 8
ENDMDL
MODEL 4
REMARK VINA RESULT:      -8.5      1.920      2.780
REMARK  8 active torsions:
REMARK  status: ('A' for Active; 'I' for Inactive)
REMARK    1  A    between atoms: O_2  and  C_3 
REMARK    2  A    between atoms: C_4  and  O_5 
REMARK    3  A    between atoms: C_8  and  C_9 
REMARK    4  A    between atoms: C_9  and  N_10 
REMARK    5  A    between atoms: C_19  and  C_20 
REMARK    6  A    between atoms: C_20  and  N_21 
REMARK    7  A    between atoms: C_25  and  O_26 
REMARK    8  A    between atoms: C_25  and  C_27 
ROOT
HETATM    1  N   UNL     1      -7.231   1.006 -32.072  1.00  0.00    -0.061 N 
HETATM    2  H   UNL     1      -7.329   0.085 -31.628  1.00  0.00     0.280 HD
HETATM    3  C   UNL     1      -6.034   1.624 -31.374  1.00  0.00     0.276 C 
HETATM    4  C   UNL     1      -5.554   2.934 -31.935  1.00  0.00     0.002 A 
HETATM    5  C   UNL     1      -6.393   4.050 -31.942  1.00  0.00     0.076 A 
HETATM    6  O   UNL     1      -7.647   3.990 -31.405  1.00  0.00    -0.349 OA
HETATM    7  C   UNL     1      -8.535   3.197 -32.204  1.00  0.00     0.203 C 
HETATM    8  C   UNL     1      -8.532   1.732 -31.756  1.00  0.00     0.262 C 
HETATM    9  C   UNL     1      -4.246   3.080 -32.436  1.00  0.00     0.020 A 
HETATM   10  C   UNL     1      -3.799   4.299 -32.981  1.00  0.00    -0.032 A 
HETATM   11  C   UNL     1      -4.664   5.401 -32.960  1.00  0.00     0.011 A 
HETATM   12  C   UNL     1      -5.948   5.280 -32.422  1.00  0.00     0.038 A 
ENDROOT
BRANCH  10  13
HETATM   13  C   UNL     1      -2.425   4.403 -33.603  1.00  0.00     0.273 C 
BRANCH  13  14
HETATM   14  N   UNL     1      -1.365   5.028 -32.715  1.00  0.00    -0.067 N 
HETATM   15  H   UNL     1      -0.477   4.556 -32.933  1.00  0.00     0.280 HD
HETATM   16  C   UNL     1      -1.173   6.501 -32.993  1.00  0.00     0.238 C 
HETATM   17  C   UNL     1      -0.123   7.074 -32.057  1.00  0.00     0.071 C 
HETATM   18  C   UNL     1      -0.520   6.903 -30.576  1.00  0.00     0.089 C 
HETATM   19  C   UNL     1      -0.651   5.384 -30.346  1.00  0.00     0.071 C 
HETATM   20  C   UNL     1      -1.681   4.743 -31.261  1.00  0.00     0.238 C 
BRANCH  18  21
HETATM   21  O   UNL     1       0.604   7.332 -29.807  1.00  0.00    -0.385 OA
HETATM   22  H   UNL     1       1.414   6.879 -30.108  1.00  0.00     0.211 HD
ENDBRANCH  18  21
BRANCH  18  23
HETATM   23  C   UNL     1      -1.728   7.740 -30.170  1.00  0.00    -0.006 A 
HETATM   24  C   UNL     1      -2.408   7.551 -28.967  1.00  0.00     0.126 A 
HETATM   25  N   UNL     1      -3.524   8.217 -28.600  1.00  0.00    -0.272 NA
HETATM   26  C   UNL     1      -3.965   9.189 -29.421  1.00  0.00     0.116 A 
HETATM   27  C   UNL     1      -3.337   9.514 -30.607  1.00  0.00     0.020 A 
HETATM   28  C   UNL     1      -2.206   8.786 -30.977  1.00  0.00     0.013 A 
ENDBRANCH  18  23
ENDBRANCH  13  14
ENDBRANCH  10  13
BRANCH   1  29
HETATM   29  C   UNL     1      -7.061   0.699 -33.548  1.00  0.00     0.274 C 
BRANCH  29  30
HETATM   30  C   UNL     1      -6.177  -0.486 -33.826  1.00  0.00    -0.030 A 
HETATM   31  C   UNL     1      -4.999  -0.664 -33.090  1.00  0.00     0.048 A 
HETATM   32  C   UNL     1      -4.241  -1.828 -33.225  1.00  0.00     0.102 A 
HETATM   33  C   UNL     1      -4.625  -2.832 -34.124  1.00  0.00     0.101 A 
HETATM   34  C   UNL     1      -5.763  -2.627 -34.909  1.00  0.00     0.040 A 
HETATM   35  C   UNL     1      -6.536  -1.466 -34.760  1.00  0.00     0.012 A 
BRANCH  32  36
HETATM   36  O   UNL     1      -3.202  -1.976 -32.341  1.00  0.00    -0.353 OA
HETATM   37  C   UNL     1      -2.836  -0.722 -31.758  1.00  0.00     0.210 C 
ENDBRANCH  32  36
BRANCH  33  38
HETATM   38  O   UNL     1      -3.874  -3.975 -34.127  1.00  0.00    -0.353 OA
HETATM   39  C   UNL     1      -4.574  -5.215 -34.148  1.00  0.00     0.210 C 
ENDBRANCH  33  38
ENDBRANCH  29  30
ENDBRANCH   1  29
TORSDOF 8
ENDMDL
MODEL 5
REMARK VINA RESULT:      -8.5      1.587      5.101
REMARK  8 active torsions:
REMARK  status: ('A' for Active; 'I' for Inactive)
REMARK    1  A    between atoms: O_2  and  C_3 
REMARK    2  A    between atoms: C_4  and  O_5 
REMARK    3  A    between atoms: C_8  and  C_9 
REMARK    4  A    between atoms: C_9  and  N_10 
REMARK    5  A    between atoms: C_19  and  C_20 
REMARK    6  A    between atoms: C_20  and  N_21 
REMARK    7  A    between atoms: C_25  and  O_26 
REMARK    8  A    between atoms: C_25  and  C_27 
ROOT
HETATM    1  N   UNL     1      -7.701  -0.312 -34.188  1.00  0.00    -0.061 N 
HETATM    2  H   UNL     1      -8.451  -0.196 -34.879  1.00  0.00     0.280 HD
HETATM    3  C   UNL     1      -6.704   0.776 -34.541  1.00  0.00     0.276 C 
HETATM    4  C   UNL     1      -5.556   0.946 -33.584  1.00  0.00     0.002 A 
HETATM    5  C   UNL     1      -4.658  -0.099 -33.363  1.00  0.00     0.076 A 
HETATM    6  O   UNL     1      -4.774  -1.280 -34.038  1.00  0.00    -0.349 OA
HETATM    7  C   UNL     1      -5.912  -2.037 -33.602  1.00  0.00     0.203 C 
HETATM    8  C   UNL     1      -7.154  -1.711 -34.437  1.00  0.00     0.262 C 
HETATM    9  C   UNL     1      -5.339   2.165 -32.913  1.00  0.00     0.020 A 
HETATM   10  C   UNL     1      -4.278   2.323 -32.001  1.00  0.00    -0.032 A 
HETATM   11  C   UNL     1      -3.388   1.257 -31.814  1.00  0.00     0.011 A 
HETATM   12  C   UNL     1      -3.568   0.058 -32.510  1.00  0.00     0.038 A 
ENDROOT
BRANCH  10  13
HETATM   13  C   UNL     1      -4.124   3.608 -31.219  1.00  0.00     0.273 C 
BRANCH  13  14
HETATM   14  N   UNL     1      -3.633   4.795 -32.026  1.00  0.00    -0.067 N 
HETATM   15  H   UNL     1      -4.066   4.724 -32.956  1.00  0.00     0.280 HD
HETATM   16  C   UNL     1      -4.060   6.116 -31.430  1.00  0.00     0.238 C 
HETATM   17  C   UNL     1      -3.516   7.264 -32.263  1.00  0.00     0.071 C 
HETATM   18  C   UNL     1      -1.976   7.237 -32.340  1.00  0.00     0.089 C 
HETATM   19  C   UNL     1      -1.609   5.893 -32.999  1.00  0.00     0.071 C 
HETATM   20  C   UNL     1      -2.133   4.698 -32.219  1.00  0.00     0.238 C 
BRANCH  18  21
HETATM   21  O   UNL     1      -1.602   8.256 -33.267  1.00  0.00    -0.385 OA
HETATM   22  H   UNL     1      -0.885   7.939 -33.849  1.00  0.00     0.211 HD
ENDBRANCH  18  21
BRANCH  18  23
HETATM   23  C   UNL     1      -1.296   7.527 -31.006  1.00  0.00    -0.006 A 
HETATM   24  C   UNL     1      -1.847   8.376 -30.046  1.00  0.00     0.126 A 
HETATM   25  N   UNL     1      -1.248   8.718 -28.885  1.00  0.00    -0.272 NA
HETATM   26  C   UNL     1      -0.067   8.136 -28.601  1.00  0.00     0.116 A 
HETATM   27  C   UNL     1       0.545   7.228 -29.443  1.00  0.00     0.020 A 
HETATM   28  C   UNL     1      -0.081   6.919 -30.650  1.00  0.00     0.013 A 
ENDBRANCH  18  23
ENDBRANCH  13  14
ENDBRANCH  10  13
BRANCH   1  29
HETATM   29  C   UNL     1      -8.398  -0.174 -32.847  1.00  0.00     0.274 C 
BRANCH  29  30
HETATM   30  C   UNL     1      -9.502   0.848 -32.836  1.00  0.00    -0.030 A 
HETATM   31  C   UNL     1      -9.319   2.063 -32.165  1.00  0.00     0.048 A 
HETATM   32  C   UNL     1     -10.265   3.084 -32.265  1.00  0.00     0.102 A 
HETATM   33  C   UNL     1     -11.436   2.904 -33.014  1.00  0.00     0.101 A 
HETATM   34  C   UNL     1     -11.653   1.667 -33.629  1.00  0.00     0.040 A 
HETATM   35  C   UNL     1     -10.693   0.648 -33.545  1.00  0.00     0.012 A 
BRANCH  32  36
HETATM   36  O   UNL     1      -9.914   4.288 -31.709  1.00  0.00    -0.353 OA
HETATM   37  C   UNL     1      -9.301   4.108 -30.429  1.00  0.00     0.210 C 
ENDBRANCH  32  36
BRANCH  33  38
HETATM   38  O   UNL     1     -12.265   3.986 -33.130  1.00  0.00    -0.353 OA
HETATM   39  C   UNL     1     -12.410   4.560 -34.425  1.00  0.00     0.210 C 
ENDBRANCH  33  38
ENDBRANCH  29  30
ENDBRANCH   1  29
TORSDOF 8
ENDMDL
MODEL 6
REMARK VINA RESULT:      -8.2      3.149      9.103
REMARK  8 active torsions:
REMARK  status: ('A' for Active; 'I' for Inactive)
REMARK    1  A    between atoms: O_2  and  C_3 
REMARK    2  A    between atoms: C_4  and  O_5 
REMARK    3  A    between atoms: C_8  and  C_9 
REMARK    4  A    between atoms: C_9  and  N_10 
REMARK    5  A    between atoms: C_19  and  C_20 
REMARK    6  A    between atoms: C_20  and  N_21 
REMARK    7  A    between atoms: C_25  and  O_26 
REMARK    8  A    between atoms: C_25  and  C_27 
ROOT
HETATM    1  N   UNL     1      -4.128  -0.340 -31.589  1.00  0.00    -0.061 N 
HETATM    2  H   UNL     1      -3.809  -0.337 -30.613  1.00  0.00     0.280 HD
HETATM    3  C   UNL     1      -5.639  -0.425 -31.481  1.00  0.00     0.276 C 
HETATM    4  C   UNL     1      -6.396  -0.290 -32.773  1.00  0.00     0.002 A 
HETATM    5  C   UNL     1      -6.207  -1.211 -33.804  1.00  0.00     0.076 A 
HETATM    6  O   UNL     1      -5.366  -2.276 -33.649  1.00  0.00    -0.349 OA
HETATM    7  C   UNL     1      -3.990  -1.875 -33.626  1.00  0.00     0.203 C 
HETATM    8  C   UNL     1      -3.513  -1.594 -32.197  1.00  0.00     0.262 C 
HETATM    9  C   UNL     1      -7.332   0.744 -32.968  1.00  0.00     0.020 A 
HETATM   10  C   UNL     1      -8.028   0.887 -34.183  1.00  0.00    -0.032 A 
HETATM   11  C   UNL     1      -7.823  -0.065 -35.191  1.00  0.00     0.011 A 
HETATM   12  C   UNL     1      -6.930  -1.121 -34.991  1.00  0.00     0.038 A 
ENDROOT
BRANCH  10  13
HETATM   13  C   UNL     1      -8.954   2.062 -34.403  1.00  0.00     0.273 C 
BRANCH  13  14
HETATM   14  N   UNL     1     -10.395   1.696 -34.706  1.00  0.00    -0.067 N 
HETATM   15  H   UNL     1     -10.375   1.033 -35.493  1.00  0.00     0.280 HD
HETATM   16  C   UNL     1     -11.071   1.001 -33.548  1.00  0.00     0.238 C 
HETATM   17  C   UNL     1     -12.515   0.687 -33.901  1.00  0.00     0.071 C 
HETATM   18  C   UNL     1     -13.313   1.962 -34.240  1.00  0.00     0.089 C 
HETATM   19  C   UNL     1     -12.604   2.594 -35.455  1.00  0.00     0.071 C 
HETATM   20  C   UNL     1     -11.148   2.925 -35.172  1.00  0.00     0.238 C 
BRANCH  18  21
HETATM   21  O   UNL     1     -14.592   1.525 -34.702  1.00  0.00    -0.385 OA
HETATM   22  H   UNL     1     -15.099   2.279 -35.059  1.00  0.00     0.211 HD
ENDBRANCH  18  21
BRANCH  18  23
HETATM   23  C   UNL     1     -13.524   2.884 -33.044  1.00  0.00    -0.006 A 
HETATM   24  C   UNL     1     -12.508   3.683 -32.518  1.00  0.00     0.126 A 
HETATM   25  N   UNL     1     -12.628   4.457 -31.418  1.00  0.00    -0.272 NA
HETATM   26  C   UNL     1     -13.840   4.521 -30.834  1.00  0.00     0.116 A 
HETATM   27  C   UNL     1     -14.938   3.829 -31.303  1.00  0.00     0.020 A 
HETATM   28  C   UNL     1     -14.776   3.011 -32.421  1.00  0.00     0.013 A 
ENDBRANCH  18  23
ENDBRANCH  13  14
ENDBRANCH  10  13
BRANCH   1  29
HETATM   29  C   UNL     1      -3.569   0.943 -32.174  1.00  0.00     0.274 C 
BRANCH  29  30
HETATM   30  C   UNL     1      -4.223   2.190 -31.645  1.00  0.00    -0.030 A 
HETATM   31  C   UNL     1      -4.295   3.334 -32.450  1.00  0.00     0.048 A 
HETATM   32  C   UNL     1      -5.025   4.451 -32.041  1.00  0.00     0.102 A 
HETATM   33  C   UNL     1      -5.675   4.465 -30.800  1.00  0.00     0.101 A 
HETATM   34  C   UNL     1      -5.547   3.351 -29.964  1.00  0.00     0.040 A 
HETATM   35  C   UNL     1      -4.831   2.221 -30.383  1.00  0.00     0.012 A 
BRANCH  32  36
HETATM   36  O   UNL     1      -5.171   5.449 -32.971  1.00  0.00    -0.353 OA
HETATM   37  C   UNL     1      -3.900   5.948 -33.398  1.00  0.00     0.210 C 
ENDBRANCH  32  36
BRANCH  33  38
HETATM   38  O   UNL     1      -6.439   5.564 -30.518  1.00  0.00    -0.353 OA
HETATM   39  C   UNL     1      -7.853   5.408 -30.574  1.00  0.00     0.210 C 
ENDBRANCH  33  38
ENDBRANCH  29  30
ENDBRANCH   1  29
TORSDOF 8
ENDMDL
MODEL 7
REMARK VINA RESULT:      -8.1      2.921      9.430
REMARK  8 active torsions:
REMARK  status: ('A' for Active; 'I' for Inactive)
REMARK    1  A    between atoms: O_2  and  C_3 
REMARK    2  A    between atoms: C_4  and  O_5 
REMARK    3  A    between atoms: C_8  and  C_9 
REMARK    4  A    between atoms: C_9  and  N_10 
REMARK    5  A    between atoms: C_19  and  C_20 
REMARK    6  A    between atoms: C_20  and  N_21 
REMARK    7  A    between atoms: C_25  and  O_26 
REMARK    8  A    between atoms: C_25  and  C_27 
ROOT
HETATM    1  N   UNL     1      -1.200   5.501 -31.124  1.00  0.00    -0.061 N 
HETATM    2  H   UNL     1      -0.548   5.171 -30.403  1.00  0.00     0.280 HD
HETATM    3  C   UNL     1      -1.903   4.240 -31.589  1.00  0.00     0.276 C 
HETATM    4  C   UNL     1      -3.042   4.442 -32.550  1.00  0.00     0.002 A 
HETATM    5  C   UNL     1      -2.820   5.031 -33.796  1.00  0.00     0.076 A 
HETATM    6  O   UNL     1      -1.564   5.397 -34.187  1.00  0.00    -0.349 OA
HETATM    7  C   UNL     1      -1.085   6.534 -33.456  1.00  0.00     0.203 C 
HETATM    8  C   UNL     1      -0.314   6.109 -32.202  1.00  0.00     0.262 C 
HETATM    9  C   UNL     1      -4.347   4.019 -32.236  1.00  0.00     0.020 A 
HETATM   10  C   UNL     1      -5.421   4.224 -33.123  1.00  0.00    -0.032 A 
HETATM   11  C   UNL     1      -5.159   4.807 -34.371  1.00  0.00     0.011 A 
HETATM   12  C   UNL     1      -3.858   5.189 -34.711  1.00  0.00     0.038 A 
ENDROOT
BRANCH  10  13
HETATM   13  C   UNL     1      -6.830   3.851 -32.722  1.00  0.00     0.273 C 
BRANCH  13  14
HETATM   14  N   UNL     1      -7.279   2.471 -33.166  1.00  0.00    -0.067 N 
HETATM   15  H   UNL     1      -8.214   2.580 -33.580  1.00  0.00     0.280 HD
HETATM   16  C   UNL     1      -6.380   1.884 -34.230  1.00  0.00     0.238 C 
HETATM   17  C   UNL     1      -6.863   0.495 -34.611  1.00  0.00     0.071 C 
HETATM   18  C   UNL     1      -6.876  -0.460 -33.400  1.00  0.00     0.089 C 
HETATM   19  C   UNL     1      -7.844   0.167 -32.377  1.00  0.00     0.071 C 
HETATM   20  C   UNL     1      -7.424   1.567 -31.959  1.00  0.00     0.238 C 
BRANCH  18  21
HETATM   21  O   UNL     1      -7.490  -1.669 -33.848  1.00  0.00    -0.385 OA
HETATM   22  H   UNL     1      -8.248  -1.469 -34.429  1.00  0.00     0.211 HD
ENDBRANCH  18  21
BRANCH  18  23
HETATM   23  C   UNL     1      -5.483  -0.794 -32.875  1.00  0.00    -0.006 A 
HETATM   24  C   UNL     1      -4.669  -1.766 -33.457  1.00  0.00     0.126 A 
HETATM   25  N   UNL     1      -3.463  -2.145 -32.983  1.00  0.00    -0.272 NA
HETATM   26  C   UNL     1      -2.979  -1.480 -31.917  1.00  0.00     0.116 A 
HETATM   27  C   UNL     1      -3.662  -0.453 -31.297  1.00  0.00     0.020 A 
HETATM   28  C   UNL     1      -4.921  -0.106 -31.787  1.00  0.00     0.013 A 
ENDBRANCH  18  23
ENDBRANCH  13  14
ENDBRANCH  10  13
BRANCH   1  29
HETATM   29  C   UNL     1      -2.063   6.526 -30.412  1.00  0.00     0.274 C 
BRANCH  29  30
HETATM   30  C   UNL     1      -1.400   7.158 -29.218  1.00  0.00    -0.030 A 
HETATM   31  C   UNL     1      -2.030   7.113 -27.968  1.00  0.00     0.048 A 
HETATM   32  C   UNL     1      -1.372   7.558 -26.821  1.00  0.00     0.102 A 
HETATM   33  C   UNL     1      -0.077   8.088 -26.898  1.00  0.00     0.101 A 
HETATM   34  C   UNL     1       0.527   8.196 -28.154  1.00  0.00     0.040 A 
HETATM   35  C   UNL     1      -0.126   7.732 -29.305  1.00  0.00     0.012 A 
BRANCH  32  36
HETATM   36  O   UNL     1      -2.009   7.317 -25.629  1.00  0.00    -0.353 OA
HETATM   37  C   UNL     1      -3.224   8.068 -25.531  1.00  0.00     0.210 C 
ENDBRANCH  32  36
BRANCH  33  38
HETATM   38  O   UNL     1       0.525   8.417 -25.715  1.00  0.00    -0.353 OA
HETATM   39  C   UNL     1       1.931   8.213 -25.620  1.00  0.00     0.210 C 
ENDBRANCH  33  38
ENDBRANCH  29  30
ENDBRANCH   1  29
TORSDOF 8
ENDMDL
MODEL 8
REMARK VINA RESULT:      -8.0      2.743      9.469
REMARK  8 active torsions:
REMARK  status: ('A' for Active; 'I' for Inactive)
REMARK    1  A    between atoms: O_2  and  C_3 
REMARK    2  A    between atoms: C_4  and  O_5 
REMARK    3  A    between atoms: C_8  and  C_9 
REMARK    4  A    between atoms: C_9  and  N_10 
REMARK    5  A    between atoms: C_19  and  C_20 
REMARK    6  A    between atoms: C_20  and  N_21 
REMARK    7  A    between atoms: C_25  and  O_26 
REMARK    8  A    between atoms: C_25  and  C_27 
ROOT
HETATM    1  N   UNL     1      -3.796   0.915 -31.361  1.00  0.00    -0.061 N 
HETATM    2  H   UNL     1      -3.396   1.172 -30.452  1.00  0.00     0.280 HD
HETATM    3  C   UNL     1      -5.287   0.824 -31.095  1.00  0.00     0.276 C 
HETATM    4  C   UNL     1      -6.155   0.611 -32.304  1.00  0.00     0.002 A 
HETATM    5  C   UNL     1      -6.011  -0.537 -33.085  1.00  0.00     0.076 A 
HETATM    6  O   UNL     1      -5.112  -1.508 -32.748  1.00  0.00    -0.349 OA
HETATM    7  C   UNL     1      -3.759  -1.081 -32.954  1.00  0.00     0.203 C 
HETATM    8  C   UNL     1      -3.177  -0.436 -31.691  1.00  0.00     0.262 C 
HETATM    9  C   UNL     1      -7.151   1.539 -32.662  1.00  0.00     0.020 A 
HETATM   10  C   UNL     1      -7.953   1.354 -33.805  1.00  0.00    -0.032 A 
HETATM   11  C   UNL     1      -7.789   0.183 -34.557  1.00  0.00     0.011 A 
HETATM   12  C   UNL     1      -6.835  -0.767 -34.184  1.00  0.00     0.038 A 
ENDROOT
BRANCH  10  13
HETATM   13  C   UNL     1      -8.947   2.413 -34.224  1.00  0.00     0.273 C 
BRANCH  13  14
HETATM   14  N   UNL     1     -10.324   1.891 -34.592  1.00  0.00    -0.067 N 
HETATM   15  H   UNL     1     -10.183   1.127 -35.266  1.00  0.00     0.280 HD
HETATM   16  C   UNL     1     -11.060   1.315 -33.405  1.00  0.00     0.238 C 
HETATM   17  C   UNL     1     -12.438   0.837 -33.830  1.00  0.00     0.071 C 
HETATM   18  C   UNL     1     -13.285   1.981 -34.423  1.00  0.00     0.089 C 
HETATM   19  C   UNL     1     -12.507   2.490 -35.652  1.00  0.00     0.071 C 
HETATM   20  C   UNL     1     -11.111   2.976 -35.299  1.00  0.00     0.238 C 
BRANCH  18  21
HETATM   21  O   UNL     1     -14.480   1.380 -34.922  1.00  0.00    -0.385 OA
HETATM   22  H   UNL     1     -14.586   0.481 -34.556  1.00  0.00     0.211 HD
ENDBRANCH  18  21
BRANCH  18  23
HETATM   23  C   UNL     1     -13.673   3.043 -33.399  1.00  0.00    -0.006 A 
HETATM   24  C   UNL     1     -13.423   4.403 -33.590  1.00  0.00     0.126 A 
HETATM   25  N   UNL     1     -13.682   5.368 -32.682  1.00  0.00    -0.272 NA
HETATM   26  C   UNL     1     -14.297   4.999 -31.543  1.00  0.00     0.116 A 
HETATM   27  C   UNL     1     -14.655   3.694 -31.270  1.00  0.00     0.020 A 
HETATM   28  C   UNL     1     -14.345   2.713 -32.211  1.00  0.00     0.013 A 
ENDBRANCH  18  23
ENDBRANCH  13  14
ENDBRANCH  10  13
BRANCH   1  29
HETATM   29  C   UNL     1      -3.348   2.021 -32.298  1.00  0.00     0.274 C 
BRANCH  29  30
HETATM   30  C   UNL     1      -3.334   3.387 -31.666  1.00  0.00    -0.030 A 
HETATM   31  C   UNL     1      -2.128   4.090 -31.555  1.00  0.00     0.048 A 
HETATM   32  C   UNL     1      -2.111   5.413 -31.111  1.00  0.00     0.102 A 
HETATM   33  C   UNL     1      -3.298   6.058 -30.737  1.00  0.00     0.101 A 
HETATM   34  C   UNL     1      -4.494   5.336 -30.782  1.00  0.00     0.040 A 
HETATM   35  C   UNL     1      -4.515   4.013 -31.247  1.00  0.00     0.012 A 
BRANCH  32  36
HETATM   36  O   UNL     1      -0.905   6.062 -31.198  1.00  0.00    -0.353 OA
HETATM   37  C   UNL     1      -0.058   5.729 -30.093  1.00  0.00     0.210 C 
ENDBRANCH  32  36
BRANCH  33  38
HETATM   38  O   UNL     1      -3.199   7.380 -30.400  1.00  0.00    -0.353 OA
HETATM   39  C   UNL     1      -4.275   8.232 -30.780  1.00  0.00     0.210 C 
ENDBRANCH  33  38
ENDBRANCH  29  30
ENDBRANCH   1  29
TORSDOF 8
ENDMDL
MODEL 9
REMARK VINA RESULT:      -8.0      3.190     10.483
REMARK  8 active torsions:
REMARK  status: ('A' for Active; 'I' for Inactive)
REMARK    1  A    between atoms: O_2  and  C_3 
REMARK    2  A    between atoms: C_4  and  O_5 
REMARK    3  A    between atoms: C_8  and  C_9 
REMARK    4  A    between atoms: C_9  and  N_10 
REMARK    5  A    between atoms: C_19  and  C_20 
REMARK    6  A    between atoms: C_20  and  N_21 
REMARK    7  A    between atoms: C_25  and  O_26 
REMARK    8  A    between atoms: C_25  and  C_27 
ROOT
HETATM    1  N   UNL     1      -0.947   7.483 -30.546  1.00  0.00    -0.061 N 
HETATM    2  H   UNL     1       0.031   7.716 -30.754  1.00  0.00     0.280 HD
HETATM    3  C   UNL     1      -1.369   6.597 -31.703  1.00  0.00     0.276 C 
HETATM    4  C   UNL     1      -2.731   5.971 -31.584  1.00  0.00     0.002 A 
HETATM    5  C   UNL     1      -3.873   6.769 -31.502  1.00  0.00     0.076 A 
HETATM    6  O   UNL     1      -3.785   8.130 -31.570  1.00  0.00    -0.349 OA
HETATM    7  C   UNL     1      -3.192   8.689 -30.391  1.00  0.00     0.203 C 
HETATM    8  C   UNL     1      -1.673   8.821 -30.537  1.00  0.00     0.262 C 
HETATM    9  C   UNL     1      -2.894   4.572 -31.582  1.00  0.00     0.020 A 
HETATM   10  C   UNL     1      -4.165   3.980 -31.451  1.00  0.00    -0.032 A 
HETATM   11  C   UNL     1      -5.290   4.813 -31.384  1.00  0.00     0.011 A 
HETATM   12  C   UNL     1      -5.143   6.201 -31.431  1.00  0.00     0.038 A 
ENDROOT
BRANCH  10  13
HETATM   13  C   UNL     1      -4.304   2.478 -31.352  1.00  0.00     0.273 C 
BRANCH  13  14
HETATM   14  N   UNL     1      -5.648   1.928 -31.793  1.00  0.00    -0.067 N 
HETATM   15  H   UNL     1      -6.359   2.618 -31.514  1.00  0.00     0.280 HD
HETATM   16  C   UNL     1      -5.743   1.764 -33.292  1.00  0.00     0.238 C 
HETATM   17  C   UNL     1      -7.096   1.185 -33.668  1.00  0.00     0.071 C 
HETATM   18  C   UNL     1      -7.335  -0.188 -33.010  1.00  0.00     0.089 C 
HETATM   19  C   UNL     1      -7.276   0.055 -31.489  1.00  0.00     0.071 C 
HETATM   20  C   UNL     1      -5.947   0.645 -31.044  1.00  0.00     0.238 C 
BRANCH  18  21
HETATM   21  O   UNL     1      -8.684  -0.548 -33.309  1.00  0.00    -0.385 OA
HETATM   22  H   UNL     1      -8.868  -1.458 -33.004  1.00  0.00     0.211 HD
ENDBRANCH  18  21
BRANCH  18  23
HETATM   23  C   UNL     1      -6.417  -1.285 -33.541  1.00  0.00    -0.006 A 
HETATM   24  C   UNL     1      -5.092  -1.426 -33.127  1.00  0.00     0.126 A 
HETATM   25  N   UNL     1      -4.223  -2.333 -33.623  1.00  0.00    -0.272 NA
HETATM   26  C   UNL     1      -4.694  -3.215 -34.524  1.00  0.00     0.116 A 
HETATM   27  C   UNL     1      -6.004  -3.218 -34.959  1.00  0.00     0.020 A 
HETATM   28  C   UNL     1      -6.870  -2.248 -34.456  1.00  0.00     0.013 A 
ENDBRANCH  18  23
ENDBRANCH  13  14
ENDBRANCH  10  13
BRANCH   1  29
HETATM   29  C   UNL     1      -0.896   6.823 -29.180  1.00  0.00     0.274 C 
BRANCH  29  30
HETATM   30  C   UNL     1      -0.264   7.676 -28.114  1.00  0.00    -0.030 A 
HETATM   31  C   UNL     1      -1.024   8.087 -27.011  1.00  0.00     0.048 A 
HETATM   32  C   UNL     1      -0.425   8.750 -25.940  1.00  0.00     0.102 A 
HETATM   33  C   UNL     1       0.944   9.048 -25.956  1.00  0.00     0.101 A 
HETATM   34  C   UNL     1       1.690   8.700 -27.086  1.00  0.00     0.040 A 
HETATM   35  C   UNL     1       1.094   8.016 -28.155  1.00  0.00     0.012 A 
BRANCH  32  36
HETATM   36  O   UNL     1      -1.220   8.959 -24.840  1.00  0.00    -0.353 OA
HETATM   37  C   UNL     1      -2.447   8.232 -24.944  1.00  0.00     0.210 C 
ENDBRANCH  32  36
BRANCH  33  38
HETATM   38  O   UNL     1       1.464   9.620 -24.828  1.00  0.00    -0.353 OA
HETATM   39  C   UNL     1       1.725  11.020 -24.867  1.00  0.00     0.210 C 
ENDBRANCH  33  38
ENDBRANCH  29  30
ENDBRANCH   1  29
TORSDOF 8
ENDMDL
MODEL 10
REMARK VINA RESULT:      -8.0      2.024      5.661
REMARK  8 active torsions:
REMARK  status: ('A' for Active; 'I' for Inactive)
REMARK    1  A    between atoms: O_2  and  C_3 
REMARK    2  A    between atoms: C_4  and  O_5 
REMARK    3  A    between atoms: C_8  and  C_9 
REMARK    4  A    between atoms: C_9  and  N_10 
REMARK    5  A    between atoms: C_19  and  C_20 
REMARK    6  A    between atoms: C_20  and  N_21 
REMARK    7  A    between atoms: C_25  and  O_26 
REMARK    8  A    between atoms: C_25  and  C_27 
ROOT
HETATM    1  N   UNL     1      -8.153   1.258 -34.164  1.00  0.00    -0.061 N 
HETATM    2  H   UNL     1      -8.800   1.689 -34.835  1.00  0.00     0.280 HD
HETATM    3  C   UNL     1      -6.806   1.866 -34.508  1.00  0.00     0.276 C 
HETATM    4  C   UNL     1      -5.678   1.528 -33.572  1.00  0.00     0.002 A 
HETATM    5  C   UNL     1      -5.273   0.204 -33.402  1.00  0.00     0.076 A 
HETATM    6  O   UNL     1      -5.860  -0.807 -34.107  1.00  0.00    -0.349 OA
HETATM    7  C   UNL     1      -7.202  -1.059 -33.668  1.00  0.00     0.203 C 
HETATM    8  C   UNL     1      -8.216  -0.233 -34.465  1.00  0.00     0.262 C 
HETATM    9  C   UNL     1      -4.984   2.533 -32.872  1.00  0.00     0.020 A 
HETATM   10  C   UNL     1      -3.941   2.221 -31.980  1.00  0.00    -0.032 A 
HETATM   11  C   UNL     1      -3.552   0.881 -31.843  1.00  0.00     0.011 A 
HETATM   12  C   UNL     1      -4.204  -0.119 -32.569  1.00  0.00     0.038 A 
ENDROOT
BRANCH  10  13
HETATM   13  C   UNL     1      -3.277   3.307 -31.165  1.00  0.00     0.273 C 
BRANCH  13  14
HETATM   14  N   UNL     1      -3.025   4.605 -31.910  1.00  0.00    -0.067 N 
HETATM   15  H   UNL     1      -3.450   4.502 -32.841  1.00  0.00     0.280 HD
HETATM   16  C   UNL     1      -3.682   5.792 -31.243  1.00  0.00     0.238 C 
HETATM   17  C   UNL     1      -3.370   7.061 -32.018  1.00  0.00     0.071 C 
HETATM   18  C   UNL     1      -1.853   7.325 -32.102  1.00  0.00     0.089 C 
HETATM   19  C   UNL     1      -1.252   6.107 -32.832  1.00  0.00     0.071 C 
HETATM   20  C   UNL     1      -1.536   4.798 -32.114  1.00  0.00     0.238 C 
BRANCH  18  21
HETATM   21  O   UNL     1      -1.687   8.442 -32.975  1.00  0.00    -0.385 OA
HETATM   22  H   UNL     1      -1.906   8.190 -33.893  1.00  0.00     0.211 HD
ENDBRANCH  18  21
BRANCH  18  23
HETATM   23  C   UNL     1      -1.221   7.668 -30.757  1.00  0.00    -0.006 A 
HETATM   24  C   UNL     1      -0.009   7.123 -30.331  1.00  0.00     0.126 A 
HETATM   25  N   UNL     1       0.550   7.340 -29.122  1.00  0.00    -0.272 NA
HETATM   26  C   UNL     1      -0.068   8.208 -28.299  1.00  0.00     0.116 A 
HETATM   27  C   UNL     1      -1.236   8.862 -28.636  1.00  0.00     0.020 A 
HETATM   28  C   UNL     1      -1.809   8.592 -29.878  1.00  0.00     0.013 A 
ENDBRANCH  18  23
ENDBRANCH  13  14
ENDBRANCH  10  13
BRANCH   1  29
HETATM   29  C   UNL     1      -8.724   1.616 -32.805  1.00  0.00     0.274 C 
BRANCH  29  30
HETATM   30  C   UNL     1     -10.106   2.208 -32.860  1.00  0.00    -0.030 A 
HETATM   31  C   UNL     1     -11.092   1.601 -33.648  1.00  0.00     0.048 A 
HETATM   32  C   UNL     1     -12.415   2.041 -33.601  1.00  0.00     0.102 A 
HETATM   33  C   UNL     1     -12.782   3.120 -32.786  1.00  0.00     0.101 A 
HETATM   34  C   UNL     1     -11.787   3.772 -32.051  1.00  0.00     0.040 A 
HETATM   35  C   UNL     1     -10.460   3.318 -32.083  1.00  0.00     0.012 A 
BRANCH  32  36
HETATM   36  O   UNL     1     -13.329   1.275 -34.280  1.00  0.00    -0.353 OA
HETATM   37  C   UNL     1     -13.461  -0.021 -33.687  1.00  0.00     0.210 C 
ENDBRANCH  32  36
BRANCH  33  38
HETATM   38  O   UNL     1     -14.114   3.427 -32.733  1.00  0.00    -0.353 OA
HETATM   39  C   UNL     1     -14.461   4.779 -32.454  1.00  0.00     0.210 C 
ENDBRANCH  33  38
ENDBRANCH  29  30
ENDBRANCH   1  29
TORSDOF 8
ENDMDL
