MODEL 1
REMARK VINA RESULT:      -8.5      0.000      0.000
REMARK  8 active torsions:
REMARK  status: ('A' for Active; 'I' for Inactive)
REMARK    1  A    between atoms: O_2  and  C_3 
REMARK    2  A    between atoms: C_7  and  C_9 
REMARK    3  A    between atoms: C_9  and  C_10 
REMARK    4  A    between atoms: C_9  and  N_13 
REMARK    5  A    between atoms: C_10  and  C_11 
REMARK    6  A    between atoms: C_11  and  O_12 
REMARK       I    between atoms: N_13  and  C_14 
REMARK    7  A    between atoms: C_14  and  C_16 
REMARK    8  A    between atoms: C_19  and  C_22 
ROOT
HETATM    1  N   UNL     1      -4.519   3.737 -32.682  1.00  0.00    -0.348 N 
HETATM    2  C   UNL     1      -4.737   2.678 -31.828  1.00  0.00     0.252 C 
HETATM    3  O   UNL     1      -4.873   2.808 -30.618  1.00  0.00    -0.268 OA
HETATM    4  H   UNL     1      -4.473   3.588 -33.679  1.00  0.00     0.163 HD
ENDROOT
BRANCH   1   5
HETATM    5  C   UNL     1      -4.382   5.107 -32.205  1.00  0.00     0.120 C 
BRANCH   5   6
HETATM    6  C   UNL     1      -2.932   5.576 -32.205  1.00  0.00    -0.033 A 
HETATM    7  C   UNL     1      -2.605   6.768 -32.876  1.00  0.00     0.009 A 
HETATM    8  C   UNL     1      -1.284   7.210 -32.943  1.00  0.00     0.003 A 
HETATM    9  C   UNL     1      -0.273   6.474 -32.329  1.00  0.00     0.037 A 
HETATM   10  C   UNL     1      -0.576   5.301 -31.637  1.00  0.00     0.068 A 
HETATM   11  C   UNL     1      -1.897   4.844 -31.595  1.00  0.00     0.046 A 
BRANCH  10  12
HETATM   12  O   UNL     1       0.499   4.674 -31.068  1.00  0.00    -0.356 OA
HETATM   13  C   UNL     1       0.739   4.968 -29.697  1.00  0.00     0.210 C 
ENDBRANCH  10  12
ENDBRANCH   5   6
BRANCH   5  14
HETATM   14  C   UNL     1      -5.243   6.057 -33.051  1.00  0.00     0.056 C 
BRANCH  14  15
HETATM   15  C   UNL     1      -6.701   5.614 -33.106  1.00  0.00     0.166 C 
BRANCH  15  16
HETATM   16  O   UNL     1      -6.904   4.776 -34.238  1.00  0.00    -0.401 OA
HETATM   17  H   UNL     1      -7.117   3.885 -33.912  1.00  0.00     0.209 HD
ENDBRANCH  15  16
ENDBRANCH  14  15
ENDBRANCH   5  14
ENDBRANCH   1   5
BRANCH   2  18
HETATM   18  C   UNL     1      -4.873   1.331 -32.455  1.00  0.00     0.032 A 
HETATM   19  C   UNL     1      -6.002   0.942 -33.183  1.00  0.00     0.018 A 
HETATM   20  C   UNL     1      -6.092  -0.355 -33.705  1.00  0.00     0.013 A 
HETATM   21  C   UNL     1      -5.056  -1.289 -33.526  1.00  0.00    -0.026 A 
HETATM   22  C   UNL     1      -3.913  -0.870 -32.825  1.00  0.00     0.013 A 
HETATM   23  C   UNL     1      -3.821   0.423 -32.297  1.00  0.00     0.018 A 
BRANCH  21  24
HETATM   24  C   UNL     1      -5.171  -2.663 -34.046  1.00  0.00    -0.023 A 
HETATM   25  C   UNL     1      -6.283  -3.071 -34.795  1.00  0.00     0.031 A 
HETATM   26  C   UNL     1      -6.348  -4.379 -35.250  1.00  0.00     0.117 A 
HETATM   27  N   UNL     1      -5.396  -5.304 -35.016  1.00  0.00    -0.273 NA
HETATM   28  C   UNL     1      -4.329  -4.901 -34.297  1.00  0.00     0.117 A 
HETATM   29  C   UNL     1      -4.174  -3.616 -33.801  1.00  0.00     0.031 A 
ENDBRANCH  21  24
ENDBRANCH   2  18
TORSDOF 8
ENDMDL
MODEL 2
REMARK VINA RESULT:      -8.2      1.588      2.196
REMARK  8 active torsions:
REMARK  status: ('A' for Active; 'I' for Inactive)
REMARK    1  A    between atoms: O_2  and  C_3 
REMARK    2  A    between atoms: C_7  and  C_9 
REMARK    3  A    between atoms: C_9  and  C_10 
REMARK    4  A    between atoms: C_9  and  N_13 
REMARK    5  A    between atoms: C_10  and  C_11 
REMARK    6  A    between atoms: C_11  and  O_12 
REMARK       I    between atoms: N_13  and  C_14 
REMARK    7  A    between atoms: C_14  and  C_16 
REMARK    8  A    between atoms: C_19  and  C_22 
ROOT
HETATM    1  N   UNL     1      -5.063   3.537 -32.704  1.00  0.00    -0.348 N 
HETATM    2  C   UNL     1      -5.008   2.522 -31.774  1.00  0.00     0.252 C 
HETATM    3  O   UNL     1      -4.925   2.720 -30.568  1.00  0.00    -0.268 OA
HETATM    4  H   UNL     1      -5.190   3.326 -33.683  1.00  0.00     0.163 HD
ENDROOT
BRANCH   1   5
HETATM    5  C   UNL     1      -4.977   4.942 -32.329  1.00  0.00     0.120 C 
BRANCH   5   6
HETATM    6  C   UNL     1      -3.675   5.585 -32.793  1.00  0.00    -0.033 A 
HETATM    7  C   UNL     1      -2.780   4.824 -33.565  1.00  0.00     0.009 A 
HETATM    8  C   UNL     1      -1.556   5.355 -33.971  1.00  0.00     0.003 A 
HETATM    9  C   UNL     1      -1.217   6.660 -33.622  1.00  0.00     0.037 A 
HETATM   10  C   UNL     1      -2.098   7.444 -32.877  1.00  0.00     0.068 A 
HETATM   11  C   UNL     1      -3.313   6.900 -32.447  1.00  0.00     0.046 A 
BRANCH  10  12
HETATM   12  O   UNL     1      -1.657   8.711 -32.608  1.00  0.00    -0.356 OA
HETATM   13  C   UNL     1      -2.020   9.241 -31.338  1.00  0.00     0.210 C 
ENDBRANCH  10  12
ENDBRANCH   5   6
BRANCH   5  14
HETATM   14  C   UNL     1      -6.177   5.719 -32.891  1.00  0.00     0.056 C 
BRANCH  14  15
HETATM   15  C   UNL     1      -6.967   4.899 -33.906  1.00  0.00     0.166 C 
BRANCH  15  16
HETATM   16  O   UNL     1      -8.133   5.617 -34.296  1.00  0.00    -0.401 OA
HETATM   17  H   UNL     1      -7.855   6.329 -34.897  1.00  0.00     0.209 HD
ENDBRANCH  15  16
ENDBRANCH  14  15
ENDBRANCH   5  14
ENDBRANCH   1   5
BRANCH   2  18
HETATM   18  C   UNL     1      -5.122   1.129 -32.297  1.00  0.00     0.032 A 
HETATM   19  C   UNL     1      -4.435   0.048 -31.735  1.00  0.00     0.018 A 
HETATM   20  C   UNL     1      -4.544  -1.228 -32.303  1.00  0.00     0.013 A 
HETATM   21  C   UNL     1      -5.348  -1.460 -33.433  1.00  0.00    -0.026 A 
HETATM   22  C   UNL     1      -6.059  -0.371 -33.962  1.00  0.00     0.013 A 
HETATM   23  C   UNL     1      -5.951   0.907 -33.401  1.00  0.00     0.018 A 
BRANCH  21  24
HETATM   24  C   UNL     1      -5.430  -2.797 -34.048  1.00  0.00    -0.023 A 
HETATM   25  C   UNL     1      -4.373  -3.711 -33.954  1.00  0.00     0.031 A 
HETATM   26  C   UNL     1      -4.497  -4.951 -34.561  1.00  0.00     0.117 A 
HETATM   27  N   UNL     1      -5.585  -5.345 -35.251  1.00  0.00    -0.273 NA
HETATM   28  C   UNL     1      -6.598  -4.459 -35.334  1.00  0.00     0.117 A 
HETATM   29  C   UNL     1      -6.568  -3.197 -34.759  1.00  0.00     0.031 A 
ENDBRANCH  21  24
ENDBRANCH   2  18
TORSDOF 8
ENDMDL
MODEL 3
REMARK VINA RESULT:      -8.0      1.741      2.494
REMARK  8 active torsions:
REMARK  status: ('A' for Active; 'I' for Inactive)
REMARK    1  A    between atoms: O_2  and  C_3 
REMARK    2  A    between atoms: C_7  and  C_9 
REMARK    3  A    between atoms: C_9  and  C_10 
REMARK    4  A    between atoms: C_9  and  N_13 
REMARK    5  A    between atoms: C_10  and  C_11 
REMARK    6  A    between atoms: C_11  and  O_12 
REMARK       I    between atoms: N_13  and  C_14 
REMARK    7  A    between atoms: C_14  and  C_16 
REMARK    8  A    between atoms: C_19  and  C_22 
ROOT
HETATM    1  N   UNL     1      -4.221   3.158 -31.598  1.00  0.00    -0.348 N 
HETATM    2  C   UNL     1      -5.184   2.904 -32.550  1.00  0.00     0.252 C 
HETATM    3  O   UNL     1      -5.907   3.773 -33.023  1.00  0.00    -0.268 OA
HETATM    4  H   UNL     1      -3.609   2.421 -31.282  1.00  0.00     0.163 HD
ENDROOT
BRANCH   1   5
HETATM    5  C   UNL     1      -4.015   4.486 -31.033  1.00  0.00     0.120 C 
BRANCH   5   6
HETATM    6  C   UNL     1      -3.079   5.336 -31.884  1.00  0.00    -0.033 A 
HETATM    7  C   UNL     1      -2.288   4.704 -32.859  1.00  0.00     0.009 A 
HETATM    8  C   UNL     1      -1.383   5.436 -33.628  1.00  0.00     0.003 A 
HETATM    9  C   UNL     1      -1.266   6.811 -33.440  1.00  0.00     0.037 A 
HETATM   10  C   UNL     1      -2.057   7.464 -32.495  1.00  0.00     0.068 A 
HETATM   11  C   UNL     1      -2.944   6.725 -31.706  1.00  0.00     0.046 A 
BRANCH  10  12
HETATM   12  O   UNL     1      -1.859   8.815 -32.412  1.00  0.00    -0.356 OA
HETATM   13  C   UNL     1      -2.303   9.439 -31.213  1.00  0.00     0.210 C 
ENDBRANCH  10  12
ENDBRANCH   5   6
BRANCH   5  14
HETATM   14  C   UNL     1      -5.361   5.204 -30.853  1.00  0.00     0.056 C 
BRANCH  14  15
HETATM   15  C   UNL     1      -5.928   5.016 -29.450  1.00  0.00     0.166 C 
BRANCH  15  16
HETATM   16  O   UNL     1      -5.354   3.858 -28.854  1.00  0.00    -0.401 OA
HETATM   17  H   UNL     1      -4.962   4.127 -28.005  1.00  0.00     0.209 HD
ENDBRANCH  15  16
ENDBRANCH  14  15
ENDBRANCH   5  14
ENDBRANCH   1   5
BRANCH   2  18
HETATM   18  C   UNL     1      -5.275   1.502 -33.051  1.00  0.00     0.032 A 
HETATM   19  C   UNL     1      -6.303   1.060 -33.891  1.00  0.00     0.018 A 
HETATM   20  C   UNL     1      -6.362  -0.282 -34.288  1.00  0.00     0.013 A 
HETATM   21  C   UNL     1      -5.394  -1.212 -33.868  1.00  0.00    -0.026 A 
HETATM   22  C   UNL     1      -4.349  -0.744 -33.054  1.00  0.00     0.013 A 
HETATM   23  C   UNL     1      -4.288   0.595 -32.653  1.00  0.00     0.018 A 
BRANCH  21  24
HETATM   24  C   UNL     1      -5.481  -2.631 -34.258  1.00  0.00    -0.023 A 
HETATM   25  C   UNL     1      -4.410  -3.511 -34.059  1.00  0.00     0.031 A 
HETATM   26  C   UNL     1      -4.539  -4.833 -34.456  1.00  0.00     0.117 A 
HETATM   27  N   UNL     1      -5.647  -5.340 -35.032  1.00  0.00    -0.273 NA
HETATM   28  C   UNL     1      -6.674  -4.485 -35.216  1.00  0.00     0.117 A 
HETATM   29  C   UNL     1      -6.639  -3.148 -34.852  1.00  0.00     0.031 A 
ENDBRANCH  21  24
ENDBRANCH   2  18
TORSDOF 8
ENDMDL
MODEL 4
REMARK VINA RESULT:      -7.8      4.209      6.702
REMARK  8 active torsions:
REMARK  status: ('A' for Active; 'I' for Inactive)
REMARK    1  A    between atoms: O_2  and  C_3 
REMARK    2  A    between atoms: C_7  and  C_9 
REMARK    3  A    between atoms: C_9  and  C_10 
REMARK    4  A    between atoms: C_9  and  N_13 
REMARK    5  A    between atoms: C_10  and  C_11 
REMARK    6  A    between atoms: C_11  and  O_12 
REMARK       I    between atoms: N_13  and  C_14 
REMARK    7  A    between atoms: C_14  and  C_16 
REMARK    8  A    between atoms: C_19  and  C_22 
ROOT
HETATM    1  N   UNL     1      -8.380   3.162 -32.933  1.00  0.00    -0.348 N 
HETATM    2  C   UNL     1      -7.259   2.962 -33.710  1.00  0.00     0.252 C 
HETATM    3  O   UNL     1      -6.568   3.878 -34.140  1.00  0.00    -0.268 OA
HETATM    4  H   UNL     1      -8.884   2.375 -32.552  1.00  0.00     0.163 HD
ENDROOT
BRANCH   1   5
HETATM    5  C   UNL     1      -8.867   4.493 -32.597  1.00  0.00     0.120 C 
BRANCH   5   6
HETATM    6  C   UNL     1     -10.248   4.767 -33.181  1.00  0.00    -0.033 A 
HETATM    7  C   UNL     1     -10.897   5.971 -32.853  1.00  0.00     0.009 A 
HETATM    8  C   UNL     1     -12.180   6.242 -33.326  1.00  0.00     0.003 A 
HETATM    9  C   UNL     1     -12.827   5.319 -34.145  1.00  0.00     0.037 A 
HETATM   10  C   UNL     1     -12.195   4.129 -34.504  1.00  0.00     0.068 A 
HETATM   11  C   UNL     1     -10.919   3.846 -34.005  1.00  0.00     0.046 A 
BRANCH  10  12
HETATM   12  O   UNL     1     -12.927   3.311 -35.320  1.00  0.00    -0.356 OA
HETATM   13  C   UNL     1     -12.728   1.913 -35.143  1.00  0.00     0.210 C 
ENDBRANCH  10  12
ENDBRANCH   5   6
BRANCH   5  14
HETATM   14  C   UNL     1      -8.893   4.683 -31.072  1.00  0.00     0.056 C 
BRANCH  14  15
HETATM   15  C   UNL     1      -8.634   3.378 -30.327  1.00  0.00     0.166 C 
BRANCH  15  16
HETATM   16  O   UNL     1      -9.811   2.578 -30.340  1.00  0.00    -0.401 OA
HETATM   17  H   UNL     1     -10.020   2.345 -29.419  1.00  0.00     0.209 HD
ENDBRANCH  15  16
ENDBRANCH  14  15
ENDBRANCH   5  14
ENDBRANCH   1   5
BRANCH   2  18
HETATM   18  C   UNL     1      -6.865   1.546 -33.963  1.00  0.00     0.032 A 
HETATM   19  C   UNL     1      -7.512   0.734 -34.901  1.00  0.00     0.018 A 
HETATM   20  C   UNL     1      -7.129  -0.605 -35.058  1.00  0.00     0.013 A 
HETATM   21  C   UNL     1      -6.087  -1.161 -34.295  1.00  0.00    -0.026 A 
HETATM   22  C   UNL     1      -5.424  -0.322 -33.385  1.00  0.00     0.013 A 
HETATM   23  C   UNL     1      -5.806   1.014 -33.221  1.00  0.00     0.018 A 
BRANCH  21  24
HETATM   24  C   UNL     1      -5.712  -2.580 -34.438  1.00  0.00    -0.023 A 
HETATM   25  C   UNL     1      -6.605  -3.523 -34.962  1.00  0.00     0.031 A 
HETATM   26  C   UNL     1      -6.207  -4.847 -35.063  1.00  0.00     0.117 A 
HETATM   27  N   UNL     1      -4.996  -5.299 -34.684  1.00  0.00    -0.273 NA
HETATM   28  C   UNL     1      -4.142  -4.383 -34.183  1.00  0.00     0.117 A 
HETATM   29  C   UNL     1      -4.449  -3.038 -34.044  1.00  0.00     0.031 A 
ENDBRANCH  21  24
ENDBRANCH   2  18
TORSDOF 8
ENDMDL
MODEL 5
REMARK VINA RESULT:      -7.7     16.154     17.969
REMARK  8 active torsions:
REMARK  status: ('A' for Active; 'I' for Inactive)
REMARK    1  A    between atoms: O_2  and  C_3 
REMARK    2  A    between atoms: C_7  and  C_9 
REMARK    3  A    between atoms: C_9  and  C_10 
REMARK    4  A    between atoms: C_9  and  N_13 
REMARK    5  A    between atoms: C_10  and  C_11 
REMARK    6  A    between atoms: C_11  and  O_12 
REMARK       I    between atoms: N_13  and  C_14 
REMARK    7  A    between atoms: C_14  and  C_16 
REMARK    8  A    between atoms: C_19  and  C_22 
ROOT
HETATM    1  N   UNL     1      -2.596 -13.508 -39.030  1.00  0.00    -0.348 N 
HETATM    2  C   UNL     1      -3.375 -12.400 -38.778  1.00  0.00     0.252 C 
HETATM    3  O   UNL     1      -2.916 -11.325 -38.409  1.00  0.00    -0.268 OA
HETATM    4  H   UNL     1      -3.012 -14.354 -39.389  1.00  0.00     0.163 HD
ENDROOT
BRANCH   1   5
HETATM    5  C   UNL     1      -1.152 -13.507 -38.829  1.00  0.00     0.120 C 
BRANCH   5   6
HETATM    6  C   UNL     1      -0.732 -14.389 -37.660  1.00  0.00    -0.033 A 
HETATM    7  C   UNL     1      -1.456 -14.312 -36.457  1.00  0.00     0.009 A 
HETATM    8  C   UNL     1      -1.078 -15.065 -35.346  1.00  0.00     0.003 A 
HETATM    9  C   UNL     1       0.022 -15.917 -35.426  1.00  0.00     0.037 A 
HETATM   10  C   UNL     1       0.741 -16.030 -36.616  1.00  0.00     0.068 A 
HETATM   11  C   UNL     1       0.378 -15.252 -37.720  1.00  0.00     0.046 A 
BRANCH  10  12
HETATM   12  O   UNL     1       1.791 -16.906 -36.574  1.00  0.00    -0.356 OA
HETATM   13  C   UNL     1       1.594 -18.078 -35.792  1.00  0.00     0.210 C 
ENDBRANCH  10  12
ENDBRANCH   5   6
BRANCH   5  14
HETATM   14  C   UNL     1      -0.434 -13.955 -40.111  1.00  0.00     0.056 C 
BRANCH  14  15
HETATM   15  C   UNL     1      -1.370 -14.687 -41.067  1.00  0.00     0.166 C 
BRANCH  15  16
HETATM   16  O   UNL     1      -2.156 -13.741 -41.784  1.00  0.00    -0.401 OA
HETATM   17  H   UNL     1      -2.335 -14.113 -42.665  1.00  0.00     0.209 HD
ENDBRANCH  15  16
ENDBRANCH  14  15
ENDBRANCH   5  14
ENDBRANCH   1   5
BRANCH   2  18
HETATM   18  C   UNL     1      -4.837 -12.537 -39.041  1.00  0.00     0.032 A 
HETATM   19  C   UNL     1      -5.759 -12.880 -38.047  1.00  0.00     0.018 A 
HETATM   20  C   UNL     1      -7.113 -13.043 -38.368  1.00  0.00     0.013 A 
HETATM   21  C   UNL     1      -7.582 -12.857 -39.680  1.00  0.00    -0.026 A 
HETATM   22  C   UNL     1      -6.649 -12.477 -40.659  1.00  0.00     0.013 A 
HETATM   23  C   UNL     1      -5.295 -12.317 -40.345  1.00  0.00     0.018 A 
BRANCH  21  24
HETATM   24  C   UNL     1      -9.001 -13.066 -40.019  1.00  0.00    -0.023 A 
HETATM   25  C   UNL     1      -9.921 -12.010 -39.997  1.00  0.00     0.031 A 
HETATM   26  C   UNL     1     -11.247 -12.262 -40.312  1.00  0.00     0.117 A 
HETATM   27  N   UNL     1     -11.722 -13.479 -40.643  1.00  0.00    -0.273 NA
HETATM   28  C   UNL     1     -10.829 -14.489 -40.665  1.00  0.00     0.117 A 
HETATM   29  C   UNL     1      -9.483 -14.334 -40.366  1.00  0.00     0.031 A 
ENDBRANCH  21  24
ENDBRANCH   2  18
TORSDOF 8
ENDMDL
MODEL 6
REMARK VINA RESULT:      -7.6      2.446      3.637
REMARK  8 active torsions:
REMARK  status: ('A' for Active; 'I' for Inactive)
REMARK    1  A    between atoms: O_2  and  C_3 
REMARK    2  A    between atoms: C_7  and  C_9 
REMARK    3  A    between atoms: C_9  and  C_10 
REMARK    4  A    between atoms: C_9  and  N_13 
REMARK    5  A    between atoms: C_10  and  C_11 
REMARK    6  A    between atoms: C_11  and  O_12 
REMARK       I    between atoms: N_13  and  C_14 
REMARK    7  A    between atoms: C_14  and  C_16 
REMARK    8  A    between atoms: C_19  and  C_22 
ROOT
HETATM    1  N   UNL     1      -2.649   5.424 -31.741  1.00  0.00    -0.348 N 
HETATM    2  C   UNL     1      -3.881   4.907 -31.402  1.00  0.00     0.252 C 
HETATM    3  O   UNL     1      -4.688   5.502 -30.699  1.00  0.00    -0.268 OA
HETATM    4  H   UNL     1      -2.041   4.924 -32.371  1.00  0.00     0.163 HD
ENDROOT
BRANCH   1   5
HETATM    5  C   UNL     1      -2.182   6.713 -31.245  1.00  0.00     0.120 C 
BRANCH   5   6
HETATM    6  C   UNL     1      -1.339   6.575 -29.983  1.00  0.00    -0.033 A 
HETATM    7  C   UNL     1      -0.172   5.792 -30.029  1.00  0.00     0.009 A 
HETATM    8  C   UNL     1       0.603   5.599 -28.886  1.00  0.00     0.003 A 
HETATM    9  C   UNL     1       0.231   6.198 -27.685  1.00  0.00     0.037 A 
HETATM   10  C   UNL     1      -0.909   7.000 -27.621  1.00  0.00     0.068 A 
HETATM   11  C   UNL     1      -1.702   7.169 -28.760  1.00  0.00     0.046 A 
BRANCH  10  12
HETATM   12  O   UNL     1      -1.164   7.541 -26.390  1.00  0.00    -0.356 OA
HETATM   13  C   UNL     1      -2.348   7.090 -25.743  1.00  0.00     0.210 C 
ENDBRANCH  10  12
ENDBRANCH   5   6
BRANCH   5  14
HETATM   14  C   UNL     1      -1.384   7.446 -32.334  1.00  0.00     0.056 C 
BRANCH  14  15
HETATM   15  C   UNL     1      -1.311   6.645 -33.630  1.00  0.00     0.166 C 
BRANCH  15  16
HETATM   16  O   UNL     1      -2.296   7.120 -34.541  1.00  0.00    -0.401 OA
HETATM   17  H   UNL     1      -1.931   7.902 -34.990  1.00  0.00     0.209 HD
ENDBRANCH  15  16
ENDBRANCH  14  15
ENDBRANCH   5  14
ENDBRANCH   1   5
BRANCH   2  18
HETATM   18  C   UNL     1      -4.235   3.584 -31.993  1.00  0.00     0.032 A 
HETATM   19  C   UNL     1      -5.414   3.366 -32.714  1.00  0.00     0.018 A 
HETATM   20  C   UNL     1      -5.715   2.087 -33.201  1.00  0.00     0.013 A 
HETATM   21  C   UNL     1      -4.846   1.002 -32.993  1.00  0.00    -0.026 A 
HETATM   22  C   UNL     1      -3.651   1.246 -32.299  1.00  0.00     0.013 A 
HETATM   23  C   UNL     1      -3.347   2.520 -31.806  1.00  0.00     0.018 A 
BRANCH  21  24
HETATM   24  C   UNL     1      -5.186  -0.349 -33.476  1.00  0.00    -0.023 A 
HETATM   25  C   UNL     1      -4.211  -1.347 -33.602  1.00  0.00     0.031 A 
HETATM   26  C   UNL     1      -4.582  -2.597 -34.074  1.00  0.00     0.117 A 
HETATM   27  N   UNL     1      -5.840  -2.924 -34.427  1.00  0.00    -0.273 NA
HETATM   28  C   UNL     1      -6.772  -1.958 -34.300  1.00  0.00     0.117 A 
HETATM   29  C   UNL     1      -6.498  -0.680 -33.838  1.00  0.00     0.031 A 
ENDBRANCH  21  24
ENDBRANCH   2  18
TORSDOF 8
ENDMDL
MODEL 7
REMARK VINA RESULT:      -7.6      2.620      8.577
REMARK  8 active torsions:
REMARK  status: ('A' for Active; 'I' for Inactive)
REMARK    1  A    between atoms: O_2  and  C_3 
REMARK    2  A    between atoms: C_7  and  C_9 
REMARK    3  A    between atoms: C_9  and  C_10 
REMARK    4  A    between atoms: C_9  and  N_13 
REMARK    5  A    between atoms: C_10  and  C_11 
REMARK    6  A    between atoms: C_11  and  O_12 
REMARK       I    between atoms: N_13  and  C_14 
REMARK    7  A    between atoms: C_14  and  C_16 
REMARK    8  A    between atoms: C_19  and  C_22 
ROOT
HETATM    1  N   UNL     1      -6.049   1.147 -33.238  1.00  0.00    -0.348 N 
HETATM    2  C   UNL     1      -6.089   2.501 -33.491  1.00  0.00     0.252 C 
HETATM    3  O   UNL     1      -6.970   3.036 -34.154  1.00  0.00    -0.268 OA
HETATM    4  H   UNL     1      -5.336   0.761 -32.638  1.00  0.00     0.163 HD
ENDROOT
BRANCH   1   5
HETATM    5  C   UNL     1      -7.036   0.224 -33.784  1.00  0.00     0.120 C 
BRANCH   5   6
HETATM    6  C   UNL     1      -6.447  -1.155 -34.058  1.00  0.00    -0.033 A 
HETATM    7  C   UNL     1      -7.196  -2.075 -34.812  1.00  0.00     0.009 A 
HETATM    8  C   UNL     1      -6.718  -3.363 -35.047  1.00  0.00     0.003 A 
HETATM    9  C   UNL     1      -5.477  -3.745 -34.542  1.00  0.00     0.037 A 
HETATM   10  C   UNL     1      -4.704  -2.843 -33.811  1.00  0.00     0.068 A 
HETATM   11  C   UNL     1      -5.198  -1.560 -33.553  1.00  0.00     0.046 A 
BRANCH  10  12
HETATM   12  O   UNL     1      -3.501  -3.332 -33.379  1.00  0.00    -0.356 OA
HETATM   13  C   UNL     1      -3.359  -4.747 -33.403  1.00  0.00     0.210 C 
ENDBRANCH  10  12
ENDBRANCH   5   6
BRANCH   5  14
HETATM   14  C   UNL     1      -8.238   0.104 -32.835  1.00  0.00     0.056 C 
BRANCH  14  15
HETATM   15  C   UNL     1      -9.497   0.733 -33.421  1.00  0.00     0.166 C 
BRANCH  15  16
HETATM   16  O   UNL     1      -9.215   1.244 -34.720  1.00  0.00    -0.401 OA
HETATM   17  H   UNL     1      -8.431   0.777 -35.057  1.00  0.00     0.209 HD
ENDBRANCH  15  16
ENDBRANCH  14  15
ENDBRANCH   5  14
ENDBRANCH   1   5
BRANCH   2  18
HETATM   18  C   UNL     1      -5.024   3.331 -32.857  1.00  0.00     0.032 A 
HETATM   19  C   UNL     1      -5.188   4.691 -32.574  1.00  0.00     0.018 A 
HETATM   20  C   UNL     1      -4.132   5.429 -32.022  1.00  0.00     0.013 A 
HETATM   21  C   UNL     1      -2.895   4.828 -31.729  1.00  0.00    -0.026 A 
HETATM   22  C   UNL     1      -2.759   3.454 -31.986  1.00  0.00     0.013 A 
HETATM   23  C   UNL     1      -3.809   2.714 -32.540  1.00  0.00     0.018 A 
BRANCH  21  24
HETATM   24  C   UNL     1      -1.775   5.617 -31.184  1.00  0.00    -0.023 A 
HETATM   25  C   UNL     1      -0.448   5.348 -31.542  1.00  0.00     0.031 A 
HETATM   26  C   UNL     1       0.568   6.112 -30.990  1.00  0.00     0.117 A 
HETATM   27  N   UNL     1       0.364   7.115 -30.114  1.00  0.00    -0.273 NA
HETATM   28  C   UNL     1      -0.917   7.368 -29.777  1.00  0.00     0.117 A 
HETATM   29  C   UNL     1      -2.000   6.660 -30.276  1.00  0.00     0.031 A 
ENDBRANCH  21  24
ENDBRANCH   2  18
TORSDOF 8
ENDMDL
MODEL 8
REMARK VINA RESULT:      -7.6      4.260      7.090
REMARK  8 active torsions:
REMARK  status: ('A' for Active; 'I' for Inactive)
REMARK    1  A    between atoms: O_2  and  C_3 
REMARK    2  A    between atoms: C_7  and  C_9 
REMARK    3  A    between atoms: C_9  and  C_10 
REMARK    4  A    between atoms: C_9  and  N_13 
REMARK    5  A    between atoms: C_10  and  C_11 
REMARK    6  A    between atoms: C_11  and  O_12 
REMARK       I    between atoms: N_13  and  C_14 
REMARK    7  A    between atoms: C_14  and  C_16 
REMARK    8  A    between atoms: C_19  and  C_22 
ROOT
HETATM    1  N   UNL     1      -8.693   3.094 -33.535  1.00  0.00    -0.348 N 
HETATM    2  C   UNL     1      -7.362   2.892 -33.832  1.00  0.00     0.252 C 
HETATM    3  O   UNL     1      -6.538   3.797 -33.872  1.00  0.00    -0.268 OA
HETATM    4  H   UNL     1      -9.323   2.311 -33.455  1.00  0.00     0.163 HD
ENDROOT
BRANCH   1   5
HETATM    5  C   UNL     1      -9.243   4.422 -33.292  1.00  0.00     0.120 C 
BRANCH   5   6
HETATM    6  C   UNL     1     -10.524   4.669 -34.080  1.00  0.00    -0.033 A 
HETATM    7  C   UNL     1     -11.033   3.637 -34.889  1.00  0.00     0.009 A 
HETATM    8  C   UNL     1     -12.175   3.835 -35.664  1.00  0.00     0.003 A 
HETATM    9  C   UNL     1     -12.833   5.062 -35.630  1.00  0.00     0.037 A 
HETATM   10  C   UNL     1     -12.362   6.093 -34.817  1.00  0.00     0.068 A 
HETATM   11  C   UNL     1     -11.200   5.903 -34.062  1.00  0.00     0.046 A 
BRANCH  10  12
HETATM   12  O   UNL     1     -13.100   7.245 -34.861  1.00  0.00    -0.356 OA
HETATM   13  C   UNL     1     -14.388   7.138 -35.454  1.00  0.00     0.210 C 
ENDBRANCH  10  12
ENDBRANCH   5   6
BRANCH   5  14
HETATM   14  C   UNL     1      -9.500   4.626 -31.791  1.00  0.00     0.056 C 
BRANCH  14  15
HETATM   15  C   UNL     1     -10.425   3.558 -31.216  1.00  0.00     0.166 C 
BRANCH  15  16
HETATM   16  O   UNL     1      -9.654   2.581 -30.526  1.00  0.00    -0.401 OA
HETATM   17  H   UNL     1      -9.399   2.959 -29.667  1.00  0.00     0.209 HD
ENDBRANCH  15  16
ENDBRANCH  14  15
ENDBRANCH   5  14
ENDBRANCH   1   5
BRANCH   2  18
HETATM   18  C   UNL     1      -6.932   1.479 -34.043  1.00  0.00     0.032 A 
HETATM   19  C   UNL     1      -7.612   0.597 -34.890  1.00  0.00     0.018 A 
HETATM   20  C   UNL     1      -7.189  -0.733 -35.008  1.00  0.00     0.013 A 
HETATM   21  C   UNL     1      -6.074  -1.212 -34.298  1.00  0.00    -0.026 A 
HETATM   22  C   UNL     1      -5.381  -0.304 -33.481  1.00  0.00     0.013 A 
HETATM   23  C   UNL     1      -5.802   1.025 -33.356  1.00  0.00     0.018 A 
BRANCH  21  24
HETATM   24  C   UNL     1      -5.655  -2.622 -34.398  1.00  0.00    -0.023 A 
HETATM   25  C   UNL     1      -4.401  -3.046 -33.941  1.00  0.00     0.031 A 
HETATM   26  C   UNL     1      -4.051  -4.381 -34.071  1.00  0.00     0.117 A 
HETATM   27  N   UNL     1      -4.850  -5.318 -34.618  1.00  0.00    -0.273 NA
HETATM   28  C   UNL     1      -6.057  -4.900 -35.052  1.00  0.00     0.117 A 
HETATM   29  C   UNL     1      -6.496  -3.588 -34.965  1.00  0.00     0.031 A 
ENDBRANCH  21  24
ENDBRANCH   2  18
TORSDOF 8
ENDMDL
MODEL 9
REMARK VINA RESULT:      -7.6      4.505     10.873
REMARK  8 active torsions:
REMARK  status: ('A' for Active; 'I' for Inactive)
REMARK    1  A    between atoms: O_2  and  C_3 
REMARK    2  A    between atoms: C_7  and  C_9 
REMARK    3  A    between atoms: C_9  and  C_10 
REMARK    4  A    between atoms: C_9  and  N_13 
REMARK    5  A    between atoms: C_10  and  C_11 
REMARK    6  A    between atoms: C_11  and  O_12 
REMARK       I    between atoms: N_13  and  C_14 
REMARK    7  A    between atoms: C_14  and  C_16 
REMARK    8  A    between atoms: C_19  and  C_22 
ROOT
HETATM    1  N   UNL     1      -1.113   5.882 -30.858  1.00  0.00    -0.348 N 
HETATM    2  C   UNL     1      -0.140   5.456 -29.980  1.00  0.00     0.252 C 
HETATM    3  O   UNL     1       0.383   4.350 -30.042  1.00  0.00    -0.268 OA
HETATM    4  H   UNL     1      -1.473   6.823 -30.804  1.00  0.00     0.163 HD
ENDROOT
BRANCH   1   5
HETATM    5  C   UNL     1      -1.639   5.025 -31.913  1.00  0.00     0.120 C 
BRANCH   5   6
HETATM    6  C   UNL     1      -2.925   4.321 -31.498  1.00  0.00    -0.033 A 
HETATM    7  C   UNL     1      -3.997   5.094 -31.018  1.00  0.00     0.009 A 
HETATM    8  C   UNL     1      -5.175   4.489 -30.583  1.00  0.00     0.003 A 
HETATM    9  C   UNL     1      -5.303   3.103 -30.634  1.00  0.00     0.037 A 
HETATM   10  C   UNL     1      -4.263   2.316 -31.128  1.00  0.00     0.068 A 
HETATM   11  C   UNL     1      -3.072   2.923 -31.538  1.00  0.00     0.046 A 
BRANCH  10  12
HETATM   12  O   UNL     1      -4.513   0.971 -31.138  1.00  0.00    -0.356 OA
HETATM   13  C   UNL     1      -5.146   0.462 -32.306  1.00  0.00     0.210 C 
ENDBRANCH  10  12
ENDBRANCH   5   6
BRANCH   5  14
HETATM   14  C   UNL     1      -1.874   5.840 -33.195  1.00  0.00     0.056 C 
BRANCH  14  15
HETATM   15  C   UNL     1      -0.974   7.069 -33.266  1.00  0.00     0.166 C 
BRANCH  15  16
HETATM   16  O   UNL     1      -1.743   8.239 -33.006  1.00  0.00    -0.401 OA
HETATM   17  H   UNL     1      -2.070   8.180 -32.092  1.00  0.00     0.209 HD
ENDBRANCH  15  16
ENDBRANCH  14  15
ENDBRANCH   5  14
ENDBRANCH   1   5
BRANCH   2  18
HETATM   18  C   UNL     1       0.316   6.442 -28.958  1.00  0.00     0.032 A 
HETATM   19  C   UNL     1       0.858   7.687 -29.292  1.00  0.00     0.018 A 
HETATM   20  C   UNL     1       1.316   8.550 -28.288  1.00  0.00     0.013 A 
HETATM   21  C   UNL     1       1.232   8.199 -26.929  1.00  0.00    -0.026 A 
HETATM   22  C   UNL     1       0.651   6.962 -26.608  1.00  0.00     0.013 A 
HETATM   23  C   UNL     1       0.196   6.094 -27.608  1.00  0.00     0.018 A 
BRANCH  21  24
HETATM   24  C   UNL     1       1.748   9.095 -25.878  1.00  0.00    -0.023 A 
HETATM   25  C   UNL     1       2.666   8.647 -24.921  1.00  0.00     0.031 A 
HETATM   26  C   UNL     1       3.110   9.527 -23.946  1.00  0.00     0.117 A 
HETATM   27  N   UNL     1       2.710  10.810 -23.853  1.00  0.00    -0.273 NA
HETATM   28  C   UNL     1       1.828  11.233 -24.781  1.00  0.00     0.117 A 
HETATM   29  C   UNL     1       1.328  10.429 -25.794  1.00  0.00     0.031 A 
ENDBRANCH  21  24
ENDBRANCH   2  18
TORSDOF 8
ENDMDL
MODEL 10
REMARK VINA RESULT:      -7.5      3.792      9.996
REMARK  8 active torsions:
REMARK  status: ('A' for Active; 'I' for Inactive)
REMARK    1  A    between atoms: O_2  and  C_3 
REMARK    2  A    between atoms: C_7  and  C_9 
REMARK    3  A    between atoms: C_9  and  C_10 
REMARK    4  A    between atoms: C_9  and  N_13 
REMARK    5  A    between atoms: C_10  and  C_11 
REMARK    6  A    between atoms: C_11  and  O_12 
REMARK       I    between atoms: N_13  and  C_14 
REMARK    7  A    between atoms: C_14  and  C_16 
REMARK    8  A    between atoms: C_19  and  C_22 
ROOT
HETATM    1  N   UNL     1      -2.538   4.722 -31.250  1.00  0.00    -0.348 N 
HETATM    2  C   UNL     1      -1.309   5.282 -31.525  1.00  0.00     0.252 C 
HETATM    3  O   UNL     1      -0.772   5.217 -32.624  1.00  0.00    -0.268 OA
HETATM    4  H   UNL     1      -2.968   4.853 -30.347  1.00  0.00     0.163 HD
ENDROOT
BRANCH   1   5
HETATM    5  C   UNL     1      -3.284   3.957 -32.240  1.00  0.00     0.120 C 
BRANCH   5   6
HETATM    6  C   UNL     1      -4.008   2.766 -31.624  1.00  0.00    -0.033 A 
HETATM    7  C   UNL     1      -5.040   3.003 -30.699  1.00  0.00     0.009 A 
HETATM    8  C   UNL     1      -5.697   1.944 -30.075  1.00  0.00     0.003 A 
HETATM    9  C   UNL     1      -5.340   0.631 -30.377  1.00  0.00     0.037 A 
HETATM   10  C   UNL     1      -4.336   0.370 -31.309  1.00  0.00     0.068 A 
HETATM   11  C   UNL     1      -3.659   1.434 -31.913  1.00  0.00     0.046 A 
BRANCH  10  12
HETATM   12  O   UNL     1      -4.085  -0.957 -31.528  1.00  0.00    -0.356 OA
HETATM   13  C   UNL     1      -2.759  -1.283 -31.927  1.00  0.00     0.210 C 
ENDBRANCH  10  12
ENDBRANCH   5   6
BRANCH   5  14
HETATM   14  C   UNL     1      -4.288   4.863 -32.970  1.00  0.00     0.056 C 
BRANCH  14  15
HETATM   15  C   UNL     1      -3.908   5.080 -34.431  1.00  0.00     0.166 C 
BRANCH  15  16
HETATM   16  O   UNL     1      -3.098   6.245 -34.546  1.00  0.00    -0.401 OA
HETATM   17  H   UNL     1      -3.327   6.838 -33.809  1.00  0.00     0.209 HD
ENDBRANCH  15  16
ENDBRANCH  14  15
ENDBRANCH   5  14
ENDBRANCH   1   5
BRANCH   2  18
HETATM   18  C   UNL     1      -0.664   6.052 -30.422  1.00  0.00     0.032 A 
HETATM   19  C   UNL     1       0.244   5.479 -29.525  1.00  0.00     0.018 A 
HETATM   20  C   UNL     1       0.778   6.241 -28.479  1.00  0.00     0.013 A 
HETATM   21  C   UNL     1       0.432   7.593 -28.308  1.00  0.00    -0.026 A 
HETATM   22  C   UNL     1      -0.453   8.163 -29.239  1.00  0.00     0.013 A 
HETATM   23  C   UNL     1      -0.992   7.405 -30.283  1.00  0.00     0.018 A 
BRANCH  21  24
HETATM   24  C   UNL     1       0.968   8.381 -27.184  1.00  0.00    -0.023 A 
HETATM   25  C   UNL     1       0.630   9.729 -27.008  1.00  0.00     0.031 A 
HETATM   26  C   UNL     1       1.172  10.428 -25.941  1.00  0.00     0.117 A 
HETATM   27  N   UNL     1       2.022   9.889 -25.043  1.00  0.00    -0.273 NA
HETATM   28  C   UNL     1       2.339   8.591 -25.220  1.00  0.00     0.117 A 
HETATM   29  C   UNL     1       1.847   7.810 -26.255  1.00  0.00     0.031 A 
ENDBRANCH  21  24
ENDBRANCH   2  18
TORSDOF 8
ENDMDL
