MODEL 1
REMARK VINA RESULT:     -10.0      0.000      0.000
REMARK  7 active torsions:
REMARK  status: ('A' for Active; 'I' for Inactive)
REMARK    1  A    between atoms: C_3  and  C_4 
REMARK    2  A    between atoms: C_4  and  N_5 
REMARK    3  A    between atoms: C_9  and  C_10 
REMARK    4  A    between atoms: C_9  and  C_28 
REMARK    5  A    between atoms: N_13  and  C_15 
REMARK    6  A    between atoms: C_15  and  C_16 
REMARK    7  A    between atoms: C_28  and  C_29 
ROOT
HETATM    1  C   UNL     1      -1.396   5.460 -34.512  1.00  0.00     0.112 C 
HETATM    2  C   UNL     1      -2.671   4.982 -33.974  1.00  0.00    -0.109 C 
HETATM    3  C   UNL     1      -3.821   4.607 -33.486  1.00  0.00    -0.087 C 
ENDROOT
BRANCH   3   4
HETATM    4  C   UNL     1      -5.160   4.170 -32.917  1.00  0.00     0.230 C 
BRANCH   4   5
HETATM    5  N   UNL     1      -5.210   2.769 -32.591  1.00  0.00    -0.257 N 
HETATM    6  C   UNL     1      -4.489   2.197 -31.592  1.00  0.00     0.327 C 
HETATM    7  O   UNL     1      -3.792   2.749 -30.763  1.00  0.00    -0.247 OA
HETATM    8  N   UNL     1      -4.653   0.834 -31.670  1.00  0.00    -0.324 N 
HETATM    9  C   UNL     1      -5.412   0.412 -32.835  1.00  0.00     0.123 C 
HETATM   10  H   UNL     1      -4.110   0.223 -31.067  1.00  0.00     0.165 HD
HETATM   11  C   UNL     1      -5.706   1.810 -33.419  1.00  0.00     0.257 C 
HETATM   12  O   UNL     1      -6.300   2.013 -34.468  1.00  0.00    -0.270 OA
BRANCH   9  13
HETATM   13  C   UNL     1      -6.678  -0.392 -32.382  1.00  0.00     0.027 C 
HETATM   14  C   UNL     1      -7.565  -0.976 -33.493  1.00  0.00     0.035 C 
HETATM   15  C   UNL     1      -8.554  -0.015 -34.141  1.00  0.00     0.235 C 
HETATM   16  N   UNL     1      -9.298   0.829 -33.136  1.00  0.00    -0.067 N 
HETATM   17  H   UNL     1     -10.028   0.225 -32.736  1.00  0.00     0.280 HD
HETATM   18  C   UNL     1      -8.493   1.380 -31.992  1.00  0.00     0.235 C 
HETATM   19  C   UNL     1      -7.602   0.320 -31.375  1.00  0.00     0.035 C 
BRANCH  16  20
HETATM   20  C   UNL     1     -10.027   1.984 -33.817  1.00  0.00     0.273 C 
BRANCH  20  21
HETATM   21  C   UNL     1     -11.521   1.935 -33.683  1.00  0.00    -0.030 A 
HETATM   22  C   UNL     1     -12.185   2.800 -32.800  1.00  0.00     0.048 A 
HETATM   23  C   UNL     1     -13.571   2.737 -32.671  1.00  0.00     0.102 A 
HETATM   24  C   UNL     1     -14.305   1.795 -33.394  1.00  0.00     0.102 A 
HETATM   25  O   UNL     1     -14.144   3.632 -31.806  1.00  0.00    -0.346 OA
HETATM   26  O   UNL     1     -15.663   1.657 -33.291  1.00  0.00    -0.346 OA
HETATM   27  C   UNL     1     -13.657   0.941 -34.283  1.00  0.00     0.040 A 
HETATM   28  C   UNL     1     -16.179   2.348 -32.146  1.00  0.00     0.202 C 
HETATM   29  C   UNL     1     -15.558   3.731 -32.025  1.00  0.00     0.202 C 
HETATM   30  C   UNL     1     -12.270   1.010 -34.428  1.00  0.00     0.012 A 
ENDBRANCH  20  21
ENDBRANCH  16  20
ENDBRANCH   9  13
BRANCH   9  31
HETATM   31  C   UNL     1      -4.504  -0.298 -33.877  1.00  0.00     0.080 C 
BRANCH  31  32
HETATM   32  C   UNL     1      -4.179  -1.744 -33.587  1.00  0.00    -0.052 A 
HETATM   33  C   UNL     1      -3.502  -2.111 -32.418  1.00  0.00     0.049 A 
HETATM   34  C   UNL     1      -3.224  -3.451 -32.164  1.00  0.00     0.116 A 
HETATM   35  F   UNL     1      -2.569  -3.782 -31.043  1.00  0.00    -0.206 F 
HETATM   36  C   UNL     1      -3.614  -4.446 -33.050  1.00  0.00     0.042 A 
HETATM   37  C   UNL     1      -4.298  -4.096 -34.210  1.00  0.00     0.003 A 
HETATM   38  C   UNL     1      -4.579  -2.753 -34.478  1.00  0.00     0.007 A 
ENDBRANCH  31  32
ENDBRANCH   9  31
ENDBRANCH   4   5
ENDBRANCH   3   4
TORSDOF 7
ENDMDL
MODEL 2
REMARK VINA RESULT:      -9.6      5.015      8.853
REMARK  7 active torsions:
REMARK  status: ('A' for Active; 'I' for Inactive)
REMARK    1  A    between atoms: C_3  and  C_4 
REMARK    2  A    between atoms: C_4  and  N_5 
REMARK    3  A    between atoms: C_9  and  C_10 
REMARK    4  A    between atoms: C_9  and  C_28 
REMARK    5  A    between atoms: N_13  and  C_15 
REMARK    6  A    between atoms: C_15  and  C_16 
REMARK    7  A    between atoms: C_28  and  C_29 
ROOT
HETATM    1  C   UNL     1      -0.685  11.152 -27.182  1.00  0.00     0.112 C 
HETATM    2  C   UNL     1      -1.664  10.546 -28.087  1.00  0.00    -0.109 C 
HETATM    3  C   UNL     1      -2.546  10.056 -28.912  1.00  0.00    -0.087 C 
ENDROOT
BRANCH   3   4
HETATM    4  C   UNL     1      -3.575   9.485 -29.874  1.00  0.00     0.230 C 
BRANCH   4   5
HETATM    5  N   UNL     1      -3.179   8.226 -30.446  1.00  0.00    -0.257 N 
HETATM    6  C   UNL     1      -3.272   7.036 -29.798  1.00  0.00     0.327 C 
HETATM    7  O   UNL     1      -3.780   6.810 -28.717  1.00  0.00    -0.247 OA
HETATM    8  N   UNL     1      -2.659   6.077 -30.571  1.00  0.00    -0.324 N 
HETATM    9  C   UNL     1      -1.999   6.621 -31.746  1.00  0.00     0.123 C 
HETATM   10  H   UNL     1      -2.537   5.136 -30.208  1.00  0.00     0.165 HD
HETATM   11  C   UNL     1      -2.380   8.102 -31.540  1.00  0.00     0.257 C 
HETATM   12  O   UNL     1      -2.014   9.019 -32.262  1.00  0.00    -0.270 OA
BRANCH   9  13
HETATM   13  C   UNL     1      -2.590   5.963 -33.039  1.00  0.00     0.027 C 
HETATM   14  C   UNL     1      -4.121   5.951 -33.177  1.00  0.00     0.035 C 
HETATM   15  C   UNL     1      -4.857   4.850 -32.425  1.00  0.00     0.235 C 
HETATM   16  N   UNL     1      -4.212   3.495 -32.587  1.00  0.00    -0.067 N 
HETATM   17  H   UNL     1      -4.489   3.153 -33.515  1.00  0.00     0.280 HD
HETATM   18  C   UNL     1      -2.711   3.452 -32.520  1.00  0.00     0.235 C 
HETATM   19  C   UNL     1      -2.083   4.544 -33.364  1.00  0.00     0.035 C 
BRANCH  16  20
HETATM   20  C   UNL     1      -4.771   2.495 -31.579  1.00  0.00     0.273 C 
BRANCH  20  21
HETATM   21  C   UNL     1      -5.344   1.253 -32.197  1.00  0.00    -0.030 A 
HETATM   22  C   UNL     1      -4.506   0.316 -32.819  1.00  0.00     0.048 A 
HETATM   23  C   UNL     1      -5.048  -0.827 -33.404  1.00  0.00     0.102 A 
HETATM   24  C   UNL     1      -6.430  -1.033 -33.401  1.00  0.00     0.102 A 
HETATM   25  O   UNL     1      -4.160  -1.703 -33.970  1.00  0.00    -0.346 OA
HETATM   26  O   UNL     1      -7.031  -2.116 -33.984  1.00  0.00    -0.346 OA
HETATM   27  C   UNL     1      -7.269  -0.116 -32.773  1.00  0.00     0.040 A 
HETATM   28  C   UNL     1      -6.132  -2.816 -34.853  1.00  0.00     0.202 C 
HETATM   29  C   UNL     1      -4.768  -2.982 -34.200  1.00  0.00     0.202 C 
HETATM   30  C   UNL     1      -6.729   1.023 -32.173  1.00  0.00     0.012 A 
ENDBRANCH  20  21
ENDBRANCH  16  20
ENDBRANCH   9  13
BRANCH   9  31
HETATM   31  C   UNL     1      -0.453   6.559 -31.608  1.00  0.00     0.080 C 
BRANCH  31  32
HETATM   32  C   UNL     1       0.085   6.659 -30.201  1.00  0.00    -0.052 A 
HETATM   33  C   UNL     1       0.586   7.867 -29.704  1.00  0.00     0.049 A 
HETATM   34  C   UNL     1       1.065   7.941 -28.399  1.00  0.00     0.116 A 
HETATM   35  F   UNL     1       1.548   9.105 -27.944  1.00  0.00    -0.206 F 
HETATM   36  C   UNL     1       1.050   6.831 -27.564  1.00  0.00     0.042 A 
HETATM   37  C   UNL     1       0.543   5.626 -28.042  1.00  0.00     0.003 A 
HETATM   38  C   UNL     1       0.064   5.539 -29.352  1.00  0.00     0.007 A 
ENDBRANCH  31  32
ENDBRANCH   9  31
ENDBRANCH   4   5
ENDBRANCH   3   4
TORSDOF 7
ENDMDL
MODEL 3
REMARK VINA RESULT:      -9.5      2.076      2.940
REMARK  7 active torsions:
REMARK  status: ('A' for Active; 'I' for Inactive)
REMARK    1  A    between atoms: C_3  and  C_4 
REMARK    2  A    between atoms: C_4  and  N_5 
REMARK    3  A    between atoms: C_9  and  C_10 
REMARK    4  A    between atoms: C_9  and  C_28 
REMARK    5  A    between atoms: N_13  and  C_15 
REMARK    6  A    between atoms: C_15  and  C_16 
REMARK    7  A    between atoms: C_28  and  C_29 
ROOT
HETATM    1  C   UNL     1      -8.649   5.574 -29.628  1.00  0.00     0.112 C 
HETATM    2  C   UNL     1      -7.608   4.627 -30.032  1.00  0.00    -0.109 C 
HETATM    3  C   UNL     1      -6.652   3.826 -30.412  1.00  0.00    -0.087 C 
ENDROOT
BRANCH   3   4
HETATM    4  C   UNL     1      -5.538   2.892 -30.855  1.00  0.00     0.230 C 
BRANCH   4   5
HETATM    5  N   UNL     1      -6.021   1.664 -31.428  1.00  0.00    -0.257 N 
HETATM    6  C   UNL     1      -6.004   0.468 -30.785  1.00  0.00     0.327 C 
HETATM    7  O   UNL     1      -5.697   0.245 -29.630  1.00  0.00    -0.247 OA
HETATM    8  N   UNL     1      -6.383  -0.506 -31.678  1.00  0.00    -0.324 N 
HETATM    9  C   UNL     1      -6.555  -0.009 -33.032  1.00  0.00     0.123 C 
HETATM   10  H   UNL     1      -6.335  -1.485 -31.410  1.00  0.00     0.165 HD
HETATM   11  C   UNL     1      -6.241   1.476 -32.758  1.00  0.00     0.257 C 
HETATM   12  O   UNL     1      -6.201   2.347 -33.616  1.00  0.00    -0.270 OA
BRANCH   9  13
HETATM   13  C   UNL     1      -8.016  -0.293 -33.521  1.00  0.00     0.027 C 
HETATM   14  C   UNL     1      -8.520   0.525 -34.721  1.00  0.00     0.035 C 
HETATM   15  C   UNL     1      -9.023   1.930 -34.415  1.00  0.00     0.235 C 
HETATM   16  N   UNL     1      -9.929   1.980 -33.209  1.00  0.00    -0.067 N 
HETATM   17  H   UNL     1     -10.845   1.636 -33.522  1.00  0.00     0.280 HD
HETATM   18  C   UNL     1      -9.518   1.151 -32.024  1.00  0.00     0.235 C 
HETATM   19  C   UNL     1      -9.109  -0.249 -32.436  1.00  0.00     0.035 C 
BRANCH  16  20
HETATM   20  C   UNL     1     -10.148   3.416 -32.743  1.00  0.00     0.273 C 
BRANCH  20  21
HETATM   21  C   UNL     1     -11.560   3.724 -32.338  1.00  0.00    -0.030 A 
HETATM   22  C   UNL     1     -12.619   2.918 -32.780  1.00  0.00     0.048 A 
HETATM   23  C   UNL     1     -13.929   3.219 -32.411  1.00  0.00     0.102 A 
HETATM   24  C   UNL     1     -14.200   4.341 -31.624  1.00  0.00     0.102 A 
HETATM   25  O   UNL     1     -14.902   2.369 -32.865  1.00  0.00    -0.346 OA
HETATM   26  O   UNL     1     -15.463   4.713 -31.253  1.00  0.00    -0.346 OA
HETATM   27  C   UNL     1     -13.154   5.140 -31.169  1.00  0.00     0.040 A 
HETATM   28  C   UNL     1     -16.463   4.027 -32.016  1.00  0.00     0.202 C 
HETATM   29  C   UNL     1     -16.127   2.549 -32.140  1.00  0.00     0.202 C 
HETATM   30  C   UNL     1     -11.839   4.834 -31.523  1.00  0.00     0.012 A 
ENDBRANCH  20  21
ENDBRANCH  16  20
ENDBRANCH   9  13
BRANCH   9  31
HETATM   31  C   UNL     1      -5.424  -0.514 -33.970  1.00  0.00     0.080 C 
BRANCH  31  32
HETATM   32  C   UNL     1      -5.369  -2.007 -34.187  1.00  0.00    -0.052 A 
HETATM   33  C   UNL     1      -4.234  -2.747 -33.834  1.00  0.00     0.049 A 
HETATM   34  C   UNL     1      -4.210  -4.125 -34.031  1.00  0.00     0.116 A 
HETATM   35  F   UNL     1      -3.112  -4.814 -33.693  1.00  0.00    -0.206 F 
HETATM   36  C   UNL     1      -5.301  -4.793 -34.569  1.00  0.00     0.042 A 
HETATM   37  C   UNL     1      -6.441  -4.071 -34.913  1.00  0.00     0.003 A 
HETATM   38  C   UNL     1      -6.475  -2.687 -34.725  1.00  0.00     0.007 A 
ENDBRANCH  31  32
ENDBRANCH   9  31
ENDBRANCH   4   5
ENDBRANCH   3   4
TORSDOF 7
ENDMDL
MODEL 4
REMARK VINA RESULT:      -9.5      1.397      2.225
REMARK  7 active torsions:
REMARK  status: ('A' for Active; 'I' for Inactive)
REMARK    1  A    between atoms: C_3  and  C_4 
REMARK    2  A    between atoms: C_4  and  N_5 
REMARK    3  A    between atoms: C_9  and  C_10 
REMARK    4  A    between atoms: C_9  and  C_28 
REMARK    5  A    between atoms: N_13  and  C_15 
REMARK    6  A    between atoms: C_15  and  C_16 
REMARK    7  A    between atoms: C_28  and  C_29 
ROOT
HETATM    1  C   UNL     1      -9.644   6.109 -31.469  1.00  0.00     0.112 C 
HETATM    2  C   UNL     1      -8.366   5.510 -31.861  1.00  0.00    -0.109 C 
HETATM    3  C   UNL     1      -7.218   4.969 -32.157  1.00  0.00    -0.087 C 
ENDROOT
BRANCH   3   4
HETATM    4  C   UNL     1      -5.878   4.339 -32.503  1.00  0.00     0.230 C 
BRANCH   4   5
HETATM    5  N   UNL     1      -5.838   2.921 -32.258  1.00  0.00    -0.257 N 
HETATM    6  C   UNL     1      -5.302   2.359 -31.144  1.00  0.00     0.327 C 
HETATM    7  O   UNL     1      -4.879   2.921 -30.152  1.00  0.00    -0.247 OA
HETATM    8  N   UNL     1      -5.286   0.995 -31.317  1.00  0.00    -0.324 N 
HETATM    9  C   UNL     1      -5.706   0.578 -32.643  1.00  0.00     0.123 C 
HETATM   10  H   UNL     1      -4.827   0.403 -30.630  1.00  0.00     0.165 HD
HETATM   11  C   UNL     1      -6.019   1.975 -33.219  1.00  0.00     0.257 C 
HETATM   12  O   UNL     1      -6.380   2.187 -34.368  1.00  0.00    -0.270 OA
BRANCH   9  13
HETATM   13  C   UNL     1      -6.941  -0.380 -32.533  1.00  0.00     0.027 C 
HETATM   14  C   UNL     1      -7.655  -0.749 -33.842  1.00  0.00     0.035 C 
HETATM   15  C   UNL     1      -8.648   0.274 -34.380  1.00  0.00     0.235 C 
HETATM   16  N   UNL     1      -9.562   0.823 -33.311  1.00  0.00    -0.067 N 
HETATM   17  H   UNL     1     -10.276   0.103 -33.143  1.00  0.00     0.280 HD
HETATM   18  C   UNL     1      -8.929   1.147 -31.987  1.00  0.00     0.235 C 
HETATM   19  C   UNL     1      -8.021   0.029 -31.513  1.00  0.00     0.035 C 
BRANCH  16  20
HETATM   20  C   UNL     1     -10.309   2.058 -33.806  1.00  0.00     0.273 C 
BRANCH  20  21
HETATM   21  C   UNL     1     -11.800   1.978 -33.655  1.00  0.00    -0.030 A 
HETATM   22  C   UNL     1     -12.481   2.878 -32.823  1.00  0.00     0.048 A 
HETATM   23  C   UNL     1     -13.864   2.785 -32.676  1.00  0.00     0.102 A 
HETATM   24  C   UNL     1     -14.577   1.780 -33.332  1.00  0.00     0.102 A 
HETATM   25  O   UNL     1     -14.455   3.717 -31.864  1.00  0.00    -0.346 OA
HETATM   26  O   UNL     1     -15.930   1.613 -33.208  1.00  0.00    -0.346 OA
HETATM   27  C   UNL     1     -13.912   0.890 -34.172  1.00  0.00     0.040 A 
HETATM   28  C   UNL     1     -16.457   2.360 -32.104  1.00  0.00     0.202 C 
HETATM   29  C   UNL     1     -15.873   3.764 -32.076  1.00  0.00     0.202 C 
HETATM   30  C   UNL     1     -12.529   0.987 -34.334  1.00  0.00     0.012 A 
ENDBRANCH  20  21
ENDBRANCH  16  20
ENDBRANCH   9  13
BRANCH   9  31
HETATM   31  C   UNL     1      -4.510   0.037 -33.474  1.00  0.00     0.080 C 
BRANCH  31  32
HETATM   32  C   UNL     1      -4.135  -1.404 -33.224  1.00  0.00    -0.052 A 
HETATM   33  C   UNL     1      -4.500  -2.412 -34.124  1.00  0.00     0.049 A 
HETATM   34  C   UNL     1      -4.134  -3.732 -33.881  1.00  0.00     0.116 A 
HETATM   35  F   UNL     1      -4.498  -4.683 -34.750  1.00  0.00    -0.206 F 
HETATM   36  C   UNL     1      -3.398  -4.077 -32.755  1.00  0.00     0.042 A 
HETATM   37  C   UNL     1      -3.018  -3.083 -31.857  1.00  0.00     0.003 A 
HETATM   38  C   UNL     1      -3.385  -1.754 -32.089  1.00  0.00     0.007 A 
ENDBRANCH  31  32
ENDBRANCH   9  31
ENDBRANCH   4   5
ENDBRANCH   3   4
TORSDOF 7
ENDMDL
MODEL 5
REMARK VINA RESULT:      -9.4      2.600      3.335
REMARK  7 active torsions:
REMARK  status: ('A' for Active; 'I' for Inactive)
REMARK    1  A    between atoms: C_3  and  C_4 
REMARK    2  A    between atoms: C_4  and  N_5 
REMARK    3  A    between atoms: C_9  and  C_10 
REMARK    4  A    between atoms: C_9  and  C_28 
REMARK    5  A    between atoms: N_13  and  C_15 
REMARK    6  A    between atoms: C_15  and  C_16 
REMARK    7  A    between atoms: C_28  and  C_29 
ROOT
HETATM    1  C   UNL     1      -5.900   5.715 -29.782  1.00  0.00     0.112 C 
HETATM    2  C   UNL     1      -5.240   4.622 -30.497  1.00  0.00    -0.109 C 
HETATM    3  C   UNL     1      -4.694   3.616 -31.122  1.00  0.00    -0.087 C 
ENDROOT
BRANCH   3   4
HETATM    4  C   UNL     1      -4.058   2.443 -31.850  1.00  0.00     0.230 C 
BRANCH   4   5
HETATM    5  N   UNL     1      -4.977   1.363 -32.099  1.00  0.00    -0.257 N 
HETATM    6  C   UNL     1      -4.874   0.134 -31.530  1.00  0.00     0.327 C 
HETATM    7  O   UNL     1      -4.097  -0.229 -30.669  1.00  0.00    -0.247 OA
HETATM    8  N   UNL     1      -5.811  -0.688 -32.112  1.00  0.00    -0.324 N 
HETATM    9  C   UNL     1      -6.518  -0.062 -33.217  1.00  0.00     0.123 C 
HETATM   10  H   UNL     1      -5.823  -1.679 -31.890  1.00  0.00     0.165 HD
HETATM   11  C   UNL     1      -5.840   1.322 -33.150  1.00  0.00     0.257 C 
HETATM   12  O   UNL     1      -6.057   2.240 -33.929  1.00  0.00    -0.270 OA
BRANCH   9  13
HETATM   13  C   UNL     1      -8.057  -0.056 -32.927  1.00  0.00     0.027 C 
HETATM   14  C   UNL     1      -8.966   0.560 -34.004  1.00  0.00     0.035 C 
HETATM   15  C   UNL     1      -9.080   2.079 -34.001  1.00  0.00     0.235 C 
HETATM   16  N   UNL     1      -9.285   2.650 -32.619  1.00  0.00    -0.067 N 
HETATM   17  H   UNL     1     -10.275   2.498 -32.388  1.00  0.00     0.280 HD
HETATM   18  C   UNL     1      -8.466   2.046 -31.513  1.00  0.00     0.235 C 
HETATM   19  C   UNL     1      -8.484   0.531 -31.568  1.00  0.00     0.035 C 
BRANCH  16  20
HETATM   20  C   UNL     1      -9.072   4.161 -32.610  1.00  0.00     0.273 C 
BRANCH  20  21
HETATM   21  C   UNL     1     -10.002   4.920 -33.512  1.00  0.00    -0.030 A 
HETATM   22  C   UNL     1     -11.378   4.958 -33.245  1.00  0.00     0.048 A 
HETATM   23  C   UNL     1     -12.236   5.652 -34.096  1.00  0.00     0.102 A 
HETATM   24  C   UNL     1     -11.738   6.288 -35.236  1.00  0.00     0.102 A 
HETATM   25  O   UNL     1     -13.562   5.661 -33.752  1.00  0.00    -0.346 OA
HETATM   26  O   UNL     1     -12.528   6.959 -36.130  1.00  0.00    -0.346 OA
HETATM   27  C   UNL     1     -10.371   6.266 -35.502  1.00  0.00     0.040 A 
HETATM   28  C   UNL     1     -13.916   6.658 -35.939  1.00  0.00     0.202 C 
HETATM   29  C   UNL     1     -14.276   6.683 -34.462  1.00  0.00     0.202 C 
HETATM   30  C   UNL     1      -9.506   5.586 -34.645  1.00  0.00     0.012 A 
ENDBRANCH  20  21
ENDBRANCH  16  20
ENDBRANCH   9  13
BRANCH   9  31
HETATM   31  C   UNL     1      -6.094  -0.674 -34.581  1.00  0.00     0.080 C 
BRANCH  31  32
HETATM   32  C   UNL     1      -5.818  -2.158 -34.576  1.00  0.00    -0.052 A 
HETATM   33  C   UNL     1      -4.549  -2.655 -34.255  1.00  0.00     0.049 A 
HETATM   34  C   UNL     1      -4.318  -4.028 -34.244  1.00  0.00     0.116 A 
HETATM   35  F   UNL     1      -3.096  -4.483 -33.941  1.00  0.00    -0.206 F 
HETATM   36  C   UNL     1      -5.332  -4.928 -34.542  1.00  0.00     0.042 A 
HETATM   37  C   UNL     1      -6.602  -4.449 -34.852  1.00  0.00     0.003 A 
HETATM   38  C   UNL     1      -6.844  -3.072 -34.870  1.00  0.00     0.007 A 
ENDBRANCH  31  32
ENDBRANCH   9  31
ENDBRANCH   4   5
ENDBRANCH   3   4
TORSDOF 7
ENDMDL
MODEL 6
REMARK VINA RESULT:      -9.2      3.331      7.853
REMARK  7 active torsions:
REMARK  status: ('A' for Active; 'I' for Inactive)
REMARK    1  A    between atoms: C_3  and  C_4 
REMARK    2  A    between atoms: C_4  and  N_5 
REMARK    3  A    between atoms: C_9  and  C_10 
REMARK    4  A    between atoms: C_9  and  C_28 
REMARK    5  A    between atoms: N_13  and  C_15 
REMARK    6  A    between atoms: C_15  and  C_16 
REMARK    7  A    between atoms: C_28  and  C_29 
ROOT
HETATM    1  C   UNL     1      -5.907  -3.013 -34.884  1.00  0.00     0.112 C 
HETATM    2  C   UNL     1      -6.796  -1.851 -34.812  1.00  0.00    -0.109 C 
HETATM    3  C   UNL     1      -7.557  -0.798 -34.707  1.00  0.00    -0.087 C 
ENDROOT
BRANCH   3   4
HETATM    4  C   UNL     1      -8.444   0.430 -34.584  1.00  0.00     0.230 C 
BRANCH   4   5
HETATM    5  N   UNL     1      -8.011   1.343 -33.560  1.00  0.00    -0.257 N 
HETATM    6  C   UNL     1      -6.930   2.157 -33.677  1.00  0.00     0.327 C 
HETATM    7  O   UNL     1      -6.232   2.337 -34.656  1.00  0.00    -0.247 OA
HETATM    8  N   UNL     1      -6.716   2.765 -32.462  1.00  0.00    -0.324 N 
HETATM    9  C   UNL     1      -7.593   2.276 -31.412  1.00  0.00     0.123 C 
HETATM   10  H   UNL     1      -5.889   3.338 -32.321  1.00  0.00     0.165 HD
HETATM   11  C   UNL     1      -8.408   1.277 -32.260  1.00  0.00     0.257 C 
HETATM   12  O   UNL     1      -9.280   0.542 -31.819  1.00  0.00    -0.270 OA
BRANCH   9  13
HETATM   13  C   UNL     1      -8.423   3.464 -30.816  1.00  0.00     0.027 C 
HETATM   14  C   UNL     1      -9.073   4.430 -31.819  1.00  0.00     0.035 C 
HETATM   15  C   UNL     1      -8.168   5.510 -32.398  1.00  0.00     0.235 C 
HETATM   16  N   UNL     1      -7.316   6.186 -31.352  1.00  0.00    -0.067 N 
HETATM   17  H   UNL     1      -7.930   6.852 -30.867  1.00  0.00     0.280 HD
HETATM   18  C   UNL     1      -6.701   5.297 -30.308  1.00  0.00     0.235 C 
HETATM   19  C   UNL     1      -7.710   4.314 -29.747  1.00  0.00     0.035 C 
BRANCH  16  20
HETATM   20  C   UNL     1      -6.209   7.017 -31.995  1.00  0.00     0.273 C 
BRANCH  20  21
HETATM   21  C   UNL     1      -4.852   6.378 -31.945  1.00  0.00    -0.030 A 
HETATM   22  C   UNL     1      -3.857   6.884 -31.096  1.00  0.00     0.048 A 
HETATM   23  C   UNL     1      -2.595   6.293 -31.068  1.00  0.00     0.102 A 
HETATM   24  C   UNL     1      -2.302   5.214 -31.906  1.00  0.00     0.102 A 
HETATM   25  O   UNL     1      -1.688   6.832 -30.194  1.00  0.00    -0.346 OA
HETATM   26  O   UNL     1      -1.076   4.608 -31.952  1.00  0.00    -0.346 OA
HETATM   27  C   UNL     1      -3.287   4.696 -32.742  1.00  0.00     0.040 A 
HETATM   28  C   UNL     1      -0.070   5.398 -31.304  1.00  0.00     0.202 C 
HETATM   29  C   UNL     1      -0.583   5.943 -29.980  1.00  0.00     0.202 C 
HETATM   30  C   UNL     1      -4.557   5.274 -32.763  1.00  0.00     0.012 A 
ENDBRANCH  20  21
ENDBRANCH  16  20
ENDBRANCH   9  13
BRANCH   9  31
HETATM   31  C   UNL     1      -6.815   1.416 -30.378  1.00  0.00     0.080 C 
BRANCH  31  32
HETATM   32  C   UNL     1      -5.504   0.840 -30.857  1.00  0.00    -0.052 A 
HETATM   33  C   UNL     1      -5.431  -0.463 -31.363  1.00  0.00     0.049 A 
HETATM   34  C   UNL     1      -4.215  -0.971 -31.812  1.00  0.00     0.116 A 
HETATM   35  F   UNL     1      -4.164  -2.223 -32.285  1.00  0.00    -0.206 F 
HETATM   36  C   UNL     1      -3.059  -0.203 -31.777  1.00  0.00     0.042 A 
HETATM   37  C   UNL     1      -3.120   1.099 -31.287  1.00  0.00     0.003 A 
HETATM   38  C   UNL     1      -4.335   1.618 -30.830  1.00  0.00     0.007 A 
ENDBRANCH  31  32
ENDBRANCH   9  31
ENDBRANCH   4   5
ENDBRANCH   3   4
TORSDOF 7
ENDMDL
MODEL 7
REMARK VINA RESULT:      -9.1      3.633      8.744
REMARK  7 active torsions:
REMARK  status: ('A' for Active; 'I' for Inactive)
REMARK    1  A    between atoms: C_3  and  C_4 
REMARK    2  A    between atoms: C_4  and  N_5 
REMARK    3  A    between atoms: C_9  and  C_10 
REMARK    4  A    between atoms: C_9  and  C_28 
REMARK    5  A    between atoms: N_13  and  C_15 
REMARK    6  A    between atoms: C_15  and  C_16 
REMARK    7  A    between atoms: C_28  and  C_29 
ROOT
HETATM    1  C   UNL     1      -6.848   5.846 -28.039  1.00  0.00     0.112 C 
HETATM    2  C   UNL     1      -7.551   6.153 -29.286  1.00  0.00    -0.109 C 
HETATM    3  C   UNL     1      -8.164   6.377 -30.415  1.00  0.00    -0.087 C 
ENDROOT
BRANCH   3   4
HETATM    4  C   UNL     1      -8.878   6.638 -31.731  1.00  0.00     0.230 C 
BRANCH   4   5
HETATM    5  N   UNL     1      -9.291   5.434 -32.402  1.00  0.00    -0.257 N 
HETATM    6  C   UNL     1      -8.782   5.015 -33.590  1.00  0.00     0.327 C 
HETATM    7  O   UNL     1      -7.859   5.494 -34.219  1.00  0.00    -0.247 OA
HETATM    8  N   UNL     1      -9.513   3.929 -34.010  1.00  0.00    -0.324 N 
HETATM    9  C   UNL     1     -10.656   3.641 -33.161  1.00  0.00     0.123 C 
HETATM   10  H   UNL     1      -9.349   3.534 -34.932  1.00  0.00     0.165 HD
HETATM   11  C   UNL     1     -10.435   4.755 -32.117  1.00  0.00     0.257 C 
HETATM   12  O   UNL     1     -11.182   4.983 -31.176  1.00  0.00    -0.270 OA
BRANCH   9  13
HETATM   13  C   UNL     1     -10.547   2.182 -32.600  1.00  0.00     0.027 C 
HETATM   14  C   UNL     1      -9.513   1.940 -31.488  1.00  0.00     0.035 C 
HETATM   15  C   UNL     1      -8.070   1.747 -31.940  1.00  0.00     0.235 C 
HETATM   16  N   UNL     1      -7.944   0.810 -33.117  1.00  0.00    -0.067 N 
HETATM   17  H   UNL     1      -8.034  -0.142 -32.739  1.00  0.00     0.280 HD
HETATM   18  C   UNL     1      -8.965   0.960 -34.210  1.00  0.00     0.235 C 
HETATM   19  C   UNL     1     -10.369   1.068 -33.650  1.00  0.00     0.035 C 
BRANCH  16  20
HETATM   20  C   UNL     1      -6.552   0.892 -33.739  1.00  0.00     0.273 C 
BRANCH  20  21
HETATM   21  C   UNL     1      -5.861  -0.433 -33.876  1.00  0.00    -0.030 A 
HETATM   22  C   UNL     1      -6.548  -1.547 -34.380  1.00  0.00     0.048 A 
HETATM   23  C   UNL     1      -5.903  -2.776 -34.490  1.00  0.00     0.102 A 
HETATM   24  C   UNL     1      -4.577  -2.917 -34.072  1.00  0.00     0.102 A 
HETATM   25  O   UNL     1      -6.638  -3.807 -35.013  1.00  0.00    -0.346 OA
HETATM   26  O   UNL     1      -3.894  -4.102 -34.123  1.00  0.00    -0.346 OA
HETATM   27  C   UNL     1      -3.881  -1.815 -33.584  1.00  0.00     0.040 A 
HETATM   28  C   UNL     1      -4.774  -5.212 -34.337  1.00  0.00     0.202 C 
HETATM   29  C   UNL     1      -5.792  -4.892 -35.420  1.00  0.00     0.202 C 
HETATM   30  C   UNL     1      -4.519  -0.577 -33.486  1.00  0.00     0.012 A 
ENDBRANCH  20  21
ENDBRANCH  16  20
ENDBRANCH   9  13
BRANCH   9  31
HETATM   31  C   UNL     1     -11.994   3.987 -33.871  1.00  0.00     0.080 C 
BRANCH  31  32
HETATM   32  C   UNL     1     -13.191   3.169 -33.451  1.00  0.00    -0.052 A 
HETATM   33  C   UNL     1     -13.653   2.108 -34.239  1.00  0.00     0.049 A 
HETATM   34  C   UNL     1     -14.752   1.359 -33.826  1.00  0.00     0.116 A 
HETATM   35  F   UNL     1     -15.183   0.352 -34.597  1.00  0.00    -0.206 F 
HETATM   36  C   UNL     1     -15.403   1.636 -32.632  1.00  0.00     0.042 A 
HETATM   37  C   UNL     1     -14.946   2.681 -31.833  1.00  0.00     0.003 A 
HETATM   38  C   UNL     1     -13.847   3.444 -32.239  1.00  0.00     0.007 A 
ENDBRANCH  31  32
ENDBRANCH   9  31
ENDBRANCH   4   5
ENDBRANCH   3   4
TORSDOF 7
ENDMDL
MODEL 8
REMARK VINA RESULT:      -9.0      3.993      6.763
REMARK  7 active torsions:
REMARK  status: ('A' for Active; 'I' for Inactive)
REMARK    1  A    between atoms: C_3  and  C_4 
REMARK    2  A    between atoms: C_4  and  N_5 
REMARK    3  A    between atoms: C_9  and  C_10 
REMARK    4  A    between atoms: C_9  and  C_28 
REMARK    5  A    between atoms: N_13  and  C_15 
REMARK    6  A    between atoms: C_15  and  C_16 
REMARK    7  A    between atoms: C_28  and  C_29 
ROOT
HETATM    1  C   UNL     1      -1.245   6.865 -30.964  1.00  0.00     0.112 C 
HETATM    2  C   UNL     1      -2.686   6.896 -30.706  1.00  0.00    -0.109 C 
HETATM    3  C   UNL     1      -3.961   6.891 -30.433  1.00  0.00    -0.087 C 
ENDROOT
BRANCH   3   4
HETATM    4  C   UNL     1      -5.447   6.885 -30.115  1.00  0.00     0.230 C 
BRANCH   4   5
HETATM    5  N   UNL     1      -6.164   5.826 -30.773  1.00  0.00    -0.257 N 
HETATM    6  C   UNL     1      -6.088   4.519 -30.410  1.00  0.00     0.327 C 
HETATM    7  O   UNL     1      -5.519   4.042 -29.447  1.00  0.00    -0.247 OA
HETATM    8  N   UNL     1      -6.764   3.773 -31.347  1.00  0.00    -0.324 N 
HETATM    9  C   UNL     1      -7.230   4.555 -32.479  1.00  0.00     0.123 C 
HETATM   10  H   UNL     1      -6.735   2.758 -31.303  1.00  0.00     0.165 HD
HETATM   11  C   UNL     1      -6.729   5.936 -32.006  1.00  0.00     0.257 C 
HETATM   12  O   UNL     1      -6.832   6.970 -32.651  1.00  0.00    -0.270 OA
BRANCH   9  13
HETATM   13  C   UNL     1      -8.786   4.429 -32.609  1.00  0.00     0.027 C 
HETATM   14  C   UNL     1      -9.525   3.722 -31.461  1.00  0.00     0.035 C 
HETATM   15  C   UNL     1      -9.518   2.199 -31.491  1.00  0.00     0.235 C 
HETATM   16  N   UNL     1      -9.821   1.638 -32.859  1.00  0.00    -0.067 N 
HETATM   17  H   UNL     1     -10.839   1.713 -32.983  1.00  0.00     0.280 HD
HETATM   18  C   UNL     1      -9.173   2.326 -34.028  1.00  0.00     0.235 C 
HETATM   19  C   UNL     1      -9.305   3.833 -33.932  1.00  0.00     0.035 C 
BRANCH  16  20
HETATM   20  C   UNL     1      -9.491   0.149 -32.929  1.00  0.00     0.273 C 
BRANCH  20  21
HETATM   21  C   UNL     1      -8.030  -0.151 -33.092  1.00  0.00    -0.030 A 
HETATM   22  C   UNL     1      -7.119   0.176 -32.077  1.00  0.00     0.048 A 
HETATM   23  C   UNL     1      -5.762  -0.093 -32.243  1.00  0.00     0.102 A 
HETATM   24  C   UNL     1      -5.295  -0.661 -33.431  1.00  0.00     0.102 A 
HETATM   25  O   UNL     1      -4.942   0.235 -31.195  1.00  0.00    -0.346 OA
HETATM   26  O   UNL     1      -3.973  -0.922 -33.672  1.00  0.00    -0.346 OA
HETATM   27  C   UNL     1      -6.193  -1.002 -34.438  1.00  0.00     0.040 A 
HETATM   28  C   UNL     1      -3.122  -0.260 -32.728  1.00  0.00     0.202 C 
HETATM   29  C   UNL     1      -3.665  -0.408 -31.315  1.00  0.00     0.202 C 
HETATM   30  C   UNL     1      -7.555  -0.749 -34.271  1.00  0.00     0.012 A 
ENDBRANCH  20  21
ENDBRANCH  16  20
ENDBRANCH   9  13
BRANCH   9  31
HETATM   31  C   UNL     1      -6.421   4.230 -33.765  1.00  0.00     0.080 C 
BRANCH  31  32
HETATM   32  C   UNL     1      -4.919   4.318 -33.635  1.00  0.00    -0.052 A 
HETATM   33  C   UNL     1      -4.206   5.374 -34.214  1.00  0.00     0.049 A 
HETATM   34  C   UNL     1      -2.822   5.443 -34.072  1.00  0.00     0.116 A 
HETATM   35  F   UNL     1      -2.157   6.458 -34.640  1.00  0.00    -0.206 F 
HETATM   36  C   UNL     1      -2.125   4.482 -33.353  1.00  0.00     0.042 A 
HETATM   37  C   UNL     1      -2.824   3.433 -32.761  1.00  0.00     0.003 A 
HETATM   38  C   UNL     1      -4.213   3.351 -32.902  1.00  0.00     0.007 A 
ENDBRANCH  31  32
ENDBRANCH   9  31
ENDBRANCH   4   5
ENDBRANCH   3   4
TORSDOF 7
ENDMDL
MODEL 9
REMARK VINA RESULT:      -8.9      2.716      5.838
REMARK  7 active torsions:
REMARK  status: ('A' for Active; 'I' for Inactive)
REMARK    1  A    between atoms: C_3  and  C_4 
REMARK    2  A    between atoms: C_4  and  N_5 
REMARK    3  A    between atoms: C_9  and  C_10 
REMARK    4  A    between atoms: C_9  and  C_28 
REMARK    5  A    between atoms: N_13  and  C_15 
REMARK    6  A    between atoms: C_15  and  C_16 
REMARK    7  A    between atoms: C_28  and  C_29 
ROOT
HETATM    1  C   UNL     1      -4.453  -3.033 -34.658  1.00  0.00     0.112 C 
HETATM    2  C   UNL     1      -5.083  -2.031 -33.797  1.00  0.00    -0.109 C 
HETATM    3  C   UNL     1      -5.688  -1.139 -33.063  1.00  0.00    -0.087 C 
ENDROOT
BRANCH   3   4
HETATM    4  C   UNL     1      -6.394  -0.100 -32.207  1.00  0.00     0.230 C 
BRANCH   4   5
HETATM    5  N   UNL     1      -5.965   1.246 -32.481  1.00  0.00    -0.257 N 
HETATM    6  C   UNL     1      -6.169   1.881 -33.664  1.00  0.00     0.327 C 
HETATM    7  O   UNL     1      -6.812   1.493 -34.620  1.00  0.00    -0.247 OA
HETATM    8  N   UNL     1      -5.492   3.078 -33.632  1.00  0.00    -0.324 N 
HETATM    9  C   UNL     1      -4.678   3.246 -32.440  1.00  0.00     0.123 C 
HETATM   10  H   UNL     1      -5.441   3.654 -34.467  1.00  0.00     0.165 HD
HETATM   11  C   UNL     1      -5.041   1.919 -31.742  1.00  0.00     0.257 C 
HETATM   12  O   UNL     1      -4.564   1.539 -30.682  1.00  0.00    -0.270 OA
BRANCH   9  13
HETATM   13  C   UNL     1      -5.123   4.537 -31.671  1.00  0.00     0.027 C 
HETATM   14  C   UNL     1      -5.336   4.404 -30.154  1.00  0.00     0.035 C 
HETATM   15  C   UNL     1      -6.673   3.823 -29.710  1.00  0.00     0.235 C 
HETATM   16  N   UNL     1      -7.847   4.416 -30.449  1.00  0.00    -0.067 N 
HETATM   17  H   UNL     1      -8.019   5.337 -30.026  1.00  0.00     0.280 HD
HETATM   18  C   UNL     1      -7.675   4.625 -31.928  1.00  0.00     0.235 C 
HETATM   19  C   UNL     1      -6.345   5.277 -32.249  1.00  0.00     0.035 C 
BRANCH  16  20
HETATM   20  C   UNL     1      -9.114   3.597 -30.219  1.00  0.00     0.273 C 
BRANCH  20  21
HETATM   21  C   UNL     1      -9.752   3.084 -31.477  1.00  0.00    -0.030 A 
HETATM   22  C   UNL     1     -10.694   3.860 -32.166  1.00  0.00     0.048 A 
HETATM   23  C   UNL     1     -11.293   3.369 -33.324  1.00  0.00     0.102 A 
HETATM   24  C   UNL     1     -10.983   2.089 -33.790  1.00  0.00     0.102 A 
HETATM   25  O   UNL     1     -12.184   4.200 -33.951  1.00  0.00    -0.346 OA
HETATM   26  O   UNL     1     -11.556   1.533 -34.902  1.00  0.00    -0.346 OA
HETATM   27  C   UNL     1     -10.038   1.316 -33.121  1.00  0.00     0.040 A 
HETATM   28  C   UNL     1     -12.714   2.265 -35.323  1.00  0.00     0.202 C 
HETATM   29  C   UNL     1     -12.447   3.762 -35.291  1.00  0.00     0.202 C 
HETATM   30  C   UNL     1      -9.425   1.809 -31.969  1.00  0.00     0.012 A 
ENDBRANCH  20  21
ENDBRANCH  16  20
ENDBRANCH   9  13
BRANCH   9  31
HETATM   31  C   UNL     1      -3.163   3.151 -32.769  1.00  0.00     0.080 C 
BRANCH  31  32
HETATM   32  C   UNL     1      -2.451   4.467 -32.969  1.00  0.00    -0.052 A 
HETATM   33  C   UNL     1      -1.498   4.919 -32.048  1.00  0.00     0.049 A 
HETATM   34  C   UNL     1      -0.844   6.130 -32.258  1.00  0.00     0.116 A 
HETATM   35  F   UNL     1       0.060   6.549 -31.362  1.00  0.00    -0.206 F 
HETATM   36  C   UNL     1      -1.112   6.907 -33.377  1.00  0.00     0.042 A 
HETATM   37  C   UNL     1      -2.049   6.464 -34.306  1.00  0.00     0.003 A 
HETATM   38  C   UNL     1      -2.715   5.252 -34.104  1.00  0.00     0.007 A 
ENDBRANCH  31  32
ENDBRANCH   9  31
ENDBRANCH   4   5
ENDBRANCH   3   4
TORSDOF 7
ENDMDL
MODEL 10
REMARK VINA RESULT:      -8.9      2.811      5.165
REMARK  7 active torsions:
REMARK  status: ('A' for Active; 'I' for Inactive)
REMARK    1  A    between atoms: C_3  and  C_4 
REMARK    2  A    between atoms: C_4  and  N_5 
REMARK    3  A    between atoms: C_9  and  C_10 
REMARK    4  A    between atoms: C_9  and  C_28 
REMARK    5  A    between atoms: N_13  and  C_15 
REMARK    6  A    between atoms: C_15  and  C_16 
REMARK    7  A    between atoms: C_28  and  C_29 
ROOT
HETATM    1  C   UNL     1      -2.338   8.275 -31.868  1.00  0.00     0.112 C 
HETATM    2  C   UNL     1      -2.414   6.902 -32.372  1.00  0.00    -0.109 C 
HETATM    3  C   UNL     1      -2.431   5.686 -32.841  1.00  0.00    -0.087 C 
ENDROOT
BRANCH   3   4
HETATM    4  C   UNL     1      -2.451   4.268 -33.388  1.00  0.00     0.230 C 
BRANCH   4   5
HETATM    5  N   UNL     1      -3.578   3.499 -32.930  1.00  0.00    -0.257 N 
HETATM    6  C   UNL     1      -4.844   3.658 -33.395  1.00  0.00     0.327 C 
HETATM    7  O   UNL     1      -5.221   4.362 -34.312  1.00  0.00    -0.247 OA
HETATM    8  N   UNL     1      -5.683   2.884 -32.629  1.00  0.00    -0.324 N 
HETATM    9  C   UNL     1      -5.016   2.251 -31.504  1.00  0.00     0.123 C 
HETATM   10  H   UNL     1      -6.689   2.946 -32.760  1.00  0.00     0.165 HD
HETATM   11  C   UNL     1      -3.590   2.772 -31.779  1.00  0.00     0.257 C 
HETATM   12  O   UNL     1      -2.622   2.556 -31.064  1.00  0.00    -0.270 OA
BRANCH   9  13
HETATM   13  C   UNL     1      -5.177   0.696 -31.598  1.00  0.00     0.027 C 
HETATM   14  C   UNL     1      -4.846   0.041 -32.948  1.00  0.00     0.035 C 
HETATM   15  C   UNL     1      -5.937   0.098 -34.011  1.00  0.00     0.235 C 
HETATM   16  N   UNL     1      -7.301  -0.256 -33.471  1.00  0.00    -0.067 N 
HETATM   17  H   UNL     1      -7.323  -1.280 -33.392  1.00  0.00     0.280 HD
HETATM   18  C   UNL     1      -7.659   0.308 -32.124  1.00  0.00     0.235 C 
HETATM   19  C   UNL     1      -6.531   0.130 -31.127  1.00  0.00     0.035 C 
BRANCH  16  20
HETATM   20  C   UNL     1      -8.400   0.120 -34.461  1.00  0.00     0.273 C 
BRANCH  20  21
HETATM   21  C   UNL     1      -9.173   1.351 -34.085  1.00  0.00    -0.030 A 
HETATM   22  C   UNL     1     -10.532   1.263 -33.751  1.00  0.00     0.048 A 
HETATM   23  C   UNL     1     -11.246   2.413 -33.418  1.00  0.00     0.102 A 
HETATM   24  C   UNL     1     -10.622   3.663 -33.444  1.00  0.00     0.102 A 
HETATM   25  O   UNL     1     -12.562   2.238 -33.080  1.00  0.00    -0.346 OA
HETATM   26  O   UNL     1     -11.271   4.834 -33.160  1.00  0.00    -0.346 OA
HETATM   27  C   UNL     1      -9.270   3.758 -33.762  1.00  0.00     0.040 A 
HETATM   28  C   UNL     1     -12.694   4.663 -33.157  1.00  0.00     0.202 C 
HETATM   29  C   UNL     1     -13.084   3.396 -32.413  1.00  0.00     0.202 C 
HETATM   30  C   UNL     1      -8.547   2.608 -34.082  1.00  0.00     0.012 A 
ENDBRANCH  20  21
ENDBRANCH  16  20
ENDBRANCH   9  13
BRANCH   9  31
HETATM   31  C   UNL     1      -5.447   2.890 -30.156  1.00  0.00     0.080 C 
BRANCH  31  32
HETATM   32  C   UNL     1      -6.665   3.781 -30.211  1.00  0.00    -0.052 A 
HETATM   33  C   UNL     1      -7.955   3.246 -30.117  1.00  0.00     0.049 A 
HETATM   34  C   UNL     1      -9.064   4.086 -30.158  1.00  0.00     0.116 A 
HETATM   35  F   UNL     1     -10.291   3.554 -30.074  1.00  0.00    -0.206 F 
HETATM   36  C   UNL     1      -8.920   5.461 -30.283  1.00  0.00     0.042 A 
HETATM   37  C   UNL     1      -7.642   6.008 -30.365  1.00  0.00     0.003 A 
HETATM   38  C   UNL     1      -6.521   5.173 -30.330  1.00  0.00     0.007 A 
ENDBRANCH  31  32
ENDBRANCH   9  31
ENDBRANCH   4   5
ENDBRANCH   3   4
TORSDOF 7
ENDMDL
