MODEL 1
REMARK VINA RESULT:     -10.0      0.000      0.000
REMARK  8 active torsions:
REMARK  status: ('A' for Active; 'I' for Inactive)
REMARK    1  A    between atoms: C_2  and  S_3 
REMARK    2  A    between atoms: S_3  and  C_4 
REMARK    3  A    between atoms: C_7  and  C_8 
REMARK    4  A    between atoms: C_8  and  C_9 
REMARK       I    between atoms: C_9  and  N_10 
REMARK    5  A    between atoms: N_10  and  C_11 
REMARK    6  A    between atoms: N_17  and  C_19 
REMARK    7  A    between atoms: C_19  and  C_20 
REMARK    8  A    between atoms: C_27  and  C_28 
REMARK       I    between atoms: C_28  and  N_29 
ROOT
HETATM    1  C   UNL     1      -3.703   3.958 -32.238  1.00  0.00     0.093 A 
HETATM    2  S   UNL     1      -3.513   2.514 -31.357  1.00  0.00    -0.074 SA
HETATM    3  C   UNL     1      -4.830   1.780 -32.116  1.00  0.00     0.018 A 
HETATM    4  C   UNL     1      -5.457   2.622 -33.012  1.00  0.00    -0.023 A 
HETATM    5  C   UNL     1      -6.636   2.152 -33.825  1.00  0.00     0.068 C 
HETATM    6  C   UNL     1      -7.198   0.807 -33.320  1.00  0.00     0.240 C 
HETATM    7  N   UNL     1      -6.100  -0.180 -32.933  1.00  0.00    -0.063 N 
HETATM    8  H   UNL     1      -6.572  -1.005 -32.546  1.00  0.00     0.280 HD
HETATM    9  C   UNL     1      -5.239   0.382 -31.815  1.00  0.00     0.282 C 
HETATM   10  C   UNL     1      -4.821   3.923 -33.066  1.00  0.00     0.073 A 
ENDROOT
BRANCH   1  11
HETATM   11  N   UNL     1      -2.765   4.977 -32.139  1.00  0.00    -0.320 N 
HETATM   12  C   UNL     1      -1.804   5.321 -33.082  1.00  0.00     0.226 C 
HETATM   13  O   UNL     1      -1.531   4.708 -34.111  1.00  0.00    -0.273 OA
HETATM   14  H   UNL     1      -2.786   5.526 -31.284  1.00  0.00     0.169 HD
BRANCH  12  15
HETATM   15  C   UNL     1      -1.060   6.598 -32.719  1.00  0.00     0.141 C 
BRANCH  15  16
HETATM   16  C   UNL     1      -0.768   6.721 -31.244  1.00  0.00    -0.049 A 
HETATM   17  C   UNL     1      -1.467   7.644 -30.455  1.00  0.00     0.009 A 
HETATM   18  C   UNL     1      -1.228   7.729 -29.080  1.00  0.00     0.019 A 
HETATM   19  C   UNL     1      -0.300   6.884 -28.467  1.00  0.00     0.001 A 
HETATM   20  C   UNL     1       0.409   5.971 -29.253  1.00  0.00     0.019 A 
HETATM   21  C   UNL     1       0.171   5.883 -30.628  1.00  0.00     0.009 A 
BRANCH  19  22
HETATM   22  S   UNL     1      -0.019   7.040 -26.714  1.00  0.00    -0.126 SA
BRANCH  22  23
HETATM   23  C   UNL     1       1.669   7.770 -26.668  1.00  0.00     0.044 C 
HETATM   24  C   UNL     1       1.999   8.300 -25.275  1.00  0.00     0.021 C 
HETATM   25  C   UNL     1       1.727   8.898 -27.696  1.00  0.00     0.021 C 
ENDBRANCH  22  23
ENDBRANCH  19  22
ENDBRANCH  15  16
ENDBRANCH  12  15
ENDBRANCH   1  11
BRANCH  10  26
HETATM   26  C   UNL     1      -5.270   5.015 -33.929  1.00  0.00     0.252 C 
HETATM   27  N   UNL     1      -6.378   5.699 -33.513  1.00  0.00    -0.366 N 
HETATM   28  H   UNL     1      -7.050   5.248 -32.904  1.00  0.00     0.159 HD
HETATM   29  H   UNL     1      -6.769   6.334 -34.201  1.00  0.00     0.159 HD
HETATM   30  O   UNL     1      -4.727   5.278 -34.994  1.00  0.00    -0.268 OA
ENDBRANCH  10  26
BRANCH   7  31
HETATM   31  C   UNL     1      -5.278  -0.694 -34.095  1.00  0.00     0.273 C 
BRANCH  31  32
HETATM   32  C   UNL     1      -5.436  -2.177 -34.298  1.00  0.00    -0.033 A 
HETATM   33  C   UNL     1      -4.357  -3.049 -34.090  1.00  0.00     0.009 A 
HETATM   34  C   UNL     1      -4.506  -4.420 -34.305  1.00  0.00     0.001 A 
HETATM   35  C   UNL     1      -5.731  -4.933 -34.725  1.00  0.00     0.000 A 
HETATM   36  C   UNL     1      -6.812  -4.078 -34.929  1.00  0.00     0.001 A 
HETATM   37  C   UNL     1      -6.666  -2.707 -34.718  1.00  0.00     0.009 A 
ENDBRANCH  31  32
ENDBRANCH   7  31
TORSDOF 8
ENDMDL
MODEL 2
REMARK VINA RESULT:     -10.0      0.405      1.243
REMARK  8 active torsions:
REMARK  status: ('A' for Active; 'I' for Inactive)
REMARK    1  A    between atoms: C_2  and  S_3 
REMARK    2  A    between atoms: S_3  and  C_4 
REMARK    3  A    between atoms: C_7  and  C_8 
REMARK    4  A    between atoms: C_8  and  C_9 
REMARK       I    between atoms: C_9  and  N_10 
REMARK    5  A    between atoms: N_10  and  C_11 
REMARK    6  A    between atoms: N_17  and  C_19 
REMARK    7  A    between atoms: C_19  and  C_20 
REMARK    8  A    between atoms: C_27  and  C_28 
REMARK       I    between atoms: C_28  and  N_29 
ROOT
HETATM    1  C   UNL     1      -3.677   3.656 -32.218  1.00  0.00     0.093 A 
HETATM    2  S   UNL     1      -3.470   2.102 -31.551  1.00  0.00    -0.074 SA
HETATM    3  C   UNL     1      -4.945   1.555 -32.160  1.00  0.00     0.018 A 
HETATM    4  C   UNL     1      -5.634   2.539 -32.837  1.00  0.00    -0.023 A 
HETATM    5  C   UNL     1      -6.960   2.251 -33.493  1.00  0.00     0.068 C 
HETATM    6  C   UNL     1      -7.545   0.891 -33.059  1.00  0.00     0.240 C 
HETATM    7  N   UNL     1      -6.484  -0.204 -32.975  1.00  0.00    -0.063 N 
HETATM    8  H   UNL     1      -6.955  -1.040 -32.612  1.00  0.00     0.280 HD
HETATM    9  C   UNL     1      -5.415   0.157 -31.959  1.00  0.00     0.282 C 
HETATM   10  C   UNL     1      -4.910   3.795 -32.847  1.00  0.00     0.073 A 
ENDROOT
BRANCH   1  11
HETATM   11  N   UNL     1      -2.654   4.593 -32.159  1.00  0.00    -0.320 N 
HETATM   12  C   UNL     1      -1.871   5.041 -33.216  1.00  0.00     0.226 C 
HETATM   13  O   UNL     1      -1.858   4.596 -34.360  1.00  0.00    -0.273 OA
HETATM   14  H   UNL     1      -2.461   4.992 -31.245  1.00  0.00     0.169 HD
BRANCH  12  15
HETATM   15  C   UNL     1      -0.965   6.198 -32.823  1.00  0.00     0.141 C 
BRANCH  15  16
HETATM   16  C   UNL     1      -0.774   6.329 -31.332  1.00  0.00    -0.049 A 
HETATM   17  C   UNL     1       0.201   5.570 -30.670  1.00  0.00     0.009 A 
HETATM   18  C   UNL     1       0.408   5.722 -29.296  1.00  0.00     0.019 A 
HETATM   19  C   UNL     1      -0.342   6.643 -28.563  1.00  0.00     0.001 A 
HETATM   20  C   UNL     1      -1.324   7.393 -29.217  1.00  0.00     0.019 A 
HETATM   21  C   UNL     1      -1.533   7.244 -30.591  1.00  0.00     0.009 A 
BRANCH  19  22
HETATM   22  S   UNL     1      -0.050   6.790 -26.810  1.00  0.00    -0.126 SA
BRANCH  22  23
HETATM   23  C   UNL     1       1.594   7.614 -26.771  1.00  0.00     0.044 C 
HETATM   24  C   UNL     1       1.888   8.187 -25.388  1.00  0.00     0.021 C 
HETATM   25  C   UNL     1       1.595   8.725 -27.820  1.00  0.00     0.021 C 
ENDBRANCH  22  23
ENDBRANCH  19  22
ENDBRANCH  15  16
ENDBRANCH  12  15
ENDBRANCH   1  11
BRANCH  10  26
HETATM   26  C   UNL     1      -5.398   5.013 -33.493  1.00  0.00     0.252 C 
HETATM   27  N   UNL     1      -6.190   5.827 -32.731  1.00  0.00    -0.366 N 
HETATM   28  H   UNL     1      -6.716   5.438 -31.957  1.00  0.00     0.159 HD
HETATM   29  H   UNL     1      -6.652   6.571 -33.243  1.00  0.00     0.159 HD
HETATM   30  O   UNL     1      -5.164   5.276 -34.665  1.00  0.00    -0.268 OA
ENDBRANCH  10  26
BRANCH   7  31
HETATM   31  C   UNL     1      -5.900  -0.618 -34.308  1.00  0.00     0.273 C 
BRANCH  31  32
HETATM   32  C   UNL     1      -5.669  -2.102 -34.398  1.00  0.00    -0.033 A 
HETATM   33  C   UNL     1      -6.715  -2.971 -34.742  1.00  0.00     0.009 A 
HETATM   34  C   UNL     1      -6.498  -4.349 -34.799  1.00  0.00     0.001 A 
HETATM   35  C   UNL     1      -5.237  -4.870 -34.517  1.00  0.00     0.000 A 
HETATM   36  C   UNL     1      -4.189  -4.017 -34.180  1.00  0.00     0.001 A 
HETATM   37  C   UNL     1      -4.403  -2.640 -34.119  1.00  0.00     0.009 A 
ENDBRANCH  31  32
ENDBRANCH   7  31
TORSDOF 8
ENDMDL
MODEL 3
REMARK VINA RESULT:      -9.2      1.361      1.890
REMARK  8 active torsions:
REMARK  status: ('A' for Active; 'I' for Inactive)
REMARK    1  A    between atoms: C_2  and  S_3 
REMARK    2  A    between atoms: S_3  and  C_4 
REMARK    3  A    between atoms: C_7  and  C_8 
REMARK    4  A    between atoms: C_8  and  C_9 
REMARK       I    between atoms: C_9  and  N_10 
REMARK    5  A    between atoms: N_10  and  C_11 
REMARK    6  A    between atoms: N_17  and  C_19 
REMARK    7  A    between atoms: C_19  and  C_20 
REMARK    8  A    between atoms: C_27  and  C_28 
REMARK       I    between atoms: C_28  and  N_29 
ROOT
HETATM    1  C   UNL     1      -3.511   3.969 -32.500  1.00  0.00     0.093 A 
HETATM    2  S   UNL     1      -3.156   2.460 -31.795  1.00  0.00    -0.074 SA
HETATM    3  C   UNL     1      -4.652   1.812 -32.230  1.00  0.00     0.018 A 
HETATM    4  C   UNL     1      -5.456   2.729 -32.875  1.00  0.00    -0.023 A 
HETATM    5  C   UNL     1      -6.823   2.345 -33.382  1.00  0.00     0.068 C 
HETATM    6  C   UNL     1      -7.287   0.979 -32.836  1.00  0.00     0.240 C 
HETATM    7  N   UNL     1      -6.166  -0.057 -32.815  1.00  0.00    -0.063 N 
HETATM    8  H   UNL     1      -6.553  -0.898 -32.373  1.00  0.00     0.280 HD
HETATM    9  C   UNL     1      -5.024   0.404 -31.926  1.00  0.00     0.282 C 
HETATM   10  C   UNL     1      -4.806   4.018 -33.008  1.00  0.00     0.073 A 
ENDROOT
BRANCH   1  11
HETATM   11  N   UNL     1      -2.540   4.958 -32.582  1.00  0.00    -0.320 N 
HETATM   12  C   UNL     1      -1.820   5.328 -33.712  1.00  0.00     0.226 C 
HETATM   13  O   UNL     1      -1.823   4.764 -34.802  1.00  0.00    -0.273 OA
HETATM   14  H   UNL     1      -2.337   5.462 -31.724  1.00  0.00     0.169 HD
BRANCH  12  15
HETATM   15  C   UNL     1      -0.965   6.566 -33.480  1.00  0.00     0.141 C 
BRANCH  15  16
HETATM   16  C   UNL     1      -1.094   7.129 -32.086  1.00  0.00    -0.049 A 
HETATM   17  C   UNL     1      -0.240   6.698 -31.063  1.00  0.00     0.009 A 
HETATM   18  C   UNL     1      -0.329   7.250 -29.782  1.00  0.00     0.019 A 
HETATM   19  C   UNL     1      -1.260   8.253 -29.505  1.00  0.00     0.001 A 
HETATM   20  C   UNL     1      -2.123   8.677 -30.520  1.00  0.00     0.019 A 
HETATM   21  C   UNL     1      -2.035   8.127 -31.803  1.00  0.00     0.009 A 
BRANCH  19  22
HETATM   22  S   UNL     1      -1.346   8.917 -27.853  1.00  0.00    -0.126 SA
BRANCH  22  23
HETATM   23  C   UNL     1      -2.077   7.509 -26.921  1.00  0.00     0.044 C 
HETATM   24  C   UNL     1      -3.461   7.155 -27.459  1.00  0.00     0.021 C 
HETATM   25  C   UNL     1      -2.163   7.907 -25.449  1.00  0.00     0.021 C 
ENDBRANCH  22  23
ENDBRANCH  19  22
ENDBRANCH  15  16
ENDBRANCH  12  15
ENDBRANCH   1  11
BRANCH  10  26
HETATM   26  C   UNL     1      -5.419   5.179 -33.651  1.00  0.00     0.252 C 
HETATM   27  N   UNL     1      -6.404   5.812 -32.945  1.00  0.00    -0.366 N 
HETATM   28  H   UNL     1      -6.934   5.301 -32.248  1.00  0.00     0.159 HD
HETATM   29  H   UNL     1      -6.929   6.503 -33.472  1.00  0.00     0.159 HD
HETATM   30  O   UNL     1      -5.117   5.543 -34.780  1.00  0.00    -0.268 OA
ENDBRANCH  10  26
BRANCH   7  31
HETATM   31  C   UNL     1      -5.693  -0.501 -34.182  1.00  0.00     0.273 C 
BRANCH  31  32
HETATM   32  C   UNL     1      -5.634  -1.999 -34.309  1.00  0.00    -0.033 A 
HETATM   33  C   UNL     1      -4.434  -2.691 -34.094  1.00  0.00     0.009 A 
HETATM   34  C   UNL     1      -4.383  -4.079 -34.239  1.00  0.00     0.001 A 
HETATM   35  C   UNL     1      -5.528  -4.787 -34.596  1.00  0.00     0.000 A 
HETATM   36  C   UNL     1      -6.728  -4.111 -34.808  1.00  0.00     0.001 A 
HETATM   37  C   UNL     1      -6.782  -2.725 -34.667  1.00  0.00     0.009 A 
ENDBRANCH  31  32
ENDBRANCH   7  31
TORSDOF 8
ENDMDL
MODEL 4
REMARK VINA RESULT:      -8.7      3.071     10.572
REMARK  8 active torsions:
REMARK  status: ('A' for Active; 'I' for Inactive)
REMARK    1  A    between atoms: C_2  and  S_3 
REMARK    2  A    between atoms: S_3  and  C_4 
REMARK    3  A    between atoms: C_7  and  C_8 
REMARK    4  A    between atoms: C_8  and  C_9 
REMARK       I    between atoms: C_9  and  N_10 
REMARK    5  A    between atoms: N_10  and  C_11 
REMARK    6  A    between atoms: N_17  and  C_19 
REMARK    7  A    between atoms: C_19  and  C_20 
REMARK    8  A    between atoms: C_27  and  C_28 
REMARK       I    between atoms: C_28  and  N_29 
ROOT
HETATM    1  C   UNL     1      -4.047   3.612 -32.362  1.00  0.00     0.093 A 
HETATM    2  S   UNL     1      -2.627   4.125 -33.150  1.00  0.00    -0.074 SA
HETATM    3  C   UNL     1      -2.363   5.370 -32.042  1.00  0.00     0.018 A 
HETATM    4  C   UNL     1      -3.357   5.446 -31.088  1.00  0.00    -0.023 A 
HETATM    5  C   UNL     1      -3.296   6.466 -29.980  1.00  0.00     0.068 C 
HETATM    6  C   UNL     1      -2.216   7.539 -30.230  1.00  0.00     0.240 C 
HETATM    7  N   UNL     1      -0.925   6.951 -30.794  1.00  0.00    -0.063 N 
HETATM    8  H   UNL     1      -0.304   7.744 -30.991  1.00  0.00     0.280 HD
HETATM    9  C   UNL     1      -1.180   6.268 -32.126  1.00  0.00     0.282 C 
HETATM   10  C   UNL     1      -4.376   4.435 -31.289  1.00  0.00     0.073 A 
ENDROOT
BRANCH   1  11
HETATM   11  N   UNL     1      -4.700   2.454 -32.763  1.00  0.00    -0.320 N 
HETATM   12  C   UNL     1      -4.763   1.250 -32.072  1.00  0.00     0.226 C 
HETATM   13  O   UNL     1      -4.150   0.957 -31.050  1.00  0.00    -0.273 OA
HETATM   14  H   UNL     1      -5.182   2.496 -33.657  1.00  0.00     0.169 HD
BRANCH  12  15
HETATM   15  C   UNL     1      -5.710   0.252 -32.723  1.00  0.00     0.141 C 
BRANCH  15  16
HETATM   16  C   UNL     1      -7.122   0.766 -32.857  1.00  0.00    -0.049 A 
HETATM   17  C   UNL     1      -7.846   1.162 -31.724  1.00  0.00     0.009 A 
HETATM   18  C   UNL     1      -9.138   1.679 -31.851  1.00  0.00     0.019 A 
HETATM   19  C   UNL     1      -9.723   1.825 -33.110  1.00  0.00     0.001 A 
HETATM   20  C   UNL     1      -9.010   1.420 -34.242  1.00  0.00     0.019 A 
HETATM   21  C   UNL     1      -7.716   0.903 -34.118  1.00  0.00     0.009 A 
BRANCH  19  22
HETATM   22  S   UNL     1     -11.380   2.477 -33.220  1.00  0.00    -0.126 SA
BRANCH  22  23
HETATM   23  C   UNL     1     -11.978   1.716 -34.784  1.00  0.00     0.044 C 
HETATM   24  C   UNL     1     -12.432   2.785 -35.775  1.00  0.00     0.021 C 
HETATM   25  C   UNL     1     -13.136   0.778 -34.445  1.00  0.00     0.021 C 
ENDBRANCH  22  23
ENDBRANCH  19  22
ENDBRANCH  15  16
ENDBRANCH  12  15
ENDBRANCH   1  11
BRANCH  10  26
HETATM   26  C   UNL     1      -5.548   4.275 -30.429  1.00  0.00     0.252 C 
HETATM   27  N   UNL     1      -5.410   3.423 -29.369  1.00  0.00    -0.366 N 
HETATM   28  H   UNL     1      -4.725   2.678 -29.407  1.00  0.00     0.159 HD
HETATM   29  H   UNL     1      -6.275   3.197 -28.889  1.00  0.00     0.159 HD
HETATM   30  O   UNL     1      -6.617   4.824 -30.665  1.00  0.00    -0.268 OA
ENDBRANCH  10  26
BRANCH   7  31
HETATM   31  C   UNL     1      -0.160   6.071 -29.830  1.00  0.00     0.273 C 
BRANCH  31  32
HETATM   32  C   UNL     1       0.331   6.830 -28.627  1.00  0.00    -0.033 A 
HETATM   33  C   UNL     1       1.113   7.985 -28.776  1.00  0.00     0.009 A 
HETATM   34  C   UNL     1       1.585   8.669 -27.654  1.00  0.00     0.001 A 
HETATM   35  C   UNL     1       1.279   8.208 -26.375  1.00  0.00     0.000 A 
HETATM   36  C   UNL     1       0.499   7.066 -26.214  1.00  0.00     0.001 A 
HETATM   37  C   UNL     1       0.028   6.378 -27.332  1.00  0.00     0.009 A 
ENDBRANCH  31  32
ENDBRANCH   7  31
TORSDOF 8
ENDMDL
MODEL 5
REMARK VINA RESULT:      -8.6      1.677      2.080
REMARK  8 active torsions:
REMARK  status: ('A' for Active; 'I' for Inactive)
REMARK    1  A    between atoms: C_2  and  S_3 
REMARK    2  A    between atoms: S_3  and  C_4 
REMARK    3  A    between atoms: C_7  and  C_8 
REMARK    4  A    between atoms: C_8  and  C_9 
REMARK       I    between atoms: C_9  and  N_10 
REMARK    5  A    between atoms: N_10  and  C_11 
REMARK    6  A    between atoms: N_17  and  C_19 
REMARK    7  A    between atoms: C_19  and  C_20 
REMARK    8  A    between atoms: C_27  and  C_28 
REMARK       I    between atoms: C_28  and  N_29 
ROOT
HETATM    1  C   UNL     1      -3.926   3.756 -32.076  1.00  0.00     0.093 A 
HETATM    2  S   UNL     1      -3.902   2.236 -31.308  1.00  0.00    -0.074 SA
HETATM    3  C   UNL     1      -5.224   1.675 -32.194  1.00  0.00     0.018 A 
HETATM    4  C   UNL     1      -5.729   2.633 -33.049  1.00  0.00    -0.023 A 
HETATM    5  C   UNL     1      -6.890   2.327 -33.961  1.00  0.00     0.068 C 
HETATM    6  C   UNL     1      -7.584   0.997 -33.599  1.00  0.00     0.240 C 
HETATM    7  N   UNL     1      -6.591  -0.104 -33.238  1.00  0.00    -0.063 N 
HETATM    8  H   UNL     1      -7.148  -0.915 -32.946  1.00  0.00     0.280 HD
HETATM    9  C   UNL     1      -5.757   0.296 -32.033  1.00  0.00     0.282 C 
HETATM   10  C   UNL     1      -4.992   3.877 -32.961  1.00  0.00     0.073 A 
ENDROOT
BRANCH   1  11
HETATM   11  N   UNL     1      -2.919   4.683 -31.842  1.00  0.00    -0.320 N 
HETATM   12  C   UNL     1      -2.977   5.781 -30.991  1.00  0.00     0.226 C 
HETATM   13  O   UNL     1      -3.966   6.196 -30.395  1.00  0.00    -0.273 OA
HETATM   14  H   UNL     1      -2.050   4.541 -32.349  1.00  0.00     0.169 HD
BRANCH  12  15
HETATM   15  C   UNL     1      -1.633   6.480 -30.848  1.00  0.00     0.141 C 
BRANCH  15  16
HETATM   16  C   UNL     1      -1.599   7.486 -29.723  1.00  0.00    -0.049 A 
HETATM   17  C   UNL     1      -1.233   7.093 -28.429  1.00  0.00     0.009 A 
HETATM   18  C   UNL     1      -1.159   8.032 -27.396  1.00  0.00     0.019 A 
HETATM   19  C   UNL     1      -1.432   9.379 -27.640  1.00  0.00     0.001 A 
HETATM   20  C   UNL     1      -1.810   9.773 -28.927  1.00  0.00     0.019 A 
HETATM   21  C   UNL     1      -1.884   8.836 -29.963  1.00  0.00     0.009 A 
BRANCH  19  22
HETATM   22  S   UNL     1      -1.338  10.536 -26.287  1.00  0.00    -0.126 SA
BRANCH  22  23
HETATM   23  C   UNL     1      -0.798   9.451 -24.903  1.00  0.00     0.044 C 
HETATM   24  C   UNL     1      -1.690   9.638 -23.679  1.00  0.00     0.021 C 
HETATM   25  C   UNL     1       0.651   9.798 -24.564  1.00  0.00     0.021 C 
ENDBRANCH  22  23
ENDBRANCH  19  22
ENDBRANCH  15  16
ENDBRANCH  12  15
ENDBRANCH   1  11
BRANCH  10  26
HETATM   26  C   UNL     1      -5.302   5.067 -33.754  1.00  0.00     0.252 C 
HETATM   27  N   UNL     1      -6.528   5.633 -33.541  1.00  0.00    -0.366 N 
HETATM   28  H   UNL     1      -7.291   5.067 -33.188  1.00  0.00     0.159 HD
HETATM   29  H   UNL     1      -6.789   6.347 -34.214  1.00  0.00     0.159 HD
HETATM   30  O   UNL     1      -4.539   5.510 -34.603  1.00  0.00    -0.268 OA
ENDBRANCH  10  26
BRANCH   7  31
HETATM   31  C   UNL     1      -5.743  -0.592 -34.392  1.00  0.00     0.273 C 
BRANCH  31  32
HETATM   32  C   UNL     1      -5.635  -2.092 -34.432  1.00  0.00    -0.033 A 
HETATM   33  C   UNL     1      -4.414  -2.731 -34.169  1.00  0.00     0.009 A 
HETATM   34  C   UNL     1      -4.317  -4.122 -34.233  1.00  0.00     0.001 A 
HETATM   35  C   UNL     1      -5.437  -4.887 -34.554  1.00  0.00     0.000 A 
HETATM   36  C   UNL     1      -6.656  -4.264 -34.811  1.00  0.00     0.001 A 
HETATM   37  C   UNL     1      -6.756  -2.874 -34.752  1.00  0.00     0.009 A 
ENDBRANCH  31  32
ENDBRANCH   7  31
TORSDOF 8
ENDMDL
MODEL 6
REMARK VINA RESULT:      -8.5      2.412     10.666
REMARK  8 active torsions:
REMARK  status: ('A' for Active; 'I' for Inactive)
REMARK    1  A    between atoms: C_2  and  S_3 
REMARK    2  A    between atoms: S_3  and  C_4 
REMARK    3  A    between atoms: C_7  and  C_8 
REMARK    4  A    between atoms: C_8  and  C_9 
REMARK       I    between atoms: C_9  and  N_10 
REMARK    5  A    between atoms: N_10  and  C_11 
REMARK    6  A    between atoms: N_17  and  C_19 
REMARK    7  A    between atoms: C_19  and  C_20 
REMARK    8  A    between atoms: C_27  and  C_28 
REMARK       I    between atoms: C_28  and  N_29 
ROOT
HETATM    1  C   UNL     1      -4.603   4.327 -31.957  1.00  0.00     0.093 A 
HETATM    2  S   UNL     1      -2.928   4.021 -31.987  1.00  0.00    -0.074 SA
HETATM    3  C   UNL     1      -2.546   5.616 -31.588  1.00  0.00     0.018 A 
HETATM    4  C   UNL     1      -3.666   6.411 -31.466  1.00  0.00    -0.023 A 
HETATM    5  C   UNL     1      -3.551   7.863 -31.079  1.00  0.00     0.068 C 
HETATM    6  C   UNL     1      -2.097   8.374 -31.147  1.00  0.00     0.240 C 
HETATM    7  N   UNL     1      -1.092   7.361 -30.604  1.00  0.00    -0.063 N 
HETATM    8  H   UNL     1      -0.161   7.761 -30.760  1.00  0.00     0.280 HD
HETATM    9  C   UNL     1      -1.141   6.072 -31.406  1.00  0.00     0.282 C 
HETATM   10  C   UNL     1      -4.885   5.669 -31.717  1.00  0.00     0.073 A 
ENDROOT
BRANCH   1  11
HETATM   11  N   UNL     1      -5.515   3.289 -32.092  1.00  0.00    -0.320 N 
HETATM   12  C   UNL     1      -6.250   2.687 -31.078  1.00  0.00     0.226 C 
HETATM   13  O   UNL     1      -6.131   2.879 -29.871  1.00  0.00    -0.273 OA
HETATM   14  H   UNL     1      -5.656   2.934 -33.033  1.00  0.00     0.169 HD
BRANCH  12  15
HETATM   15  C   UNL     1      -7.280   1.702 -31.609  1.00  0.00     0.141 C 
BRANCH  15  16
HETATM   16  C   UNL     1      -6.678   0.599 -32.445  1.00  0.00    -0.049 A 
HETATM   17  C   UNL     1      -7.085   0.409 -33.772  1.00  0.00     0.009 A 
HETATM   18  C   UNL     1      -6.497  -0.584 -34.561  1.00  0.00     0.019 A 
HETATM   19  C   UNL     1      -5.483  -1.393 -34.044  1.00  0.00     0.001 A 
HETATM   20  C   UNL     1      -5.084  -1.216 -32.717  1.00  0.00     0.019 A 
HETATM   21  C   UNL     1      -5.669  -0.222 -31.926  1.00  0.00     0.009 A 
BRANCH  19  22
HETATM   22  S   UNL     1      -4.775  -2.655 -35.085  1.00  0.00    -0.126 SA
BRANCH  22  23
HETATM   23  C   UNL     1      -5.583  -4.175 -34.434  1.00  0.00     0.044 C 
HETATM   24  C   UNL     1      -4.551  -5.258 -34.131  1.00  0.00     0.021 C 
HETATM   25  C   UNL     1      -6.582  -4.667 -35.480  1.00  0.00     0.021 C 
ENDBRANCH  22  23
ENDBRANCH  19  22
ENDBRANCH  15  16
ENDBRANCH  12  15
ENDBRANCH   1  11
BRANCH  10  26
HETATM   26  C   UNL     1      -6.224   6.253 -31.656  1.00  0.00     0.252 C 
HETATM   27  N   UNL     1      -6.723   6.748 -32.830  1.00  0.00    -0.366 N 
HETATM   28  H   UNL     1      -6.088   7.051 -33.559  1.00  0.00     0.159 HD
HETATM   29  H   UNL     1      -7.571   7.296 -32.734  1.00  0.00     0.159 HD
HETATM   30  O   UNL     1      -6.853   6.351 -30.611  1.00  0.00    -0.268 OA
ENDBRANCH  10  26
BRANCH   7  31
HETATM   31  C   UNL     1      -1.184   7.120 -29.114  1.00  0.00     0.273 C 
BRANCH  31  32
HETATM   32  C   UNL     1      -0.374   8.111 -28.321  1.00  0.00    -0.033 A 
HETATM   33  C   UNL     1      -0.982   9.233 -27.740  1.00  0.00     0.009 A 
HETATM   34  C   UNL     1      -0.219  10.160 -27.028  1.00  0.00     0.001 A 
HETATM   35  C   UNL     1       1.155   9.973 -26.887  1.00  0.00     0.000 A 
HETATM   36  C   UNL     1       1.769   8.860 -27.455  1.00  0.00     0.001 A 
HETATM   37  C   UNL     1       1.010   7.933 -28.170  1.00  0.00     0.009 A 
ENDBRANCH  31  32
ENDBRANCH   7  31
TORSDOF 8
ENDMDL
MODEL 7
REMARK VINA RESULT:      -8.3      3.587     10.872
REMARK  8 active torsions:
REMARK  status: ('A' for Active; 'I' for Inactive)
REMARK    1  A    between atoms: C_2  and  S_3 
REMARK    2  A    between atoms: S_3  and  C_4 
REMARK    3  A    between atoms: C_7  and  C_8 
REMARK    4  A    between atoms: C_8  and  C_9 
REMARK       I    between atoms: C_9  and  N_10 
REMARK    5  A    between atoms: N_10  and  C_11 
REMARK    6  A    between atoms: N_17  and  C_19 
REMARK    7  A    between atoms: C_19  and  C_20 
REMARK    8  A    between atoms: C_27  and  C_28 
REMARK       I    between atoms: C_28  and  N_29 
ROOT
HETATM    1  C   UNL     1      -4.972   3.040 -32.174  1.00  0.00     0.093 A 
HETATM    2  S   UNL     1      -3.335   2.854 -31.742  1.00  0.00    -0.074 SA
HETATM    3  C   UNL     1      -3.036   4.512 -31.837  1.00  0.00     0.018 A 
HETATM    4  C   UNL     1      -4.148   5.226 -32.233  1.00  0.00    -0.023 A 
HETATM    5  C   UNL     1      -4.108   6.728 -32.347  1.00  0.00     0.068 C 
HETATM    6  C   UNL     1      -2.670   7.284 -32.274  1.00  0.00     0.240 C 
HETATM    7  N   UNL     1      -1.821   6.578 -31.219  1.00  0.00    -0.063 N 
HETATM    8  H   UNL     1      -0.875   6.965 -31.300  1.00  0.00     0.280 HD
HETATM    9  C   UNL     1      -1.703   5.096 -31.526  1.00  0.00     0.282 C 
HETATM   10  C   UNL     1      -5.287   4.362 -32.470  1.00  0.00     0.073 A 
ENDROOT
BRANCH   1  11
HETATM   11  N   UNL     1      -5.841   1.957 -32.139  1.00  0.00    -0.320 N 
HETATM   12  C   UNL     1      -6.612   1.541 -31.060  1.00  0.00     0.226 C 
HETATM   13  O   UNL     1      -6.566   1.977 -29.913  1.00  0.00    -0.273 OA
HETATM   14  H   UNL     1      -5.918   1.415 -32.994  1.00  0.00     0.169 HD
BRANCH  12  15
HETATM   15  C   UNL     1      -7.578   0.425 -31.429  1.00  0.00     0.141 C 
BRANCH  15  16
HETATM   16  C   UNL     1      -8.862   0.925 -32.046  1.00  0.00    -0.049 A 
HETATM   17  C   UNL     1      -9.190   2.286 -32.000  1.00  0.00     0.009 A 
HETATM   18  C   UNL     1     -10.357   2.757 -32.609  1.00  0.00     0.019 A 
HETATM   19  C   UNL     1     -11.207   1.880 -33.286  1.00  0.00     0.001 A 
HETATM   20  C   UNL     1     -10.890   0.519 -33.322  1.00  0.00     0.019 A 
HETATM   21  C   UNL     1      -9.723   0.046 -32.715  1.00  0.00     0.009 A 
BRANCH  19  22
HETATM   22  S   UNL     1     -12.692   2.526 -34.034  1.00  0.00    -0.126 SA
BRANCH  22  23
HETATM   23  C   UNL     1     -13.989   1.482 -33.252  1.00  0.00     0.044 C 
HETATM   24  C   UNL     1     -14.740   0.664 -34.300  1.00  0.00     0.021 C 
HETATM   25  C   UNL     1     -14.952   2.401 -32.503  1.00  0.00     0.021 C 
ENDBRANCH  22  23
ENDBRANCH  19  22
ENDBRANCH  15  16
ENDBRANCH  12  15
ENDBRANCH   1  11
BRANCH  10  26
HETATM   26  C   UNL     1      -6.601   4.843 -32.897  1.00  0.00     0.252 C 
HETATM   27  N   UNL     1      -7.394   5.384 -31.923  1.00  0.00    -0.366 N 
HETATM   28  H   UNL     1      -7.262   5.111 -30.956  1.00  0.00     0.159 HD
HETATM   29  H   UNL     1      -8.355   5.553 -32.202  1.00  0.00     0.159 HD
HETATM   30  O   UNL     1      -7.004   4.725 -34.047  1.00  0.00    -0.268 OA
ENDBRANCH  10  26
BRANCH   7  31
HETATM   31  C   UNL     1      -2.245   6.842 -29.791  1.00  0.00     0.273 C 
BRANCH  31  32
HETATM   32  C   UNL     1      -1.217   7.630 -29.024  1.00  0.00    -0.033 A 
HETATM   33  C   UNL     1       0.142   7.290 -29.088  1.00  0.00     0.009 A 
HETATM   34  C   UNL     1       1.085   8.011 -28.354  1.00  0.00     0.001 A 
HETATM   35  C   UNL     1       0.681   9.078 -27.553  1.00  0.00     0.000 A 
HETATM   36  C   UNL     1      -0.665   9.428 -27.486  1.00  0.00     0.001 A 
HETATM   37  C   UNL     1      -1.611   8.708 -28.215  1.00  0.00     0.009 A 
ENDBRANCH  31  32
ENDBRANCH   7  31
TORSDOF 8
ENDMDL
MODEL 8
REMARK VINA RESULT:      -8.2      3.498      4.977
REMARK  8 active torsions:
REMARK  status: ('A' for Active; 'I' for Inactive)
REMARK    1  A    between atoms: C_2  and  S_3 
REMARK    2  A    between atoms: S_3  and  C_4 
REMARK    3  A    between atoms: C_7  and  C_8 
REMARK    4  A    between atoms: C_8  and  C_9 
REMARK       I    between atoms: C_9  and  N_10 
REMARK    5  A    between atoms: N_10  and  C_11 
REMARK    6  A    between atoms: N_17  and  C_19 
REMARK    7  A    between atoms: C_19  and  C_20 
REMARK    8  A    between atoms: C_27  and  C_28 
REMARK       I    between atoms: C_28  and  N_29 
ROOT
HETATM    1  C   UNL     1      -5.511   2.853 -32.822  1.00  0.00     0.093 A 
HETATM    2  S   UNL     1      -5.962   1.862 -34.131  1.00  0.00    -0.074 SA
HETATM    3  C   UNL     1      -7.400   1.390 -33.386  1.00  0.00     0.018 A 
HETATM    4  C   UNL     1      -7.545   1.935 -32.127  1.00  0.00    -0.023 A 
HETATM    5  C   UNL     1      -8.778   1.671 -31.302  1.00  0.00     0.068 C 
HETATM    6  C   UNL     1      -9.641   0.533 -31.886  1.00  0.00     0.240 C 
HETATM    7  N   UNL     1      -9.745   0.597 -33.407  1.00  0.00    -0.063 N 
HETATM    8  H   UNL     1     -10.272  -0.233 -33.700  1.00  0.00     0.280 HD
HETATM    9  C   UNL     1      -8.373   0.477 -34.047  1.00  0.00     0.282 C 
HETATM   10  C   UNL     1      -6.418   2.773 -31.769  1.00  0.00     0.073 A 
ENDROOT
BRANCH   1  11
HETATM   11  N   UNL     1      -4.392   3.670 -32.905  1.00  0.00    -0.320 N 
HETATM   12  C   UNL     1      -3.153   3.450 -32.315  1.00  0.00     0.226 C 
HETATM   13  O   UNL     1      -2.867   2.564 -31.515  1.00  0.00    -0.273 OA
HETATM   14  H   UNL     1      -4.493   4.518 -33.456  1.00  0.00     0.169 HD
BRANCH  12  15
HETATM   15  C   UNL     1      -2.107   4.461 -32.760  1.00  0.00     0.141 C 
BRANCH  15  16
HETATM   16  C   UNL     1      -1.880   5.568 -31.759  1.00  0.00    -0.049 A 
HETATM   17  C   UNL     1      -2.887   5.925 -30.852  1.00  0.00     0.009 A 
HETATM   18  C   UNL     1      -2.663   6.920 -29.897  1.00  0.00     0.019 A 
HETATM   19  C   UNL     1      -1.426   7.564 -29.819  1.00  0.00     0.001 A 
HETATM   20  C   UNL     1      -0.424   7.220 -30.730  1.00  0.00     0.019 A 
HETATM   21  C   UNL     1      -0.644   6.224 -31.686  1.00  0.00     0.009 A 
BRANCH  19  22
HETATM   22  S   UNL     1      -1.194   8.837 -28.592  1.00  0.00    -0.126 SA
BRANCH  22  23
HETATM   23  C   UNL     1       0.031   8.052 -27.466  1.00  0.00     0.044 C 
HETATM   24  C   UNL     1       1.458   8.397 -27.882  1.00  0.00     0.021 C 
HETATM   25  C   UNL     1      -0.185   6.540 -27.507  1.00  0.00     0.021 C 
ENDBRANCH  22  23
ENDBRANCH  19  22
ENDBRANCH  15  16
ENDBRANCH  12  15
ENDBRANCH   1  11
BRANCH  10  26
HETATM   26  C   UNL     1      -6.300   3.482 -30.496  1.00  0.00     0.252 C 
HETATM   27  N   UNL     1      -5.451   2.936 -29.574  1.00  0.00    -0.366 N 
HETATM   28  H   UNL     1      -5.245   1.944 -29.604  1.00  0.00     0.159 HD
HETATM   29  H   UNL     1      -5.511   3.342 -28.646  1.00  0.00     0.159 HD
HETATM   30  O   UNL     1      -6.960   4.480 -30.234  1.00  0.00    -0.268 OA
ENDBRANCH  10  26
BRANCH   7  31
HETATM   31  C   UNL     1     -10.529   1.778 -33.936  1.00  0.00     0.273 C 
BRANCH  31  32
HETATM   32  C   UNL     1     -12.001   1.668 -33.642  1.00  0.00    -0.033 A 
HETATM   33  C   UNL     1     -12.693   2.727 -33.036  1.00  0.00     0.009 A 
HETATM   34  C   UNL     1     -14.053   2.606 -32.745  1.00  0.00     0.001 A 
HETATM   35  C   UNL     1     -14.734   1.431 -33.058  1.00  0.00     0.000 A 
HETATM   36  C   UNL     1     -14.058   0.375 -33.666  1.00  0.00     0.001 A 
HETATM   37  C   UNL     1     -12.699   0.491 -33.955  1.00  0.00     0.009 A 
ENDBRANCH  31  32
ENDBRANCH   7  31
TORSDOF 8
ENDMDL
MODEL 9
REMARK VINA RESULT:      -8.1      2.649      3.745
REMARK  8 active torsions:
REMARK  status: ('A' for Active; 'I' for Inactive)
REMARK    1  A    between atoms: C_2  and  S_3 
REMARK    2  A    between atoms: S_3  and  C_4 
REMARK    3  A    between atoms: C_7  and  C_8 
REMARK    4  A    between atoms: C_8  and  C_9 
REMARK       I    between atoms: C_9  and  N_10 
REMARK    5  A    between atoms: N_10  and  C_11 
REMARK    6  A    between atoms: N_17  and  C_19 
REMARK    7  A    between atoms: C_19  and  C_20 
REMARK    8  A    between atoms: C_27  and  C_28 
REMARK       I    between atoms: C_28  and  N_29 
ROOT
HETATM    1  C   UNL     1      -6.863   3.470 -31.481  1.00  0.00     0.093 A 
HETATM    2  S   UNL     1      -7.001   1.908 -30.817  1.00  0.00    -0.074 SA
HETATM    3  C   UNL     1      -6.946   1.169 -32.333  1.00  0.00     0.018 A 
HETATM    4  C   UNL     1      -6.864   2.084 -33.363  1.00  0.00    -0.023 A 
HETATM    5  C   UNL     1      -6.767   1.634 -34.798  1.00  0.00     0.068 C 
HETATM    6  C   UNL     1      -7.072   0.131 -34.962  1.00  0.00     0.240 C 
HETATM    7  N   UNL     1      -6.452  -0.719 -33.856  1.00  0.00    -0.063 N 
HETATM    8  H   UNL     1      -6.770  -1.681 -34.014  1.00  0.00     0.280 HD
HETATM    9  C   UNL     1      -6.990  -0.309 -32.496  1.00  0.00     0.282 C 
HETATM   10  C   UNL     1      -6.851   3.448 -32.872  1.00  0.00     0.073 A 
ENDROOT
BRANCH   1  11
HETATM   11  N   UNL     1      -6.713   4.578 -30.658  1.00  0.00    -0.320 N 
HETATM   12  C   UNL     1      -7.695   5.496 -30.307  1.00  0.00     0.226 C 
HETATM   13  O   UNL     1      -8.834   5.563 -30.761  1.00  0.00    -0.273 OA
HETATM   14  H   UNL     1      -5.784   4.731 -30.274  1.00  0.00     0.169 HD
BRANCH  12  15
HETATM   15  C   UNL     1      -7.222   6.483 -29.250  1.00  0.00     0.141 C 
BRANCH  15  16
HETATM   16  C   UNL     1      -5.859   7.062 -29.539  1.00  0.00    -0.049 A 
HETATM   17  C   UNL     1      -4.773   6.779 -28.701  1.00  0.00     0.009 A 
HETATM   18  C   UNL     1      -3.500   7.279 -28.992  1.00  0.00     0.019 A 
HETATM   19  C   UNL     1      -3.287   8.056 -30.132  1.00  0.00     0.001 A 
HETATM   20  C   UNL     1      -4.371   8.352 -30.964  1.00  0.00     0.019 A 
HETATM   21  C   UNL     1      -5.644   7.852 -30.676  1.00  0.00     0.009 A 
BRANCH  19  22
HETATM   22  S   UNL     1      -1.649   8.683 -30.453  1.00  0.00    -0.126 SA
BRANCH  22  23
HETATM   23  C   UNL     1      -0.603   7.229 -30.035  1.00  0.00     0.044 C 
HETATM   24  C   UNL     1       0.375   7.563 -28.911  1.00  0.00     0.021 C 
HETATM   25  C   UNL     1       0.155   6.811 -31.293  1.00  0.00     0.021 C 
ENDBRANCH  22  23
ENDBRANCH  19  22
ENDBRANCH  15  16
ENDBRANCH  12  15
ENDBRANCH   1  11
BRANCH  10  26
HETATM   26  C   UNL     1      -6.768   4.625 -33.736  1.00  0.00     0.252 C 
HETATM   27  N   UNL     1      -7.909   5.369 -33.857  1.00  0.00    -0.366 N 
HETATM   28  H   UNL     1      -8.812   4.935 -33.704  1.00  0.00     0.159 HD
HETATM   29  H   UNL     1      -7.881   6.075 -34.585  1.00  0.00     0.159 HD
HETATM   30  O   UNL     1      -5.757   4.911 -34.365  1.00  0.00    -0.268 OA
ENDBRANCH  10  26
BRANCH   7  31
HETATM   31  C   UNL     1      -4.940  -0.784 -33.884  1.00  0.00     0.273 C 
BRANCH  31  32
HETATM   32  C   UNL     1      -4.420  -2.163 -33.581  1.00  0.00    -0.033 A 
HETATM   33  C   UNL     1      -3.614  -2.394 -32.456  1.00  0.00     0.009 A 
HETATM   34  C   UNL     1      -3.115  -3.672 -32.197  1.00  0.00     0.001 A 
HETATM   35  C   UNL     1      -3.418  -4.728 -33.053  1.00  0.00     0.000 A 
HETATM   36  C   UNL     1      -4.222  -4.512 -34.169  1.00  0.00     0.001 A 
HETATM   37  C   UNL     1      -4.720  -3.236 -34.435  1.00  0.00     0.009 A 
ENDBRANCH  31  32
ENDBRANCH   7  31
TORSDOF 8
ENDMDL
MODEL 10
REMARK VINA RESULT:      -8.0      2.660      3.563
REMARK  8 active torsions:
REMARK  status: ('A' for Active; 'I' for Inactive)
REMARK    1  A    between atoms: C_2  and  S_3 
REMARK    2  A    between atoms: S_3  and  C_4 
REMARK    3  A    between atoms: C_7  and  C_8 
REMARK    4  A    between atoms: C_8  and  C_9 
REMARK       I    between atoms: C_9  and  N_10 
REMARK    5  A    between atoms: N_10  and  C_11 
REMARK    6  A    between atoms: N_17  and  C_19 
REMARK    7  A    between atoms: C_19  and  C_20 
REMARK    8  A    between atoms: C_27  and  C_28 
REMARK       I    between atoms: C_28  and  N_29 
ROOT
HETATM    1  C   UNL     1      -7.750   3.635 -31.491  1.00  0.00     0.093 A 
HETATM    2  S   UNL     1      -8.721   2.257 -31.248  1.00  0.00    -0.074 SA
HETATM    3  C   UNL     1      -8.150   1.506 -32.646  1.00  0.00     0.018 A 
HETATM    4  C   UNL     1      -7.253   2.293 -33.339  1.00  0.00    -0.023 A 
HETATM    5  C   UNL     1      -6.594   1.796 -34.600  1.00  0.00     0.068 C 
HETATM    6  C   UNL     1      -7.255   0.510 -35.139  1.00  0.00     0.240 C 
HETATM    7  N   UNL     1      -7.613  -0.475 -34.030  1.00  0.00    -0.063 N 
HETATM    8  H   UNL     1      -8.107  -1.254 -34.479  1.00  0.00     0.280 HD
HETATM    9  C   UNL     1      -8.597   0.146 -33.054  1.00  0.00     0.282 C 
HETATM   10  C   UNL     1      -7.037   3.568 -32.684  1.00  0.00     0.073 A 
ENDROOT
BRANCH   1  11
HETATM   11  N   UNL     1      -7.680   4.631 -30.527  1.00  0.00    -0.320 N 
HETATM   12  C   UNL     1      -6.641   4.854 -29.631  1.00  0.00     0.226 C 
HETATM   13  O   UNL     1      -5.662   4.136 -29.449  1.00  0.00    -0.273 OA
HETATM   14  H   UNL     1      -8.474   5.262 -30.473  1.00  0.00     0.169 HD
BRANCH  12  15
HETATM   15  C   UNL     1      -6.820   6.138 -28.835  1.00  0.00     0.141 C 
BRANCH  15  16
HETATM   16  C   UNL     1      -5.516   6.811 -28.482  1.00  0.00    -0.049 A 
HETATM   17  C   UNL     1      -4.969   6.673 -27.200  1.00  0.00     0.009 A 
HETATM   18  C   UNL     1      -3.740   7.260 -26.884  1.00  0.00     0.019 A 
HETATM   19  C   UNL     1      -3.030   7.979 -27.847  1.00  0.00     0.001 A 
HETATM   20  C   UNL     1      -3.578   8.130 -29.124  1.00  0.00     0.019 A 
HETATM   21  C   UNL     1      -4.807   7.543 -29.442  1.00  0.00     0.009 A 
BRANCH  19  22
HETATM   22  S   UNL     1      -1.473   8.721 -27.393  1.00  0.00    -0.126 SA
BRANCH  22  23
HETATM   23  C   UNL     1      -0.268   7.496 -28.051  1.00  0.00     0.044 C 
HETATM   24  C   UNL     1      -0.165   6.281 -27.133  1.00  0.00     0.021 C 
HETATM   25  C   UNL     1       1.089   8.185 -28.178  1.00  0.00     0.021 C 
ENDBRANCH  22  23
ENDBRANCH  19  22
ENDBRANCH  15  16
ENDBRANCH  12  15
ENDBRANCH   1  11
BRANCH  10  26
HETATM   26  C   UNL     1      -6.136   4.603 -33.190  1.00  0.00     0.252 C 
HETATM   27  N   UNL     1      -4.905   4.676 -32.599  1.00  0.00    -0.366 N 
HETATM   28  H   UNL     1      -4.779   4.336 -31.653  1.00  0.00     0.159 HD
HETATM   29  H   UNL     1      -4.365   5.499 -32.844  1.00  0.00     0.159 HD
HETATM   30  O   UNL     1      -6.471   5.401 -34.056  1.00  0.00    -0.268 OA
ENDBRANCH  10  26
BRANCH   7  31
HETATM   31  C   UNL     1      -6.424  -1.100 -33.334  1.00  0.00     0.273 C 
BRANCH  31  32
HETATM   32  C   UNL     1      -6.013  -2.405 -33.960  1.00  0.00    -0.033 A 
HETATM   33  C   UNL     1      -6.956  -3.220 -34.604  1.00  0.00     0.009 A 
HETATM   34  C   UNL     1      -6.570  -4.441 -35.160  1.00  0.00     0.001 A 
HETATM   35  C   UNL     1      -5.243  -4.858 -35.081  1.00  0.00     0.000 A 
HETATM   36  C   UNL     1      -4.297  -4.054 -34.449  1.00  0.00     0.001 A 
HETATM   37  C   UNL     1      -4.678  -2.835 -33.889  1.00  0.00     0.009 A 
ENDBRANCH  31  32
ENDBRANCH   7  31
TORSDOF 8
ENDMDL
