MODEL 1
REMARK VINA RESULT:     -10.3      0.000      0.000
REMARK  6 active torsions:
REMARK  status: ('A' for Active; 'I' for Inactive)
REMARK    1  A    between atoms: C_6  and  O_7 
REMARK    2  A    between atoms: C_6  and  C_8 
REMARK    3  A    between atoms: C_8  and  N_9 
REMARK       I    between atoms: N_9  and  C_10 
REMARK    4  A    between atoms: C_10  and  C_11 
REMARK       I    between atoms: C_11  and  N_12 
REMARK    5  A    between atoms: N_12  and  C_13 
REMARK       I    between atoms: N_17  and  C_18 
REMARK    6  A    between atoms: C_18  and  C_19 
ROOT
HETATM    1  C   UNL     1      -5.536   4.720 -33.295  1.00  0.00     0.313 C 
HETATM    2  N   UNL     1      -4.851   4.321 -32.167  1.00  0.00    -0.319 N 
HETATM    3  O   UNL     1      -5.359   5.708 -33.996  1.00  0.00    -0.262 OA
HETATM    4  H   UNL     1      -5.137   3.422 -31.789  1.00  0.00     0.169 HD
ENDROOT
BRANCH   1   5
HETATM    5  C   UNL     1      -6.679   3.751 -33.671  1.00  0.00     0.309 C 
HETATM    6  N   UNL     1      -6.416   2.452 -33.318  1.00  0.00    -0.350 N 
HETATM    7  H   UNL     1      -5.578   2.286 -32.761  1.00  0.00     0.163 HD
HETATM    8  O   UNL     1      -7.678   4.161 -34.242  1.00  0.00    -0.262 OA
BRANCH   6   9
HETATM    9  C   UNL     1      -7.293   1.333 -33.593  1.00  0.00     0.161 C 
BRANCH   9  10
HETATM   10  C   UNL     1      -6.576  -0.011 -33.321  1.00  0.00     0.078 C 
HETATM   11  C   UNL     1      -7.106  -1.096 -34.281  1.00  0.00     0.078 C 
HETATM   12  C   UNL     1      -6.263  -2.352 -34.326  1.00  0.00    -0.049 A 
HETATM   13  C   UNL     1      -4.950  -2.377 -33.826  1.00  0.00    -0.052 A 
HETATM   14  C   UNL     1      -6.791  -3.506 -34.926  1.00  0.00     0.007 A 
HETATM   15  C   UNL     1      -4.206  -3.564 -33.899  1.00  0.00     0.007 A 
HETATM   16  C   UNL     1      -4.339  -1.177 -33.149  1.00  0.00     0.042 C 
HETATM   17  C   UNL     1      -4.745  -4.707 -34.487  1.00  0.00     0.001 A 
HETATM   18  C   UNL     1      -6.037  -4.676 -35.004  1.00  0.00     0.001 A 
HETATM   19  C   UNL     1      -5.054   0.130 -33.486  1.00  0.00     0.044 C 
BRANCH  10  20
HETATM   20  O   UNL     1      -6.844  -0.372 -31.953  1.00  0.00    -0.388 OA
HETATM   21  H   UNL     1      -6.185   0.064 -31.385  1.00  0.00     0.210 HD
ENDBRANCH  10  20
ENDBRANCH   9  10
ENDBRANCH   6   9
ENDBRANCH   1   5
BRANCH   2  22
HETATM   22  C   UNL     1      -3.840   5.030 -31.495  1.00  0.00     0.035 A 
HETATM   23  C   UNL     1      -2.488   4.931 -31.816  1.00  0.00     0.039 A 
HETATM   24  C   UNL     1      -1.518   5.697 -31.139  1.00  0.00    -0.029 A 
HETATM   25  C   UNL     1      -1.887   6.563 -30.089  1.00  0.00     0.043 A 
HETATM   26  C   UNL     1      -0.085   5.527 -31.571  1.00  0.00     0.042 C 
HETATM   27  N   UNL     1      -0.877   7.297 -29.365  1.00  0.00    -0.313 N 
HETATM   28  C   UNL     1      -3.251   6.633 -29.768  1.00  0.00     0.032 A 
HETATM   29  C   UNL     1      -1.186   8.298 -28.410  1.00  0.00     0.265 C 
HETATM   30  C   UNL     1       0.525   7.007 -29.696  1.00  0.00     0.133 C 
HETATM   31  O   UNL     1      -2.257   8.904 -28.395  1.00  0.00    -0.267 OA
HETATM   32  C   UNL     1       0.739   6.733 -31.173  1.00  0.00     0.025 C 
HETATM   33  C   UNL     1      -4.214   5.892 -30.469  1.00  0.00     0.032 A 
BRANCH  29  34
HETATM   34  C   UNL     1      -0.156   8.594 -27.415  1.00  0.00     0.073 A 
HETATM   35  S   UNL     1       0.339   7.363 -26.329  1.00  0.00    -0.097 SA
HETATM   36  C   UNL     1       1.452   8.404 -25.554  1.00  0.00     0.050 A 
HETATM   37  C   UNL     1       1.477   9.655 -26.126  1.00  0.00     0.009 A 
HETATM   38  C   UNL     1       0.558   9.762 -27.212  1.00  0.00     0.025 A 
ENDBRANCH  29  34
ENDBRANCH   2  22
TORSDOF 6
ENDMDL
MODEL 2
REMARK VINA RESULT:      -9.8      3.422     11.706
REMARK  6 active torsions:
REMARK  status: ('A' for Active; 'I' for Inactive)
REMARK    1  A    between atoms: C_6  and  O_7 
REMARK    2  A    between atoms: C_6  and  C_8 
REMARK    3  A    between atoms: C_8  and  N_9 
REMARK       I    between atoms: N_9  and  C_10 
REMARK    4  A    between atoms: C_10  and  C_11 
REMARK       I    between atoms: C_11  and  N_12 
REMARK    5  A    between atoms: N_12  and  C_13 
REMARK       I    between atoms: N_17  and  C_18 
REMARK    6  A    between atoms: C_18  and  C_19 
ROOT
HETATM    1  C   UNL     1      -2.159   4.698 -31.666  1.00  0.00     0.313 C 
HETATM    2  N   UNL     1      -2.777   3.562 -31.189  1.00  0.00    -0.319 N 
HETATM    3  O   UNL     1      -2.572   5.518 -32.477  1.00  0.00    -0.262 OA
HETATM    4  H   UNL     1      -2.263   3.069 -30.463  1.00  0.00     0.169 HD
ENDROOT
BRANCH   1   5
HETATM    5  C   UNL     1      -0.752   4.907 -31.065  1.00  0.00     0.309 C 
HETATM    6  N   UNL     1      -0.783   5.253 -29.739  1.00  0.00    -0.350 N 
HETATM    7  H   UNL     1      -1.691   5.222 -29.275  1.00  0.00     0.163 HD
HETATM    8  O   UNL     1       0.246   4.783 -31.761  1.00  0.00    -0.262 OA
BRANCH   6   9
HETATM    9  C   UNL     1       0.387   5.553 -28.940  1.00  0.00     0.161 C 
BRANCH   9  10
HETATM   10  C   UNL     1       0.128   6.763 -28.012  1.00  0.00     0.078 C 
HETATM   11  C   UNL     1       1.381   7.053 -27.159  1.00  0.00     0.078 C 
HETATM   12  C   UNL     1       1.358   8.393 -26.457  1.00  0.00    -0.049 A 
HETATM   13  C   UNL     1       0.464   9.408 -26.834  1.00  0.00    -0.052 A 
HETATM   14  C   UNL     1       2.288   8.642 -25.435  1.00  0.00     0.007 A 
HETATM   15  C   UNL     1       0.488  10.637 -26.158  1.00  0.00     0.007 A 
HETATM   16  C   UNL     1      -0.572   9.190 -27.907  1.00  0.00     0.042 C 
HETATM   17  C   UNL     1       1.409  10.869 -25.137  1.00  0.00     0.001 A 
HETATM   18  C   UNL     1       2.311   9.872 -24.779  1.00  0.00     0.001 A 
HETATM   19  C   UNL     1      -0.247   8.013 -28.824  1.00  0.00     0.044 C 
BRANCH  10  20
HETATM   20  O   UNL     1      -0.990   6.427 -27.169  1.00  0.00    -0.388 OA
HETATM   21  H   UNL     1      -0.727   6.562 -26.242  1.00  0.00     0.210 HD
ENDBRANCH  10  20
ENDBRANCH   9  10
ENDBRANCH   6   9
ENDBRANCH   1   5
BRANCH   2  22
HETATM   22  C   UNL     1      -4.003   3.023 -31.613  1.00  0.00     0.035 A 
HETATM   23  C   UNL     1      -4.111   1.856 -32.366  1.00  0.00     0.039 A 
HETATM   24  C   UNL     1      -5.369   1.333 -32.730  1.00  0.00    -0.029 A 
HETATM   25  C   UNL     1      -6.558   2.001 -32.370  1.00  0.00     0.043 A 
HETATM   26  C   UNL     1      -5.377   0.059 -33.533  1.00  0.00     0.042 C 
HETATM   27  N   UNL     1      -7.837   1.486 -32.799  1.00  0.00    -0.313 N 
HETATM   28  C   UNL     1      -6.427   3.184 -31.629  1.00  0.00     0.032 A 
HETATM   29  C   UNL     1      -9.072   2.013 -32.344  1.00  0.00     0.265 C 
HETATM   30  C   UNL     1      -7.821   0.331 -33.706  1.00  0.00     0.133 C 
HETATM   31  O   UNL     1      -9.187   2.640 -31.292  1.00  0.00    -0.267 OA
HETATM   32  C   UNL     1      -6.706  -0.651 -33.394  1.00  0.00     0.025 C 
HETATM   33  C   UNL     1      -5.173   3.680 -31.243  1.00  0.00     0.032 A 
BRANCH  29  34
HETATM   34  C   UNL     1     -10.237   1.773 -33.194  1.00  0.00     0.073 A 
HETATM   35  S   UNL     1     -10.627   2.906 -34.421  1.00  0.00    -0.097 SA
HETATM   36  C   UNL     1     -11.993   2.003 -34.913  1.00  0.00     0.050 A 
HETATM   37  C   UNL     1     -12.138   0.844 -34.184  1.00  0.00     0.009 A 
HETATM   38  C   UNL     1     -11.115   0.703 -33.201  1.00  0.00     0.025 A 
ENDBRANCH  29  34
ENDBRANCH   2  22
TORSDOF 6
ENDMDL
MODEL 3
REMARK VINA RESULT:      -9.2      3.445     10.974
REMARK  6 active torsions:
REMARK  status: ('A' for Active; 'I' for Inactive)
REMARK    1  A    between atoms: C_6  and  O_7 
REMARK    2  A    between atoms: C_6  and  C_8 
REMARK    3  A    between atoms: C_8  and  N_9 
REMARK       I    between atoms: N_9  and  C_10 
REMARK    4  A    between atoms: C_10  and  C_11 
REMARK       I    between atoms: C_11  and  N_12 
REMARK    5  A    between atoms: N_12  and  C_13 
REMARK       I    between atoms: N_17  and  C_18 
REMARK    6  A    between atoms: C_18  and  C_19 
ROOT
HETATM    1  C   UNL     1      -5.837   5.510 -30.295  1.00  0.00     0.313 C 
HETATM    2  N   UNL     1      -5.760   4.231 -29.784  1.00  0.00    -0.319 N 
HETATM    3  O   UNL     1      -5.974   5.869 -31.457  1.00  0.00    -0.262 OA
HETATM    4  H   UNL     1      -5.715   4.178 -28.770  1.00  0.00     0.169 HD
ENDROOT
BRANCH   1   5
HETATM    5  C   UNL     1      -5.721   6.595 -29.202  1.00  0.00     0.309 C 
HETATM    6  N   UNL     1      -5.025   6.170 -28.099  1.00  0.00    -0.350 N 
HETATM    7  H   UNL     1      -4.574   5.257 -28.161  1.00  0.00     0.163 HD
HETATM    8  O   UNL     1      -6.237   7.692 -29.358  1.00  0.00    -0.262 OA
BRANCH   6   9
HETATM    9  C   UNL     1      -4.806   6.966 -26.909  1.00  0.00     0.161 C 
BRANCH   9  10
HETATM   10  C   UNL     1      -3.297   7.071 -26.584  1.00  0.00     0.078 C 
HETATM   11  C   UNL     1      -2.492   7.300 -27.881  1.00  0.00     0.078 C 
HETATM   12  C   UNL     1      -1.060   7.733 -27.654  1.00  0.00    -0.049 A 
HETATM   13  C   UNL     1      -0.626   8.225 -26.412  1.00  0.00    -0.052 A 
HETATM   14  C   UNL     1      -0.157   7.688 -28.728  1.00  0.00     0.007 A 
HETATM   15  C   UNL     1       0.710   8.623 -26.255  1.00  0.00     0.007 A 
HETATM   16  C   UNL     1      -1.544   8.273 -25.217  1.00  0.00     0.042 C 
HETATM   17  C   UNL     1       1.601   8.563 -27.326  1.00  0.00     0.001 A 
HETATM   18  C   UNL     1       1.165   8.099 -28.563  1.00  0.00     0.001 A 
HETATM   19  C   UNL     1      -3.022   8.213 -25.594  1.00  0.00     0.044 C 
BRANCH  10  20
HETATM   20  O   UNL     1      -2.905   5.834 -25.959  1.00  0.00    -0.388 OA
HETATM   21  H   UNL     1      -3.578   5.161 -26.160  1.00  0.00     0.210 HD
ENDBRANCH  10  20
ENDBRANCH   9  10
ENDBRANCH   6   9
ENDBRANCH   1   5
BRANCH   2  22
HETATM   22  C   UNL     1      -5.716   3.030 -30.512  1.00  0.00     0.035 A 
HETATM   23  C   UNL     1      -6.851   2.365 -30.969  1.00  0.00     0.039 A 
HETATM   24  C   UNL     1      -6.750   1.184 -31.733  1.00  0.00    -0.029 A 
HETATM   25  C   UNL     1      -5.491   0.622 -32.027  1.00  0.00     0.043 A 
HETATM   26  C   UNL     1      -8.037   0.550 -32.190  1.00  0.00     0.042 C 
HETATM   27  N   UNL     1      -5.404  -0.619 -32.759  1.00  0.00    -0.313 N 
HETATM   28  C   UNL     1      -4.360   1.295 -31.540  1.00  0.00     0.032 A 
HETATM   29  C   UNL     1      -4.177  -1.156 -33.224  1.00  0.00     0.265 C 
HETATM   30  C   UNL     1      -6.667  -1.303 -33.066  1.00  0.00     0.133 C 
HETATM   31  O   UNL     1      -3.172  -0.471 -33.409  1.00  0.00    -0.267 OA
HETATM   32  C   UNL     1      -7.796  -0.341 -33.389  1.00  0.00     0.025 C 
HETATM   33  C   UNL     1      -4.469   2.488 -30.809  1.00  0.00     0.032 A 
BRANCH  29  34
HETATM   34  C   UNL     1      -4.149  -2.595 -33.485  1.00  0.00     0.073 A 
HETATM   35  S   UNL     1      -4.976  -3.214 -34.853  1.00  0.00    -0.097 SA
HETATM   36  C   UNL     1      -4.520  -4.820 -34.484  1.00  0.00     0.050 A 
HETATM   37  C   UNL     1      -3.727  -4.888 -33.361  1.00  0.00     0.009 A 
HETATM   38  C   UNL     1      -3.499  -3.601 -32.791  1.00  0.00     0.025 A 
ENDBRANCH  29  34
ENDBRANCH   2  22
TORSDOF 6
ENDMDL
MODEL 4
REMARK VINA RESULT:      -9.1      4.735     11.724
REMARK  6 active torsions:
REMARK  status: ('A' for Active; 'I' for Inactive)
REMARK    1  A    between atoms: C_6  and  O_7 
REMARK    2  A    between atoms: C_6  and  C_8 
REMARK    3  A    between atoms: C_8  and  N_9 
REMARK       I    between atoms: N_9  and  C_10 
REMARK    4  A    between atoms: C_10  and  C_11 
REMARK       I    between atoms: C_11  and  N_12 
REMARK    5  A    between atoms: N_12  and  C_13 
REMARK       I    between atoms: N_17  and  C_18 
REMARK    6  A    between atoms: C_18  and  C_19 
ROOT
HETATM    1  C   UNL     1      -3.173   4.026 -31.738  1.00  0.00     0.313 C 
HETATM    2  N   UNL     1      -4.192   4.747 -32.323  1.00  0.00    -0.319 N 
HETATM    3  O   UNL     1      -3.212   2.917 -31.221  1.00  0.00    -0.262 OA
HETATM    4  H   UNL     1      -3.904   5.624 -32.750  1.00  0.00     0.169 HD
ENDROOT
BRANCH   1   5
HETATM    5  C   UNL     1      -1.823   4.776 -31.761  1.00  0.00     0.309 C 
HETATM    6  N   UNL     1      -1.416   5.182 -30.516  1.00  0.00    -0.350 N 
HETATM    7  H   UNL     1      -1.967   4.857 -29.721  1.00  0.00     0.163 HD
HETATM    8  O   UNL     1      -1.240   4.974 -32.817  1.00  0.00    -0.262 OA
BRANCH   6   9
HETATM    9  C   UNL     1      -0.214   5.945 -30.253  1.00  0.00     0.161 C 
BRANCH   9  10
HETATM   10  C   UNL     1      -0.403   6.871 -29.028  1.00  0.00     0.078 C 
HETATM   11  C   UNL     1       0.923   6.995 -28.249  1.00  0.00     0.078 C 
HETATM   12  C   UNL     1       0.944   8.113 -27.231  1.00  0.00    -0.049 A 
HETATM   13  C   UNL     1      -0.006   9.148 -27.252  1.00  0.00    -0.052 A 
HETATM   14  C   UNL     1       1.967   8.141 -26.270  1.00  0.00     0.007 A 
HETATM   15  C   UNL     1       0.061  10.168 -26.291  1.00  0.00     0.007 A 
HETATM   16  C   UNL     1      -1.141   9.158 -28.244  1.00  0.00     0.042 C 
HETATM   17  C   UNL     1       1.075  10.179 -25.335  1.00  0.00     0.001 A 
HETATM   18  C   UNL     1       2.030   9.167 -25.328  1.00  0.00     0.001 A 
HETATM   19  C   UNL     1      -0.886   8.266 -29.456  1.00  0.00     0.044 C 
BRANCH  10  20
HETATM   20  O   UNL     1      -1.422   6.282 -28.197  1.00  0.00    -0.388 OA
HETATM   21  H   UNL     1      -2.269   6.321 -28.676  1.00  0.00     0.210 HD
ENDBRANCH  10  20
ENDBRANCH   9  10
ENDBRANCH   6   9
ENDBRANCH   1   5
BRANCH   2  22
HETATM   22  C   UNL     1      -5.555   4.407 -32.366  1.00  0.00     0.035 A 
HETATM   23  C   UNL     1      -6.394   4.455 -31.255  1.00  0.00     0.039 A 
HETATM   24  C   UNL     1      -7.765   4.144 -31.361  1.00  0.00    -0.029 A 
HETATM   25  C   UNL     1      -8.320   3.740 -32.593  1.00  0.00     0.043 A 
HETATM   26  C   UNL     1      -8.590   4.239 -30.104  1.00  0.00     0.042 C 
HETATM   27  N   UNL     1      -9.713   3.369 -32.674  1.00  0.00    -0.313 N 
HETATM   28  C   UNL     1      -7.454   3.679 -33.695  1.00  0.00     0.032 A 
HETATM   29  C   UNL     1     -10.371   3.107 -33.902  1.00  0.00     0.265 C 
HETATM   30  C   UNL     1     -10.465   3.321 -31.413  1.00  0.00     0.133 C 
HETATM   31  O   UNL     1      -9.974   3.542 -34.983  1.00  0.00    -0.267 OA
HETATM   32  C   UNL     1     -10.056   4.410 -30.439  1.00  0.00     0.025 C 
HETATM   33  C   UNL     1      -6.097   4.021 -33.588  1.00  0.00     0.032 A 
BRANCH  29  34
HETATM   34  C   UNL     1     -11.574   2.279 -33.836  1.00  0.00     0.073 A 
HETATM   35  S   UNL     1     -13.112   3.024 -33.975  1.00  0.00    -0.097 SA
HETATM   36  C   UNL     1     -13.925   1.530 -33.801  1.00  0.00     0.050 A 
HETATM   37  C   UNL     1     -13.049   0.476 -33.673  1.00  0.00     0.009 A 
HETATM   38  C   UNL     1     -11.690   0.906 -33.709  1.00  0.00     0.025 A 
ENDBRANCH  29  34
ENDBRANCH   2  22
TORSDOF 6
ENDMDL
MODEL 5
REMARK VINA RESULT:      -9.1      2.907      4.406
REMARK  6 active torsions:
REMARK  status: ('A' for Active; 'I' for Inactive)
REMARK    1  A    between atoms: C_6  and  O_7 
REMARK    2  A    between atoms: C_6  and  C_8 
REMARK    3  A    between atoms: C_8  and  N_9 
REMARK       I    between atoms: N_9  and  C_10 
REMARK    4  A    between atoms: C_10  and  C_11 
REMARK       I    between atoms: C_11  and  N_12 
REMARK    5  A    between atoms: N_12  and  C_13 
REMARK       I    between atoms: N_17  and  C_18 
REMARK    6  A    between atoms: C_18  and  C_19 
ROOT
HETATM    1  C   UNL     1      -4.349   6.319 -28.734  1.00  0.00     0.313 C 
HETATM    2  N   UNL     1      -3.848   6.324 -27.450  1.00  0.00    -0.319 N 
HETATM    3  O   UNL     1      -3.870   6.806 -29.751  1.00  0.00    -0.262 OA
HETATM    4  H   UNL     1      -4.394   5.793 -26.776  1.00  0.00     0.169 HD
ENDROOT
BRANCH   1   5
HETATM    5  C   UNL     1      -5.708   5.593 -28.840  1.00  0.00     0.309 C 
HETATM    6  N   UNL     1      -5.601   4.335 -29.375  1.00  0.00    -0.350 N 
HETATM    7  H   UNL     1      -4.658   3.978 -29.532  1.00  0.00     0.163 HD
HETATM    8  O   UNL     1      -6.738   6.147 -28.486  1.00  0.00    -0.262 OA
BRANCH   6   9
HETATM    9  C   UNL     1      -6.720   3.452 -29.630  1.00  0.00     0.161 C 
BRANCH   9  10
HETATM   10  C   UNL     1      -6.240   2.103 -30.213  1.00  0.00     0.078 C 
HETATM   11  C   UNL     1      -7.202   1.635 -31.325  1.00  0.00     0.078 C 
HETATM   12  C   UNL     1      -6.665   0.506 -32.177  1.00  0.00    -0.049 A 
HETATM   13  C   UNL     1      -5.300   0.172 -32.185  1.00  0.00    -0.052 A 
HETATM   14  C   UNL     1      -7.547  -0.192 -33.017  1.00  0.00     0.007 A 
HETATM   15  C   UNL     1      -4.850  -0.878 -33.000  1.00  0.00     0.007 A 
HETATM   16  C   UNL     1      -4.311   0.871 -31.287  1.00  0.00     0.042 C 
HETATM   17  C   UNL     1      -5.738  -1.572 -33.821  1.00  0.00     0.001 A 
HETATM   18  C   UNL     1      -7.086  -1.226 -33.831  1.00  0.00     0.001 A 
HETATM   19  C   UNL     1      -4.814   2.219 -30.775  1.00  0.00     0.044 C 
BRANCH  10  20
HETATM   20  O   UNL     1      -6.217   1.151 -29.133  1.00  0.00    -0.388 OA
HETATM   21  H   UNL     1      -5.409   0.614 -29.213  1.00  0.00     0.210 HD
ENDBRANCH  10  20
ENDBRANCH   9  10
ENDBRANCH   6   9
ENDBRANCH   1   5
BRANCH   2  22
HETATM   22  C   UNL     1      -2.701   6.993 -26.991  1.00  0.00     0.035 A 
HETATM   23  C   UNL     1      -1.484   6.989 -27.669  1.00  0.00     0.039 A 
HETATM   24  C   UNL     1      -0.375   7.713 -27.187  1.00  0.00    -0.029 A 
HETATM   25  C   UNL     1      -0.457   8.437 -25.979  1.00  0.00     0.043 A 
HETATM   26  C   UNL     1       0.891   7.654 -28.001  1.00  0.00     0.042 C 
HETATM   27  N   UNL     1       0.704   9.125 -25.467  1.00  0.00    -0.313 N 
HETATM   28  C   UNL     1      -1.684   8.412 -25.301  1.00  0.00     0.032 A 
HETATM   29  C   UNL     1       0.654   9.996 -24.349  1.00  0.00     0.265 C 
HETATM   30  C   UNL     1       1.968   8.934 -26.191  1.00  0.00     0.133 C 
HETATM   31  O   UNL     1      -0.380  10.551 -23.977  1.00  0.00    -0.267 OA
HETATM   32  C   UNL     1       1.779   8.840 -27.694  1.00  0.00     0.025 C 
HETATM   33  C   UNL     1      -2.793   7.716 -25.805  1.00  0.00     0.032 A 
BRANCH  29  34
HETATM   34  C   UNL     1       1.910  10.220 -23.637  1.00  0.00     0.073 A 
HETATM   35  S   UNL     1       2.562   8.963 -22.671  1.00  0.00    -0.097 SA
HETATM   36  C   UNL     1       3.900   9.921 -22.208  1.00  0.00     0.050 A 
HETATM   37  C   UNL     1       3.876  11.164 -22.800  1.00  0.00     0.009 A 
HETATM   38  C   UNL     1       2.734  11.332 -23.637  1.00  0.00     0.025 A 
ENDBRANCH  29  34
ENDBRANCH   2  22
TORSDOF 6
ENDMDL
MODEL 6
REMARK VINA RESULT:      -9.1      3.871      5.512
REMARK  6 active torsions:
REMARK  status: ('A' for Active; 'I' for Inactive)
REMARK    1  A    between atoms: C_6  and  O_7 
REMARK    2  A    between atoms: C_6  and  C_8 
REMARK    3  A    between atoms: C_8  and  N_9 
REMARK       I    between atoms: N_9  and  C_10 
REMARK    4  A    between atoms: C_10  and  C_11 
REMARK       I    between atoms: C_11  and  N_12 
REMARK    5  A    between atoms: N_12  and  C_13 
REMARK       I    between atoms: N_17  and  C_18 
REMARK    6  A    between atoms: C_18  and  C_19 
ROOT
HETATM    1  C   UNL     1      -6.978   4.590 -32.476  1.00  0.00     0.313 C 
HETATM    2  N   UNL     1      -6.014   5.504 -32.844  1.00  0.00    -0.319 N 
HETATM    3  O   UNL     1      -7.064   3.931 -31.448  1.00  0.00    -0.262 OA
HETATM    4  H   UNL     1      -6.191   5.981 -33.725  1.00  0.00     0.169 HD
ENDROOT
BRANCH   1   5
HETATM    5  C   UNL     1      -8.069   4.409 -33.555  1.00  0.00     0.309 C 
HETATM    6  N   UNL     1      -8.656   3.171 -33.519  1.00  0.00    -0.350 N 
HETATM    7  H   UNL     1      -8.404   2.562 -32.739  1.00  0.00     0.163 HD
HETATM    8  O   UNL     1      -8.319   5.310 -34.343  1.00  0.00    -0.262 OA
BRANCH   6   9
HETATM    9  C   UNL     1      -9.674   2.716 -34.444  1.00  0.00     0.161 C 
BRANCH   9  10
HETATM   10  C   UNL     1     -10.946   2.265 -33.688  1.00  0.00     0.078 C 
HETATM   11  C   UNL     1     -11.843   3.484 -33.390  1.00  0.00     0.078 C 
HETATM   12  C   UNL     1     -13.245   3.130 -32.946  1.00  0.00    -0.049 A 
HETATM   13  C   UNL     1     -13.777   1.844 -33.139  1.00  0.00    -0.052 A 
HETATM   14  C   UNL     1     -14.051   4.126 -32.372  1.00  0.00     0.007 A 
HETATM   15  C   UNL     1     -15.087   1.567 -32.719  1.00  0.00     0.007 A 
HETATM   16  C   UNL     1     -12.952   0.728 -33.728  1.00  0.00     0.042 C 
HETATM   17  C   UNL     1     -15.873   2.562 -32.139  1.00  0.00     0.001 A 
HETATM   18  C   UNL     1     -15.355   3.843 -31.970  1.00  0.00     0.001 A 
HETATM   19  C   UNL     1     -11.735   1.227 -34.502  1.00  0.00     0.044 C 
BRANCH  10  20
HETATM   20  O   UNL     1     -10.519   1.640 -32.463  1.00  0.00    -0.388 OA
HETATM   21  H   UNL     1      -9.584   1.388 -32.556  1.00  0.00     0.210 HD
ENDBRANCH  10  20
ENDBRANCH   9  10
ENDBRANCH   6   9
ENDBRANCH   1   5
BRANCH   2  22
HETATM   22  C   UNL     1      -4.832   5.815 -32.150  1.00  0.00     0.035 A 
HETATM   23  C   UNL     1      -3.625   5.149 -32.351  1.00  0.00     0.039 A 
HETATM   24  C   UNL     1      -2.457   5.528 -31.659  1.00  0.00    -0.029 A 
HETATM   25  C   UNL     1      -2.487   6.575 -30.714  1.00  0.00     0.043 A 
HETATM   26  C   UNL     1      -1.200   4.754 -31.957  1.00  0.00     0.042 C 
HETATM   27  N   UNL     1      -1.296   6.914 -29.970  1.00  0.00    -0.313 N 
HETATM   28  C   UNL     1      -3.716   7.219 -30.512  1.00  0.00     0.032 A 
HETATM   29  C   UNL     1      -1.212   8.050 -29.126  1.00  0.00     0.265 C 
HETATM   30  C   UNL     1      -0.122   6.053 -30.162  1.00  0.00     0.133 C 
HETATM   31  O   UNL     1      -1.943   9.032 -29.247  1.00  0.00    -0.267 OA
HETATM   32  C   UNL     1       0.025   5.562 -31.590  1.00  0.00     0.025 C 
HETATM   33  C   UNL     1      -4.866   6.857 -31.229  1.00  0.00     0.032 A 
BRANCH  29  34
HETATM   34  C   UNL     1      -0.194   8.011 -28.077  1.00  0.00     0.073 A 
HETATM   35  S   UNL     1      -0.528   7.181 -26.615  1.00  0.00    -0.097 SA
HETATM   36  C   UNL     1       1.004   7.571 -25.965  1.00  0.00     0.050 A 
HETATM   37  C   UNL     1       1.774   8.291 -26.851  1.00  0.00     0.009 A 
HETATM   38  C   UNL     1       1.088   8.533 -28.078  1.00  0.00     0.025 A 
ENDBRANCH  29  34
ENDBRANCH   2  22
TORSDOF 6
ENDMDL
MODEL 7
REMARK VINA RESULT:      -9.0      1.528      2.145
REMARK  6 active torsions:
REMARK  status: ('A' for Active; 'I' for Inactive)
REMARK    1  A    between atoms: C_6  and  O_7 
REMARK    2  A    between atoms: C_6  and  C_8 
REMARK    3  A    between atoms: C_8  and  N_9 
REMARK       I    between atoms: N_9  and  C_10 
REMARK    4  A    between atoms: C_10  and  C_11 
REMARK       I    between atoms: C_11  and  N_12 
REMARK    5  A    between atoms: N_12  and  C_13 
REMARK       I    between atoms: N_17  and  C_18 
REMARK    6  A    between atoms: C_18  and  C_19 
ROOT
HETATM    1  C   UNL     1      -5.838   4.757 -31.187  1.00  0.00     0.313 C 
HETATM    2  N   UNL     1      -4.917   5.671 -31.654  1.00  0.00    -0.319 N 
HETATM    3  O   UNL     1      -6.049   4.394 -30.037  1.00  0.00    -0.262 OA
HETATM    4  H   UNL     1      -4.973   5.862 -32.651  1.00  0.00     0.169 HD
ENDROOT
BRANCH   1   5
HETATM    5  C   UNL     1      -6.685   4.135 -32.319  1.00  0.00     0.309 C 
HETATM    6  N   UNL     1      -7.307   2.971 -31.944  1.00  0.00    -0.350 N 
HETATM    7  H   UNL     1      -7.243   2.710 -30.960  1.00  0.00     0.163 HD
HETATM    8  O   UNL     1      -6.736   4.664 -33.420  1.00  0.00    -0.262 OA
BRANCH   6   9
HETATM    9  C   UNL     1      -8.123   2.157 -32.820  1.00  0.00     0.161 C 
BRANCH   9  10
HETATM   10  C   UNL     1      -7.259   1.119 -33.574  1.00  0.00     0.078 C 
HETATM   11  C   UNL     1      -6.259   0.457 -32.603  1.00  0.00     0.078 C 
HETATM   12  C   UNL     1      -5.591  -0.785 -33.150  1.00  0.00    -0.049 A 
HETATM   13  C   UNL     1      -6.099  -1.463 -34.272  1.00  0.00    -0.052 A 
HETATM   14  C   UNL     1      -4.465  -1.301 -32.489  1.00  0.00     0.007 A 
HETATM   15  C   UNL     1      -5.448  -2.616 -34.735  1.00  0.00     0.007 A 
HETATM   16  C   UNL     1      -7.290  -0.944 -35.036  1.00  0.00     0.042 C 
HETATM   17  C   UNL     1      -4.323  -3.112 -34.077  1.00  0.00     0.001 A 
HETATM   18  C   UNL     1      -3.835  -2.455 -32.951  1.00  0.00     0.001 A 
HETATM   19  C   UNL     1      -8.135   0.041 -34.232  1.00  0.00     0.044 C 
BRANCH  10  20
HETATM   20  O   UNL     1      -6.558   1.821 -34.619  1.00  0.00    -0.388 OA
HETATM   21  H   UNL     1      -6.991   2.682 -34.755  1.00  0.00     0.210 HD
ENDBRANCH  10  20
ENDBRANCH   9  10
ENDBRANCH   6   9
ENDBRANCH   1   5
BRANCH   2  22
HETATM   22  C   UNL     1      -3.922   6.326 -30.909  1.00  0.00     0.035 A 
HETATM   23  C   UNL     1      -2.597   5.902 -30.855  1.00  0.00     0.039 A 
HETATM   24  C   UNL     1      -1.627   6.621 -30.127  1.00  0.00    -0.029 A 
HETATM   25  C   UNL     1      -1.983   7.777 -29.400  1.00  0.00     0.043 A 
HETATM   26  C   UNL     1      -0.219   6.086 -30.142  1.00  0.00     0.042 C 
HETATM   27  N   UNL     1      -0.992   8.470 -28.611  1.00  0.00    -0.313 N 
HETATM   28  C   UNL     1      -3.326   8.176 -29.451  1.00  0.00     0.032 A 
HETATM   29  C   UNL     1      -1.239   9.719 -27.987  1.00  0.00     0.265 C 
HETATM   30  C   UNL     1       0.337   7.851 -28.515  1.00  0.00     0.133 C 
HETATM   31  O   UNL     1      -2.115  10.496 -28.364  1.00  0.00    -0.267 OA
HETATM   32  C   UNL     1       0.771   7.179 -29.804  1.00  0.00     0.025 C 
HETATM   33  C   UNL     1      -4.278   7.473 -30.205  1.00  0.00     0.032 A 
BRANCH  29  34
HETATM   34  C   UNL     1      -0.388  10.060 -26.848  1.00  0.00     0.073 A 
HETATM   35  S   UNL     1      -0.663   9.298 -25.337  1.00  0.00    -0.097 SA
HETATM   36  C   UNL     1       0.611  10.162 -24.594  1.00  0.00     0.050 A 
HETATM   37  C   UNL     1       1.260  10.992 -25.480  1.00  0.00     0.009 A 
HETATM   38  C   UNL     1       0.693  10.923 -26.787  1.00  0.00     0.025 A 
ENDBRANCH  29  34
ENDBRANCH   2  22
TORSDOF 6
ENDMDL
MODEL 8
REMARK VINA RESULT:      -9.0      3.008     11.729
REMARK  6 active torsions:
REMARK  status: ('A' for Active; 'I' for Inactive)
REMARK    1  A    between atoms: C_6  and  O_7 
REMARK    2  A    between atoms: C_6  and  C_8 
REMARK    3  A    between atoms: C_8  and  N_9 
REMARK       I    between atoms: N_9  and  C_10 
REMARK    4  A    between atoms: C_10  and  C_11 
REMARK       I    between atoms: C_11  and  N_12 
REMARK    5  A    between atoms: N_12  and  C_13 
REMARK       I    between atoms: N_17  and  C_18 
REMARK    6  A    between atoms: C_18  and  C_19 
ROOT
HETATM    1  C   UNL     1      -3.298   6.128 -30.789  1.00  0.00     0.313 C 
HETATM    2  N   UNL     1      -4.563   5.626 -31.011  1.00  0.00    -0.319 N 
HETATM    3  O   UNL     1      -2.214   5.577 -30.927  1.00  0.00    -0.262 OA
HETATM    4  H   UNL     1      -5.317   6.298 -30.892  1.00  0.00     0.169 HD
ENDROOT
BRANCH   1   5
HETATM    5  C   UNL     1      -3.319   7.590 -30.289  1.00  0.00     0.309 C 
HETATM    6  N   UNL     1      -2.846   7.724 -29.009  1.00  0.00    -0.350 N 
HETATM    7  H   UNL     1      -2.436   6.894 -28.579  1.00  0.00     0.163 HD
HETATM    8  O   UNL     1      -3.745   8.485 -31.004  1.00  0.00    -0.262 OA
BRANCH   6   9
HETATM    9  C   UNL     1      -2.796   8.973 -28.278  1.00  0.00     0.161 C 
BRANCH   9  10
HETATM   10  C   UNL     1      -1.361   9.267 -27.782  1.00  0.00     0.078 C 
HETATM   11  C   UNL     1      -1.347   9.382 -26.243  1.00  0.00     0.078 C 
HETATM   12  C   UNL     1       0.035   9.349 -25.630  1.00  0.00    -0.049 A 
HETATM   13  C   UNL     1       1.152   8.895 -26.352  1.00  0.00    -0.052 A 
HETATM   14  C   UNL     1       0.195   9.735 -24.289  1.00  0.00     0.007 A 
HETATM   15  C   UNL     1       2.412   8.875 -25.735  1.00  0.00     0.007 A 
HETATM   16  C   UNL     1       1.045   8.491 -27.800  1.00  0.00     0.042 C 
HETATM   17  C   UNL     1       2.560   9.272 -24.407  1.00  0.00     0.001 A 
HETATM   18  C   UNL     1       1.450   9.698 -23.683  1.00  0.00     0.001 A 
HETATM   19  C   UNL     1      -0.384   8.167 -28.228  1.00  0.00     0.044 C 
BRANCH  10  20
HETATM   20  O   UNL     1      -0.943  10.507 -28.384  1.00  0.00    -0.388 OA
HETATM   21  H   UNL     1      -1.239  11.239 -27.817  1.00  0.00     0.210 HD
ENDBRANCH  10  20
ENDBRANCH   9  10
ENDBRANCH   6   9
ENDBRANCH   1   5
BRANCH   2  22
HETATM   22  C   UNL     1      -4.901   4.306 -31.355  1.00  0.00     0.035 A 
HETATM   23  C   UNL     1      -5.177   3.313 -30.417  1.00  0.00     0.039 A 
HETATM   24  C   UNL     1      -5.554   2.015 -30.815  1.00  0.00    -0.029 A 
HETATM   25  C   UNL     1      -5.629   1.674 -32.182  1.00  0.00     0.043 A 
HETATM   26  C   UNL     1      -5.844   1.018 -29.724  1.00  0.00     0.042 C 
HETATM   27  N   UNL     1      -5.959   0.324 -32.575  1.00  0.00    -0.313 N 
HETATM   28  C   UNL     1      -5.328   2.681 -33.110  1.00  0.00     0.032 A 
HETATM   29  C   UNL     1      -6.205  -0.049 -33.920  1.00  0.00     0.265 C 
HETATM   30  C   UNL     1      -6.090  -0.671 -31.502  1.00  0.00     0.133 C 
HETATM   31  O   UNL     1      -6.554   0.753 -34.786  1.00  0.00    -0.267 OA
HETATM   32  C   UNL     1      -6.718  -0.103 -30.243  1.00  0.00     0.025 C 
HETATM   33  C   UNL     1      -4.985   3.980 -32.705  1.00  0.00     0.032 A 
BRANCH  29  34
HETATM   34  C   UNL     1      -6.029  -1.462 -34.250  1.00  0.00     0.073 A 
HETATM   35  S   UNL     1      -4.463  -2.155 -34.158  1.00  0.00    -0.097 SA
HETATM   36  C   UNL     1      -5.038  -3.685 -34.661  1.00  0.00     0.050 A 
HETATM   37  C   UNL     1      -6.400  -3.685 -34.864  1.00  0.00     0.009 A 
HETATM   38  C   UNL     1      -6.975  -2.405 -34.613  1.00  0.00     0.025 A 
ENDBRANCH  29  34
ENDBRANCH   2  22
TORSDOF 6
ENDMDL
MODEL 9
REMARK VINA RESULT:      -8.9      1.511      2.236
REMARK  6 active torsions:
REMARK  status: ('A' for Active; 'I' for Inactive)
REMARK    1  A    between atoms: C_6  and  O_7 
REMARK    2  A    between atoms: C_6  and  C_8 
REMARK    3  A    between atoms: C_8  and  N_9 
REMARK       I    between atoms: N_9  and  C_10 
REMARK    4  A    between atoms: C_10  and  C_11 
REMARK       I    between atoms: C_11  and  N_12 
REMARK    5  A    between atoms: N_12  and  C_13 
REMARK       I    between atoms: N_17  and  C_18 
REMARK    6  A    between atoms: C_18  and  C_19 
ROOT
HETATM    1  C   UNL     1      -7.020   3.694 -33.283  1.00  0.00     0.313 C 
HETATM    2  N   UNL     1      -5.762   3.289 -32.890  1.00  0.00    -0.319 N 
HETATM    3  O   UNL     1      -7.498   4.821 -33.299  1.00  0.00    -0.262 OA
HETATM    4  H   UNL     1      -5.568   2.301 -33.031  1.00  0.00     0.169 HD
ENDROOT
BRANCH   1   5
HETATM    5  C   UNL     1      -7.905   2.517 -33.749  1.00  0.00     0.309 C 
HETATM    6  N   UNL     1      -7.383   1.293 -33.421  1.00  0.00    -0.350 N 
HETATM    7  H   UNL     1      -6.555   1.289 -32.824  1.00  0.00     0.163 HD
HETATM    8  O   UNL     1      -8.942   2.725 -34.362  1.00  0.00    -0.262 OA
BRANCH   6   9
HETATM    9  C   UNL     1      -7.980   0.022 -33.776  1.00  0.00     0.161 C 
BRANCH   9  10
HETATM   10  C   UNL     1      -6.896  -1.009 -34.166  1.00  0.00     0.078 C 
HETATM   11  C   UNL     1      -5.872  -1.158 -33.021  1.00  0.00     0.078 C 
HETATM   12  C   UNL     1      -4.960  -2.357 -33.155  1.00  0.00    -0.049 A 
HETATM   13  C   UNL     1      -5.257  -3.416 -34.030  1.00  0.00    -0.052 A 
HETATM   14  C   UNL     1      -3.813  -2.435 -32.349  1.00  0.00     0.007 A 
HETATM   15  C   UNL     1      -4.384  -4.511 -34.111  1.00  0.00     0.007 A 
HETATM   16  C   UNL     1      -6.460  -3.377 -34.937  1.00  0.00     0.042 C 
HETATM   17  C   UNL     1      -3.242  -4.572 -33.313  1.00  0.00     0.001 A 
HETATM   18  C   UNL     1      -2.960  -3.535 -32.429  1.00  0.00     0.001 A 
HETATM   19  C   UNL     1      -7.521  -2.377 -34.483  1.00  0.00     0.044 C 
BRANCH  10  20
HETATM   20  O   UNL     1      -6.252  -0.525 -35.360  1.00  0.00    -0.388 OA
HETATM   21  H   UNL     1      -6.227  -1.249 -36.011  1.00  0.00     0.210 HD
ENDBRANCH  10  20
ENDBRANCH   9  10
ENDBRANCH   6   9
ENDBRANCH   1   5
BRANCH   2  22
HETATM   22  C   UNL     1      -4.760   4.084 -32.309  1.00  0.00     0.035 A 
HETATM   23  C   UNL     1      -3.626   4.516 -32.994  1.00  0.00     0.039 A 
HETATM   24  C   UNL     1      -2.671   5.349 -32.377  1.00  0.00    -0.029 A 
HETATM   25  C   UNL     1      -2.820   5.741 -31.030  1.00  0.00     0.043 A 
HETATM   26  C   UNL     1      -1.488   5.771 -33.208  1.00  0.00     0.042 C 
HETATM   27  N   UNL     1      -1.804   6.546 -30.393  1.00  0.00    -0.313 N 
HETATM   28  C   UNL     1      -3.957   5.280 -30.352  1.00  0.00     0.032 A 
HETATM   29  C   UNL     1      -1.962   7.105 -29.100  1.00  0.00     0.265 C 
HETATM   30  C   UNL     1      -0.588   6.822 -31.169  1.00  0.00     0.133 C 
HETATM   31  O   UNL     1      -3.062   7.306 -28.586  1.00  0.00    -0.267 OA
HETATM   32  C   UNL     1      -0.863   7.029 -32.646  1.00  0.00     0.025 C 
HETATM   33  C   UNL     1      -4.920   4.478 -30.984  1.00  0.00     0.032 A 
BRANCH  29  34
HETATM   34  C   UNL     1      -0.736   7.447 -28.381  1.00  0.00     0.073 A 
HETATM   35  S   UNL     1      -0.412   9.089 -28.011  1.00  0.00    -0.097 SA
HETATM   36  C   UNL     1       1.068   8.695 -27.251  1.00  0.00     0.050 A 
HETATM   37  C   UNL     1       1.302   7.338 -27.246  1.00  0.00     0.009 A 
HETATM   38  C   UNL     1       0.252   6.615 -27.885  1.00  0.00     0.025 A 
ENDBRANCH  29  34
ENDBRANCH   2  22
TORSDOF 6
ENDMDL
MODEL 10
REMARK VINA RESULT:      -8.9      3.641      5.600
REMARK  6 active torsions:
REMARK  status: ('A' for Active; 'I' for Inactive)
REMARK    1  A    between atoms: C_6  and  O_7 
REMARK    2  A    between atoms: C_6  and  C_8 
REMARK    3  A    between atoms: C_8  and  N_9 
REMARK       I    between atoms: N_9  and  C_10 
REMARK    4  A    between atoms: C_10  and  C_11 
REMARK       I    between atoms: C_11  and  N_12 
REMARK    5  A    between atoms: N_12  and  C_13 
REMARK       I    between atoms: N_17  and  C_18 
REMARK    6  A    between atoms: C_18  and  C_19 
ROOT
HETATM    1  C   UNL     1      -6.286   1.318 -32.334  1.00  0.00     0.313 C 
HETATM    2  N   UNL     1      -5.983   2.581 -32.796  1.00  0.00    -0.319 N 
HETATM    3  O   UNL     1      -5.830   0.720 -31.368  1.00  0.00    -0.262 OA
HETATM    4  H   UNL     1      -6.544   2.894 -33.584  1.00  0.00     0.169 HD
ENDROOT
BRANCH   1   5
HETATM    5  C   UNL     1      -7.347   0.606 -33.202  1.00  0.00     0.309 C 
HETATM    6  N   UNL     1      -8.370   1.435 -33.582  1.00  0.00    -0.350 N 
HETATM    7  H   UNL     1      -8.269   2.426 -33.360  1.00  0.00     0.163 HD
HETATM    8  O   UNL     1      -7.236  -0.582 -33.468  1.00  0.00    -0.262 OA
BRANCH   6   9
HETATM    9  C   UNL     1      -9.519   1.020 -34.359  1.00  0.00     0.161 C 
BRANCH   9  10
HETATM   10  C   UNL     1     -10.742   1.921 -34.065  1.00  0.00     0.078 C 
HETATM   11  C   UNL     1     -12.002   1.053 -33.867  1.00  0.00     0.078 C 
HETATM   12  C   UNL     1     -13.177   1.792 -33.265  1.00  0.00    -0.049 A 
HETATM   13  C   UNL     1     -13.018   3.031 -32.621  1.00  0.00    -0.052 A 
HETATM   14  C   UNL     1     -14.449   1.200 -33.308  1.00  0.00     0.007 A 
HETATM   15  C   UNL     1     -14.137   3.672 -32.070  1.00  0.00     0.007 A 
HETATM   16  C   UNL     1     -11.681   3.726 -32.565  1.00  0.00     0.042 C 
HETATM   17  C   UNL     1     -15.397   3.079 -32.130  1.00  0.00     0.001 A 
HETATM   18  C   UNL     1     -15.552   1.841 -32.745  1.00  0.00     0.001 A 
HETATM   19  C   UNL     1     -10.505   2.785 -32.816  1.00  0.00     0.044 C 
BRANCH  10  20
HETATM   20  O   UNL     1     -10.907   2.802 -35.192  1.00  0.00    -0.388 OA
HETATM   21  H   UNL     1     -11.397   3.590 -34.897  1.00  0.00     0.210 HD
ENDBRANCH  10  20
ENDBRANCH   9  10
ENDBRANCH   6   9
ENDBRANCH   1   5
BRANCH   2  22
HETATM   22  C   UNL     1      -4.985   3.444 -32.310  1.00  0.00     0.035 A 
HETATM   23  C   UNL     1      -3.831   3.762 -33.021  1.00  0.00     0.039 A 
HETATM   24  C   UNL     1      -2.880   4.668 -32.507  1.00  0.00    -0.029 A 
HETATM   25  C   UNL     1      -3.057   5.252 -31.235  1.00  0.00     0.043 A 
HETATM   26  C   UNL     1      -1.673   4.955 -33.360  1.00  0.00     0.042 C 
HETATM   27  N   UNL     1      -2.048   6.132 -30.695  1.00  0.00    -0.313 N 
HETATM   28  C   UNL     1      -4.216   4.904 -30.526  1.00  0.00     0.032 A 
HETATM   29  C   UNL     1      -2.230   6.874 -29.501  1.00  0.00     0.265 C 
HETATM   30  C   UNL     1      -0.809   6.283 -31.471  1.00  0.00     0.133 C 
HETATM   31  O   UNL     1      -3.339   7.157 -29.050  1.00  0.00    -0.267 OA
HETATM   32  C   UNL     1      -1.046   6.276 -32.970  1.00  0.00     0.025 C 
HETATM   33  C   UNL     1      -5.173   4.027 -31.060  1.00  0.00     0.032 A 
BRANCH  29  34
HETATM   34  C   UNL     1      -1.018   7.307 -28.808  1.00  0.00     0.073 A 
HETATM   35  S   UNL     1       0.018   6.128 -28.116  1.00  0.00    -0.097 SA
HETATM   36  C   UNL     1       1.097   7.321 -27.536  1.00  0.00     0.050 A 
HETATM   37  C   UNL     1       0.701   8.592 -27.887  1.00  0.00     0.009 A 
HETATM   38  C   UNL     1      -0.513   8.584 -28.635  1.00  0.00     0.025 A 
ENDBRANCH  29  34
ENDBRANCH   2  22
TORSDOF 6
ENDMDL
