MODEL 1
REMARK VINA RESULT:      -8.6      0.000      0.000
REMARK  6 active torsions:
REMARK  status: ('A' for Active; 'I' for Inactive)
REMARK       I    between atoms: N_2  and  C_3 
REMARK    1  A    between atoms: C_3  and  C_4 
REMARK    2  A    between atoms: C_6  and  C_7 
REMARK    3  A    between atoms: C_7  and  C_8 
REMARK    4  A    between atoms: C_8  and  C_9 
REMARK       I    between atoms: C_9  and  N_10 
REMARK    5  A    between atoms: N_10  and  C_11 
REMARK    6  A    between atoms: C_13  and  C_14 
ROOT
HETATM    1  C   UNL     1      -5.196   2.250 -31.274  1.00  0.00     0.222 C 
HETATM    2  N   UNL     1      -4.965   1.743 -32.513  1.00  0.00    -0.327 N 
HETATM    3  O   UNL     1      -4.366   3.068 -30.854  1.00  0.00    -0.273 OA
HETATM    4  H   UNL     1      -4.085   2.114 -32.860  1.00  0.00     0.169 HD
ENDROOT
BRANCH   1   5
HETATM    5  C   UNL     1      -6.363   1.860 -30.397  1.00  0.00     0.108 C 
BRANCH   5   6
HETATM    6  C   UNL     1      -7.673   2.569 -30.743  1.00  0.00     0.048 C 
BRANCH   6   7
HETATM    7  C   UNL     1      -8.667   1.865 -31.644  1.00  0.00    -0.057 A 
HETATM    8  C   UNL     1      -9.623   2.531 -32.423  1.00  0.00     0.024 A 
HETATM    9  C   UNL     1     -10.577   1.815 -33.164  1.00  0.00     0.032 A 
HETATM   10  C   UNL     1     -10.544   0.416 -33.166  1.00  0.00     0.017 A 
HETATM   11  C   UNL     1      -9.592  -0.260 -32.407  1.00  0.00     0.002 A 
HETATM   12  C   UNL     1      -8.672   0.459 -31.644  1.00  0.00     0.007 A 
BRANCH   9  13
HETATM   13  C   UNL     1     -11.643   2.497 -33.952  1.00  0.00     0.251 C 
HETATM   14  N   UNL     1     -11.374   2.724 -35.286  1.00  0.00    -0.361 N 
HETATM   15  C   UNL     1     -12.286   3.486 -36.100  1.00  0.00     0.149 C 
HETATM   16  H   UNL     1     -10.444   2.558 -35.648  1.00  0.00     0.162 HD
HETATM   17  O   UNL     1     -12.675   2.868 -33.402  1.00  0.00    -0.268 OA
ENDBRANCH   9  13
ENDBRANCH   6   7
ENDBRANCH   5   6
ENDBRANCH   1   5
BRANCH   2  18
HETATM   18  C   UNL     1      -5.622   0.861 -33.387  1.00  0.00     0.035 A 
HETATM   19  C   UNL     1      -5.434  -0.520 -33.456  1.00  0.00     0.042 A 
HETATM   20  C   UNL     1      -6.116  -1.300 -34.410  1.00  0.00    -0.021 A 
HETATM   21  C   UNL     1      -7.019  -0.682 -35.280  1.00  0.00     0.012 A 
HETATM   22  C   UNL     1      -7.244   0.689 -35.198  1.00  0.00     0.003 A 
HETATM   23  C   UNL     1      -6.550   1.450 -34.258  1.00  0.00     0.029 A 
BRANCH  20  24
HETATM   24  C   UNL     1      -5.872  -2.729 -34.519  1.00  0.00     0.010 A 
HETATM   25  C   UNL     1      -6.740  -3.786 -34.884  1.00  0.00     0.152 A 
HETATM   26  N   UNL     1      -6.141  -4.978 -34.865  1.00  0.00    -0.187 NA
HETATM   27  N   UNL     1      -4.886  -4.693 -34.482  1.00  0.00    -0.289 N 
HETATM   28  H   UNL     1      -4.227  -5.459 -34.387  1.00  0.00     0.188 HD
HETATM   29  C   UNL     1      -4.673  -3.361 -34.265  1.00  0.00     0.123 A 
ENDBRANCH  20  24
ENDBRANCH   2  18
TORSDOF 6
ENDMDL
MODEL 2
REMARK VINA RESULT:      -8.3      3.649      7.035
REMARK  6 active torsions:
REMARK  status: ('A' for Active; 'I' for Inactive)
REMARK       I    between atoms: N_2  and  C_3 
REMARK    1  A    between atoms: C_3  and  C_4 
REMARK    2  A    between atoms: C_6  and  C_7 
REMARK    3  A    between atoms: C_7  and  C_8 
REMARK    4  A    between atoms: C_8  and  C_9 
REMARK       I    between atoms: C_9  and  N_10 
REMARK    5  A    between atoms: N_10  and  C_11 
REMARK    6  A    between atoms: C_13  and  C_14 
ROOT
HETATM    1  C   UNL     1      -5.116   1.941 -30.998  1.00  0.00     0.222 C 
HETATM    2  N   UNL     1      -6.157   1.261 -31.544  1.00  0.00    -0.327 N 
HETATM    3  O   UNL     1      -5.303   2.415 -29.869  1.00  0.00    -0.273 OA
HETATM    4  H   UNL     1      -6.950   1.312 -30.911  1.00  0.00     0.169 HD
ENDROOT
BRANCH   1   5
HETATM    5  C   UNL     1      -3.789   2.164 -31.686  1.00  0.00     0.108 C 
BRANCH   5   6
HETATM    6  C   UNL     1      -3.841   3.161 -32.845  1.00  0.00     0.048 C 
BRANCH   6   7
HETATM    7  C   UNL     1      -2.757   4.215 -32.948  1.00  0.00    -0.057 A 
HETATM    8  C   UNL     1      -1.896   4.557 -31.897  1.00  0.00     0.024 A 
HETATM    9  C   UNL     1      -0.977   5.609 -32.029  1.00  0.00     0.032 A 
HETATM   10  C   UNL     1      -0.881   6.296 -33.244  1.00  0.00     0.017 A 
HETATM   11  C   UNL     1      -1.720   5.960 -34.303  1.00  0.00     0.002 A 
HETATM   12  C   UNL     1      -2.658   4.938 -34.150  1.00  0.00     0.007 A 
BRANCH   9  13
HETATM   13  C   UNL     1      -0.093   6.033 -30.907  1.00  0.00     0.251 C 
HETATM   14  N   UNL     1      -0.296   5.411 -29.691  1.00  0.00    -0.361 N 
HETATM   15  C   UNL     1       0.421   5.840 -28.518  1.00  0.00     0.149 C 
HETATM   16  H   UNL     1      -1.100   4.812 -29.561  1.00  0.00     0.162 HD
HETATM   17  O   UNL     1       0.732   6.926 -31.074  1.00  0.00    -0.268 OA
ENDBRANCH   9  13
ENDBRANCH   6   7
ENDBRANCH   5   6
ENDBRANCH   1   5
BRANCH   2  18
HETATM   18  C   UNL     1      -6.390   0.541 -32.728  1.00  0.00     0.035 A 
HETATM   19  C   UNL     1      -6.092  -0.805 -32.945  1.00  0.00     0.042 A 
HETATM   20  C   UNL     1      -6.325  -1.409 -34.195  1.00  0.00    -0.021 A 
HETATM   21  C   UNL     1      -6.893  -0.652 -35.226  1.00  0.00     0.012 A 
HETATM   22  C   UNL     1      -7.227   0.681 -35.013  1.00  0.00     0.003 A 
HETATM   23  C   UNL     1      -6.978   1.270 -33.774  1.00  0.00     0.029 A 
BRANCH  20  24
HETATM   24  C   UNL     1      -5.959  -2.795 -34.436  1.00  0.00     0.010 A 
HETATM   25  C   UNL     1      -6.736  -3.888 -34.886  1.00  0.00     0.152 A 
HETATM   26  N   UNL     1      -6.033  -5.019 -34.981  1.00  0.00    -0.187 NA
HETATM   27  N   UNL     1      -4.802  -4.658 -34.585  1.00  0.00    -0.289 N 
HETATM   28  H   UNL     1      -4.077  -5.368 -34.565  1.00  0.00     0.188 HD
HETATM   29  C   UNL     1      -4.704  -3.337 -34.250  1.00  0.00     0.123 A 
ENDBRANCH  20  24
ENDBRANCH   2  18
TORSDOF 6
ENDMDL
MODEL 3
REMARK VINA RESULT:      -8.2      2.024      6.714
REMARK  6 active torsions:
REMARK  status: ('A' for Active; 'I' for Inactive)
REMARK       I    between atoms: N_2  and  C_3 
REMARK    1  A    between atoms: C_3  and  C_4 
REMARK    2  A    between atoms: C_6  and  C_7 
REMARK    3  A    between atoms: C_7  and  C_8 
REMARK    4  A    between atoms: C_8  and  C_9 
REMARK       I    between atoms: C_9  and  N_10 
REMARK    5  A    between atoms: N_10  and  C_11 
REMARK    6  A    between atoms: C_13  and  C_14 
ROOT
HETATM    1  C   UNL     1      -6.683   2.632 -30.767  1.00  0.00     0.222 C 
HETATM    2  N   UNL     1      -7.918   2.069 -30.719  1.00  0.00    -0.327 N 
HETATM    3  O   UNL     1      -6.106   2.779 -29.681  1.00  0.00    -0.273 OA
HETATM    4  H   UNL     1      -8.168   1.910 -29.748  1.00  0.00     0.169 HD
ENDROOT
BRANCH   1   5
HETATM    5  C   UNL     1      -6.006   3.098 -32.035  1.00  0.00     0.108 C 
BRANCH   5   6
HETATM    6  C   UNL     1      -5.130   2.039 -32.706  1.00  0.00     0.048 C 
BRANCH   6   7
HETATM    7  C   UNL     1      -5.796   0.957 -33.532  1.00  0.00    -0.057 A 
HETATM    8  C   UNL     1      -5.430  -0.395 -33.490  1.00  0.00     0.024 A 
HETATM    9  C   UNL     1      -6.024  -1.331 -34.351  1.00  0.00     0.032 A 
HETATM   10  C   UNL     1      -7.032  -0.920 -35.231  1.00  0.00     0.017 A 
HETATM   11  C   UNL     1      -7.416   0.418 -35.275  1.00  0.00     0.002 A 
HETATM   12  C   UNL     1      -6.794   1.348 -34.443  1.00  0.00     0.007 A 
BRANCH   9  13
HETATM   13  C   UNL     1      -5.611  -2.763 -34.371  1.00  0.00     0.251 C 
HETATM   14  N   UNL     1      -4.361  -3.051 -33.861  1.00  0.00    -0.361 N 
HETATM   15  C   UNL     1      -3.821  -4.384 -33.950  1.00  0.00     0.149 C 
HETATM   16  H   UNL     1      -3.726  -2.299 -33.629  1.00  0.00     0.162 HD
HETATM   17  O   UNL     1      -6.347  -3.611 -34.865  1.00  0.00    -0.268 OA
ENDBRANCH   9  13
ENDBRANCH   6   7
ENDBRANCH   5   6
ENDBRANCH   1   5
BRANCH   2  18
HETATM   18  C   UNL     1      -8.891   1.678 -31.655  1.00  0.00     0.035 A 
HETATM   19  C   UNL     1      -9.694   2.532 -32.412  1.00  0.00     0.042 A 
HETATM   20  C   UNL     1     -10.674   2.024 -33.286  1.00  0.00    -0.021 A 
HETATM   21  C   UNL     1     -10.823   0.640 -33.418  1.00  0.00     0.012 A 
HETATM   22  C   UNL     1     -10.005  -0.224 -32.696  1.00  0.00     0.003 A 
HETATM   23  C   UNL     1      -9.048   0.294 -31.823  1.00  0.00     0.029 A 
BRANCH  20  24
HETATM   24  C   UNL     1     -11.550   2.917 -34.027  1.00  0.00     0.010 A 
HETATM   25  C   UNL     1     -11.284   3.756 -35.136  1.00  0.00     0.152 A 
HETATM   26  N   UNL     1     -12.359   4.435 -35.540  1.00  0.00    -0.187 NA
HETATM   27  N   UNL     1     -13.319   4.040 -34.689  1.00  0.00    -0.289 N 
HETATM   28  H   UNL     1     -14.248   4.436 -34.795  1.00  0.00     0.188 HD
HETATM   29  C   UNL     1     -12.887   3.131 -33.766  1.00  0.00     0.123 A 
ENDBRANCH  20  24
ENDBRANCH   2  18
TORSDOF 6
ENDMDL
MODEL 4
REMARK VINA RESULT:      -8.1      3.165      6.744
REMARK  6 active torsions:
REMARK  status: ('A' for Active; 'I' for Inactive)
REMARK       I    between atoms: N_2  and  C_3 
REMARK    1  A    between atoms: C_3  and  C_4 
REMARK    2  A    between atoms: C_6  and  C_7 
REMARK    3  A    between atoms: C_7  and  C_8 
REMARK    4  A    between atoms: C_8  and  C_9 
REMARK       I    between atoms: C_9  and  N_10 
REMARK    5  A    between atoms: N_10  and  C_11 
REMARK    6  A    between atoms: C_13  and  C_14 
ROOT
HETATM    1  C   UNL     1      -5.485  -2.144 -34.573  1.00  0.00     0.222 C 
HETATM    2  N   UNL     1      -6.402  -1.197 -34.899  1.00  0.00    -0.327 N 
HETATM    3  O   UNL     1      -5.213  -2.970 -35.456  1.00  0.00    -0.273 OA
HETATM    4  H   UNL     1      -6.746  -1.383 -35.836  1.00  0.00     0.169 HD
ENDROOT
BRANCH   1   5
HETATM    5  C   UNL     1      -4.816  -2.254 -33.223  1.00  0.00     0.108 C 
BRANCH   5   6
HETATM    6  C   UNL     1      -3.781  -1.164 -32.942  1.00  0.00     0.048 C 
BRANCH   6   7
HETATM    7  C   UNL     1      -4.202   0.050 -32.138  1.00  0.00    -0.057 A 
HETATM    8  C   UNL     1      -3.599   1.310 -32.252  1.00  0.00     0.024 A 
HETATM    9  C   UNL     1      -3.973   2.369 -31.409  1.00  0.00     0.032 A 
HETATM   10  C   UNL     1      -4.998   2.182 -30.475  1.00  0.00     0.017 A 
HETATM   11  C   UNL     1      -5.616   0.939 -30.359  1.00  0.00     0.002 A 
HETATM   12  C   UNL     1      -5.211  -0.118 -31.174  1.00  0.00     0.007 A 
BRANCH   9  13
HETATM   13  C   UNL     1      -3.305   3.700 -31.467  1.00  0.00     0.251 C 
HETATM   14  N   UNL     1      -4.011   4.768 -30.951  1.00  0.00    -0.361 N 
HETATM   15  C   UNL     1      -3.507   6.111 -31.074  1.00  0.00     0.149 C 
HETATM   16  H   UNL     1      -4.982   4.651 -30.688  1.00  0.00     0.162 HD
HETATM   17  O   UNL     1      -2.204   3.816 -31.995  1.00  0.00    -0.268 OA
ENDBRANCH   9  13
ENDBRANCH   6   7
ENDBRANCH   5   6
ENDBRANCH   1   5
BRANCH   2  18
HETATM   18  C   UNL     1      -6.970  -0.075 -34.270  1.00  0.00     0.035 A 
HETATM   19  C   UNL     1      -6.522   1.242 -34.378  1.00  0.00     0.042 A 
HETATM   20  C   UNL     1      -7.143   2.282 -33.659  1.00  0.00    -0.021 A 
HETATM   21  C   UNL     1      -8.245   1.991 -32.849  1.00  0.00     0.012 A 
HETATM   22  C   UNL     1      -8.725   0.688 -32.760  1.00  0.00     0.003 A 
HETATM   23  C   UNL     1      -8.091  -0.334 -33.467  1.00  0.00     0.029 A 
BRANCH  20  24
HETATM   24  C   UNL     1      -6.636   3.643 -33.726  1.00  0.00     0.010 A 
HETATM   25  C   UNL     1      -5.456   4.158 -34.312  1.00  0.00     0.152 A 
HETATM   26  N   UNL     1      -5.337   5.479 -34.162  1.00  0.00    -0.187 NA
HETATM   27  N   UNL     1      -6.438   5.817 -33.472  1.00  0.00    -0.289 N 
HETATM   28  H   UNL     1      -6.570   6.793 -33.226  1.00  0.00     0.188 HD
HETATM   29  C   UNL     1      -7.249   4.755 -33.188  1.00  0.00     0.123 A 
ENDBRANCH  20  24
ENDBRANCH   2  18
TORSDOF 6
ENDMDL
MODEL 5
REMARK VINA RESULT:      -7.8      2.943      5.910
REMARK  6 active torsions:
REMARK  status: ('A' for Active; 'I' for Inactive)
REMARK       I    between atoms: N_2  and  C_3 
REMARK    1  A    between atoms: C_3  and  C_4 
REMARK    2  A    between atoms: C_6  and  C_7 
REMARK    3  A    between atoms: C_7  and  C_8 
REMARK    4  A    between atoms: C_8  and  C_9 
REMARK       I    between atoms: C_9  and  N_10 
REMARK    5  A    between atoms: N_10  and  C_11 
REMARK    6  A    between atoms: C_13  and  C_14 
ROOT
HETATM    1  C   UNL     1      -5.177  -2.268 -34.267  1.00  0.00     0.222 C 
HETATM    2  N   UNL     1      -4.306  -1.553 -33.509  1.00  0.00    -0.327 N 
HETATM    3  O   UNL     1      -4.717  -3.271 -34.830  1.00  0.00    -0.273 OA
HETATM    4  H   UNL     1      -3.384  -1.968 -33.589  1.00  0.00     0.169 HD
ENDROOT
BRANCH   1   5
HETATM    5  C   UNL     1      -6.629  -1.903 -34.473  1.00  0.00     0.108 C 
BRANCH   5   6
HETATM    6  C   UNL     1      -6.848  -0.529 -35.108  1.00  0.00     0.048 C 
BRANCH   6   7
HETATM    7  C   UNL     1      -7.290   0.621 -34.225  1.00  0.00    -0.057 A 
HETATM    8  C   UNL     1      -6.727   1.903 -34.272  1.00  0.00     0.024 A 
HETATM    9  C   UNL     1      -7.117   2.897 -33.361  1.00  0.00     0.032 A 
HETATM   10  C   UNL     1      -8.119   2.622 -32.423  1.00  0.00     0.017 A 
HETATM   11  C   UNL     1      -8.697   1.356 -32.373  1.00  0.00     0.002 A 
HETATM   12  C   UNL     1      -8.276   0.363 -33.257  1.00  0.00     0.007 A 
BRANCH   9  13
HETATM   13  C   UNL     1      -6.491   4.250 -33.349  1.00  0.00     0.251 C 
HETATM   14  N   UNL     1      -6.226   4.796 -32.109  1.00  0.00    -0.361 N 
HETATM   15  C   UNL     1      -5.739   6.147 -31.991  1.00  0.00     0.149 C 
HETATM   16  H   UNL     1      -6.579   4.347 -31.275  1.00  0.00     0.162 HD
HETATM   17  O   UNL     1      -6.279   4.841 -34.402  1.00  0.00    -0.268 OA
ENDBRANCH   9  13
ENDBRANCH   6   7
ENDBRANCH   5   6
ENDBRANCH   1   5
BRANCH   2  18
HETATM   18  C   UNL     1      -4.376  -0.418 -32.682  1.00  0.00     0.035 A 
HETATM   19  C   UNL     1      -3.741   0.804 -32.907  1.00  0.00     0.042 A 
HETATM   20  C   UNL     1      -3.843   1.859 -31.980  1.00  0.00    -0.021 A 
HETATM   21  C   UNL     1      -4.621   1.686 -30.830  1.00  0.00     0.012 A 
HETATM   22  C   UNL     1      -5.290   0.486 -30.611  1.00  0.00     0.003 A 
HETATM   23  C   UNL     1      -5.167  -0.555 -31.531  1.00  0.00     0.029 A 
BRANCH  20  24
HETATM   24  C   UNL     1      -3.131   3.108 -32.187  1.00  0.00     0.010 A 
HETATM   25  C   UNL     1      -2.764   3.772 -33.382  1.00  0.00     0.152 A 
HETATM   26  N   UNL     1      -2.106   4.912 -33.161  1.00  0.00    -0.187 NA
HETATM   27  N   UNL     1      -2.042   4.982 -31.822  1.00  0.00    -0.289 N 
HETATM   28  H   UNL     1      -1.570   5.778 -31.405  1.00  0.00     0.188 HD
HETATM   29  C   UNL     1      -2.642   3.929 -31.192  1.00  0.00     0.123 A 
ENDBRANCH  20  24
ENDBRANCH   2  18
TORSDOF 6
ENDMDL
MODEL 6
REMARK VINA RESULT:      -7.6     14.329     16.817
REMARK  6 active torsions:
REMARK  status: ('A' for Active; 'I' for Inactive)
REMARK       I    between atoms: N_2  and  C_3 
REMARK    1  A    between atoms: C_3  and  C_4 
REMARK    2  A    between atoms: C_6  and  C_7 
REMARK    3  A    between atoms: C_7  and  C_8 
REMARK    4  A    between atoms: C_8  and  C_9 
REMARK       I    between atoms: C_9  and  N_10 
REMARK    5  A    between atoms: N_10  and  C_11 
REMARK    6  A    between atoms: C_13  and  C_14 
ROOT
HETATM    1  C   UNL     1      -4.473 -13.710 -36.592  1.00  0.00     0.222 C 
HETATM    2  N   UNL     1      -5.328 -12.770 -37.072  1.00  0.00    -0.327 N 
HETATM    3  O   UNL     1      -4.136 -13.588 -35.405  1.00  0.00    -0.273 OA
HETATM    4  H   UNL     1      -5.501 -12.083 -36.345  1.00  0.00     0.169 HD
ENDROOT
BRANCH   1   5
HETATM    5  C   UNL     1      -3.909 -14.848 -37.410  1.00  0.00     0.108 C 
BRANCH   5   6
HETATM    6  C   UNL     1      -4.941 -15.897 -37.825  1.00  0.00     0.048 C 
BRANCH   6   7
HETATM    7  C   UNL     1      -5.496 -15.854 -39.235  1.00  0.00    -0.057 A 
HETATM    8  C   UNL     1      -4.758 -15.442 -40.353  1.00  0.00     0.024 A 
HETATM    9  C   UNL     1      -5.360 -15.336 -41.617  1.00  0.00     0.032 A 
HETATM   10  C   UNL     1      -6.704 -15.695 -41.776  1.00  0.00     0.017 A 
HETATM   11  C   UNL     1      -7.447 -16.119 -40.677  1.00  0.00     0.002 A 
HETATM   12  C   UNL     1      -6.850 -16.184 -39.418  1.00  0.00     0.007 A 
BRANCH   9  13
HETATM   13  C   UNL     1      -4.616 -14.842 -42.810  1.00  0.00     0.251 C 
HETATM   14  N   UNL     1      -4.953 -15.404 -44.024  1.00  0.00    -0.361 N 
HETATM   15  C   UNL     1      -4.206 -15.085 -45.214  1.00  0.00     0.149 C 
HETATM   16  H   UNL     1      -5.569 -16.205 -44.055  1.00  0.00     0.162 HD
HETATM   17  O   UNL     1      -3.722 -14.012 -42.679  1.00  0.00    -0.268 OA
ENDBRANCH   9  13
ENDBRANCH   6   7
ENDBRANCH   5   6
ENDBRANCH   1   5
BRANCH   2  18
HETATM   18  C   UNL     1      -5.993 -12.531 -38.286  1.00  0.00     0.035 A 
HETATM   19  C   UNL     1      -7.359 -12.694 -38.522  1.00  0.00     0.042 A 
HETATM   20  C   UNL     1      -7.909 -12.470 -39.799  1.00  0.00    -0.021 A 
HETATM   21  C   UNL     1      -7.074 -12.048 -40.839  1.00  0.00     0.012 A 
HETATM   22  C   UNL     1      -5.717 -11.846 -40.610  1.00  0.00     0.003 A 
HETATM   23  C   UNL     1      -5.184 -12.086 -39.343  1.00  0.00     0.029 A 
BRANCH  20  24
HETATM   24  C   UNL     1      -9.321 -12.700 -40.056  1.00  0.00     0.010 A 
HETATM   25  C   UNL     1     -10.085 -13.890 -40.002  1.00  0.00     0.152 A 
HETATM   26  N   UNL     1     -11.369 -13.696 -40.312  1.00  0.00    -0.187 NA
HETATM   27  N   UNL     1     -11.433 -12.380 -40.573  1.00  0.00    -0.289 N 
HETATM   28  H   UNL     1     -12.329 -11.988 -40.844  1.00  0.00     0.188 HD
HETATM   29  C   UNL     1     -10.236 -11.738 -40.432  1.00  0.00     0.123 A 
ENDBRANCH  20  24
ENDBRANCH   2  18
TORSDOF 6
ENDMDL
MODEL 7
REMARK VINA RESULT:      -7.5     14.289     16.230
REMARK  6 active torsions:
REMARK  status: ('A' for Active; 'I' for Inactive)
REMARK       I    between atoms: N_2  and  C_3 
REMARK    1  A    between atoms: C_3  and  C_4 
REMARK    2  A    between atoms: C_6  and  C_7 
REMARK    3  A    between atoms: C_7  and  C_8 
REMARK    4  A    between atoms: C_8  and  C_9 
REMARK       I    between atoms: C_9  and  N_10 
REMARK    5  A    between atoms: N_10  and  C_11 
REMARK    6  A    between atoms: C_13  and  C_14 
ROOT
HETATM    1  C   UNL     1      -9.814 -13.848 -39.497  1.00  0.00     0.222 C 
HETATM    2  N   UNL     1      -9.132 -14.921 -39.022  1.00  0.00    -0.327 N 
HETATM    3  O   UNL     1     -10.913 -14.084 -40.018  1.00  0.00    -0.273 OA
HETATM    4  H   UNL     1      -9.655 -15.764 -39.237  1.00  0.00     0.169 HD
ENDROOT
BRANCH   1   5
HETATM    5  C   UNL     1      -9.308 -12.425 -39.447  1.00  0.00     0.108 C 
BRANCH   5   6
HETATM    6  C   UNL     1      -8.371 -12.050 -40.596  1.00  0.00     0.048 C 
BRANCH   6   7
HETATM    7  C   UNL     1      -6.954 -12.588 -40.586  1.00  0.00    -0.057 A 
HETATM    8  C   UNL     1      -6.027 -12.330 -39.568  1.00  0.00     0.024 A 
HETATM    9  C   UNL     1      -4.701 -12.781 -39.667  1.00  0.00     0.032 A 
HETATM   10  C   UNL     1      -4.310 -13.543 -40.773  1.00  0.00     0.017 A 
HETATM   11  C   UNL     1      -5.223 -13.819 -41.788  1.00  0.00     0.002 A 
HETATM   12  C   UNL     1      -6.528 -13.334 -41.699  1.00  0.00     0.007 A 
BRANCH   9  13
HETATM   13  C   UNL     1      -3.679 -12.469 -38.628  1.00  0.00     0.251 C 
HETATM   14  N   UNL     1      -2.365 -12.731 -38.956  1.00  0.00    -0.361 N 
HETATM   15  C   UNL     1      -1.319 -12.581 -37.977  1.00  0.00     0.149 C 
HETATM   16  H   UNL     1      -2.149 -13.241 -39.803  1.00  0.00     0.162 HD
HETATM   17  O   UNL     1      -4.025 -12.045 -37.530  1.00  0.00    -0.268 OA
ENDBRANCH   9  13
ENDBRANCH   6   7
ENDBRANCH   5   6
ENDBRANCH   1   5
BRANCH   2  18
HETATM   18  C   UNL     1      -7.921 -15.133 -38.340  1.00  0.00     0.035 A 
HETATM   19  C   UNL     1      -7.597 -14.652 -37.071  1.00  0.00     0.042 A 
HETATM   20  C   UNL     1      -6.329 -14.886 -36.506  1.00  0.00    -0.021 A 
HETATM   21  C   UNL     1      -5.391 -15.641 -37.219  1.00  0.00     0.012 A 
HETATM   22  C   UNL     1      -5.713 -16.158 -38.470  1.00  0.00     0.003 A 
HETATM   23  C   UNL     1      -6.968 -15.905 -39.022  1.00  0.00     0.029 A 
BRANCH  20  24
HETATM   24  C   UNL     1      -5.973 -14.332 -35.210  1.00  0.00     0.010 A 
HETATM   25  C   UNL     1      -6.686 -13.458 -34.355  1.00  0.00     0.152 A 
HETATM   26  N   UNL     1      -6.018 -13.169 -33.236  1.00  0.00    -0.187 NA
HETATM   27  N   UNL     1      -4.870 -13.852 -33.371  1.00  0.00    -0.289 N 
HETATM   28  H   UNL     1      -4.181 -13.782 -32.629  1.00  0.00     0.188 HD
HETATM   29  C   UNL     1      -4.794 -14.566 -34.533  1.00  0.00     0.123 A 
ENDBRANCH  20  24
ENDBRANCH   2  18
TORSDOF 6
ENDMDL
MODEL 8
REMARK VINA RESULT:      -7.5     14.555     16.727
REMARK  6 active torsions:
REMARK  status: ('A' for Active; 'I' for Inactive)
REMARK       I    between atoms: N_2  and  C_3 
REMARK    1  A    between atoms: C_3  and  C_4 
REMARK    2  A    between atoms: C_6  and  C_7 
REMARK    3  A    between atoms: C_7  and  C_8 
REMARK    4  A    between atoms: C_8  and  C_9 
REMARK       I    between atoms: C_9  and  N_10 
REMARK    5  A    between atoms: N_10  and  C_11 
REMARK    6  A    between atoms: C_13  and  C_14 
ROOT
HETATM    1  C   UNL     1     -10.205 -14.291 -39.914  1.00  0.00     0.222 C 
HETATM    2  N   UNL     1      -9.387 -15.329 -39.603  1.00  0.00    -0.327 N 
HETATM    3  O   UNL     1     -11.168 -14.553 -40.649  1.00  0.00    -0.273 OA
HETATM    4  H   UNL     1      -9.708 -16.158 -40.094  1.00  0.00     0.169 HD
ENDROOT
BRANCH   1   5
HETATM    5  C   UNL     1      -9.996 -12.869 -39.447  1.00  0.00     0.108 C 
BRANCH   5   6
HETATM    6  C   UNL     1      -9.017 -12.063 -40.303  1.00  0.00     0.048 C 
BRANCH   6   7
HETATM    7  C   UNL     1      -7.533 -12.339 -40.168  1.00  0.00    -0.057 A 
HETATM    8  C   UNL     1      -6.737 -12.851 -41.202  1.00  0.00     0.024 A 
HETATM    9  C   UNL     1      -5.388 -13.172 -40.982  1.00  0.00     0.032 A 
HETATM   10  C   UNL     1      -4.814 -12.932 -39.729  1.00  0.00     0.017 A 
HETATM   11  C   UNL     1      -5.589 -12.411 -38.696  1.00  0.00     0.002 A 
HETATM   12  C   UNL     1      -6.938 -12.131 -38.912  1.00  0.00     0.007 A 
BRANCH   9  13
HETATM   13  C   UNL     1      -4.535 -13.775 -42.045  1.00  0.00     0.251 C 
HETATM   14  N   UNL     1      -5.188 -14.258 -43.161  1.00  0.00    -0.361 N 
HETATM   15  C   UNL     1      -4.466 -14.970 -44.184  1.00  0.00     0.149 C 
HETATM   16  H   UNL     1      -6.198 -14.320 -43.166  1.00  0.00     0.162 HD
HETATM   17  O   UNL     1      -3.322 -13.865 -41.886  1.00  0.00    -0.268 OA
ENDBRANCH   9  13
ENDBRANCH   6   7
ENDBRANCH   5   6
ENDBRANCH   1   5
BRANCH   2  18
HETATM   18  C   UNL     1      -8.247 -15.517 -38.803  1.00  0.00     0.035 A 
HETATM   19  C   UNL     1      -8.115 -15.156 -37.462  1.00  0.00     0.042 A 
HETATM   20  C   UNL     1      -6.902 -15.349 -36.772  1.00  0.00    -0.021 A 
HETATM   21  C   UNL     1      -5.824 -15.943 -37.438  1.00  0.00     0.012 A 
HETATM   22  C   UNL     1      -5.954 -16.341 -38.764  1.00  0.00     0.003 A 
HETATM   23  C   UNL     1      -7.156 -16.130 -39.438  1.00  0.00     0.029 A 
BRANCH  20  24
HETATM   24  C   UNL     1      -6.749 -14.916 -35.394  1.00  0.00     0.010 A 
HETATM   25  C   UNL     1      -6.990 -15.603 -34.180  1.00  0.00     0.152 A 
HETATM   26  N   UNL     1      -6.730 -14.859 -33.103  1.00  0.00    -0.187 NA
HETATM   27  N   UNL     1      -6.327 -13.688 -33.621  1.00  0.00    -0.289 N 
HETATM   28  H   UNL     1      -6.074 -12.942 -32.980  1.00  0.00     0.188 HD
HETATM   29  C   UNL     1      -6.318 -13.671 -34.986  1.00  0.00     0.123 A 
ENDBRANCH  20  24
ENDBRANCH   2  18
TORSDOF 6
ENDMDL
MODEL 9
REMARK VINA RESULT:      -7.4      2.589      5.327
REMARK  6 active torsions:
REMARK  status: ('A' for Active; 'I' for Inactive)
REMARK       I    between atoms: N_2  and  C_3 
REMARK    1  A    between atoms: C_3  and  C_4 
REMARK    2  A    between atoms: C_6  and  C_7 
REMARK    3  A    between atoms: C_7  and  C_8 
REMARK    4  A    between atoms: C_8  and  C_9 
REMARK       I    between atoms: C_9  and  N_10 
REMARK    5  A    between atoms: N_10  and  C_11 
REMARK    6  A    between atoms: C_13  and  C_14 
ROOT
HETATM    1  C   UNL     1      -5.084  -1.816 -34.028  1.00  0.00     0.222 C 
HETATM    2  N   UNL     1      -4.572  -0.816 -33.264  1.00  0.00    -0.327 N 
HETATM    3  O   UNL     1      -4.262  -2.584 -34.548  1.00  0.00    -0.273 OA
HETATM    4  H   UNL     1      -3.559  -0.860 -33.304  1.00  0.00     0.169 HD
ENDROOT
BRANCH   1   5
HETATM    5  C   UNL     1      -6.558  -2.020 -34.290  1.00  0.00     0.108 C 
BRANCH   5   6
HETATM    6  C   UNL     1      -7.241  -0.847 -34.994  1.00  0.00     0.048 C 
BRANCH   6   7
HETATM    7  C   UNL     1      -8.155   0.054 -34.188  1.00  0.00    -0.057 A 
HETATM    8  C   UNL     1      -8.570   1.325 -34.610  1.00  0.00     0.024 A 
HETATM    9  C   UNL     1      -9.340   2.148 -33.774  1.00  0.00     0.032 A 
HETATM   10  C   UNL     1      -9.745   1.676 -32.520  1.00  0.00     0.017 A 
HETATM   11  C   UNL     1      -9.352   0.411 -32.092  1.00  0.00     0.002 A 
HETATM   12  C   UNL     1      -8.554  -0.385 -32.914  1.00  0.00     0.007 A 
BRANCH   9  13
HETATM   13  C   UNL     1      -9.743   3.526 -34.173  1.00  0.00     0.251 C 
HETATM   14  N   UNL     1      -9.495   4.531 -33.259  1.00  0.00    -0.361 N 
HETATM   15  C   UNL     1      -9.959   5.873 -33.498  1.00  0.00     0.149 C 
HETATM   16  H   UNL     1      -9.190   4.296 -32.323  1.00  0.00     0.162 HD
HETATM   17  O   UNL     1     -10.307   3.719 -35.245  1.00  0.00    -0.268 OA
ENDBRANCH   9  13
ENDBRANCH   6   7
ENDBRANCH   5   6
ENDBRANCH   1   5
BRANCH   2  18
HETATM   18  C   UNL     1      -5.091   0.223 -32.474  1.00  0.00     0.035 A 
HETATM   19  C   UNL     1      -5.351   1.527 -32.897  1.00  0.00     0.042 A 
HETATM   20  C   UNL     1      -5.827   2.502 -31.999  1.00  0.00    -0.021 A 
HETATM   21  C   UNL     1      -6.071   2.146 -30.668  1.00  0.00     0.012 A 
HETATM   22  C   UNL     1      -5.850   0.840 -30.241  1.00  0.00     0.003 A 
HETATM   23  C   UNL     1      -5.365  -0.110 -31.138  1.00  0.00     0.029 A 
BRANCH  20  24
HETATM   24  C   UNL     1      -6.039   3.874 -32.428  1.00  0.00     0.010 A 
HETATM   25  C   UNL     1      -6.441   5.017 -31.696  1.00  0.00     0.152 A 
HETATM   26  N   UNL     1      -6.528   6.113 -32.453  1.00  0.00    -0.187 NA
HETATM   27  N   UNL     1      -6.190   5.677 -33.677  1.00  0.00    -0.289 N 
HETATM   28  H   UNL     1      -6.190   6.345 -34.441  1.00  0.00     0.188 HD
HETATM   29  C   UNL     1      -5.886   4.346 -33.716  1.00  0.00     0.123 A 
ENDBRANCH  20  24
ENDBRANCH   2  18
TORSDOF 6
ENDMDL
MODEL 10
REMARK VINA RESULT:      -7.3      2.206      6.576
REMARK  6 active torsions:
REMARK  status: ('A' for Active; 'I' for Inactive)
REMARK       I    between atoms: N_2  and  C_3 
REMARK    1  A    between atoms: C_3  and  C_4 
REMARK    2  A    between atoms: C_6  and  C_7 
REMARK    3  A    between atoms: C_7  and  C_8 
REMARK    4  A    between atoms: C_8  and  C_9 
REMARK       I    between atoms: C_9  and  N_10 
REMARK    5  A    between atoms: N_10  and  C_11 
REMARK    6  A    between atoms: C_13  and  C_14 
ROOT
HETATM    1  C   UNL     1      -6.588   2.149 -30.566  1.00  0.00     0.222 C 
HETATM    2  N   UNL     1      -7.926   2.152 -30.330  1.00  0.00    -0.327 N 
HETATM    3  O   UNL     1      -5.904   1.427 -29.827  1.00  0.00    -0.273 OA
HETATM    4  H   UNL     1      -8.117   1.570 -29.521  1.00  0.00     0.169 HD
ENDROOT
BRANCH   1   5
HETATM    5  C   UNL     1      -5.908   2.973 -31.634  1.00  0.00     0.108 C 
BRANCH   5   6
HETATM    6  C   UNL     1      -5.117   2.152 -32.653  1.00  0.00     0.048 C 
BRANCH   6   7
HETATM    7  C   UNL     1      -5.841   1.082 -33.447  1.00  0.00    -0.057 A 
HETATM    8  C   UNL     1      -5.453  -0.264 -33.477  1.00  0.00     0.024 A 
HETATM    9  C   UNL     1      -6.110  -1.186 -34.308  1.00  0.00     0.032 A 
HETATM   10  C   UNL     1      -7.200  -0.769 -35.079  1.00  0.00     0.017 A 
HETATM   11  C   UNL     1      -7.605   0.563 -35.050  1.00  0.00     0.002 A 
HETATM   12  C   UNL     1      -6.923   1.481 -34.251  1.00  0.00     0.007 A 
BRANCH   9  13
HETATM   13  C   UNL     1      -5.679  -2.610 -34.406  1.00  0.00     0.251 C 
HETATM   14  N   UNL     1      -4.438  -2.917 -33.887  1.00  0.00    -0.361 N 
HETATM   15  C   UNL     1      -3.881  -4.235 -34.045  1.00  0.00     0.149 C 
HETATM   16  H   UNL     1      -3.816  -2.174 -33.595  1.00  0.00     0.162 HD
HETATM   17  O   UNL     1      -6.395  -3.433 -34.967  1.00  0.00    -0.268 OA
ENDBRANCH   9  13
ENDBRANCH   6   7
ENDBRANCH   5   6
ENDBRANCH   1   5
BRANCH   2  18
HETATM   18  C   UNL     1      -9.056   2.751 -30.912  1.00  0.00     0.035 A 
HETATM   19  C   UNL     1      -9.779   2.260 -31.999  1.00  0.00     0.042 A 
HETATM   20  C   UNL     1     -10.870   2.975 -32.530  1.00  0.00    -0.021 A 
HETATM   21  C   UNL     1     -11.252   4.183 -31.934  1.00  0.00     0.012 A 
HETATM   22  C   UNL     1     -10.562   4.666 -30.827  1.00  0.00     0.003 A 
HETATM   23  C   UNL     1      -9.475   3.954 -30.322  1.00  0.00     0.029 A 
BRANCH  20  24
HETATM   24  C   UNL     1     -11.584   2.492 -33.700  1.00  0.00     0.010 A 
HETATM   25  C   UNL     1     -12.967   2.289 -33.917  1.00  0.00     0.152 A 
HETATM   26  N   UNL     1     -13.238   1.824 -35.138  1.00  0.00    -0.187 NA
HETATM   27  N   UNL     1     -12.027   1.719 -35.709  1.00  0.00    -0.289 N 
HETATM   28  H   UNL     1     -11.975   1.371 -36.661  1.00  0.00     0.188 HD
HETATM   29  C   UNL     1     -11.005   2.108 -34.892  1.00  0.00     0.123 A 
ENDBRANCH  20  24
ENDBRANCH   2  18
TORSDOF 6
ENDMDL
