MODEL 1
REMARK VINA RESULT:      -9.2      0.000      0.000
REMARK  5 active torsions:
REMARK  status: ('A' for Active; 'I' for Inactive)
REMARK    1  A    between atoms: C_2  and  N_3 
REMARK       I    between atoms: N_3  and  C_4 
REMARK       I    between atoms: C_4  and  N_5 
REMARK    2  A    between atoms: N_5  and  C_6 
REMARK    3  A    between atoms: C_9  and  C_10 
REMARK    4  A    between atoms: C_10  and  C_11 
REMARK       I    between atoms: C_11  and  N_12 
REMARK    5  A    between atoms: N_12  and  C_13 
ROOT
HETATM    1  C   UNL     1      -6.031   4.762 -33.605  1.00  0.00     0.174 A 
HETATM    2  S   UNL     1      -7.304   5.816 -33.185  1.00  0.00    -0.062 SA
HETATM    3  C   UNL     1      -8.411   4.515 -33.359  1.00  0.00     0.081 A 
HETATM    4  C   UNL     1      -7.733   3.358 -33.706  1.00  0.00     0.052 A 
HETATM    5  N   UNL     1      -6.360   3.518 -33.840  1.00  0.00    -0.228 NA
ENDROOT
BRANCH   1   6
HETATM    6  N   UNL     1      -4.794   5.338 -33.619  1.00  0.00    -0.287 N 
HETATM    7  C   UNL     1      -3.984   5.268 -34.711  1.00  0.00     0.326 C 
HETATM    8  N   UNL     1      -2.725   5.788 -34.574  1.00  0.00    -0.309 N 
HETATM    9  O   UNL     1      -4.314   4.860 -35.823  1.00  0.00    -0.247 OA
HETATM   10  H   UNL     1      -2.294   5.946 -35.478  1.00  0.00     0.170 HD
HETATM   11  H   UNL     1      -4.594   6.022 -32.909  1.00  0.00     0.172 HD
BRANCH   8  12
HETATM   12  C   UNL     1      -1.914   6.002 -33.446  1.00  0.00     0.036 A 
HETATM   13  C   UNL     1      -1.213   4.989 -32.784  1.00  0.00     0.032 A 
HETATM   14  C   UNL     1      -0.393   5.298 -31.694  1.00  0.00     0.044 A 
HETATM   15  C   UNL     1      -0.266   6.618 -31.277  1.00  0.00     0.116 A 
HETATM   16  C   UNL     1      -0.936   7.638 -31.937  1.00  0.00     0.044 A 
HETATM   17  F   UNL     1       0.526   6.909 -30.237  1.00  0.00    -0.206 F 
HETATM   18  C   UNL     1      -1.753   7.331 -33.027  1.00  0.00     0.032 A 
ENDBRANCH   8  12
ENDBRANCH   1   6
BRANCH   4  19
HETATM   19  C   UNL     1      -8.313   1.994 -33.890  1.00  0.00     0.163 C 
BRANCH  19  20
HETATM   20  C   UNL     1      -7.336   0.963 -34.435  1.00  0.00     0.227 C 
HETATM   21  N   UNL     1      -6.859   0.066 -33.497  1.00  0.00    -0.327 N 
HETATM   22  H   UNL     1      -7.046   0.305 -32.517  1.00  0.00     0.169 HD
HETATM   23  O   UNL     1      -7.092   0.933 -35.641  1.00  0.00    -0.273 OA
BRANCH  21  24
HETATM   24  C   UNL     1      -6.080  -1.086 -33.720  1.00  0.00     0.036 A 
HETATM   25  C   UNL     1      -6.500  -2.181 -34.479  1.00  0.00     0.055 A 
HETATM   26  C   UNL     1      -5.674  -3.304 -34.627  1.00  0.00     0.058 A 
HETATM   27 CL   UNL     1      -6.274  -4.628 -35.564  1.00  0.00    -0.082 Cl
HETATM   28  C   UNL     1      -4.414  -3.335 -34.020  1.00  0.00     0.055 A 
HETATM   29 CL   UNL     1      -3.344  -4.685 -34.159  1.00  0.00    -0.083 Cl
HETATM   30  C   UNL     1      -3.989  -2.244 -33.263  1.00  0.00     0.028 A 
HETATM   31  C   UNL     1      -4.820  -1.131 -33.111  1.00  0.00     0.031 A 
ENDBRANCH  21  24
ENDBRANCH  19  20
ENDBRANCH   4  19
TORSDOF 5
ENDMDL
MODEL 2
REMARK VINA RESULT:      -9.0      5.446      9.417
REMARK  5 active torsions:
REMARK  status: ('A' for Active; 'I' for Inactive)
REMARK    1  A    between atoms: C_2  and  N_3 
REMARK       I    between atoms: N_3  and  C_4 
REMARK       I    between atoms: C_4  and  N_5 
REMARK    2  A    between atoms: N_5  and  C_6 
REMARK    3  A    between atoms: C_9  and  C_10 
REMARK    4  A    between atoms: C_10  and  C_11 
REMARK       I    between atoms: C_11  and  N_12 
REMARK    5  A    between atoms: N_12  and  C_13 
ROOT
HETATM    1  C   UNL     1      -5.091   3.536 -33.064  1.00  0.00     0.174 A 
HETATM    2  S   UNL     1      -6.323   4.645 -32.669  1.00  0.00    -0.062 SA
HETATM    3  C   UNL     1      -5.306   5.929 -33.187  1.00  0.00     0.081 A 
HETATM    4  C   UNL     1      -4.101   5.423 -33.646  1.00  0.00     0.052 A 
HETATM    5  N   UNL     1      -3.995   4.040 -33.572  1.00  0.00    -0.228 NA
ENDROOT
BRANCH   1   6
HETATM    6  N   UNL     1      -5.402   2.228 -32.831  1.00  0.00    -0.287 N 
HETATM    7  C   UNL     1      -5.023   1.594 -31.687  1.00  0.00     0.326 C 
HETATM    8  N   UNL     1      -5.298   0.255 -31.609  1.00  0.00    -0.309 N 
HETATM    9  O   UNL     1      -4.540   2.135 -30.694  1.00  0.00    -0.247 OA
HETATM   10  H   UNL     1      -5.241  -0.075 -30.653  1.00  0.00     0.170 HD
HETATM   11  H   UNL     1      -6.124   1.816 -33.398  1.00  0.00     0.172 HD
BRANCH   8  12
HETATM   12  C   UNL     1      -5.500  -0.722 -32.599  1.00  0.00     0.036 A 
HETATM   13  C   UNL     1      -6.734  -0.980 -33.203  1.00  0.00     0.032 A 
HETATM   14  C   UNL     1      -6.837  -1.942 -34.213  1.00  0.00     0.044 A 
HETATM   15  C   UNL     1      -5.704  -2.634 -34.625  1.00  0.00     0.116 A 
HETATM   16  C   UNL     1      -4.466  -2.374 -34.054  1.00  0.00     0.044 A 
HETATM   17  F   UNL     1      -5.805  -3.549 -35.598  1.00  0.00    -0.206 F 
HETATM   18  C   UNL     1      -4.363  -1.411 -33.047  1.00  0.00     0.032 A 
ENDBRANCH   8  12
ENDBRANCH   1   6
BRANCH   4  19
HETATM   19  C   UNL     1      -2.969   6.194 -34.241  1.00  0.00     0.163 C 
BRANCH  19  20
HETATM   20  C   UNL     1      -2.201   7.054 -33.247  1.00  0.00     0.227 C 
HETATM   21  N   UNL     1      -2.101   6.519 -31.976  1.00  0.00    -0.327 N 
HETATM   22  H   UNL     1      -2.711   5.718 -31.781  1.00  0.00     0.169 HD
HETATM   23  O   UNL     1      -1.668   8.095 -33.628  1.00  0.00    -0.273 OA
BRANCH  21  24
HETATM   24  C   UNL     1      -1.328   6.991 -30.898  1.00  0.00     0.036 A 
HETATM   25  C   UNL     1      -1.731   8.008 -30.031  1.00  0.00     0.055 A 
HETATM   26  C   UNL     1      -0.887   8.442 -28.999  1.00  0.00     0.058 A 
HETATM   27 CL   UNL     1      -1.449   9.722 -27.980  1.00  0.00    -0.082 Cl
HETATM   28  C   UNL     1       0.369   7.850 -28.824  1.00  0.00     0.055 A 
HETATM   29 CL   UNL     1       1.462   8.333 -27.575  1.00  0.00    -0.083 Cl
HETATM   30  C   UNL     1       0.776   6.832 -29.685  1.00  0.00     0.028 A 
HETATM   31  C   UNL     1      -0.066   6.411 -30.718  1.00  0.00     0.031 A 
ENDBRANCH  21  24
ENDBRANCH  19  20
ENDBRANCH   4  19
TORSDOF 5
ENDMDL
MODEL 3
REMARK VINA RESULT:      -8.9      5.799     10.053
REMARK  5 active torsions:
REMARK  status: ('A' for Active; 'I' for Inactive)
REMARK    1  A    between atoms: C_2  and  N_3 
REMARK       I    between atoms: N_3  and  C_4 
REMARK       I    between atoms: C_4  and  N_5 
REMARK    2  A    between atoms: N_5  and  C_6 
REMARK    3  A    between atoms: C_9  and  C_10 
REMARK    4  A    between atoms: C_10  and  C_11 
REMARK       I    between atoms: C_11  and  N_12 
REMARK    5  A    between atoms: N_12  and  C_13 
ROOT
HETATM    1  C   UNL     1      -3.965   3.146 -32.451  1.00  0.00     0.174 A 
HETATM    2  S   UNL     1      -4.931   4.551 -32.485  1.00  0.00    -0.062 SA
HETATM    3  C   UNL     1      -3.508   5.506 -32.366  1.00  0.00     0.081 A 
HETATM    4  C   UNL     1      -2.390   4.689 -32.330  1.00  0.00     0.052 A 
HETATM    5  N   UNL     1      -2.672   3.330 -32.384  1.00  0.00    -0.228 NA
ENDROOT
BRANCH   1   6
HETATM    6  N   UNL     1      -4.659   1.973 -32.529  1.00  0.00    -0.287 N 
HETATM    7  C   UNL     1      -5.052   1.297 -31.415  1.00  0.00     0.326 C 
HETATM    8  N   UNL     1      -5.647   0.081 -31.614  1.00  0.00    -0.309 N 
HETATM    9  O   UNL     1      -4.997   1.722 -30.262  1.00  0.00    -0.247 OA
HETATM   10  H   UNL     1      -6.145  -0.224 -30.786  1.00  0.00     0.170 HD
HETATM   11  H   UNL     1      -5.090   1.749 -33.410  1.00  0.00     0.172 HD
BRANCH   8  12
HETATM   12  C   UNL     1      -5.574  -0.838 -32.675  1.00  0.00     0.036 A 
HETATM   13  C   UNL     1      -4.426  -1.568 -33.001  1.00  0.00     0.032 A 
HETATM   14  C   UNL     1      -4.454  -2.496 -34.047  1.00  0.00     0.044 A 
HETATM   15  C   UNL     1      -5.632  -2.700 -34.757  1.00  0.00     0.116 A 
HETATM   16  C   UNL     1      -6.786  -2.002 -34.433  1.00  0.00     0.044 A 
HETATM   17  F   UNL     1      -5.656  -3.595 -35.753  1.00  0.00    -0.206 F 
HETATM   18  C   UNL     1      -6.759  -1.078 -33.386  1.00  0.00     0.032 A 
ENDBRANCH   8  12
ENDBRANCH   1   6
BRANCH   4  19
HETATM   19  C   UNL     1      -0.961   5.120 -32.294  1.00  0.00     0.163 C 
BRANCH  19  20
HETATM   20  C   UNL     1      -0.418   5.387 -30.897  1.00  0.00     0.227 C 
HETATM   21  N   UNL     1      -0.594   6.682 -30.446  1.00  0.00    -0.327 N 
HETATM   22  H   UNL     1      -0.879   7.366 -31.155  1.00  0.00     0.169 HD
HETATM   23  O   UNL     1       0.057   4.460 -30.241  1.00  0.00    -0.273 OA
BRANCH  21  24
HETATM   24  C   UNL     1      -0.350   7.189 -29.155  1.00  0.00     0.036 A 
HETATM   25  C   UNL     1      -1.275   7.149 -28.110  1.00  0.00     0.055 A 
HETATM   26  C   UNL     1      -0.964   7.704 -26.861  1.00  0.00     0.058 A 
HETATM   27 CL   UNL     1      -2.170   7.634 -25.623  1.00  0.00    -0.082 Cl
HETATM   28  C   UNL     1       0.285   8.299 -26.648  1.00  0.00     0.055 A 
HETATM   29 CL   UNL     1       0.737   9.004 -25.136  1.00  0.00    -0.083 Cl
HETATM   30  C   UNL     1       1.213   8.341 -27.687  1.00  0.00     0.028 A 
HETATM   31  C   UNL     1       0.893   7.793 -28.933  1.00  0.00     0.031 A 
ENDBRANCH  21  24
ENDBRANCH  19  20
ENDBRANCH   4  19
TORSDOF 5
ENDMDL
MODEL 4
REMARK VINA RESULT:      -8.8      2.218      2.716
REMARK  5 active torsions:
REMARK  status: ('A' for Active; 'I' for Inactive)
REMARK    1  A    between atoms: C_2  and  N_3 
REMARK       I    between atoms: N_3  and  C_4 
REMARK       I    between atoms: C_4  and  N_5 
REMARK    2  A    between atoms: N_5  and  C_6 
REMARK    3  A    between atoms: C_9  and  C_10 
REMARK    4  A    between atoms: C_10  and  C_11 
REMARK       I    between atoms: C_11  and  N_12 
REMARK    5  A    between atoms: N_12  and  C_13 
ROOT
HETATM    1  C   UNL     1      -4.314   4.706 -31.879  1.00  0.00     0.174 A 
HETATM    2  S   UNL     1      -5.247   5.461 -33.090  1.00  0.00    -0.062 SA
HETATM    3  C   UNL     1      -6.545   4.398 -32.724  1.00  0.00     0.081 A 
HETATM    4  C   UNL     1      -6.188   3.552 -31.688  1.00  0.00     0.052 A 
HETATM    5  N   UNL     1      -4.898   3.746 -31.209  1.00  0.00    -0.228 NA
ENDROOT
BRANCH   1   6
HETATM    6  N   UNL     1      -3.058   5.216 -31.723  1.00  0.00    -0.287 N 
HETATM    7  C   UNL     1      -2.017   4.804 -32.498  1.00  0.00     0.326 C 
HETATM    8  N   UNL     1      -0.783   5.305 -32.181  1.00  0.00    -0.309 N 
HETATM    9  O   UNL     1      -2.104   4.097 -33.500  1.00  0.00    -0.247 OA
HETATM   10  H   UNL     1      -0.129   5.178 -32.945  1.00  0.00     0.170 HD
HETATM   11  H   UNL     1      -2.968   6.073 -31.204  1.00  0.00     0.172 HD
BRANCH   8  12
HETATM   12  C   UNL     1      -0.256   5.818 -30.983  1.00  0.00     0.036 A 
HETATM   13  C   UNL     1      -0.295   7.170 -30.626  1.00  0.00     0.032 A 
HETATM   14  C   UNL     1       0.214   7.587 -29.393  1.00  0.00     0.044 A 
HETATM   15  C   UNL     1       0.751   6.653 -28.515  1.00  0.00     0.116 A 
HETATM   16  C   UNL     1       0.778   5.305 -28.843  1.00  0.00     0.044 A 
HETATM   17  F   UNL     1       1.232   7.056 -27.332  1.00  0.00    -0.206 F 
HETATM   18  C   UNL     1       0.266   4.887 -30.073  1.00  0.00     0.032 A 
ENDBRANCH   8  12
ENDBRANCH   1   6
BRANCH   4  19
HETATM   19  C   UNL     1      -7.047   2.525 -31.026  1.00  0.00     0.163 C 
BRANCH  19  20
HETATM   20  C   UNL     1      -6.872   1.114 -31.568  1.00  0.00     0.227 C 
HETATM   21  N   UNL     1      -5.631   0.857 -32.122  1.00  0.00    -0.327 N 
HETATM   22  H   UNL     1      -5.041   1.678 -32.294  1.00  0.00     0.169 HD
HETATM   23  O   UNL     1      -7.774   0.290 -31.423  1.00  0.00    -0.273 OA
BRANCH  21  24
HETATM   24  C   UNL     1      -5.117  -0.381 -32.554  1.00  0.00     0.036 A 
HETATM   25  C   UNL     1      -5.598  -1.088 -33.657  1.00  0.00     0.055 A 
HETATM   26  C   UNL     1      -5.050  -2.331 -34.003  1.00  0.00     0.058 A 
HETATM   27 CL   UNL     1      -5.715  -3.155 -35.371  1.00  0.00    -0.082 Cl
HETATM   28  C   UNL     1      -4.006  -2.873 -33.245  1.00  0.00     0.055 A 
HETATM   29 CL   UNL     1      -3.283  -4.399 -33.610  1.00  0.00    -0.083 Cl
HETATM   30  C   UNL     1      -3.520  -2.172 -32.143  1.00  0.00     0.028 A 
HETATM   31  C   UNL     1      -4.077  -0.937 -31.798  1.00  0.00     0.031 A 
ENDBRANCH  21  24
ENDBRANCH  19  20
ENDBRANCH   4  19
TORSDOF 5
ENDMDL
MODEL 5
REMARK VINA RESULT:      -8.8      1.613      2.291
REMARK  5 active torsions:
REMARK  status: ('A' for Active; 'I' for Inactive)
REMARK    1  A    between atoms: C_2  and  N_3 
REMARK       I    between atoms: N_3  and  C_4 
REMARK       I    between atoms: C_4  and  N_5 
REMARK    2  A    between atoms: N_5  and  C_6 
REMARK    3  A    between atoms: C_9  and  C_10 
REMARK    4  A    between atoms: C_10  and  C_11 
REMARK       I    between atoms: C_11  and  N_12 
REMARK    5  A    between atoms: N_12  and  C_13 
ROOT
HETATM    1  C   UNL     1      -6.413   5.010 -32.453  1.00  0.00     0.174 A 
HETATM    2  S   UNL     1      -7.744   6.042 -32.721  1.00  0.00    -0.062 SA
HETATM    3  C   UNL     1      -8.770   4.872 -31.992  1.00  0.00     0.081 A 
HETATM    4  C   UNL     1      -8.025   3.782 -31.575  1.00  0.00     0.052 A 
HETATM    5  N   UNL     1      -6.666   3.880 -31.845  1.00  0.00    -0.228 NA
ENDROOT
BRANCH   1   6
HETATM    6  N   UNL     1      -5.214   5.501 -32.883  1.00  0.00    -0.287 N 
HETATM    7  C   UNL     1      -4.688   5.151 -34.089  1.00  0.00     0.326 C 
HETATM    8  N   UNL     1      -3.432   5.620 -34.368  1.00  0.00    -0.309 N 
HETATM    9  O   UNL     1      -5.274   4.530 -34.974  1.00  0.00    -0.247 OA
HETATM   10  H   UNL     1      -3.229   5.554 -35.358  1.00  0.00     0.170 HD
HETATM   11  H   UNL     1      -4.850   6.311 -32.410  1.00  0.00     0.172 HD
BRANCH   8  12
HETATM   12  C   UNL     1      -2.376   6.029 -33.536  1.00  0.00     0.036 A 
HETATM   13  C   UNL     1      -2.079   7.365 -33.248  1.00  0.00     0.032 A 
HETATM   14  C   UNL     1      -1.035   7.682 -32.373  1.00  0.00     0.044 A 
HETATM   15  C   UNL     1      -0.298   6.663 -31.779  1.00  0.00     0.116 A 
HETATM   16  C   UNL     1      -0.594   5.332 -32.035  1.00  0.00     0.044 A 
HETATM   17  F   UNL     1       0.696   6.971 -30.937  1.00  0.00    -0.206 F 
HETATM   18  C   UNL     1      -1.639   5.015 -32.906  1.00  0.00     0.032 A 
ENDBRANCH   8  12
ENDBRANCH   1   6
BRANCH   4  19
HETATM   19  C   UNL     1      -8.521   2.580 -30.840  1.00  0.00     0.163 C 
BRANCH  19  20
HETATM   20  C   UNL     1      -8.384   1.272 -31.606  1.00  0.00     0.227 C 
HETATM   21  N   UNL     1      -7.179   1.113 -32.267  1.00  0.00    -0.327 N 
HETATM   22  H   UNL     1      -6.598   1.955 -32.341  1.00  0.00     0.169 HD
HETATM   23  O   UNL     1      -9.278   0.430 -31.539  1.00  0.00    -0.273 OA
BRANCH  21  24
HETATM   24  C   UNL     1      -6.695  -0.039 -32.917  1.00  0.00     0.036 A 
HETATM   25  C   UNL     1      -5.535  -0.720 -32.544  1.00  0.00     0.055 A 
HETATM   26  C   UNL     1      -5.105  -1.843 -33.264  1.00  0.00     0.058 A 
HETATM   27 CL   UNL     1      -3.647  -2.620 -32.753  1.00  0.00    -0.082 Cl
HETATM   28  C   UNL     1      -5.842  -2.296 -34.364  1.00  0.00     0.055 A 
HETATM   29 CL   UNL     1      -5.372  -3.672 -35.299  1.00  0.00    -0.083 Cl
HETATM   30  C   UNL     1      -7.001  -1.621 -34.741  1.00  0.00     0.028 A 
HETATM   31  C   UNL     1      -7.420  -0.496 -34.024  1.00  0.00     0.031 A 
ENDBRANCH  21  24
ENDBRANCH  19  20
ENDBRANCH   4  19
TORSDOF 5
ENDMDL
MODEL 6
REMARK VINA RESULT:      -8.7      4.048      6.774
REMARK  5 active torsions:
REMARK  status: ('A' for Active; 'I' for Inactive)
REMARK    1  A    between atoms: C_2  and  N_3 
REMARK       I    between atoms: N_3  and  C_4 
REMARK       I    between atoms: C_4  and  N_5 
REMARK    2  A    between atoms: N_5  and  C_6 
REMARK    3  A    between atoms: C_9  and  C_10 
REMARK    4  A    between atoms: C_10  and  C_11 
REMARK       I    between atoms: C_11  and  N_12 
REMARK    5  A    between atoms: N_12  and  C_13 
ROOT
HETATM    1  C   UNL     1      -6.237   3.880 -33.067  1.00  0.00     0.174 A 
HETATM    2  S   UNL     1      -5.186   5.022 -33.773  1.00  0.00    -0.062 SA
HETATM    3  C   UNL     1      -3.852   4.195 -33.074  1.00  0.00     0.081 A 
HETATM    4  C   UNL     1      -4.296   3.091 -32.366  1.00  0.00     0.052 A 
HETATM    5  N   UNL     1      -5.675   2.922 -32.376  1.00  0.00    -0.228 NA
ENDROOT
BRANCH   1   6
HETATM    6  N   UNL     1      -7.560   4.081 -33.331  1.00  0.00    -0.287 N 
HETATM    7  C   UNL     1      -8.352   4.819 -32.506  1.00  0.00     0.326 C 
HETATM    8  N   UNL     1      -9.685   4.864 -32.815  1.00  0.00    -0.309 N 
HETATM    9  O   UNL     1      -7.961   5.512 -31.569  1.00  0.00    -0.247 OA
HETATM   10  H   UNL     1     -10.146   5.630 -32.337  1.00  0.00     0.170 HD
HETATM   11  H   UNL     1      -7.880   3.888 -34.266  1.00  0.00     0.172 HD
BRANCH   8  12
HETATM   12  C   UNL     1     -10.512   3.987 -33.538  1.00  0.00     0.036 A 
HETATM   13  C   UNL     1     -10.953   4.226 -34.843  1.00  0.00     0.032 A 
HETATM   14  C   UNL     1     -11.739   3.277 -35.506  1.00  0.00     0.044 A 
HETATM   15  C   UNL     1     -12.071   2.088 -34.867  1.00  0.00     0.116 A 
HETATM   16  C   UNL     1     -11.623   1.825 -33.581  1.00  0.00     0.044 A 
HETATM   17  F   UNL     1     -12.818   1.180 -35.508  1.00  0.00    -0.206 F 
HETATM   18  C   UNL     1     -10.835   2.770 -32.920  1.00  0.00     0.032 A 
ENDBRANCH   8  12
ENDBRANCH   1   6
BRANCH   4  19
HETATM   19  C   UNL     1      -3.458   2.074 -31.665  1.00  0.00     0.163 C 
BRANCH  19  20
HETATM   20  C   UNL     1      -3.938   0.639 -31.832  1.00  0.00     0.227 C 
HETATM   21  N   UNL     1      -4.507   0.359 -33.061  1.00  0.00    -0.327 N 
HETATM   22  H   UNL     1      -4.728   1.172 -33.645  1.00  0.00     0.169 HD
HETATM   23  O   UNL     1      -3.735  -0.179 -30.935  1.00  0.00    -0.273 OA
BRANCH  21  24
HETATM   24  C   UNL     1      -4.892  -0.897 -33.569  1.00  0.00     0.036 A 
HETATM   25  C   UNL     1      -4.085  -2.035 -33.539  1.00  0.00     0.055 A 
HETATM   26  C   UNL     1      -4.533  -3.242 -34.095  1.00  0.00     0.058 A 
HETATM   27 CL   UNL     1      -3.466  -4.602 -34.038  1.00  0.00    -0.082 Cl
HETATM   28  C   UNL     1      -5.801  -3.317 -34.681  1.00  0.00     0.055 A 
HETATM   29 CL   UNL     1      -6.419  -4.769 -35.386  1.00  0.00    -0.083 Cl
HETATM   30  C   UNL     1      -6.613  -2.184 -34.712  1.00  0.00     0.028 A 
HETATM   31  C   UNL     1      -6.157  -0.982 -34.164  1.00  0.00     0.031 A 
ENDBRANCH  21  24
ENDBRANCH  19  20
ENDBRANCH   4  19
TORSDOF 5
ENDMDL
MODEL 7
REMARK VINA RESULT:      -8.6      3.511      4.392
REMARK  5 active torsions:
REMARK  status: ('A' for Active; 'I' for Inactive)
REMARK    1  A    between atoms: C_2  and  N_3 
REMARK       I    between atoms: N_3  and  C_4 
REMARK       I    between atoms: C_4  and  N_5 
REMARK    2  A    between atoms: N_5  and  C_6 
REMARK    3  A    between atoms: C_9  and  C_10 
REMARK    4  A    between atoms: C_10  and  C_11 
REMARK       I    between atoms: C_11  and  N_12 
REMARK    5  A    between atoms: N_12  and  C_13 
ROOT
HETATM    1  C   UNL     1      -2.849   6.025 -31.341  1.00  0.00     0.174 A 
HETATM    2  S   UNL     1      -2.869   6.674 -32.918  1.00  0.00    -0.062 SA
HETATM    3  C   UNL     1      -4.413   5.965 -33.168  1.00  0.00     0.081 A 
HETATM    4  C   UNL     1      -4.820   5.297 -32.025  1.00  0.00     0.052 A 
HETATM    5  N   UNL     1      -3.907   5.345 -30.979  1.00  0.00    -0.228 NA
ENDROOT
BRANCH   1   6
HETATM    6  N   UNL     1      -1.730   6.316 -30.617  1.00  0.00    -0.287 N 
HETATM    7  C   UNL     1      -0.652   5.486 -30.598  1.00  0.00     0.326 C 
HETATM    8  N   UNL     1       0.370   5.828 -29.753  1.00  0.00    -0.309 N 
HETATM    9  O   UNL     1      -0.483   4.514 -31.333  1.00  0.00    -0.247 OA
HETATM   10  H   UNL     1       1.223   5.335 -29.992  1.00  0.00     0.170 HD
HETATM   11  H   UNL     1      -1.618   7.266 -30.301  1.00  0.00     0.172 HD
BRANCH   8  12
HETATM   12  C   UNL     1       0.400   6.604 -28.582  1.00  0.00     0.036 A 
HETATM   13  C   UNL     1      -0.077   6.168 -27.342  1.00  0.00     0.032 A 
HETATM   14  C   UNL     1       0.034   6.991 -26.216  1.00  0.00     0.044 A 
HETATM   15  C   UNL     1       0.631   8.241 -26.330  1.00  0.00     0.116 A 
HETATM   16  C   UNL     1       1.130   8.680 -27.548  1.00  0.00     0.044 A 
HETATM   17  F   UNL     1       0.740   9.022 -25.249  1.00  0.00    -0.206 F 
HETATM   18  C   UNL     1       1.024   7.858 -28.671  1.00  0.00     0.032 A 
ENDBRANCH   8  12
ENDBRANCH   1   6
BRANCH   4  19
HETATM   19  C   UNL     1      -6.123   4.603 -31.802  1.00  0.00     0.163 C 
BRANCH  19  20
HETATM   20  C   UNL     1      -6.013   3.093 -31.642  1.00  0.00     0.227 C 
HETATM   21  N   UNL     1      -5.031   2.500 -32.415  1.00  0.00    -0.327 N 
HETATM   22  H   UNL     1      -4.625   3.090 -33.149  1.00  0.00     0.169 HD
HETATM   23  O   UNL     1      -6.718   2.516 -30.815  1.00  0.00    -0.273 OA
BRANCH  21  24
HETATM   24  C   UNL     1      -4.583   1.165 -32.368  1.00  0.00     0.036 A 
HETATM   25  C   UNL     1      -5.067   0.148 -33.193  1.00  0.00     0.055 A 
HETATM   26  C   UNL     1      -4.589  -1.164 -33.062  1.00  0.00     0.058 A 
HETATM   27 CL   UNL     1      -5.252  -2.372 -34.107  1.00  0.00    -0.082 Cl
HETATM   28  C   UNL     1      -3.614  -1.464 -32.104  1.00  0.00     0.055 A 
HETATM   29 CL   UNL     1      -2.980  -3.056 -31.886  1.00  0.00    -0.083 Cl
HETATM   30  C   UNL     1      -3.127  -0.452 -31.279  1.00  0.00     0.028 A 
HETATM   31  C   UNL     1      -3.614   0.852 -31.408  1.00  0.00     0.031 A 
ENDBRANCH  21  24
ENDBRANCH  19  20
ENDBRANCH   4  19
TORSDOF 5
ENDMDL
MODEL 8
REMARK VINA RESULT:      -8.4      3.857      5.505
REMARK  5 active torsions:
REMARK  status: ('A' for Active; 'I' for Inactive)
REMARK    1  A    between atoms: C_2  and  N_3 
REMARK       I    between atoms: N_3  and  C_4 
REMARK       I    between atoms: C_4  and  N_5 
REMARK    2  A    between atoms: N_5  and  C_6 
REMARK    3  A    between atoms: C_9  and  C_10 
REMARK    4  A    between atoms: C_10  and  C_11 
REMARK       I    between atoms: C_11  and  N_12 
REMARK    5  A    between atoms: N_12  and  C_13 
ROOT
HETATM    1  C   UNL     1      -3.928   0.422 -32.454  1.00  0.00     0.174 A 
HETATM    2  S   UNL     1      -2.976  -0.909 -31.973  1.00  0.00    -0.062 SA
HETATM    3  C   UNL     1      -4.086  -1.960 -32.757  1.00  0.00     0.081 A 
HETATM    4  C   UNL     1      -5.097  -1.224 -33.351  1.00  0.00     0.052 A 
HETATM    5  N   UNL     1      -4.989   0.149 -33.170  1.00  0.00    -0.228 NA
ENDROOT
BRANCH   1   6
HETATM    6  N   UNL     1      -3.453   1.638 -32.057  1.00  0.00    -0.287 N 
HETATM    7  C   UNL     1      -4.102   2.393 -31.129  1.00  0.00     0.326 C 
HETATM    8  N   UNL     1      -3.592   3.640 -30.888  1.00  0.00    -0.309 N 
HETATM    9  O   UNL     1      -5.046   2.020 -30.434  1.00  0.00    -0.247 OA
HETATM   10  H   UNL     1      -3.947   4.019 -30.018  1.00  0.00     0.170 HD
HETATM   11  H   UNL     1      -2.494   1.852 -32.273  1.00  0.00     0.172 HD
BRANCH   8  12
HETATM   12  C   UNL     1      -2.804   4.500 -31.672  1.00  0.00     0.036 A 
HETATM   13  C   UNL     1      -1.479   4.836 -31.375  1.00  0.00     0.032 A 
HETATM   14  C   UNL     1      -0.753   5.666 -32.235  1.00  0.00     0.044 A 
HETATM   15  C   UNL     1      -1.348   6.148 -33.395  1.00  0.00     0.116 A 
HETATM   16  C   UNL     1      -2.653   5.806 -33.717  1.00  0.00     0.044 A 
HETATM   17  F   UNL     1      -0.646   6.936 -34.219  1.00  0.00    -0.206 F 
HETATM   18  C   UNL     1      -3.378   4.975 -32.861  1.00  0.00     0.032 A 
ENDBRANCH   8  12
ENDBRANCH   1   6
BRANCH   4  19
HETATM   19  C   UNL     1      -6.222  -1.746 -34.183  1.00  0.00     0.163 C 
BRANCH  19  20
HETATM   20  C   UNL     1      -7.347  -0.748 -34.420  1.00  0.00     0.227 C 
HETATM   21  N   UNL     1      -8.076  -0.421 -33.291  1.00  0.00    -0.327 N 
HETATM   22  H   UNL     1      -7.924  -1.020 -32.473  1.00  0.00     0.169 HD
HETATM   23  O   UNL     1      -7.492  -0.248 -35.535  1.00  0.00    -0.273 OA
BRANCH  21  24
HETATM   24  C   UNL     1      -9.059   0.579 -33.157  1.00  0.00     0.036 A 
HETATM   25  C   UNL     1     -10.406   0.401 -33.478  1.00  0.00     0.055 A 
HETATM   26  C   UNL     1     -11.317   1.459 -33.344  1.00  0.00     0.058 A 
HETATM   27 CL   UNL     1     -12.964   1.166 -33.781  1.00  0.00    -0.082 Cl
HETATM   28  C   UNL     1     -10.882   2.705 -32.880  1.00  0.00     0.055 A 
HETATM   29 CL   UNL     1     -11.946   4.053 -32.691  1.00  0.00    -0.083 Cl
HETATM   30  C   UNL     1      -9.538   2.889 -32.557  1.00  0.00     0.028 A 
HETATM   31  C   UNL     1      -8.634   1.832 -32.700  1.00  0.00     0.031 A 
ENDBRANCH  21  24
ENDBRANCH  19  20
ENDBRANCH   4  19
TORSDOF 5
ENDMDL
MODEL 9
REMARK VINA RESULT:      -8.4      2.222      2.457
REMARK  5 active torsions:
REMARK  status: ('A' for Active; 'I' for Inactive)
REMARK    1  A    between atoms: C_2  and  N_3 
REMARK       I    between atoms: N_3  and  C_4 
REMARK       I    between atoms: C_4  and  N_5 
REMARK    2  A    between atoms: N_5  and  C_6 
REMARK    3  A    between atoms: C_9  and  C_10 
REMARK    4  A    between atoms: C_10  and  C_11 
REMARK       I    between atoms: C_11  and  N_12 
REMARK    5  A    between atoms: N_12  and  C_13 
ROOT
HETATM    1  C   UNL     1      -5.984   3.983 -31.865  1.00  0.00     0.174 A 
HETATM    2  S   UNL     1      -6.834   3.914 -30.388  1.00  0.00    -0.062 SA
HETATM    3  C   UNL     1      -8.071   3.011 -31.167  1.00  0.00     0.081 A 
HETATM    4  C   UNL     1      -7.743   2.806 -32.497  1.00  0.00     0.052 A 
HETATM    5  N   UNL     1      -6.533   3.370 -32.882  1.00  0.00    -0.228 NA
ENDROOT
BRANCH   1   6
HETATM    6  N   UNL     1      -4.797   4.654 -31.810  1.00  0.00    -0.287 N 
HETATM    7  C   UNL     1      -3.665   4.071 -31.329  1.00  0.00     0.326 C 
HETATM    8  N   UNL     1      -2.560   4.873 -31.222  1.00  0.00    -0.309 N 
HETATM    9  O   UNL     1      -3.530   2.877 -31.068  1.00  0.00    -0.247 OA
HETATM   10  H   UNL     1      -1.716   4.321 -31.125  1.00  0.00     0.170 HD
HETATM   11  H   UNL     1      -4.715   5.494 -32.358  1.00  0.00     0.172 HD
BRANCH   8  12
HETATM   12  C   UNL     1      -2.419   6.265 -31.092  1.00  0.00     0.036 A 
HETATM   13  C   UNL     1      -2.099   7.121 -32.150  1.00  0.00     0.032 A 
HETATM   14  C   UNL     1      -2.021   8.502 -31.940  1.00  0.00     0.044 A 
HETATM   15  C   UNL     1      -2.275   9.024 -30.677  1.00  0.00     0.116 A 
HETATM   16  C   UNL     1      -2.617   8.191 -29.621  1.00  0.00     0.044 A 
HETATM   17  F   UNL     1      -2.207  10.347 -30.483  1.00  0.00    -0.206 F 
HETATM   18  C   UNL     1      -2.698   6.813 -29.831  1.00  0.00     0.032 A 
ENDBRANCH   8  12
ENDBRANCH   1   6
BRANCH   4  19
HETATM   19  C   UNL     1      -8.514   2.018 -33.504  1.00  0.00     0.163 C 
BRANCH  19  20
HETATM   20  C   UNL     1      -8.119   0.550 -33.590  1.00  0.00     0.227 C 
HETATM   21  N   UNL     1      -6.848   0.321 -34.086  1.00  0.00    -0.327 N 
HETATM   22  H   UNL     1      -6.390   1.127 -34.524  1.00  0.00     0.169 HD
HETATM   23  O   UNL     1      -8.886  -0.313 -33.163  1.00  0.00    -0.273 OA
BRANCH  21  24
HETATM   24  C   UNL     1      -6.146  -0.899 -34.134  1.00  0.00     0.036 A 
HETATM   25  C   UNL     1      -6.610  -2.044 -34.783  1.00  0.00     0.055 A 
HETATM   26  C   UNL     1      -5.862  -3.230 -34.758  1.00  0.00     0.058 A 
HETATM   27 CL   UNL     1      -6.515  -4.613 -35.568  1.00  0.00    -0.082 Cl
HETATM   28  C   UNL     1      -4.636  -3.273 -34.086  1.00  0.00     0.055 A 
HETATM   29 CL   UNL     1      -3.662  -4.698 -34.012  1.00  0.00    -0.083 Cl
HETATM   30  C   UNL     1      -4.167  -2.132 -33.437  1.00  0.00     0.028 A 
HETATM   31  C   UNL     1      -4.921  -0.955 -33.458  1.00  0.00     0.031 A 
ENDBRANCH  21  24
ENDBRANCH  19  20
ENDBRANCH   4  19
TORSDOF 5
ENDMDL
MODEL 10
REMARK VINA RESULT:      -8.3      4.513      6.203
REMARK  5 active torsions:
REMARK  status: ('A' for Active; 'I' for Inactive)
REMARK    1  A    between atoms: C_2  and  N_3 
REMARK       I    between atoms: N_3  and  C_4 
REMARK       I    between atoms: C_4  and  N_5 
REMARK    2  A    between atoms: N_5  and  C_6 
REMARK    3  A    between atoms: C_9  and  C_10 
REMARK    4  A    between atoms: C_10  and  C_11 
REMARK       I    between atoms: C_11  and  N_12 
REMARK    5  A    between atoms: N_12  and  C_13 
ROOT
HETATM    1  C   UNL     1      -5.126   1.319 -33.048  1.00  0.00     0.174 A 
HETATM    2  S   UNL     1      -4.484  -0.261 -33.035  1.00  0.00    -0.062 SA
HETATM    3  C   UNL     1      -5.899  -0.820 -33.832  1.00  0.00     0.081 A 
HETATM    4  C   UNL     1      -6.758   0.239 -34.072  1.00  0.00     0.052 A 
HETATM    5  N   UNL     1      -6.295   1.467 -33.617  1.00  0.00    -0.228 NA
ENDROOT
BRANCH   1   6
HETATM    6  N   UNL     1      -4.324   2.267 -32.481  1.00  0.00    -0.287 N 
HETATM    7  C   UNL     1      -4.511   2.692 -31.202  1.00  0.00     0.326 C 
HETATM    8  N   UNL     1      -3.715   3.721 -30.776  1.00  0.00    -0.309 N 
HETATM    9  O   UNL     1      -5.266   2.177 -30.378  1.00  0.00    -0.247 OA
HETATM   10  H   UNL     1      -3.719   3.793 -29.765  1.00  0.00     0.170 HD
HETATM   11  H   UNL     1      -3.447   2.461 -32.934  1.00  0.00     0.172 HD
BRANCH   8  12
HETATM   12  C   UNL     1      -3.036   4.734 -31.475  1.00  0.00     0.036 A 
HETATM   13  C   UNL     1      -3.658   5.860 -32.022  1.00  0.00     0.032 A 
HETATM   14  C   UNL     1      -2.898   6.843 -32.664  1.00  0.00     0.044 A 
HETATM   15  C   UNL     1      -1.517   6.704 -32.747  1.00  0.00     0.116 A 
HETATM   16  C   UNL     1      -0.880   5.605 -32.189  1.00  0.00     0.044 A 
HETATM   17  F   UNL     1      -0.793   7.651 -33.356  1.00  0.00    -0.206 F 
HETATM   18  C   UNL     1      -1.639   4.625 -31.545  1.00  0.00     0.032 A 
ENDBRANCH   8  12
ENDBRANCH   1   6
BRANCH   4  19
HETATM   19  C   UNL     1      -8.063   0.193 -34.796  1.00  0.00     0.163 C 
BRANCH  19  20
HETATM   20  C   UNL     1      -9.277   0.493 -33.927  1.00  0.00     0.227 C 
HETATM   21  N   UNL     1     -10.188   1.368 -34.489  1.00  0.00    -0.327 N 
HETATM   22  H   UNL     1      -9.866   1.873 -35.322  1.00  0.00     0.169 HD
HETATM   23  O   UNL     1      -9.415  -0.091 -32.853  1.00  0.00    -0.273 OA
BRANCH  21  24
HETATM   24  C   UNL     1     -11.468   1.710 -34.009  1.00  0.00     0.036 A 
HETATM   25  C   UNL     1     -12.644   1.059 -34.384  1.00  0.00     0.055 A 
HETATM   26  C   UNL     1     -13.884   1.481 -33.883  1.00  0.00     0.058 A 
HETATM   27 CL   UNL     1     -15.298   0.637 -34.412  1.00  0.00    -0.082 Cl
HETATM   28  C   UNL     1     -13.951   2.559 -32.994  1.00  0.00     0.055 A 
HETATM   29 CL   UNL     1     -15.442   3.135 -32.337  1.00  0.00    -0.083 Cl
HETATM   30  C   UNL     1     -12.780   3.212 -32.614  1.00  0.00     0.028 A 
HETATM   31  C   UNL     1     -11.548   2.792 -33.124  1.00  0.00     0.031 A 
ENDBRANCH  21  24
ENDBRANCH  19  20
ENDBRANCH   4  19
TORSDOF 5
ENDMDL
