MODEL 1
REMARK VINA RESULT:      -9.0      0.000      0.000
REMARK  10 active torsions:
REMARK  status: ('A' for Active; 'I' for Inactive)
REMARK    1  A    between atoms: C_2  and  N_3 
REMARK    2  A    between atoms: N_3  and  C_4 
REMARK    3  A    between atoms: N_3  and  C_37 
REMARK    4  A    between atoms: C_7  and  C_8 
REMARK    5  A    between atoms: N_9  and  C_11 
REMARK    6  A    between atoms: C_11  and  C_12 
REMARK       I    between atoms: C_12  and  N_13 
REMARK    7  A    between atoms: N_13  and  C_14 
REMARK    8  A    between atoms: C_20  and  C_21 
REMARK    9  A    between atoms: C_21  and  O_22 
REMARK   10  A    between atoms: C_28  and  O_29 
ROOT
HETATM    1  C   UNL     1      -7.299   2.628 -32.915  1.00  0.00     0.228 C 
HETATM    2  N   UNL     1      -6.870   3.121 -31.514  1.00  0.00    -0.054 N 
HETATM    3  H   UNL     1      -5.936   2.702 -31.383  1.00  0.00     0.281 HD
HETATM    4  C   UNL     1      -7.782   2.666 -30.396  1.00  0.00     0.239 C 
HETATM    5  C   UNL     1      -9.219   3.090 -30.646  1.00  0.00     0.066 C 
HETATM    6  C   UNL     1      -9.729   2.593 -32.006  1.00  0.00     0.065 C 
HETATM    7  C   UNL     1      -8.786   3.076 -33.131  1.00  0.00     0.055 C 
HETATM    8  C   UNL     1     -11.173   3.090 -32.216  1.00  0.00     0.038 C 
HETATM    9  C   UNL     1     -11.710   2.818 -33.621  1.00  0.00     0.003 C 
HETATM   10  C   UNL     1     -10.766   3.351 -34.691  1.00  0.00     0.001 C 
HETATM   11  C   UNL     1      -9.365   2.766 -34.524  1.00  0.00     0.010 C 
ENDROOT
BRANCH   2  12
HETATM   12  C   UNL     1      -6.598   4.631 -31.417  1.00  0.00     0.338 C 
BRANCH  12  13
HETATM   13  C   UNL     1      -5.401   5.006 -30.546  1.00  0.00     0.248 C 
HETATM   14  N   UNL     1      -4.455   5.718 -31.256  1.00  0.00    -0.319 N 
HETATM   15  H   UNL     1      -4.589   5.862 -32.260  1.00  0.00     0.169 HD
HETATM   16  O   UNL     1      -5.387   4.653 -29.370  1.00  0.00    -0.271 OA
BRANCH  14  17
HETATM   17  C   UNL     1      -3.268   6.270 -30.795  1.00  0.00     0.094 A 
HETATM   18  S   UNL     1      -3.254   7.511 -29.654  1.00  0.00    -0.076 SA
HETATM   19  C   UNL     1      -1.551   7.627 -29.688  1.00  0.00    -0.012 A 
HETATM   20  C   UNL     1      -0.880   8.652 -28.830  1.00  0.00     0.057 C 
HETATM   21  C   UNL     1      -0.977   6.693 -30.541  1.00  0.00    -0.030 A 
HETATM   22  C   UNL     1       0.502   6.533 -30.736  1.00  0.00     0.050 C 
HETATM   23  C   UNL     1      -1.995   5.904 -31.219  1.00  0.00     0.080 A 
BRANCH  23  24
HETATM   24  C   UNL     1      -1.813   4.843 -32.222  1.00  0.00     0.296 C 
HETATM   25  O   UNL     1      -2.216   3.697 -32.025  1.00  0.00    -0.259 OA
BRANCH  24  26
HETATM   26  O   UNL     1      -1.186   5.252 -33.355  1.00  0.00    -0.322 OA
HETATM   27  C   UNL     1      -1.924   5.115 -34.573  1.00  0.00     0.213 C 
ENDBRANCH  24  26
ENDBRANCH  23  24
ENDBRANCH  14  17
ENDBRANCH  12  13
ENDBRANCH   2  12
BRANCH   1  28
HETATM   28  C   UNL     1      -6.967   1.161 -33.217  1.00  0.00    -0.027 C 
HETATM   29  C   UNL     1      -7.181   0.526 -34.443  1.00  0.00     0.011 C 
HETATM   30  C   UNL     1      -6.653  -0.750 -34.715  1.00  0.00     0.030 C 
HETATM   31  C   UNL     1      -5.898  -1.468 -33.783  1.00  0.00     0.030 C 
HETATM   32  C   UNL     1      -5.868  -0.909 -32.500  1.00  0.00     0.030 C 
HETATM   33  C   UNL     1      -6.403   0.360 -32.217  1.00  0.00     0.011 C 
BRANCH  31  34
HETATM   34  N   UNL     1      -5.238  -2.657 -34.090  1.00  0.00    -0.382 N 
BRANCH  34  35
HETATM   35  C   UNL     1      -3.893  -2.903 -33.531  1.00  0.00     0.118 C 
HETATM   36  C   UNL     1      -3.616  -4.395 -33.384  1.00  0.00     0.026 C 
ENDBRANCH  34  35
BRANCH  34  37
HETATM   37  C   UNL     1      -5.532  -3.399 -35.329  1.00  0.00     0.118 C 
HETATM   38  C   UNL     1      -6.704  -4.346 -35.125  1.00  0.00     0.026 C 
ENDBRANCH  34  37
ENDBRANCH  31  34
ENDBRANCH   1  28
BRANCH   6  39
HETATM   39  O   UNL     1      -9.731   1.171 -31.932  1.00  0.00    -0.389 OA
HETATM   40  H   UNL     1      -9.402   0.785 -32.764  1.00  0.00     0.210 HD
ENDBRANCH   6  39
TORSDOF 10
ENDMDL
MODEL 2
REMARK VINA RESULT:      -8.3      1.523      2.526
REMARK  10 active torsions:
REMARK  status: ('A' for Active; 'I' for Inactive)
REMARK    1  A    between atoms: C_2  and  N_3 
REMARK    2  A    between atoms: N_3  and  C_4 
REMARK    3  A    between atoms: N_3  and  C_37 
REMARK    4  A    between atoms: C_7  and  C_8 
REMARK    5  A    between atoms: N_9  and  C_11 
REMARK    6  A    between atoms: C_11  and  C_12 
REMARK       I    between atoms: C_12  and  N_13 
REMARK    7  A    between atoms: N_13  and  C_14 
REMARK    8  A    between atoms: C_20  and  C_21 
REMARK    9  A    between atoms: C_21  and  O_22 
REMARK   10  A    between atoms: C_28  and  O_29 
ROOT
HETATM    1  C   UNL     1      -7.414   2.729 -33.344  1.00  0.00     0.228 C 
HETATM    2  N   UNL     1      -6.824   3.380 -32.071  1.00  0.00    -0.054 N 
HETATM    3  H   UNL     1      -5.848   3.045 -32.056  1.00  0.00     0.281 HD
HETATM    4  C   UNL     1      -7.514   2.964 -30.791  1.00  0.00     0.239 C 
HETATM    5  C   UNL     1      -9.004   3.256 -30.844  1.00  0.00     0.066 C 
HETATM    6  C   UNL     1      -9.667   2.600 -32.063  1.00  0.00     0.065 C 
HETATM    7  C   UNL     1      -8.950   3.045 -33.357  1.00  0.00     0.055 C 
HETATM    8  C   UNL     1     -11.164   2.968 -32.082  1.00  0.00     0.038 C 
HETATM    9  C   UNL     1     -11.881   2.529 -33.358  1.00  0.00     0.003 C 
HETATM   10  C   UNL     1     -11.159   3.028 -34.602  1.00  0.00     0.001 C 
HETATM   11  C   UNL     1      -9.703   2.566 -34.612  1.00  0.00     0.010 C 
ENDROOT
BRANCH   2  12
HETATM   12  C   UNL     1      -6.672   4.908 -32.140  1.00  0.00     0.338 C 
BRANCH  12  13
HETATM   13  C   UNL     1      -5.234   5.397 -32.304  1.00  0.00     0.248 C 
HETATM   14  N   UNL     1      -4.537   5.340 -31.114  1.00  0.00    -0.319 N 
HETATM   15  H   UNL     1      -5.028   5.065 -30.260  1.00  0.00     0.169 HD
HETATM   16  O   UNL     1      -4.859   5.781 -33.407  1.00  0.00    -0.271 OA
BRANCH  14  17
HETATM   17  C   UNL     1      -3.204   5.650 -30.882  1.00  0.00     0.094 A 
HETATM   18  S   UNL     1      -1.954   4.745 -31.562  1.00  0.00    -0.076 SA
HETATM   19  C   UNL     1      -0.753   5.681 -30.792  1.00  0.00    -0.012 A 
HETATM   20  C   UNL     1       0.685   5.328 -31.004  1.00  0.00     0.057 C 
HETATM   21  C   UNL     1      -1.294   6.717 -30.041  1.00  0.00    -0.030 A 
HETATM   22  C   UNL     1      -0.476   7.727 -29.292  1.00  0.00     0.050 C 
HETATM   23  C   UNL     1      -2.749   6.685 -30.071  1.00  0.00     0.080 A 
BRANCH  23  24
HETATM   24  C   UNL     1      -3.699   7.575 -29.386  1.00  0.00     0.296 C 
HETATM   25  O   UNL     1      -3.776   7.608 -28.158  1.00  0.00    -0.259 OA
BRANCH  24  26
HETATM   26  O   UNL     1      -4.448   8.338 -30.223  1.00  0.00    -0.322 OA
HETATM   27  C   UNL     1      -5.827   8.494 -29.876  1.00  0.00     0.213 C 
ENDBRANCH  24  26
ENDBRANCH  23  24
ENDBRANCH  14  17
ENDBRANCH  12  13
ENDBRANCH   2  12
BRANCH   1  28
HETATM   28  C   UNL     1      -7.006   1.269 -33.575  1.00  0.00    -0.027 C 
HETATM   29  C   UNL     1      -7.276   0.535 -34.733  1.00  0.00     0.011 C 
HETATM   30  C   UNL     1      -6.684  -0.721 -34.966  1.00  0.00     0.030 C 
HETATM   31  C   UNL     1      -5.803  -1.318 -34.059  1.00  0.00     0.030 C 
HETATM   32  C   UNL     1      -5.705  -0.667 -32.824  1.00  0.00     0.030 C 
HETATM   33  C   UNL     1      -6.303   0.581 -32.580  1.00  0.00     0.011 C 
BRANCH  31  34
HETATM   34  N   UNL     1      -5.089  -2.482 -34.344  1.00  0.00    -0.382 N 
BRANCH  34  35
HETATM   35  C   UNL     1      -5.703  -3.515 -35.202  1.00  0.00     0.118 C 
HETATM   36  C   UNL     1      -6.993  -4.051 -34.591  1.00  0.00     0.026 C 
ENDBRANCH  34  35
BRANCH  34  37
HETATM   37  C   UNL     1      -4.044  -2.982 -33.433  1.00  0.00     0.118 C 
HETATM   38  C   UNL     1      -3.635  -4.397 -33.809  1.00  0.00     0.026 C 
ENDBRANCH  34  37
ENDBRANCH  31  34
ENDBRANCH   1  28
BRANCH   6  39
HETATM   39  O   UNL     1      -9.535   1.194 -31.876  1.00  0.00    -0.389 OA
HETATM   40  H   UNL     1      -9.631   0.726 -32.725  1.00  0.00     0.210 HD
ENDBRANCH   6  39
TORSDOF 10
ENDMDL
MODEL 3
REMARK VINA RESULT:      -8.2      2.907      7.942
REMARK  10 active torsions:
REMARK  status: ('A' for Active; 'I' for Inactive)
REMARK    1  A    between atoms: C_2  and  N_3 
REMARK    2  A    between atoms: N_3  and  C_4 
REMARK    3  A    between atoms: N_3  and  C_37 
REMARK    4  A    between atoms: C_7  and  C_8 
REMARK    5  A    between atoms: N_9  and  C_11 
REMARK    6  A    between atoms: C_11  and  C_12 
REMARK       I    between atoms: C_12  and  N_13 
REMARK    7  A    between atoms: N_13  and  C_14 
REMARK    8  A    between atoms: C_20  and  C_21 
REMARK    9  A    between atoms: C_21  and  O_22 
REMARK   10  A    between atoms: C_28  and  O_29 
ROOT
HETATM    1  C   UNL     1      -6.458   2.776 -32.246  1.00  0.00     0.228 C 
HETATM    2  N   UNL     1      -6.922   2.550 -30.788  1.00  0.00    -0.054 N 
HETATM    3  H   UNL     1      -6.560   3.376 -30.287  1.00  0.00     0.281 HD
HETATM    4  C   UNL     1      -6.364   1.295 -30.153  1.00  0.00     0.239 C 
HETATM    5  C   UNL     1      -6.703   0.061 -30.972  1.00  0.00     0.066 C 
HETATM    6  C   UNL     1      -6.229   0.197 -32.425  1.00  0.00     0.065 C 
HETATM    7  C   UNL     1      -6.817   1.481 -33.054  1.00  0.00     0.055 C 
HETATM    8  C   UNL     1      -6.639  -1.065 -33.210  1.00  0.00     0.038 C 
HETATM    9  C   UNL     1      -6.389  -0.952 -34.714  1.00  0.00     0.003 C 
HETATM   10  C   UNL     1      -7.024   0.305 -35.292  1.00  0.00     0.001 C 
HETATM   11  C   UNL     1      -6.525   1.552 -34.565  1.00  0.00     0.010 C 
ENDROOT
BRANCH   2  12
HETATM   12  C   UNL     1      -8.441   2.643 -30.574  1.00  0.00     0.338 C 
BRANCH  12  13
HETATM   13  C   UNL     1      -9.105   3.845 -31.244  1.00  0.00     0.248 C 
HETATM   14  N   UNL     1      -9.452   3.572 -32.551  1.00  0.00    -0.319 N 
HETATM   15  H   UNL     1      -9.186   2.674 -32.962  1.00  0.00     0.169 HD
HETATM   16  O   UNL     1      -9.250   4.880 -30.600  1.00  0.00    -0.271 OA
BRANCH  14  17
HETATM   17  C   UNL     1     -10.114   4.392 -33.455  1.00  0.00     0.094 A 
HETATM   18  S   UNL     1      -9.351   5.713 -34.175  1.00  0.00    -0.076 SA
HETATM   19  C   UNL     1     -10.762   6.165 -35.022  1.00  0.00    -0.012 A 
HETATM   20  C   UNL     1     -10.723   7.379 -35.894  1.00  0.00     0.057 C 
HETATM   21  C   UNL     1     -11.815   5.289 -34.794  1.00  0.00    -0.030 A 
HETATM   22  C   UNL     1     -13.163   5.412 -35.442  1.00  0.00     0.050 C 
HETATM   23  C   UNL     1     -11.442   4.252 -33.844  1.00  0.00     0.080 A 
BRANCH  23  24
HETATM   24  C   UNL     1     -12.269   3.159 -33.309  1.00  0.00     0.296 C 
HETATM   25  O   UNL     1     -13.189   3.377 -32.521  1.00  0.00    -0.259 OA
BRANCH  24  26
HETATM   26  O   UNL     1     -11.929   1.928 -33.771  1.00  0.00    -0.322 OA
HETATM   27  C   UNL     1     -12.554   1.512 -34.988  1.00  0.00     0.213 C 
ENDBRANCH  24  26
ENDBRANCH  23  24
ENDBRANCH  14  17
ENDBRANCH  12  13
ENDBRANCH   2  12
BRANCH   1  28
HETATM   28  C   UNL     1      -5.029   3.312 -32.397  1.00  0.00    -0.027 C 
HETATM   29  C   UNL     1      -4.524   3.939 -33.538  1.00  0.00     0.011 C 
HETATM   30  C   UNL     1      -3.281   4.599 -33.529  1.00  0.00     0.030 C 
HETATM   31  C   UNL     1      -2.469   4.662 -32.392  1.00  0.00     0.030 C 
HETATM   32  C   UNL     1      -2.894   3.861 -31.326  1.00  0.00     0.030 C 
HETATM   33  C   UNL     1      -4.128   3.189 -31.332  1.00  0.00     0.011 C 
BRANCH  31  34
HETATM   34  N   UNL     1      -1.316   5.442 -32.321  1.00  0.00    -0.382 N 
BRANCH  34  35
HETATM   35  C   UNL     1      -0.660   5.646 -31.013  1.00  0.00     0.118 C 
HETATM   36  C   UNL     1       0.776   5.136 -31.025  1.00  0.00     0.026 C 
ENDBRANCH  34  35
BRANCH  34  37
HETATM   37  C   UNL     1      -1.039   6.494 -33.317  1.00  0.00     0.118 C 
HETATM   38  C   UNL     1      -1.596   7.832 -32.855  1.00  0.00     0.026 C 
ENDBRANCH  34  37
ENDBRANCH  31  34
ENDBRANCH   1  28
BRANCH   6  39
HETATM   39  O   UNL     1      -4.808   0.272 -32.372  1.00  0.00    -0.389 OA
HETATM   40  H   UNL     1      -4.478  -0.097 -31.532  1.00  0.00     0.210 HD
ENDBRANCH   6  39
TORSDOF 10
ENDMDL
MODEL 4
REMARK VINA RESULT:      -8.1      3.186      7.953
REMARK  10 active torsions:
REMARK  status: ('A' for Active; 'I' for Inactive)
REMARK    1  A    between atoms: C_2  and  N_3 
REMARK    2  A    between atoms: N_3  and  C_4 
REMARK    3  A    between atoms: N_3  and  C_37 
REMARK    4  A    between atoms: C_7  and  C_8 
REMARK    5  A    between atoms: N_9  and  C_11 
REMARK    6  A    between atoms: C_11  and  C_12 
REMARK       I    between atoms: C_12  and  N_13 
REMARK    7  A    between atoms: N_13  and  C_14 
REMARK    8  A    between atoms: C_20  and  C_21 
REMARK    9  A    between atoms: C_21  and  O_22 
REMARK   10  A    between atoms: C_28  and  O_29 
ROOT
HETATM    1  C   UNL     1      -7.527   2.889 -31.866  1.00  0.00     0.228 C 
HETATM    2  N   UNL     1      -8.770   3.531 -32.524  1.00  0.00    -0.054 N 
HETATM    3  H   UNL     1      -9.435   2.747 -32.607  1.00  0.00     0.281 HD
HETATM    4  C   UNL     1      -8.508   4.111 -33.897  1.00  0.00     0.239 C 
HETATM    5  C   UNL     1      -7.388   5.136 -33.862  1.00  0.00     0.066 C 
HETATM    6  C   UNL     1      -6.103   4.552 -33.259  1.00  0.00     0.065 C 
HETATM    7  C   UNL     1      -6.394   3.973 -31.856  1.00  0.00     0.055 C 
HETATM    8  C   UNL     1      -5.022   5.650 -33.213  1.00  0.00     0.038 C 
HETATM    9  C   UNL     1      -3.764   5.232 -32.453  1.00  0.00     0.003 C 
HETATM   10  C   UNL     1      -4.101   4.710 -31.062  1.00  0.00     0.001 C 
HETATM   11  C   UNL     1      -5.097   3.554 -31.139  1.00  0.00     0.010 C 
ENDROOT
BRANCH   2  12
HETATM   12  C   UNL     1      -9.521   4.539 -31.639  1.00  0.00     0.338 C 
BRANCH  12  13
HETATM   13  C   UNL     1     -11.042   4.478 -31.757  1.00  0.00     0.248 C 
HETATM   14  N   UNL     1     -11.464   3.287 -32.310  1.00  0.00    -0.319 N 
HETATM   15  H   UNL     1     -10.767   2.616 -32.643  1.00  0.00     0.169 HD
HETATM   16  O   UNL     1     -11.707   5.440 -31.381  1.00  0.00    -0.271 OA
BRANCH  14  17
HETATM   17  C   UNL     1     -12.764   2.850 -32.525  1.00  0.00     0.094 A 
HETATM   18  S   UNL     1     -14.038   3.341 -31.535  1.00  0.00    -0.076 SA
HETATM   19  C   UNL     1     -15.169   2.386 -32.384  1.00  0.00    -0.012 A 
HETATM   20  C   UNL     1     -16.594   2.380 -31.932  1.00  0.00     0.057 C 
HETATM   21  C   UNL     1     -14.592   1.715 -33.455  1.00  0.00    -0.030 A 
HETATM   22  C   UNL     1     -15.354   0.839 -34.405  1.00  0.00     0.050 C 
HETATM   23  C   UNL     1     -13.160   1.968 -33.525  1.00  0.00     0.080 A 
BRANCH  23  24
HETATM   24  C   UNL     1     -12.180   1.425 -34.479  1.00  0.00     0.296 C 
HETATM   25  O   UNL     1     -12.437   1.326 -35.678  1.00  0.00    -0.259 OA
BRANCH  24  26
HETATM   26  O   UNL     1     -10.996   1.068 -33.915  1.00  0.00    -0.322 OA
HETATM   27  C   UNL     1     -10.997  -0.140 -33.151  1.00  0.00     0.213 C 
ENDBRANCH  24  26
ENDBRANCH  23  24
ENDBRANCH  14  17
ENDBRANCH  12  13
ENDBRANCH   2  12
BRANCH   1  28
HETATM   28  C   UNL     1      -7.153   1.501 -32.402  1.00  0.00    -0.027 C 
HETATM   29  C   UNL     1      -7.298   1.088 -33.728  1.00  0.00     0.011 C 
HETATM   30  C   UNL     1      -6.733  -0.114 -34.193  1.00  0.00     0.030 C 
HETATM   31  C   UNL     1      -6.005  -0.975 -33.364  1.00  0.00     0.030 C 
HETATM   32  C   UNL     1      -6.044  -0.648 -32.004  1.00  0.00     0.030 C 
HETATM   33  C   UNL     1      -6.617   0.545 -31.531  1.00  0.00     0.011 C 
BRANCH  31  34
HETATM   34  N   UNL     1      -5.307  -2.084 -33.842  1.00  0.00    -0.382 N 
BRANCH  34  35
HETATM   35  C   UNL     1      -3.875  -2.234 -33.514  1.00  0.00     0.118 C 
HETATM   36  C   UNL     1      -3.595  -3.571 -32.840  1.00  0.00     0.026 C 
ENDBRANCH  34  35
BRANCH  34  37
HETATM   37  C   UNL     1      -5.734  -2.790 -35.064  1.00  0.00     0.118 C 
HETATM   38  C   UNL     1      -6.704  -3.911 -34.726  1.00  0.00     0.026 C 
ENDBRANCH  34  37
ENDBRANCH  31  34
ENDBRANCH   1  28
BRANCH   6  39
HETATM   39  O   UNL     1      -5.683   3.522 -34.148  1.00  0.00    -0.389 OA
HETATM   40  H   UNL     1      -4.733   3.608 -34.347  1.00  0.00     0.210 HD
ENDBRANCH   6  39
TORSDOF 10
ENDMDL
MODEL 5
REMARK VINA RESULT:      -8.1      3.085      7.358
REMARK  10 active torsions:
REMARK  status: ('A' for Active; 'I' for Inactive)
REMARK    1  A    between atoms: C_2  and  N_3 
REMARK    2  A    between atoms: N_3  and  C_4 
REMARK    3  A    between atoms: N_3  and  C_37 
REMARK    4  A    between atoms: C_7  and  C_8 
REMARK    5  A    between atoms: N_9  and  C_11 
REMARK    6  A    between atoms: C_11  and  C_12 
REMARK       I    between atoms: C_12  and  N_13 
REMARK    7  A    between atoms: N_13  and  C_14 
REMARK    8  A    between atoms: C_20  and  C_21 
REMARK    9  A    between atoms: C_21  and  O_22 
REMARK   10  A    between atoms: C_28  and  O_29 
ROOT
HETATM    1  C   UNL     1      -7.960   4.564 -31.955  1.00  0.00     0.228 C 
HETATM    2  N   UNL     1      -8.604   3.693 -33.059  1.00  0.00    -0.054 N 
HETATM    3  H   UNL     1      -7.801   3.197 -33.477  1.00  0.00     0.281 HD
HETATM    4  C   UNL     1      -9.313   4.488 -34.134  1.00  0.00     0.239 C 
HETATM    5  C   UNL     1     -10.380   5.393 -33.540  1.00  0.00     0.066 C 
HETATM    6  C   UNL     1      -9.801   6.321 -32.463  1.00  0.00     0.065 C 
HETATM    7  C   UNL     1      -9.088   5.487 -31.375  1.00  0.00     0.055 C 
HETATM    8  C   UNL     1     -10.937   7.180 -31.874  1.00  0.00     0.038 C 
HETATM    9  C   UNL     1     -10.509   8.001 -30.659  1.00  0.00     0.003 C 
HETATM   10  C   UNL     1      -9.852   7.127 -29.599  1.00  0.00     0.001 C 
HETATM   11  C   UNL     1      -8.665   6.362 -30.181  1.00  0.00     0.010 C 
ENDROOT
BRANCH   2  12
HETATM   12  C   UNL     1      -9.495   2.552 -32.544  1.00  0.00     0.338 C 
BRANCH  12  13
HETATM   13  C   UNL     1      -8.817   1.184 -32.505  1.00  0.00     0.248 C 
HETATM   14  N   UNL     1      -7.670   1.161 -33.271  1.00  0.00    -0.319 N 
HETATM   15  H   UNL     1      -7.423   1.985 -33.826  1.00  0.00     0.169 HD
HETATM   16  O   UNL     1      -9.330   0.284 -31.846  1.00  0.00    -0.271 OA
BRANCH  14  17
HETATM   17  C   UNL     1      -6.767   0.120 -33.439  1.00  0.00     0.094 A 
HETATM   18  S   UNL     1      -6.954  -1.024 -34.664  1.00  0.00    -0.076 SA
HETATM   19  C   UNL     1      -5.573  -1.895 -34.166  1.00  0.00    -0.012 A 
HETATM   20  C   UNL     1      -5.194  -3.135 -34.912  1.00  0.00     0.057 C 
HETATM   21  C   UNL     1      -4.936  -1.299 -33.086  1.00  0.00    -0.030 A 
HETATM   22  C   UNL     1      -3.673  -1.820 -32.465  1.00  0.00     0.050 C 
HETATM   23  C   UNL     1      -5.657  -0.118 -32.635  1.00  0.00     0.080 A 
BRANCH  23  24
HETATM   24  C   UNL     1      -5.341   0.774 -31.508  1.00  0.00     0.296 C 
HETATM   25  O   UNL     1      -5.335   0.364 -30.348  1.00  0.00    -0.259 OA
BRANCH  24  26
HETATM   26  O   UNL     1      -5.055   2.050 -31.873  1.00  0.00    -0.322 OA
HETATM   27  C   UNL     1      -3.672   2.360 -32.065  1.00  0.00     0.213 C 
ENDBRANCH  24  26
ENDBRANCH  23  24
ENDBRANCH  14  17
ENDBRANCH  12  13
ENDBRANCH   2  12
BRANCH   1  28
HETATM   28  C   UNL     1      -6.644   5.244 -32.349  1.00  0.00    -0.027 C 
HETATM   29  C   UNL     1      -5.920   6.121 -31.537  1.00  0.00     0.011 C 
HETATM   30  C   UNL     1      -4.617   6.532 -31.873  1.00  0.00     0.030 C 
HETATM   31  C   UNL     1      -3.968   6.106 -33.036  1.00  0.00     0.030 C 
HETATM   32  C   UNL     1      -4.778   5.397 -33.930  1.00  0.00     0.030 C 
HETATM   33  C   UNL     1      -6.084   4.993 -33.607  1.00  0.00     0.011 C 
BRANCH  31  34
HETATM   34  N   UNL     1      -2.626   6.376 -33.303  1.00  0.00    -0.382 N 
BRANCH  34  35
HETATM   35  C   UNL     1      -1.696   5.254 -33.541  1.00  0.00     0.118 C 
HETATM   36  C   UNL     1      -1.250   5.200 -34.997  1.00  0.00     0.026 C 
ENDBRANCH  34  35
BRANCH  34  37
HETATM   37  C   UNL     1      -1.984   7.614 -32.826  1.00  0.00     0.118 C 
HETATM   38  C   UNL     1      -0.826   7.295 -31.894  1.00  0.00     0.026 C 
ENDBRANCH  34  37
ENDBRANCH  31  34
ENDBRANCH   1  28
BRANCH   6  39
HETATM   39  O   UNL     1      -8.873   7.170 -33.131  1.00  0.00    -0.389 OA
HETATM   40  H   UNL     1      -8.124   7.384 -32.545  1.00  0.00     0.210 HD
ENDBRANCH   6  39
TORSDOF 10
ENDMDL
MODEL 6
REMARK VINA RESULT:      -8.0      1.483      2.066
REMARK  10 active torsions:
REMARK  status: ('A' for Active; 'I' for Inactive)
REMARK    1  A    between atoms: C_2  and  N_3 
REMARK    2  A    between atoms: N_3  and  C_4 
REMARK    3  A    between atoms: N_3  and  C_37 
REMARK    4  A    between atoms: C_7  and  C_8 
REMARK    5  A    between atoms: N_9  and  C_11 
REMARK    6  A    between atoms: C_11  and  C_12 
REMARK       I    between atoms: C_12  and  N_13 
REMARK    7  A    between atoms: N_13  and  C_14 
REMARK    8  A    between atoms: C_20  and  C_21 
REMARK    9  A    between atoms: C_21  and  O_22 
REMARK   10  A    between atoms: C_28  and  O_29 
ROOT
HETATM    1  C   UNL     1      -7.140   2.596 -33.137  1.00  0.00     0.228 C 
HETATM    2  N   UNL     1      -6.434   3.085 -31.851  1.00  0.00    -0.054 N 
HETATM    3  H   UNL     1      -5.516   2.615 -31.882  1.00  0.00     0.281 HD
HETATM    4  C   UNL     1      -7.148   2.700 -30.574  1.00  0.00     0.239 C 
HETATM    5  C   UNL     1      -8.582   3.202 -30.567  1.00  0.00     0.066 C 
HETATM    6  C   UNL     1      -9.359   2.715 -31.798  1.00  0.00     0.065 C 
HETATM    7  C   UNL     1      -8.615   3.126 -33.088  1.00  0.00     0.055 C 
HETATM    8  C   UNL     1     -10.789   3.292 -31.753  1.00  0.00     0.038 C 
HETATM    9  C   UNL     1     -11.588   3.030 -33.029  1.00  0.00     0.003 C 
HETATM   10  C   UNL     1     -10.831   3.491 -34.266  1.00  0.00     0.001 C 
HETATM   11  C   UNL     1      -9.457   2.829 -34.343  1.00  0.00     0.010 C 
ENDROOT
BRANCH   2  12
HETATM   12  C   UNL     1      -6.068   4.577 -31.844  1.00  0.00     0.338 C 
BRANCH  12  13
HETATM   13  C   UNL     1      -4.902   4.941 -30.926  1.00  0.00     0.248 C 
HETATM   14  N   UNL     1      -5.053   6.202 -30.385  1.00  0.00    -0.319 N 
HETATM   15  H   UNL     1      -5.842   6.781 -30.683  1.00  0.00     0.169 HD
HETATM   16  O   UNL     1      -3.992   4.133 -30.772  1.00  0.00    -0.271 OA
BRANCH  14  17
HETATM   17  C   UNL     1      -4.232   6.852 -29.475  1.00  0.00     0.094 A 
HETATM   18  S   UNL     1      -4.470   6.711 -27.811  1.00  0.00    -0.076 SA
HETATM   19  C   UNL     1      -3.181   7.773 -27.459  1.00  0.00    -0.012 A 
HETATM   20  C   UNL     1      -2.879   8.092 -26.029  1.00  0.00     0.057 C 
HETATM   21  C   UNL     1      -2.533   8.212 -28.605  1.00  0.00    -0.030 A 
HETATM   22  C   UNL     1      -1.336   9.118 -28.598  1.00  0.00     0.050 C 
HETATM   23  C   UNL     1      -3.171   7.689 -29.804  1.00  0.00     0.080 A 
BRANCH  23  24
HETATM   24  C   UNL     1      -2.821   7.939 -31.212  1.00  0.00     0.296 C 
HETATM   25  O   UNL     1      -2.987   9.044 -31.728  1.00  0.00    -0.259 OA
BRANCH  24  26
HETATM   26  O   UNL     1      -2.302   6.862 -31.854  1.00  0.00    -0.322 OA
HETATM   27  C   UNL     1      -2.613   6.741 -33.245  1.00  0.00     0.213 C 
ENDBRANCH  24  26
ENDBRANCH  23  24
ENDBRANCH  14  17
ENDBRANCH  12  13
ENDBRANCH   2  12
BRANCH   1  28
HETATM   28  C   UNL     1      -6.949   1.108 -33.457  1.00  0.00    -0.027 C 
HETATM   29  C   UNL     1      -7.475   0.454 -34.574  1.00  0.00     0.011 C 
HETATM   30  C   UNL     1      -7.080  -0.852 -34.918  1.00  0.00     0.030 C 
HETATM   31  C   UNL     1      -6.153  -1.582 -34.167  1.00  0.00     0.030 C 
HETATM   32  C   UNL     1      -5.795  -0.993 -32.949  1.00  0.00     0.030 C 
HETATM   33  C   UNL     1      -6.195   0.305 -32.592  1.00  0.00     0.011 C 
BRANCH  31  34
HETATM   34  N   UNL     1      -5.634  -2.809 -34.580  1.00  0.00    -0.382 N 
BRANCH  34  35
HETATM   35  C   UNL     1      -6.477  -4.018 -34.489  1.00  0.00     0.118 C 
HETATM   36  C   UNL     1      -6.665  -4.670 -35.853  1.00  0.00     0.026 C 
ENDBRANCH  34  35
BRANCH  34  37
HETATM   37  C   UNL     1      -4.183  -3.070 -34.569  1.00  0.00     0.118 C 
HETATM   38  C   UNL     1      -3.841  -4.166 -33.572  1.00  0.00     0.026 C 
ENDBRANCH  34  37
ENDBRANCH  31  34
ENDBRANCH   1  28
BRANCH   6  39
HETATM   39  O   UNL     1      -9.425   1.297 -31.688  1.00  0.00    -0.389 OA
HETATM   40  H   UNL     1      -8.635   0.887 -32.086  1.00  0.00     0.210 HD
ENDBRANCH   6  39
TORSDOF 10
ENDMDL
MODEL 7
REMARK VINA RESULT:      -8.0      1.585      3.031
REMARK  10 active torsions:
REMARK  status: ('A' for Active; 'I' for Inactive)
REMARK    1  A    between atoms: C_2  and  N_3 
REMARK    2  A    between atoms: N_3  and  C_4 
REMARK    3  A    between atoms: N_3  and  C_37 
REMARK    4  A    between atoms: C_7  and  C_8 
REMARK    5  A    between atoms: N_9  and  C_11 
REMARK    6  A    between atoms: C_11  and  C_12 
REMARK       I    between atoms: C_12  and  N_13 
REMARK    7  A    between atoms: N_13  and  C_14 
REMARK    8  A    between atoms: C_20  and  C_21 
REMARK    9  A    between atoms: C_21  and  O_22 
REMARK   10  A    between atoms: C_28  and  O_29 
ROOT
HETATM    1  C   UNL     1      -6.724   2.520 -33.097  1.00  0.00     0.228 C 
HETATM    2  N   UNL     1      -5.859   3.065 -31.937  1.00  0.00    -0.054 N 
HETATM    3  H   UNL     1      -4.955   2.583 -32.061  1.00  0.00     0.281 HD
HETATM    4  C   UNL     1      -6.406   2.753 -30.562  1.00  0.00     0.239 C 
HETATM    5  C   UNL     1      -7.825   3.272 -30.400  1.00  0.00     0.066 C 
HETATM    6  C   UNL     1      -8.755   2.732 -31.496  1.00  0.00     0.065 C 
HETATM    7  C   UNL     1      -8.179   3.068 -32.889  1.00  0.00     0.055 C 
HETATM    8  C   UNL     1     -10.164   3.327 -31.300  1.00  0.00     0.038 C 
HETATM    9  C   UNL     1     -11.121   3.010 -32.448  1.00  0.00     0.003 C 
HETATM   10  C   UNL     1     -10.524   3.399 -33.794  1.00  0.00     0.001 C 
HETATM   11  C   UNL     1      -9.174   2.718 -34.010  1.00  0.00     0.010 C 
ENDROOT
BRANCH   2  12
HETATM   12  C   UNL     1      -5.487   4.552 -32.054  1.00  0.00     0.338 C 
BRANCH  12  13
HETATM   13  C   UNL     1      -4.292   4.976 -31.203  1.00  0.00     0.248 C 
HETATM   14  N   UNL     1      -4.544   6.147 -30.517  1.00  0.00    -0.319 N 
HETATM   15  H   UNL     1      -5.424   6.642 -30.682  1.00  0.00     0.169 HD
HETATM   16  O   UNL     1      -3.277   4.286 -31.215  1.00  0.00    -0.271 OA
BRANCH  14  17
HETATM   17  C   UNL     1      -3.725   6.809 -29.613  1.00  0.00     0.094 A 
HETATM   18  S   UNL     1      -2.217   7.414 -30.065  1.00  0.00    -0.076 SA
HETATM   19  C   UNL     1      -1.882   7.972 -28.487  1.00  0.00    -0.012 A 
HETATM   20  C   UNL     1      -0.571   8.641 -28.220  1.00  0.00     0.057 C 
HETATM   21  C   UNL     1      -2.935   7.737 -27.611  1.00  0.00    -0.030 A 
HETATM   22  C   UNL     1      -2.939   8.160 -26.172  1.00  0.00     0.050 C 
HETATM   23  C   UNL     1      -4.018   7.023 -28.270  1.00  0.00     0.080 A 
BRANCH  23  24
HETATM   24  C   UNL     1      -5.288   6.553 -27.695  1.00  0.00     0.296 C 
HETATM   25  O   UNL     1      -5.313   5.761 -26.753  1.00  0.00    -0.259 OA
BRANCH  24  26
HETATM   26  O   UNL     1      -6.393   7.077 -28.287  1.00  0.00    -0.322 OA
HETATM   27  C   UNL     1      -7.580   6.282 -28.232  1.00  0.00     0.213 C 
ENDBRANCH  24  26
ENDBRANCH  23  24
ENDBRANCH  14  17
ENDBRANCH  12  13
ENDBRANCH   2  12
BRANCH   1  28
HETATM   28  C   UNL     1      -6.584   1.016 -33.361  1.00  0.00    -0.027 C 
HETATM   29  C   UNL     1      -7.306   0.298 -34.317  1.00  0.00     0.011 C 
HETATM   30  C   UNL     1      -6.971  -1.026 -34.655  1.00  0.00     0.030 C 
HETATM   31  C   UNL     1      -5.910  -1.712 -34.055  1.00  0.00     0.030 C 
HETATM   32  C   UNL     1      -5.332  -1.054 -32.963  1.00  0.00     0.030 C 
HETATM   33  C   UNL     1      -5.670   0.264 -32.612  1.00  0.00     0.011 C 
BRANCH  31  34
HETATM   34  N   UNL     1      -5.467  -2.962 -34.488  1.00  0.00    -0.382 N 
BRANCH  34  35
HETATM   35  C   UNL     1      -6.402  -4.105 -34.473  1.00  0.00     0.118 C 
HETATM   36  C   UNL     1      -6.506  -4.758 -35.846  1.00  0.00     0.026 C 
ENDBRANCH  34  35
BRANCH  34  37
HETATM   37  C   UNL     1      -4.042  -3.333 -34.426  1.00  0.00     0.118 C 
HETATM   38  C   UNL     1      -3.823  -4.463 -33.433  1.00  0.00     0.026 C 
ENDBRANCH  34  37
ENDBRANCH  31  34
ENDBRANCH   1  28
BRANCH   6  39
HETATM   39  O   UNL     1      -8.813   1.322 -31.305  1.00  0.00    -0.389 OA
HETATM   40  H   UNL     1      -8.082   0.883 -31.778  1.00  0.00     0.210 HD
ENDBRANCH   6  39
TORSDOF 10
ENDMDL
MODEL 8
REMARK VINA RESULT:      -7.9      2.224      3.198
REMARK  10 active torsions:
REMARK  status: ('A' for Active; 'I' for Inactive)
REMARK    1  A    between atoms: C_2  and  N_3 
REMARK    2  A    between atoms: N_3  and  C_4 
REMARK    3  A    between atoms: N_3  and  C_37 
REMARK    4  A    between atoms: C_7  and  C_8 
REMARK    5  A    between atoms: N_9  and  C_11 
REMARK    6  A    between atoms: C_11  and  C_12 
REMARK       I    between atoms: C_12  and  N_13 
REMARK    7  A    between atoms: N_13  and  C_14 
REMARK    8  A    between atoms: C_20  and  C_21 
REMARK    9  A    between atoms: C_21  and  O_22 
REMARK   10  A    between atoms: C_28  and  O_29 
ROOT
HETATM    1  C   UNL     1      -8.624   3.539 -32.835  1.00  0.00     0.228 C 
HETATM    2  N   UNL     1      -8.531   3.924 -31.340  1.00  0.00    -0.054 N 
HETATM    3  H   UNL     1      -7.641   3.499 -31.035  1.00  0.00     0.281 HD
HETATM    4  C   UNL     1      -9.660   3.379 -30.494  1.00  0.00     0.239 C 
HETATM    5  C   UNL     1     -11.014   3.816 -31.028  1.00  0.00     0.066 C 
HETATM    6  C   UNL     1     -11.195   3.424 -32.501  1.00  0.00     0.065 C 
HETATM    7  C   UNL     1     -10.034   3.997 -33.346  1.00  0.00     0.055 C 
HETATM    8  C   UNL     1     -12.565   3.930 -32.994  1.00  0.00     0.038 C 
HETATM    9  C   UNL     1     -12.768   3.766 -34.499  1.00  0.00     0.003 C 
HETATM   10  C   UNL     1     -11.620   4.384 -35.287  1.00  0.00     0.001 C 
HETATM   11  C   UNL     1     -10.280   3.794 -34.852  1.00  0.00     0.010 C 
ENDROOT
BRANCH   2  12
HETATM   12  C   UNL     1      -8.319   5.422 -31.072  1.00  0.00     0.338 C 
BRANCH  12  13
HETATM   13  C   UNL     1      -7.225   6.070 -31.918  1.00  0.00     0.248 C 
HETATM   14  N   UNL     1      -6.012   5.429 -31.763  1.00  0.00    -0.319 N 
HETATM   15  H   UNL     1      -5.933   4.669 -31.082  1.00  0.00     0.169 HD
HETATM   16  O   UNL     1      -7.504   7.047 -32.606  1.00  0.00    -0.271 OA
BRANCH  14  17
HETATM   17  C   UNL     1      -4.809   5.696 -32.401  1.00  0.00     0.094 A 
HETATM   18  S   UNL     1      -4.257   4.746 -33.681  1.00  0.00    -0.076 SA
HETATM   19  C   UNL     1      -2.815   5.646 -33.828  1.00  0.00    -0.012 A 
HETATM   20  C   UNL     1      -1.816   5.245 -34.867  1.00  0.00     0.057 C 
HETATM   21  C   UNL     1      -2.760   6.703 -32.929  1.00  0.00    -0.030 A 
HETATM   22  C   UNL     1      -1.631   7.690 -32.861  1.00  0.00     0.050 C 
HETATM   23  C   UNL     1      -3.930   6.719 -32.063  1.00  0.00     0.080 A 
BRANCH  23  24
HETATM   24  C   UNL     1      -4.241   7.643 -30.961  1.00  0.00     0.296 C 
HETATM   25  O   UNL     1      -4.504   8.827 -31.171  1.00  0.00    -0.259 OA
BRANCH  24  26
HETATM   26  O   UNL     1      -4.221   7.067 -29.731  1.00  0.00    -0.322 OA
HETATM   27  C   UNL     1      -5.268   7.447 -28.835  1.00  0.00     0.213 C 
ENDBRANCH  24  26
ENDBRANCH  23  24
ENDBRANCH  14  17
ENDBRANCH  12  13
ENDBRANCH   2  12
BRANCH   1  28
HETATM   28  C   UNL     1      -8.203   2.101 -33.163  1.00  0.00    -0.027 C 
HETATM   29  C   UNL     1      -8.227   1.529 -34.438  1.00  0.00     0.011 C 
HETATM   30  C   UNL     1      -7.622   0.286 -34.700  1.00  0.00     0.030 C 
HETATM   31  C   UNL     1      -6.973  -0.460 -33.712  1.00  0.00     0.030 C 
HETATM   32  C   UNL     1      -7.135   0.028 -32.411  1.00  0.00     0.030 C 
HETATM   33  C   UNL     1      -7.748   1.262 -32.139  1.00  0.00     0.011 C 
BRANCH  31  34
HETATM   34  N   UNL     1      -6.235  -1.612 -33.987  1.00  0.00    -0.382 N 
BRANCH  34  35
HETATM   35  C   UNL     1      -6.918  -2.786 -34.567  1.00  0.00     0.118 C 
HETATM   36  C   UNL     1      -5.924  -3.881 -34.937  1.00  0.00     0.026 C 
ENDBRANCH  34  35
BRANCH  34  37
HETATM   37  C   UNL     1      -4.998  -1.923 -33.249  1.00  0.00     0.118 C 
HETATM   38  C   UNL     1      -3.918  -0.896 -33.551  1.00  0.00     0.026 C 
ENDBRANCH  34  37
ENDBRANCH  31  34
ENDBRANCH   1  28
BRANCH   6  39
HETATM   39  O   UNL     1     -11.184   2.001 -32.536  1.00  0.00    -0.389 OA
HETATM   40  H   UNL     1     -11.423   1.636 -31.665  1.00  0.00     0.210 HD
ENDBRANCH   6  39
TORSDOF 10
ENDMDL
MODEL 9
REMARK VINA RESULT:      -7.9      2.888      7.590
REMARK  10 active torsions:
REMARK  status: ('A' for Active; 'I' for Inactive)
REMARK    1  A    between atoms: C_2  and  N_3 
REMARK    2  A    between atoms: N_3  and  C_4 
REMARK    3  A    between atoms: N_3  and  C_37 
REMARK    4  A    between atoms: C_7  and  C_8 
REMARK    5  A    between atoms: N_9  and  C_11 
REMARK    6  A    between atoms: C_11  and  C_12 
REMARK       I    between atoms: C_12  and  N_13 
REMARK    7  A    between atoms: N_13  and  C_14 
REMARK    8  A    between atoms: C_20  and  C_21 
REMARK    9  A    between atoms: C_21  and  O_22 
REMARK   10  A    between atoms: C_28  and  O_29 
ROOT
HETATM    1  C   UNL     1      -6.830   3.396 -31.927  1.00  0.00     0.228 C 
HETATM    2  N   UNL     1      -7.677   3.238 -33.211  1.00  0.00    -0.054 N 
HETATM    3  H   UNL     1      -7.048   2.736 -33.857  1.00  0.00     0.281 HD
HETATM    4  C   UNL     1      -8.093   4.551 -33.839  1.00  0.00     0.239 C 
HETATM    5  C   UNL     1      -8.856   5.419 -32.853  1.00  0.00     0.066 C 
HETATM    6  C   UNL     1      -8.053   5.657 -31.567  1.00  0.00     0.065 C 
HETATM    7  C   UNL     1      -7.645   4.304 -30.941  1.00  0.00     0.055 C 
HETATM    8  C   UNL     1      -8.895   6.507 -30.595  1.00  0.00     0.038 C 
HETATM    9  C   UNL     1      -8.270   6.640 -29.207  1.00  0.00     0.003 C 
HETATM   10  C   UNL     1      -7.928   5.278 -28.617  1.00  0.00     0.001 C 
HETATM   11  C   UNL     1      -7.009   4.494 -29.552  1.00  0.00     0.010 C 
ENDROOT
BRANCH   2  12
HETATM   12  C   UNL     1      -8.879   2.290 -33.078  1.00  0.00     0.338 C 
BRANCH  12  13
HETATM   13  C   UNL     1      -8.529   0.805 -33.159  1.00  0.00     0.248 C 
HETATM   14  N   UNL     1      -7.270   0.606 -33.688  1.00  0.00    -0.319 N 
HETATM   15  H   UNL     1      -6.739   1.411 -34.029  1.00  0.00     0.169 HD
HETATM   16  O   UNL     1      -9.353  -0.022 -32.780  1.00  0.00    -0.271 OA
BRANCH  14  17
HETATM   17  C   UNL     1      -6.591  -0.592 -33.867  1.00  0.00     0.094 A 
HETATM   18  S   UNL     1      -7.067  -1.712 -35.034  1.00  0.00    -0.076 SA
HETATM   19  C   UNL     1      -5.846  -2.816 -34.584  1.00  0.00    -0.012 A 
HETATM   20  C   UNL     1      -5.755  -4.125 -35.302  1.00  0.00     0.057 C 
HETATM   21  C   UNL     1      -5.041  -2.323 -33.566  1.00  0.00    -0.030 A 
HETATM   22  C   UNL     1      -3.861  -3.057 -32.999  1.00  0.00     0.050 C 
HETATM   23  C   UNL     1      -5.497  -1.014 -33.120  1.00  0.00     0.080 A 
BRANCH  23  24
HETATM   24  C   UNL     1      -4.948  -0.169 -32.048  1.00  0.00     0.296 C 
HETATM   25  O   UNL     1      -5.615   0.123 -31.056  1.00  0.00    -0.259 OA
BRANCH  24  26
HETATM   26  O   UNL     1      -3.667   0.229 -32.256  1.00  0.00    -0.322 OA
HETATM   27  C   UNL     1      -2.758   0.037 -31.169  1.00  0.00     0.213 C 
ENDBRANCH  24  26
ENDBRANCH  23  24
ENDBRANCH  14  17
ENDBRANCH  12  13
ENDBRANCH   2  12
BRANCH   1  28
HETATM   28  C   UNL     1      -5.362   3.773 -32.160  1.00  0.00    -0.027 C 
HETATM   29  C   UNL     1      -4.870   4.421 -33.295  1.00  0.00     0.011 C 
HETATM   30  C   UNL     1      -3.559   4.930 -33.345  1.00  0.00     0.030 C 
HETATM   31  C   UNL     1      -2.664   4.813 -32.278  1.00  0.00     0.030 C 
HETATM   32  C   UNL     1      -3.102   3.989 -31.235  1.00  0.00     0.030 C 
HETATM   33  C   UNL     1      -4.406   3.467 -31.184  1.00  0.00     0.011 C 
BRANCH  31  34
HETATM   34  N   UNL     1      -1.422   5.447 -32.251  1.00  0.00    -0.382 N 
BRANCH  34  35
HETATM   35  C   UNL     1      -0.703   5.576 -30.967  1.00  0.00     0.118 C 
HETATM   36  C   UNL     1       0.765   5.195 -31.110  1.00  0.00     0.026 C 
ENDBRANCH  34  35
BRANCH  34  37
HETATM   37  C   UNL     1      -1.053   6.452 -33.264  1.00  0.00     0.118 C 
HETATM   38  C   UNL     1      -1.533   7.834 -32.852  1.00  0.00     0.026 C 
ENDBRANCH  34  37
ENDBRANCH  31  34
ENDBRANCH   1  28
BRANCH   6  39
HETATM   39  O   UNL     1      -6.899   6.397 -31.953  1.00  0.00    -0.389 OA
HETATM   40  H   UNL     1      -7.133   7.326 -32.132  1.00  0.00     0.210 HD
ENDBRANCH   6  39
TORSDOF 10
ENDMDL
MODEL 10
REMARK VINA RESULT:      -7.8      3.871      8.323
REMARK  10 active torsions:
REMARK  status: ('A' for Active; 'I' for Inactive)
REMARK    1  A    between atoms: C_2  and  N_3 
REMARK    2  A    between atoms: N_3  and  C_4 
REMARK    3  A    between atoms: N_3  and  C_37 
REMARK    4  A    between atoms: C_7  and  C_8 
REMARK    5  A    between atoms: N_9  and  C_11 
REMARK    6  A    between atoms: C_11  and  C_12 
REMARK       I    between atoms: C_12  and  N_13 
REMARK    7  A    between atoms: N_13  and  C_14 
REMARK    8  A    between atoms: C_20  and  C_21 
REMARK    9  A    between atoms: C_21  and  O_22 
REMARK   10  A    between atoms: C_28  and  O_29 
ROOT
HETATM    1  C   UNL     1     -11.362   3.787 -33.060  1.00  0.00     0.228 C 
HETATM    2  N   UNL     1     -10.126   2.867 -33.199  1.00  0.00    -0.054 N 
HETATM    3  H   UNL     1      -9.379   3.508 -33.506  1.00  0.00     0.281 HD
HETATM    4  C   UNL     1     -10.292   1.766 -34.223  1.00  0.00     0.239 C 
HETATM    5  C   UNL     1     -11.510   0.909 -33.924  1.00  0.00     0.066 C 
HETATM    6  C   UNL     1     -12.786   1.754 -33.817  1.00  0.00     0.065 C 
HETATM    7  C   UNL     1     -12.595   2.866 -32.761  1.00  0.00     0.055 C 
HETATM    8  C   UNL     1     -13.974   0.834 -33.471  1.00  0.00     0.038 C 
HETATM    9  C   UNL     1     -15.258   1.596 -33.149  1.00  0.00     0.003 C 
HETATM   10  C   UNL     1     -15.027   2.649 -32.074  1.00  0.00     0.001 C 
HETATM   11  C   UNL     1     -13.914   3.611 -32.483  1.00  0.00     0.010 C 
ENDROOT
BRANCH   2  12
HETATM   12  C   UNL     1      -9.588   2.305 -31.874  1.00  0.00     0.338 C 
BRANCH  12  13
HETATM   13  C   UNL     1      -8.828   0.987 -32.004  1.00  0.00     0.248 C 
HETATM   14  N   UNL     1      -7.600   1.164 -32.608  1.00  0.00    -0.319 N 
HETATM   15  H   UNL     1      -7.347   2.090 -32.964  1.00  0.00     0.169 HD
HETATM   16  O   UNL     1      -9.351  -0.045 -31.595  1.00  0.00    -0.271 OA
BRANCH  14  17
HETATM   17  C   UNL     1      -6.614   0.217 -32.851  1.00  0.00     0.094 A 
HETATM   18  S   UNL     1      -6.676  -0.799 -34.195  1.00  0.00    -0.076 SA
HETATM   19  C   UNL     1      -5.248  -1.615 -33.740  1.00  0.00    -0.012 A 
HETATM   20  C   UNL     1      -4.752  -2.737 -34.597  1.00  0.00     0.057 C 
HETATM   21  C   UNL     1      -4.690  -1.093 -32.580  1.00  0.00    -0.030 A 
HETATM   22  C   UNL     1      -3.410  -1.583 -31.971  1.00  0.00     0.050 C 
HETATM   23  C   UNL     1      -5.514  -0.024 -32.035  1.00  0.00     0.080 A 
BRANCH  23  24
HETATM   24  C   UNL     1      -5.301   0.762 -30.809  1.00  0.00     0.296 C 
HETATM   25  O   UNL     1      -5.991   0.585 -29.806  1.00  0.00    -0.259 OA
BRANCH  24  26
HETATM   26  O   UNL     1      -4.289   1.663 -30.896  1.00  0.00    -0.322 OA
HETATM   27  C   UNL     1      -4.669   3.041 -30.945  1.00  0.00     0.213 C 
ENDBRANCH  24  26
ENDBRANCH  23  24
ENDBRANCH  14  17
ENDBRANCH  12  13
ENDBRANCH   2  12
BRANCH   1  28
HETATM   28  C   UNL     1     -11.528   4.825 -34.177  1.00  0.00    -0.027 C 
HETATM   29  C   UNL     1     -12.746   5.371 -34.590  1.00  0.00     0.011 C 
HETATM   30  C   UNL     1     -12.802   6.473 -35.462  1.00  0.00     0.030 C 
HETATM   31  C   UNL     1     -11.656   7.084 -35.981  1.00  0.00     0.030 C 
HETATM   32  C   UNL     1     -10.462   6.401 -35.721  1.00  0.00     0.030 C 
HETATM   33  C   UNL     1     -10.399   5.293 -34.860  1.00  0.00     0.011 C 
BRANCH  31  34
HETATM   34  N   UNL     1     -11.689   8.269 -36.716  1.00  0.00    -0.382 N 
BRANCH  34  35
HETATM   35  C   UNL     1     -10.576   9.230 -36.589  1.00  0.00     0.118 C 
HETATM   36  C   UNL     1      -9.792   9.349 -37.890  1.00  0.00     0.026 C 
ENDBRANCH  34  35
BRANCH  34  37
HETATM   37  C   UNL     1     -12.965   8.862 -37.155  1.00  0.00     0.118 C 
HETATM   38  C   UNL     1     -13.228   8.550 -38.620  1.00  0.00     0.026 C 
ENDBRANCH  34  37
ENDBRANCH  31  34
ENDBRANCH   1  28
BRANCH   6  39
HETATM   39  O   UNL     1     -12.995   2.320 -35.107  1.00  0.00    -0.389 OA
HETATM   40  H   UNL     1     -12.144   2.450 -35.564  1.00  0.00     0.210 HD
ENDBRANCH   6  39
TORSDOF 10
ENDMDL
