MODEL 1
REMARK VINA RESULT:      -9.9      0.000      0.000
REMARK  6 active torsions:
REMARK  status: ('A' for Active; 'I' for Inactive)
REMARK    1  A    between atoms: O_2  and  C_3 
REMARK    2  A    between atoms: C_6  and  C_7 
REMARK    3  A    between atoms: C_13  and  C_14 
REMARK       I    between atoms: C_14  and  N_15 
REMARK    4  A    between atoms: N_15  and  C_16 
REMARK    5  A    between atoms: C_18  and  O_19 
REMARK    6  A    between atoms: C_24  and  C_25 
ROOT
HETATM    1  C   UNL     1      -7.001   0.082 -35.036  1.00  0.00     0.118 C 
HETATM    2  N   UNL     1      -6.516   1.459 -34.814  1.00  0.00    -0.365 N 
HETATM    3  C   UNL     1      -6.699   2.040 -33.590  1.00  0.00     0.138 A 
HETATM    4  N   UNL     1      -7.502   1.451 -32.637  1.00  0.00    -0.240 N 
HETATM    5  N   UNL     1      -7.525   2.109 -31.471  1.00  0.00    -0.181 NA
HETATM    6  C   UNL     1      -6.791   3.196 -31.714  1.00  0.00     0.160 A 
HETATM    7  C   UNL     1      -6.242   3.216 -33.021  1.00  0.00     0.096 A 
HETATM    8  C   UNL     1      -8.261   0.231 -32.844  1.00  0.00     0.221 C 
HETATM    9  C   UNL     1      -8.371  -0.058 -34.355  1.00  0.00     0.066 C 
HETATM   10  H   UNL     1      -6.658   2.052 -35.636  1.00  0.00     0.161 HD
ENDROOT
BRANCH   7  11
HETATM   11  C   UNL     1      -5.385   4.258 -33.566  1.00  0.00     0.261 C 
HETATM   12  N   UNL     1      -4.287   4.547 -32.780  1.00  0.00    -0.323 N 
HETATM   13  H   UNL     1      -4.267   4.085 -31.878  1.00  0.00     0.169 HD
HETATM   14  O   UNL     1      -5.668   4.796 -34.630  1.00  0.00    -0.267 OA
BRANCH  12  15
HETATM   15  C   UNL     1      -3.214   5.412 -33.077  1.00  0.00     0.037 A 
HETATM   16  C   UNL     1      -3.086   6.703 -32.555  1.00  0.00     0.066 A 
HETATM   17  C   UNL     1      -2.002   7.498 -32.927  1.00  0.00     0.067 A 
HETATM   18  C   UNL     1      -1.043   7.034 -33.817  1.00  0.00     0.036 A 
HETATM   19  C   UNL     1      -1.161   5.750 -34.340  1.00  0.00     0.005 A 
HETATM   20  C   UNL     1      -2.240   4.941 -33.969  1.00  0.00     0.029 A 
BRANCH  17  21
HETATM   21  O   UNL     1      -1.849   8.761 -32.430  1.00  0.00    -0.361 OA
HETATM   22  H   UNL     1      -2.707   9.216 -32.479  1.00  0.00     0.217 HD
ENDBRANCH  17  21
ENDBRANCH  12  15
ENDBRANCH   7  11
BRANCH   1  23
HETATM   23  C   UNL     1      -6.004  -0.984 -34.584  1.00  0.00    -0.035 A 
HETATM   24  C   UNL     1      -4.906  -0.698 -33.759  1.00  0.00     0.012 A 
HETATM   25  C   UNL     1      -4.056  -1.715 -33.312  1.00  0.00     0.037 A 
HETATM   26  C   UNL     1      -4.285  -3.041 -33.673  1.00  0.00     0.068 A 
HETATM   27  C   UNL     1      -5.331  -3.338 -34.542  1.00  0.00     0.037 A 
HETATM   28  C   UNL     1      -6.175  -2.319 -34.999  1.00  0.00     0.012 A 
BRANCH  26  29
HETATM   29  O   UNL     1      -3.412  -3.952 -33.148  1.00  0.00    -0.356 OA
HETATM   30  C   UNL     1      -2.941  -3.664 -31.835  1.00  0.00     0.210 C 
ENDBRANCH  26  29
ENDBRANCH   1  23
BRANCH   8  31
HETATM   31  C   UNL     1      -9.652   0.308 -32.250  1.00  0.00     0.409 C 
HETATM   32  F   UNL     1     -10.336   1.393 -32.679  1.00  0.00    -0.169 F 
HETATM   33  F   UNL     1     -10.371  -0.779 -32.650  1.00  0.00    -0.169 F 
HETATM   34  F   UNL     1      -9.672   0.292 -30.903  1.00  0.00    -0.169 F 
ENDBRANCH   8  31
TORSDOF 6
ENDMDL
MODEL 2
REMARK VINA RESULT:      -9.5      1.333      1.746
REMARK  6 active torsions:
REMARK  status: ('A' for Active; 'I' for Inactive)
REMARK    1  A    between atoms: O_2  and  C_3 
REMARK    2  A    between atoms: C_6  and  C_7 
REMARK    3  A    between atoms: C_13  and  C_14 
REMARK       I    between atoms: C_14  and  N_15 
REMARK    4  A    between atoms: N_15  and  C_16 
REMARK    5  A    between atoms: C_18  and  O_19 
REMARK    6  A    between atoms: C_24  and  C_25 
ROOT
HETATM    1  C   UNL     1      -6.877   0.785 -34.945  1.00  0.00     0.118 C 
HETATM    2  N   UNL     1      -6.460   1.964 -34.159  1.00  0.00    -0.365 N 
HETATM    3  C   UNL     1      -7.040   2.191 -32.942  1.00  0.00     0.138 A 
HETATM    4  N   UNL     1      -8.141   1.469 -32.533  1.00  0.00    -0.240 N 
HETATM    5  N   UNL     1      -8.549   1.765 -31.292  1.00  0.00    -0.181 NA
HETATM    6  C   UNL     1      -7.745   2.768 -30.933  1.00  0.00     0.160 A 
HETATM    7  C   UNL     1      -6.776   3.084 -31.918  1.00  0.00     0.096 A 
HETATM    8  C   UNL     1      -8.815   0.471 -33.344  1.00  0.00     0.221 C 
HETATM    9  C   UNL     1      -8.402   0.642 -34.820  1.00  0.00     0.066 C 
HETATM   10  H   UNL     1      -6.292   2.779 -34.754  1.00  0.00     0.161 HD
ENDROOT
BRANCH   7  11
HETATM   11  C   UNL     1      -5.754   4.114 -31.804  1.00  0.00     0.261 C 
HETATM   12  N   UNL     1      -4.563   3.790 -32.424  1.00  0.00    -0.323 N 
HETATM   13  H   UNL     1      -4.506   2.843 -32.783  1.00  0.00     0.169 HD
HETATM   14  O   UNL     1      -5.988   5.152 -31.196  1.00  0.00    -0.267 OA
BRANCH  12  15
HETATM   15  C   UNL     1      -3.427   4.607 -32.595  1.00  0.00     0.037 A 
HETATM   16  C   UNL     1      -3.349   5.650 -33.523  1.00  0.00     0.066 A 
HETATM   17  C   UNL     1      -2.172   6.389 -33.640  1.00  0.00     0.067 A 
HETATM   18  C   UNL     1      -1.065   6.106 -32.852  1.00  0.00     0.036 A 
HETATM   19  C   UNL     1      -1.134   5.071 -31.924  1.00  0.00     0.005 A 
HETATM   20  C   UNL     1      -2.311   4.327 -31.793  1.00  0.00     0.029 A 
BRANCH  17  21
HETATM   21  O   UNL     1      -2.069   7.416 -34.534  1.00  0.00    -0.361 OA
HETATM   22  H   UNL     1      -1.816   8.221 -34.051  1.00  0.00     0.217 HD
ENDBRANCH  17  21
ENDBRANCH  12  15
ENDBRANCH   7  11
BRANCH   1  23
HETATM   23  C   UNL     1      -6.130  -0.490 -34.554  1.00  0.00    -0.035 A 
HETATM   24  C   UNL     1      -6.490  -1.760 -35.030  1.00  0.00     0.012 A 
HETATM   25  C   UNL     1      -5.739  -2.892 -34.701  1.00  0.00     0.037 A 
HETATM   26  C   UNL     1      -4.607  -2.785 -33.895  1.00  0.00     0.068 A 
HETATM   27  C   UNL     1      -4.270  -1.544 -33.360  1.00  0.00     0.037 A 
HETATM   28  C   UNL     1      -5.029  -0.412 -33.680  1.00  0.00     0.012 A 
BRANCH  26  29
HETATM   29  O   UNL     1      -3.932  -3.951 -33.671  1.00  0.00    -0.356 OA
HETATM   30  C   UNL     1      -4.561  -5.129 -34.166  1.00  0.00     0.210 C 
ENDBRANCH  26  29
ENDBRANCH   1  23
BRANCH   8  31
HETATM   31  C   UNL     1     -10.323   0.562 -33.236  1.00  0.00     0.409 C 
HETATM   32  F   UNL     1     -10.924   0.623 -34.446  1.00  0.00    -0.169 F 
HETATM   33  F   UNL     1     -10.798  -0.563 -32.631  1.00  0.00    -0.169 F 
HETATM   34  F   UNL     1     -10.756   1.596 -32.489  1.00  0.00    -0.169 F 
ENDBRANCH   8  31
TORSDOF 6
ENDMDL
MODEL 3
REMARK VINA RESULT:      -9.3      3.854      7.025
REMARK  6 active torsions:
REMARK  status: ('A' for Active; 'I' for Inactive)
REMARK    1  A    between atoms: O_2  and  C_3 
REMARK    2  A    between atoms: C_6  and  C_7 
REMARK    3  A    between atoms: C_13  and  C_14 
REMARK       I    between atoms: C_14  and  N_15 
REMARK    4  A    between atoms: N_15  and  C_16 
REMARK    5  A    between atoms: C_18  and  O_19 
REMARK    6  A    between atoms: C_24  and  C_25 
ROOT
HETATM    1  C   UNL     1      -5.612   0.604 -31.117  1.00  0.00     0.118 C 
HETATM    2  N   UNL     1      -6.871   1.284 -31.486  1.00  0.00    -0.365 N 
HETATM    3  C   UNL     1      -6.833   2.309 -32.390  1.00  0.00     0.138 A 
HETATM    4  N   UNL     1      -5.634   2.852 -32.800  1.00  0.00    -0.240 N 
HETATM    5  N   UNL     1      -5.764   3.801 -33.736  1.00  0.00    -0.181 NA
HETATM    6  C   UNL     1      -7.087   3.933 -33.860  1.00  0.00     0.160 A 
HETATM    7  C   UNL     1      -7.815   3.028 -33.048  1.00  0.00     0.096 A 
HETATM    8  C   UNL     1      -4.335   2.452 -32.289  1.00  0.00     0.221 C 
HETATM    9  C   UNL     1      -4.518   1.673 -30.970  1.00  0.00     0.066 C 
HETATM   10  H   UNL     1      -7.495   1.394 -30.683  1.00  0.00     0.161 HD
ENDROOT
BRANCH   7  11
HETATM   11  C   UNL     1      -9.265   2.922 -32.986  1.00  0.00     0.261 C 
HETATM   12  N   UNL     1      -9.803   2.055 -33.917  1.00  0.00    -0.323 N 
HETATM   13  H   UNL     1      -9.145   1.686 -34.594  1.00  0.00     0.169 HD
HETATM   14  O   UNL     1      -9.898   3.572 -32.162  1.00  0.00    -0.267 OA
BRANCH  12  15
HETATM   15  C   UNL     1     -11.145   1.644 -34.042  1.00  0.00     0.037 A 
HETATM   16  C   UNL     1     -11.648   0.450 -33.517  1.00  0.00     0.066 A 
HETATM   17  C   UNL     1     -12.987   0.113 -33.713  1.00  0.00     0.067 A 
HETATM   18  C   UNL     1     -13.837   0.943 -34.430  1.00  0.00     0.036 A 
HETATM   19  C   UNL     1     -13.347   2.135 -34.955  1.00  0.00     0.005 A 
HETATM   20  C   UNL     1     -12.008   2.486 -34.759  1.00  0.00     0.029 A 
BRANCH  17  21
HETATM   21  O   UNL     1     -13.506  -1.045 -33.208  1.00  0.00    -0.361 OA
HETATM   22  H   UNL     1     -14.392  -0.856 -32.856  1.00  0.00     0.217 HD
ENDBRANCH  17  21
ENDBRANCH  12  15
ENDBRANCH   7  11
BRANCH   1  23
HETATM   23  C   UNL     1      -5.225  -0.508 -32.090  1.00  0.00    -0.035 A 
HETATM   24  C   UNL     1      -4.013  -1.210 -32.001  1.00  0.00     0.012 A 
HETATM   25  C   UNL     1      -3.727  -2.268 -32.869  1.00  0.00     0.037 A 
HETATM   26  C   UNL     1      -4.645  -2.654 -33.844  1.00  0.00     0.068 A 
HETATM   27  C   UNL     1      -5.825  -1.931 -33.991  1.00  0.00     0.037 A 
HETATM   28  C   UNL     1      -6.107  -0.864 -33.128  1.00  0.00     0.012 A 
BRANCH  26  29
HETATM   29  O   UNL     1      -4.273  -3.723 -34.611  1.00  0.00    -0.356 OA
HETATM   30  C   UNL     1      -3.993  -4.923 -33.897  1.00  0.00     0.210 C 
ENDBRANCH  26  29
ENDBRANCH   1  23
BRANCH   8  31
HETATM   31  C   UNL     1      -3.422   3.635 -32.045  1.00  0.00     0.409 C 
HETATM   32  F   UNL     1      -4.074   4.686 -31.497  1.00  0.00    -0.169 F 
HETATM   33  F   UNL     1      -2.456   3.278 -31.152  1.00  0.00    -0.169 F 
HETATM   34  F   UNL     1      -2.772   4.059 -33.146  1.00  0.00    -0.169 F 
ENDBRANCH   8  31
TORSDOF 6
ENDMDL
MODEL 4
REMARK VINA RESULT:      -8.9      3.863      7.118
REMARK  6 active torsions:
REMARK  status: ('A' for Active; 'I' for Inactive)
REMARK    1  A    between atoms: O_2  and  C_3 
REMARK    2  A    between atoms: C_6  and  C_7 
REMARK    3  A    between atoms: C_13  and  C_14 
REMARK       I    between atoms: C_14  and  N_15 
REMARK    4  A    between atoms: N_15  and  C_16 
REMARK    5  A    between atoms: C_18  and  O_19 
REMARK    6  A    between atoms: C_24  and  C_25 
ROOT
HETATM    1  C   UNL     1      -6.246   0.409 -31.377  1.00  0.00     0.118 C 
HETATM    2  N   UNL     1      -7.467   1.212 -31.583  1.00  0.00    -0.365 N 
HETATM    3  C   UNL     1      -7.416   2.301 -32.409  1.00  0.00     0.138 A 
HETATM    4  N   UNL     1      -6.213   2.779 -32.881  1.00  0.00    -0.240 N 
HETATM    5  N   UNL     1      -6.337   3.808 -33.729  1.00  0.00    -0.181 NA
HETATM    6  C   UNL     1      -7.649   4.054 -33.727  1.00  0.00     0.160 A 
HETATM    7  C   UNL     1      -8.384   3.147 -32.923  1.00  0.00     0.096 A 
HETATM    8  C   UNL     1      -4.916   2.238 -32.517  1.00  0.00     0.221 C 
HETATM    9  C   UNL     1      -5.055   1.372 -31.248  1.00  0.00     0.066 C 
HETATM   10  H   UNL     1      -8.012   1.306 -30.722  1.00  0.00     0.161 HD
ENDROOT
BRANCH   7  11
HETATM   11  C   UNL     1      -9.827   3.151 -32.741  1.00  0.00     0.261 C 
HETATM   12  N   UNL     1     -10.489   2.202 -33.497  1.00  0.00    -0.323 N 
HETATM   13  H   UNL     1      -9.910   1.699 -34.160  1.00  0.00     0.169 HD
HETATM   14  O   UNL     1     -10.352   3.950 -31.975  1.00  0.00    -0.267 OA
BRANCH  12  15
HETATM   15  C   UNL     1     -11.859   1.872 -33.464  1.00  0.00     0.037 A 
HETATM   16  C   UNL     1     -12.874   2.784 -33.161  1.00  0.00     0.066 A 
HETATM   17  C   UNL     1     -14.202   2.359 -33.127  1.00  0.00     0.067 A 
HETATM   18  C   UNL     1     -14.539   1.038 -33.384  1.00  0.00     0.036 A 
HETATM   19  C   UNL     1     -13.536   0.123 -33.689  1.00  0.00     0.005 A 
HETATM   20  C   UNL     1     -12.202   0.538 -33.732  1.00  0.00     0.029 A 
BRANCH  17  21
HETATM   21  O   UNL     1     -15.214   3.228 -32.838  1.00  0.00    -0.361 OA
HETATM   22  H   UNL     1     -16.058   2.748 -32.894  1.00  0.00     0.217 HD
ENDBRANCH  17  21
ENDBRANCH  12  15
ENDBRANCH   7  11
BRANCH   1  23
HETATM   23  C   UNL     1      -6.036  -0.649 -32.460  1.00  0.00    -0.035 A 
HETATM   24  C   UNL     1      -7.046  -1.035 -33.353  1.00  0.00     0.012 A 
HETATM   25  C   UNL     1      -6.793  -1.957 -34.373  1.00  0.00     0.037 A 
HETATM   26  C   UNL     1      -5.524  -2.513 -34.530  1.00  0.00     0.068 A 
HETATM   27  C   UNL     1      -4.525  -2.193 -33.615  1.00  0.00     0.037 A 
HETATM   28  C   UNL     1      -4.782  -1.277 -32.587  1.00  0.00     0.012 A 
BRANCH  26  29
HETATM   29  O   UNL     1      -5.385  -3.374 -35.581  1.00  0.00    -0.356 OA
HETATM   30  C   UNL     1      -6.202  -4.539 -35.533  1.00  0.00     0.210 C 
ENDBRANCH  26  29
ENDBRANCH   1  23
BRANCH   8  31
HETATM   31  C   UNL     1      -3.888   3.322 -32.268  1.00  0.00     0.409 C 
HETATM   32  F   UNL     1      -3.422   3.865 -33.416  1.00  0.00    -0.169 F 
HETATM   33  F   UNL     1      -4.469   4.341 -31.574  1.00  0.00    -0.169 F 
HETATM   34  F   UNL     1      -2.838   2.919 -31.526  1.00  0.00    -0.169 F 
ENDBRANCH   8  31
TORSDOF 6
ENDMDL
MODEL 5
REMARK VINA RESULT:      -8.9      3.921      8.500
REMARK  6 active torsions:
REMARK  status: ('A' for Active; 'I' for Inactive)
REMARK    1  A    between atoms: O_2  and  C_3 
REMARK    2  A    between atoms: C_6  and  C_7 
REMARK    3  A    between atoms: C_13  and  C_14 
REMARK       I    between atoms: C_14  and  N_15 
REMARK    4  A    between atoms: N_15  and  C_16 
REMARK    5  A    between atoms: C_18  and  O_19 
REMARK    6  A    between atoms: C_24  and  C_25 
ROOT
HETATM    1  C   UNL     1      -6.303   4.183 -33.793  1.00  0.00     0.118 C 
HETATM    2  N   UNL     1      -6.042   2.744 -33.585  1.00  0.00    -0.365 N 
HETATM    3  C   UNL     1      -4.969   2.366 -32.827  1.00  0.00     0.138 A 
HETATM    4  N   UNL     1      -4.019   3.283 -32.432  1.00  0.00    -0.240 N 
HETATM    5  N   UNL     1      -3.069   2.768 -31.640  1.00  0.00    -0.181 NA
HETATM    6  C   UNL     1      -3.368   1.468 -31.604  1.00  0.00     0.160 A 
HETATM    7  C   UNL     1      -4.546   1.147 -32.324  1.00  0.00     0.096 A 
HETATM    8  C   UNL     1      -4.021   4.683 -32.816  1.00  0.00     0.221 C 
HETATM    9  C   UNL     1      -4.956   4.885 -34.025  1.00  0.00     0.066 C 
HETATM   10  H   UNL     1      -6.233   2.196 -34.427  1.00  0.00     0.161 HD
ENDROOT
BRANCH   7  11
HETATM   11  C   UNL     1      -5.132  -0.179 -32.447  1.00  0.00     0.261 C 
HETATM   12  N   UNL     1      -4.829  -0.816 -33.635  1.00  0.00    -0.323 N 
HETATM   13  H   UNL     1      -4.334  -0.249 -34.315  1.00  0.00     0.169 HD
HETATM   14  O   UNL     1      -5.826  -0.634 -31.546  1.00  0.00    -0.267 OA
BRANCH  12  15
HETATM   15  C   UNL     1      -5.139  -2.138 -34.011  1.00  0.00     0.037 A 
HETATM   16  C   UNL     1      -4.248  -3.210 -33.901  1.00  0.00     0.066 A 
HETATM   17  C   UNL     1      -4.636  -4.482 -34.324  1.00  0.00     0.067 A 
HETATM   18  C   UNL     1      -5.895  -4.707 -34.861  1.00  0.00     0.036 A 
HETATM   19  C   UNL     1      -6.789  -3.646 -34.973  1.00  0.00     0.005 A 
HETATM   20  C   UNL     1      -6.415  -2.368 -34.546  1.00  0.00     0.029 A 
BRANCH  17  21
HETATM   21  O   UNL     1      -3.788  -5.547 -34.224  1.00  0.00    -0.361 OA
HETATM   22  H   UNL     1      -3.926  -5.970 -33.359  1.00  0.00     0.217 HD
ENDBRANCH  17  21
ENDBRANCH  12  15
ENDBRANCH   7  11
BRANCH   1  23
HETATM   23  C   UNL     1      -7.111   4.814 -32.661  1.00  0.00    -0.035 A 
HETATM   24  C   UNL     1      -7.820   4.056 -31.716  1.00  0.00     0.012 A 
HETATM   25  C   UNL     1      -8.491   4.671 -30.655  1.00  0.00     0.037 A 
HETATM   26  C   UNL     1      -8.468   6.057 -30.507  1.00  0.00     0.068 A 
HETATM   27  C   UNL     1      -7.825   6.831 -31.469  1.00  0.00     0.037 A 
HETATM   28  C   UNL     1      -7.162   6.216 -32.538  1.00  0.00     0.012 A 
BRANCH  26  29
HETATM   29  O   UNL     1      -9.128   6.542 -29.414  1.00  0.00    -0.356 OA
HETATM   30  C   UNL     1      -8.334   6.715 -28.244  1.00  0.00     0.210 C 
ENDBRANCH  26  29
ENDBRANCH   1  23
BRANCH   8  31
HETATM   31  C   UNL     1      -2.637   5.187 -33.168  1.00  0.00     0.409 C 
HETATM   32  F   UNL     1      -1.975   4.343 -33.992  1.00  0.00    -0.169 F 
HETATM   33  F   UNL     1      -2.747   6.367 -33.842  1.00  0.00    -0.169 F 
HETATM   34  F   UNL     1      -1.859   5.441 -32.098  1.00  0.00    -0.169 F 
ENDBRANCH   8  31
TORSDOF 6
ENDMDL
MODEL 6
REMARK VINA RESULT:      -8.7      3.880      6.847
REMARK  6 active torsions:
REMARK  status: ('A' for Active; 'I' for Inactive)
REMARK    1  A    between atoms: O_2  and  C_3 
REMARK    2  A    between atoms: C_6  and  C_7 
REMARK    3  A    between atoms: C_13  and  C_14 
REMARK       I    between atoms: C_14  and  N_15 
REMARK    4  A    between atoms: N_15  and  C_16 
REMARK    5  A    between atoms: C_18  and  O_19 
REMARK    6  A    between atoms: C_24  and  C_25 
ROOT
HETATM    1  C   UNL     1      -5.363   1.406 -31.054  1.00  0.00     0.118 C 
HETATM    2  N   UNL     1      -6.514   2.171 -31.574  1.00  0.00    -0.365 N 
HETATM    3  C   UNL     1      -6.313   3.074 -32.580  1.00  0.00     0.138 A 
HETATM    4  N   UNL     1      -5.040   3.432 -32.969  1.00  0.00    -0.240 N 
HETATM    5  N   UNL     1      -5.012   4.275 -34.009  1.00  0.00    -0.181 NA
HETATM    6  C   UNL     1      -6.302   4.536 -34.232  1.00  0.00     0.160 A 
HETATM    7  C   UNL     1      -7.170   3.816 -33.374  1.00  0.00     0.096 A 
HETATM    8  C   UNL     1      -3.824   2.955 -32.336  1.00  0.00     0.221 C 
HETATM    9  C   UNL     1      -4.162   2.359 -30.954  1.00  0.00     0.066 C 
HETATM   10  H   UNL     1      -7.162   2.441 -30.829  1.00  0.00     0.161 HD
ENDROOT
BRANCH   7  11
HETATM   11  C   UNL     1      -8.624   3.876 -33.393  1.00  0.00     0.261 C 
HETATM   12  N   UNL     1      -9.217   2.860 -34.117  1.00  0.00    -0.323 N 
HETATM   13  H   UNL     1      -8.576   2.266 -34.632  1.00  0.00     0.169 HD
HETATM   14  O   UNL     1      -9.213   4.775 -32.803  1.00  0.00    -0.267 OA
BRANCH  12  15
HETATM   15  C   UNL     1     -10.591   2.569 -34.234  1.00  0.00     0.037 A 
HETATM   16  C   UNL     1     -11.226   1.520 -33.562  1.00  0.00     0.066 A 
HETATM   17  C   UNL     1     -12.587   1.291 -33.760  1.00  0.00     0.067 A 
HETATM   18  C   UNL     1     -13.330   2.085 -34.621  1.00  0.00     0.036 A 
HETATM   19  C   UNL     1     -12.708   3.133 -35.293  1.00  0.00     0.005 A 
HETATM   20  C   UNL     1     -11.345   3.376 -35.097  1.00  0.00     0.029 A 
BRANCH  17  21
HETATM   21  O   UNL     1     -13.234   0.276 -33.114  1.00  0.00    -0.361 OA
HETATM   22  H   UNL     1     -14.167   0.283 -33.388  1.00  0.00     0.217 HD
ENDBRANCH  17  21
ENDBRANCH  12  15
ENDBRANCH   7  11
BRANCH   1  23
HETATM   23  C   UNL     1      -5.058   0.153 -31.872  1.00  0.00    -0.035 A 
HETATM   24  C   UNL     1      -5.790  -0.208 -33.014  1.00  0.00     0.012 A 
HETATM   25  C   UNL     1      -5.435  -1.327 -33.774  1.00  0.00     0.037 A 
HETATM   26  C   UNL     1      -4.338  -2.109 -33.417  1.00  0.00     0.068 A 
HETATM   27  C   UNL     1      -3.638  -1.806 -32.253  1.00  0.00     0.037 A 
HETATM   28  C   UNL     1      -4.000  -0.692 -31.485  1.00  0.00     0.012 A 
BRANCH  26  29
HETATM   29  O   UNL     1      -4.065  -3.154 -34.254  1.00  0.00    -0.356 OA
HETATM   30  C   UNL     1      -3.603  -4.343 -33.620  1.00  0.00     0.210 C 
ENDBRANCH  26  29
ENDBRANCH   1  23
BRANCH   8  31
HETATM   31  C   UNL     1      -2.794   4.052 -32.165  1.00  0.00     0.409 C 
HETATM   32  F   UNL     1      -3.357   5.252 -31.899  1.00  0.00    -0.169 F 
HETATM   33  F   UNL     1      -2.000   3.759 -31.096  1.00  0.00    -0.169 F 
HETATM   34  F   UNL     1      -1.963   4.190 -33.217  1.00  0.00    -0.169 F 
ENDBRANCH   8  31
TORSDOF 6
ENDMDL
MODEL 7
REMARK VINA RESULT:      -8.3      4.331      6.275
REMARK  6 active torsions:
REMARK  status: ('A' for Active; 'I' for Inactive)
REMARK    1  A    between atoms: O_2  and  C_3 
REMARK    2  A    between atoms: C_6  and  C_7 
REMARK    3  A    between atoms: C_13  and  C_14 
REMARK       I    between atoms: C_14  and  N_15 
REMARK    4  A    between atoms: N_15  and  C_16 
REMARK    5  A    between atoms: C_18  and  O_19 
REMARK    6  A    between atoms: C_24  and  C_25 
ROOT
HETATM    1  C   UNL     1      -6.282   0.738 -31.418  1.00  0.00     0.118 C 
HETATM    2  N   UNL     1      -7.250   1.775 -31.830  1.00  0.00    -0.365 N 
HETATM    3  C   UNL     1      -6.822   2.809 -32.616  1.00  0.00     0.138 A 
HETATM    4  N   UNL     1      -5.480   3.014 -32.853  1.00  0.00    -0.240 N 
HETATM    5  N   UNL     1      -5.229   4.026 -33.693  1.00  0.00    -0.181 NA
HETATM    6  C   UNL     1      -6.439   4.541 -33.926  1.00  0.00     0.160 A 
HETATM    7  C   UNL     1      -7.481   3.827 -33.284  1.00  0.00     0.096 A 
HETATM    8  C   UNL     1      -4.413   2.222 -32.267  1.00  0.00     0.221 C 
HETATM    9  C   UNL     1      -4.960   1.435 -31.059  1.00  0.00     0.066 C 
HETATM   10  H   UNL     1      -7.910   2.001 -31.082  1.00  0.00     0.161 HD
ENDROOT
BRANCH   7  11
HETATM   11  C   UNL     1      -8.900   4.136 -33.369  1.00  0.00     0.261 C 
HETATM   12  N   UNL     1      -9.253   4.835 -34.507  1.00  0.00    -0.323 N 
HETATM   13  H   UNL     1      -8.477   5.140 -35.085  1.00  0.00     0.169 HD
HETATM   14  O   UNL     1      -9.663   3.786 -32.477  1.00  0.00    -0.267 OA
BRANCH  12  15
HETATM   15  C   UNL     1     -10.548   5.183 -34.942  1.00  0.00     0.037 A 
HETATM   16  C   UNL     1     -11.059   6.484 -34.909  1.00  0.00     0.066 A 
HETATM   17  C   UNL     1     -12.364   6.728 -35.336  1.00  0.00     0.067 A 
HETATM   18  C   UNL     1     -13.175   5.699 -35.792  1.00  0.00     0.036 A 
HETATM   19  C   UNL     1     -12.674   4.401 -35.831  1.00  0.00     0.005 A 
HETATM   20  C   UNL     1     -11.365   4.144 -35.412  1.00  0.00     0.029 A 
BRANCH  17  21
HETATM   21  O   UNL     1     -12.888   7.989 -35.319  1.00  0.00    -0.361 OA
HETATM   22  H   UNL     1     -12.256   8.578 -34.872  1.00  0.00     0.217 HD
ENDBRANCH  17  21
ENDBRANCH  12  15
ENDBRANCH   7  11
BRANCH   1  23
HETATM   23  C   UNL     1      -6.105  -0.364 -32.460  1.00  0.00    -0.035 A 
HETATM   24  C   UNL     1      -7.113  -0.720 -33.370  1.00  0.00     0.012 A 
HETATM   25  C   UNL     1      -6.886  -1.689 -34.353  1.00  0.00     0.037 A 
HETATM   26  C   UNL     1      -5.649  -2.322 -34.455  1.00  0.00     0.068 A 
HETATM   27  C   UNL     1      -4.658  -2.030 -33.522  1.00  0.00     0.037 A 
HETATM   28  C   UNL     1      -4.888  -1.068 -32.531  1.00  0.00     0.012 A 
BRANCH  26  29
HETATM   29  O   UNL     1      -5.533  -3.224 -35.475  1.00  0.00    -0.356 OA
HETATM   30  C   UNL     1      -6.301  -4.414 -35.333  1.00  0.00     0.210 C 
ENDBRANCH  26  29
ENDBRANCH   1  23
BRANCH   8  31
HETATM   31  C   UNL     1      -3.244   3.073 -31.818  1.00  0.00     0.409 C 
HETATM   32  F   UNL     1      -3.638   4.186 -31.158  1.00  0.00    -0.169 F 
HETATM   33  F   UNL     1      -2.482   2.360 -30.939  1.00  0.00    -0.169 F 
HETATM   34  F   UNL     1      -2.416   3.435 -32.817  1.00  0.00    -0.169 F 
ENDBRANCH   8  31
TORSDOF 6
ENDMDL
MODEL 8
REMARK VINA RESULT:      -8.2      2.388      3.038
REMARK  6 active torsions:
REMARK  status: ('A' for Active; 'I' for Inactive)
REMARK    1  A    between atoms: O_2  and  C_3 
REMARK    2  A    between atoms: C_6  and  C_7 
REMARK    3  A    between atoms: C_13  and  C_14 
REMARK       I    between atoms: C_14  and  N_15 
REMARK    4  A    between atoms: N_15  and  C_16 
REMARK    5  A    between atoms: C_18  and  O_19 
REMARK    6  A    between atoms: C_24  and  C_25 
ROOT
HETATM    1  C   UNL     1      -7.204   2.655 -34.385  1.00  0.00     0.118 C 
HETATM    2  N   UNL     1      -6.211   3.575 -33.793  1.00  0.00    -0.365 N 
HETATM    3  C   UNL     1      -6.223   3.787 -32.442  1.00  0.00     0.138 A 
HETATM    4  N   UNL     1      -7.261   3.328 -31.660  1.00  0.00    -0.240 N 
HETATM    5  N   UNL     1      -7.092   3.558 -30.351  1.00  0.00    -0.181 NA
HETATM    6  C   UNL     1      -5.960   4.264 -30.305  1.00  0.00     0.160 A 
HETATM    7  C   UNL     1      -5.363   4.442 -31.578  1.00  0.00     0.096 A 
HETATM    8  C   UNL     1      -8.439   2.653 -32.173  1.00  0.00     0.221 C 
HETATM    9  C   UNL     1      -8.554   2.899 -33.692  1.00  0.00     0.066 C 
HETATM   10  H   UNL     1      -6.041   4.388 -34.390  1.00  0.00     0.161 HD
ENDROOT
BRANCH   7  11
HETATM   11  C   UNL     1      -4.118   5.148 -31.841  1.00  0.00     0.261 C 
HETATM   12  N   UNL     1      -3.190   5.042 -30.823  1.00  0.00    -0.323 N 
HETATM   13  H   UNL     1      -3.523   4.585 -29.981  1.00  0.00     0.169 HD
HETATM   14  O   UNL     1      -3.967   5.766 -32.888  1.00  0.00    -0.267 OA
BRANCH  12  15
HETATM   15  C   UNL     1      -1.859   5.505 -30.815  1.00  0.00     0.037 A 
HETATM   16  C   UNL     1      -0.742   4.669 -30.902  1.00  0.00     0.066 A 
HETATM   17  C   UNL     1       0.541   5.216 -30.859  1.00  0.00     0.067 A 
HETATM   18  C   UNL     1       0.733   6.583 -30.726  1.00  0.00     0.036 A 
HETATM   19  C   UNL     1      -0.373   7.424 -30.641  1.00  0.00     0.005 A 
HETATM   20  C   UNL     1      -1.663   6.888 -30.689  1.00  0.00     0.029 A 
BRANCH  17  21
HETATM   21  O   UNL     1       1.650   4.424 -30.946  1.00  0.00    -0.361 OA
HETATM   22  H   UNL     1       2.066   4.381 -30.068  1.00  0.00     0.217 HD
ENDBRANCH  17  21
ENDBRANCH  12  15
ENDBRANCH   7  11
BRANCH   1  23
HETATM   23  C   UNL     1      -6.769   1.192 -34.334  1.00  0.00    -0.035 A 
HETATM   24  C   UNL     1      -5.702   0.741 -33.542  1.00  0.00     0.012 A 
HETATM   25  C   UNL     1      -5.379  -0.617 -33.472  1.00  0.00     0.037 A 
HETATM   26  C   UNL     1      -6.116  -1.560 -34.186  1.00  0.00     0.068 A 
HETATM   27  C   UNL     1      -7.138  -1.128 -35.028  1.00  0.00     0.037 A 
HETATM   28  C   UNL     1      -7.454   0.234 -35.106  1.00  0.00     0.012 A 
BRANCH  26  29
HETATM   29  O   UNL     1      -5.733  -2.860 -34.012  1.00  0.00    -0.356 OA
HETATM   30  C   UNL     1      -4.464  -3.205 -34.559  1.00  0.00     0.210 C 
ENDBRANCH  26  29
ENDBRANCH   1  23
BRANCH   8  31
HETATM   31  C   UNL     1      -9.712   3.117 -31.497  1.00  0.00     0.409 C 
HETATM   32  F   UNL     1      -9.831   2.641 -30.237  1.00  0.00    -0.169 F 
HETATM   33  F   UNL     1      -9.692   4.476 -31.389  1.00  0.00    -0.169 F 
HETATM   34  F   UNL     1     -10.834   2.815 -32.179  1.00  0.00    -0.169 F 
ENDBRANCH   8  31
TORSDOF 6
ENDMDL
MODEL 9
REMARK VINA RESULT:      -8.1     15.946     17.713
REMARK  6 active torsions:
REMARK  status: ('A' for Active; 'I' for Inactive)
REMARK    1  A    between atoms: O_2  and  C_3 
REMARK    2  A    between atoms: C_6  and  C_7 
REMARK    3  A    between atoms: C_13  and  C_14 
REMARK       I    between atoms: C_14  and  N_15 
REMARK    4  A    between atoms: N_15  and  C_16 
REMARK    5  A    between atoms: C_18  and  O_19 
REMARK    6  A    between atoms: C_24  and  C_25 
ROOT
HETATM    1  C   UNL     1      -5.742 -12.179 -39.826  1.00  0.00     0.118 C 
HETATM    2  N   UNL     1      -5.650 -12.593 -38.411  1.00  0.00    -0.365 N 
HETATM    3  C   UNL     1      -6.546 -13.504 -37.926  1.00  0.00     0.138 A 
HETATM    4  N   UNL     1      -7.648 -13.881 -38.664  1.00  0.00    -0.240 N 
HETATM    5  N   UNL     1      -8.391 -14.829 -38.078  1.00  0.00    -0.181 NA
HETATM    6  C   UNL     1      -7.800 -14.996 -36.893  1.00  0.00     0.160 A 
HETATM    7  C   UNL     1      -6.639 -14.199 -36.732  1.00  0.00     0.096 A 
HETATM    8  C   UNL     1      -7.996 -13.326 -39.960  1.00  0.00     0.221 C 
HETATM    9  C   UNL     1      -7.227 -12.007 -40.179  1.00  0.00     0.066 C 
HETATM   10  H   UNL     1      -5.405 -11.810 -37.800  1.00  0.00     0.161 HD
ENDROOT
BRANCH   7  11
HETATM   11  C   UNL     1      -5.777 -14.181 -35.560  1.00  0.00     0.261 C 
HETATM   12  N   UNL     1      -6.098 -15.136 -34.615  1.00  0.00    -0.323 N 
HETATM   13  H   UNL     1      -6.951 -15.654 -34.797  1.00  0.00     0.169 HD
HETATM   14  O   UNL     1      -4.867 -13.365 -35.475  1.00  0.00    -0.267 OA
BRANCH  12  15
HETATM   15  C   UNL     1      -5.397 -15.455 -33.435  1.00  0.00     0.037 A 
HETATM   16  C   UNL     1      -5.894 -15.232 -32.147  1.00  0.00     0.066 A 
HETATM   17  C   UNL     1      -5.116 -15.556 -31.036  1.00  0.00     0.067 A 
HETATM   18  C   UNL     1      -3.846 -16.094 -31.182  1.00  0.00     0.036 A 
HETATM   19  C   UNL     1      -3.343 -16.321 -32.460  1.00  0.00     0.005 A 
HETATM   20  C   UNL     1      -4.116 -16.007 -33.581  1.00  0.00     0.029 A 
BRANCH  17  21
HETATM   21  O   UNL     1      -5.578 -15.353 -29.767  1.00  0.00    -0.361 OA
HETATM   22  H   UNL     1      -6.546 -15.447 -29.774  1.00  0.00     0.217 HD
ENDBRANCH  17  21
ENDBRANCH  12  15
ENDBRANCH   7  11
BRANCH   1  23
HETATM   23  C   UNL     1      -5.014 -13.129 -40.776  1.00  0.00    -0.035 A 
HETATM   24  C   UNL     1      -5.538 -13.510 -42.021  1.00  0.00     0.012 A 
HETATM   25  C   UNL     1      -4.809 -14.328 -42.890  1.00  0.00     0.037 A 
HETATM   26  C   UNL     1      -3.538 -14.781 -42.540  1.00  0.00     0.068 A 
HETATM   27  C   UNL     1      -3.027 -14.467 -41.284  1.00  0.00     0.037 A 
HETATM   28  C   UNL     1      -3.761 -13.657 -40.409  1.00  0.00     0.012 A 
BRANCH  26  29
HETATM   29  O   UNL     1      -2.907 -15.542 -43.482  1.00  0.00    -0.356 OA
HETATM   30  C   UNL     1      -3.569 -15.639 -44.739  1.00  0.00     0.210 C 
ENDBRANCH  26  29
ENDBRANCH   1  23
BRANCH   8  31
HETATM   31  C   UNL     1      -9.481 -13.065 -40.096  1.00  0.00     0.409 C 
HETATM   32  F   UNL     1     -10.097 -12.954 -38.897  1.00  0.00    -0.169 F 
HETATM   33  F   UNL     1      -9.670 -11.874 -40.732  1.00  0.00    -0.169 F 
HETATM   34  F   UNL     1     -10.133 -13.986 -40.832  1.00  0.00    -0.169 F 
ENDBRANCH   8  31
TORSDOF 6
ENDMDL
MODEL 10
REMARK VINA RESULT:      -7.9      4.969      7.338
REMARK  6 active torsions:
REMARK  status: ('A' for Active; 'I' for Inactive)
REMARK    1  A    between atoms: O_2  and  C_3 
REMARK    2  A    between atoms: C_6  and  C_7 
REMARK    3  A    between atoms: C_13  and  C_14 
REMARK       I    between atoms: C_14  and  N_15 
REMARK    4  A    between atoms: N_15  and  C_16 
REMARK    5  A    between atoms: C_18  and  O_19 
REMARK    6  A    between atoms: C_24  and  C_25 
ROOT
HETATM    1  C   UNL     1      -3.012   3.389 -31.606  1.00  0.00     0.118 C 
HETATM    2  N   UNL     1      -2.500   4.466 -30.736  1.00  0.00    -0.365 N 
HETATM    3  C   UNL     1      -2.614   5.765 -31.147  1.00  0.00     0.138 A 
HETATM    4  N   UNL     1      -3.002   6.072 -32.433  1.00  0.00    -0.240 N 
HETATM    5  N   UNL     1      -3.129   7.386 -32.659  1.00  0.00    -0.181 NA
HETATM    6  C   UNL     1      -2.721   7.937 -31.513  1.00  0.00     0.160 A 
HETATM    7  C   UNL     1      -2.385   6.980 -30.524  1.00  0.00     0.096 A 
HETATM    8  C   UNL     1      -3.262   5.088 -33.468  1.00  0.00     0.221 C 
HETATM    9  C   UNL     1      -2.647   3.734 -33.059  1.00  0.00     0.066 C 
HETATM   10  H   UNL     1      -1.627   4.200 -30.272  1.00  0.00     0.161 HD
ENDROOT
BRANCH   7  11
HETATM   11  C   UNL     1      -1.930   7.278 -29.174  1.00  0.00     0.261 C 
HETATM   12  N   UNL     1      -0.629   7.738 -29.111  1.00  0.00    -0.323 N 
HETATM   13  H   UNL     1      -0.118   7.709 -29.987  1.00  0.00     0.169 HD
HETATM   14  O   UNL     1      -2.679   7.111 -28.218  1.00  0.00    -0.267 OA
BRANCH  12  15
HETATM   15  C   UNL     1       0.064   8.220 -27.983  1.00  0.00     0.037 A 
HETATM   16  C   UNL     1      -0.157   9.475 -27.409  1.00  0.00     0.066 A 
HETATM   17  C   UNL     1       0.598   9.878 -26.307  1.00  0.00     0.067 A 
HETATM   18  C   UNL     1       1.575   9.054 -25.767  1.00  0.00     0.036 A 
HETATM   19  C   UNL     1       1.800   7.801 -26.330  1.00  0.00     0.005 A 
HETATM   20  C   UNL     1       1.046   7.384 -27.430  1.00  0.00     0.029 A 
BRANCH  17  21
HETATM   21  O   UNL     1       0.401  11.097 -25.723  1.00  0.00    -0.361 OA
HETATM   22  H   UNL     1       0.124  11.726 -26.411  1.00  0.00     0.217 HD
ENDBRANCH  17  21
ENDBRANCH  12  15
ENDBRANCH   7  11
BRANCH   1  23
HETATM   23  C   UNL     1      -4.506   3.128 -31.419  1.00  0.00    -0.035 A 
HETATM   24  C   UNL     1      -5.282   2.436 -32.361  1.00  0.00     0.012 A 
HETATM   25  C   UNL     1      -6.631   2.158 -32.119  1.00  0.00     0.037 A 
HETATM   26  C   UNL     1      -7.237   2.559 -30.929  1.00  0.00     0.068 A 
HETATM   27  C   UNL     1      -6.502   3.303 -30.010  1.00  0.00     0.037 A 
HETATM   28  C   UNL     1      -5.154   3.590 -30.257  1.00  0.00     0.012 A 
BRANCH  26  29
HETATM   29  O   UNL     1      -8.548   2.201 -30.788  1.00  0.00    -0.356 OA
HETATM   30  C   UNL     1      -9.012   1.203 -31.691  1.00  0.00     0.210 C 
ENDBRANCH  26  29
ENDBRANCH   1  23
BRANCH   8  31
HETATM   31  C   UNL     1      -2.700   5.502 -34.812  1.00  0.00     0.409 C 
HETATM   32  F   UNL     1      -1.786   4.623 -35.283  1.00  0.00    -0.169 F 
HETATM   33  F   UNL     1      -3.708   5.531 -35.730  1.00  0.00    -0.169 F 
HETATM   34  F   UNL     1      -2.155   6.734 -34.821  1.00  0.00    -0.169 F 
ENDBRANCH   8  31
TORSDOF 6
ENDMDL
