MODEL 1
REMARK VINA RESULT:      -7.8      0.000      0.000
REMARK  6 active torsions:
REMARK  status: ('A' for Active; 'I' for Inactive)
REMARK    1  A    between atoms: C_3  and  N_4 
REMARK    2  A    between atoms: N_4  and  C_5 
REMARK    3  A    between atoms: C_5  and  C_6 
REMARK    4  A    between atoms: N_8  and  C_10 
REMARK    5  A    between atoms: C_10  and  C_11 
REMARK    6  A    between atoms: C_12  and  O_13 
ROOT
HETATM    1  C   UNL     1      -4.944   0.105 -31.646  1.00  0.00     0.031 C 
HETATM    2  C   UNL     1      -3.801   0.968 -32.186  1.00  0.00     0.241 C 
HETATM    3  N   UNL     1      -4.128   2.375 -31.754  1.00  0.00    -0.067 N 
HETATM    4  H   UNL     1      -3.290   2.771 -31.286  1.00  0.00     0.280 HD
HETATM    5  C   UNL     1      -5.224   2.315 -30.720  1.00  0.00     0.235 C 
HETATM    6  C   UNL     1      -5.313   0.841 -30.359  1.00  0.00     0.035 C 
ENDROOT
BRANCH   3   7
HETATM    7  C   UNL     1      -4.361   3.350 -32.882  1.00  0.00     0.276 C 
BRANCH   7   8
HETATM    8  C   UNL     1      -3.233   4.322 -33.072  1.00  0.00     0.002 A 
HETATM    9  C   UNL     1      -3.196   5.170 -34.186  1.00  0.00     0.073 A 
HETATM   10  C   UNL     1      -2.167   6.091 -34.362  1.00  0.00     0.038 A 
HETATM   11  C   UNL     1      -1.145   6.169 -33.413  1.00  0.00     0.022 A 
HETATM   12  C   UNL     1      -1.167   5.331 -32.301  1.00  0.00     0.011 A 
HETATM   13 BR   UNL     1       0.222   5.423 -31.024  1.00  0.00    -0.051 Br
HETATM   14  C   UNL     1      -2.204   4.415 -32.122  1.00  0.00     0.030 A 
BRANCH   9  15
HETATM   15  O   UNL     1      -4.191   5.049 -35.119  1.00  0.00    -0.360 OA
HETATM   16  H   UNL     1      -5.048   5.071 -34.643  1.00  0.00     0.217 HD
ENDBRANCH   9  15
ENDBRANCH   7   8
ENDBRANCH   3   7
BRANCH   1  17
HETATM   17  C   UNL     1      -6.105  -0.010 -32.651  1.00  0.00     0.127 C 
BRANCH  17  18
HETATM   18  N   UNL     1      -5.631  -0.535 -33.936  1.00  0.00    -0.376 N 
HETATM   19  H   UNL     1      -4.879   0.010 -34.347  1.00  0.00     0.161 HD
BRANCH  18  20
HETATM   20  C   UNL     1      -5.644  -1.894 -34.204  1.00  0.00     0.100 A 
HETATM   21  C   UNL     1      -6.774  -2.600 -34.637  1.00  0.00     0.048 A 
HETATM   22  C   UNL     1      -6.700  -3.972 -34.879  1.00  0.00     0.005 A 
HETATM   23  C   UNL     1      -5.494  -4.633 -34.704  1.00  0.00     0.017 A 
HETATM   24  C   UNL     1      -4.386  -3.903 -34.308  1.00  0.00     0.089 A 
HETATM   25  N   UNL     1      -4.494  -2.584 -34.085  1.00  0.00    -0.353 N 
HETATM   26  H   UNL     1      -3.656  -2.079 -33.809  1.00  0.00     0.166 HD
ENDBRANCH  18  20
ENDBRANCH  17  18
ENDBRANCH   1  17
TORSDOF 6
ENDMDL
MODEL 2
REMARK VINA RESULT:      -7.7      5.680      7.713
REMARK  6 active torsions:
REMARK  status: ('A' for Active; 'I' for Inactive)
REMARK    1  A    between atoms: C_3  and  N_4 
REMARK    2  A    between atoms: N_4  and  C_5 
REMARK    3  A    between atoms: C_5  and  C_6 
REMARK    4  A    between atoms: N_8  and  C_10 
REMARK    5  A    between atoms: C_10  and  C_11 
REMARK    6  A    between atoms: C_12  and  O_13 
ROOT
HETATM    1  C   UNL     1      -9.601   1.971 -31.783  1.00  0.00     0.031 C 
HETATM    2  C   UNL     1      -8.841   0.668 -32.040  1.00  0.00     0.241 C 
HETATM    3  N   UNL     1      -7.483   1.093 -32.536  1.00  0.00    -0.067 N 
HETATM    4  H   UNL     1      -6.764   0.597 -31.973  1.00  0.00     0.280 HD
HETATM    5  C   UNL     1      -7.315   2.567 -32.267  1.00  0.00     0.235 C 
HETATM    6  C   UNL     1      -8.477   2.912 -31.350  1.00  0.00     0.035 C 
ENDROOT
BRANCH   3   7
HETATM    7  C   UNL     1      -7.152   0.654 -33.942  1.00  0.00     0.276 C 
BRANCH   7   8
HETATM    8  C   UNL     1      -6.248  -0.543 -33.995  1.00  0.00     0.002 A 
HETATM    9  C   UNL     1      -4.953  -0.489 -33.464  1.00  0.00     0.073 A 
HETATM   10  C   UNL     1      -4.113  -1.599 -33.488  1.00  0.00     0.038 A 
HETATM   11  C   UNL     1      -4.566  -2.790 -34.057  1.00  0.00     0.022 A 
HETATM   12  C   UNL     1      -5.850  -2.860 -34.591  1.00  0.00     0.011 A 
HETATM   13 BR   UNL     1      -6.459  -4.466 -35.377  1.00  0.00    -0.051 Br
HETATM   14  C   UNL     1      -6.693  -1.748 -34.558  1.00  0.00     0.030 A 
BRANCH   9  15
HETATM   15  O   UNL     1      -4.522   0.702 -32.943  1.00  0.00    -0.360 OA
HETATM   16  H   UNL     1      -4.763   0.715 -31.993  1.00  0.00     0.217 HD
ENDBRANCH   9  15
ENDBRANCH   7   8
ENDBRANCH   3   7
BRANCH   1  17
HETATM   17  C   UNL     1     -10.366   2.449 -33.031  1.00  0.00     0.127 C 
BRANCH  17  18
HETATM   18  N   UNL     1     -11.163   1.359 -33.603  1.00  0.00    -0.376 N 
HETATM   19  H   UNL     1     -10.710   0.452 -33.549  1.00  0.00     0.161 HD
BRANCH  18  20
HETATM   20  C   UNL     1     -12.547   1.377 -33.549  1.00  0.00     0.100 A 
HETATM   21  C   UNL     1     -13.375   0.567 -34.338  1.00  0.00     0.048 A 
HETATM   22  C   UNL     1     -14.762   0.653 -34.223  1.00  0.00     0.005 A 
HETATM   23  C   UNL     1     -15.320   1.535 -33.309  1.00  0.00     0.017 A 
HETATM   24  C   UNL     1     -14.476   2.297 -32.520  1.00  0.00     0.089 A 
HETATM   25  N   UNL     1     -13.145   2.188 -32.657  1.00  0.00    -0.353 N 
HETATM   26  H   UNL     1     -12.558   2.754 -32.050  1.00  0.00     0.166 HD
ENDBRANCH  18  20
ENDBRANCH  17  18
ENDBRANCH   1  17
TORSDOF 6
ENDMDL
MODEL 3
REMARK VINA RESULT:      -7.7      4.770      7.084
REMARK  6 active torsions:
REMARK  status: ('A' for Active; 'I' for Inactive)
REMARK    1  A    between atoms: C_3  and  N_4 
REMARK    2  A    between atoms: N_4  and  C_5 
REMARK    3  A    between atoms: C_5  and  C_6 
REMARK    4  A    between atoms: N_8  and  C_10 
REMARK    5  A    between atoms: C_10  and  C_11 
REMARK    6  A    between atoms: C_12  and  O_13 
ROOT
HETATM    1  C   UNL     1      -7.551   0.497 -31.220  1.00  0.00     0.031 C 
HETATM    2  C   UNL     1      -6.330  -0.425 -31.278  1.00  0.00     0.241 C 
HETATM    3  N   UNL     1      -5.200   0.443 -31.767  1.00  0.00    -0.067 N 
HETATM    4  H   UNL     1      -4.399   0.327 -31.116  1.00  0.00     0.280 HD
HETATM    5  C   UNL     1      -5.633   1.885 -31.680  1.00  0.00     0.235 C 
HETATM    6  C   UNL     1      -6.914   1.840 -30.865  1.00  0.00     0.035 C 
ENDROOT
BRANCH   3   7
HETATM    7  C   UNL     1      -4.605   0.029 -33.091  1.00  0.00     0.276 C 
BRANCH   7   8
HETATM    8  C   UNL     1      -4.402  -1.454 -33.215  1.00  0.00     0.002 A 
HETATM    9  C   UNL     1      -3.467  -2.119 -32.411  1.00  0.00     0.073 A 
HETATM   10  C   UNL     1      -3.285  -3.497 -32.501  1.00  0.00     0.038 A 
HETATM   11  C   UNL     1      -4.043  -4.231 -33.414  1.00  0.00     0.022 A 
HETATM   12  C   UNL     1      -4.975  -3.584 -34.222  1.00  0.00     0.011 A 
HETATM   13 BR   UNL     1      -5.991  -4.573 -35.470  1.00  0.00    -0.051 Br
HETATM   14  C   UNL     1      -5.162  -2.204 -34.123  1.00  0.00     0.030 A 
BRANCH   9  15
HETATM   15  O   UNL     1      -2.712  -1.370 -31.549  1.00  0.00    -0.360 OA
HETATM   16  H   UNL     1      -2.789  -1.774 -30.659  1.00  0.00     0.217 HD
ENDBRANCH   9  15
ENDBRANCH   7   8
ENDBRANCH   3   7
BRANCH   1  17
HETATM   17  C   UNL     1      -8.327   0.510 -32.550  1.00  0.00     0.127 C 
BRANCH  17  18
HETATM   18  N   UNL     1      -9.722   0.108 -32.343  1.00  0.00    -0.376 N 
HETATM   19  H   UNL     1      -9.964  -0.035 -31.367  1.00  0.00     0.161 HD
BRANCH  18  20
HETATM   20  C   UNL     1     -10.730   0.552 -33.184  1.00  0.00     0.100 A 
HETATM   21  C   UNL     1     -10.569   1.569 -34.134  1.00  0.00     0.048 A 
HETATM   22  C   UNL     1     -11.640   1.959 -34.938  1.00  0.00     0.005 A 
HETATM   23  C   UNL     1     -12.865   1.323 -34.803  1.00  0.00     0.017 A 
HETATM   24  C   UNL     1     -12.983   0.298 -33.879  1.00  0.00     0.089 A 
HETATM   25  N   UNL     1     -11.931  -0.052 -33.123  1.00  0.00    -0.353 N 
HETATM   26  H   UNL     1     -12.053  -0.817 -32.466  1.00  0.00     0.166 HD
ENDBRANCH  18  20
ENDBRANCH  17  18
ENDBRANCH   1  17
TORSDOF 6
ENDMDL
MODEL 4
REMARK VINA RESULT:      -7.6      3.523      7.909
REMARK  6 active torsions:
REMARK  status: ('A' for Active; 'I' for Inactive)
REMARK    1  A    between atoms: C_3  and  N_4 
REMARK    2  A    between atoms: N_4  and  C_5 
REMARK    3  A    between atoms: C_5  and  C_6 
REMARK    4  A    between atoms: N_8  and  C_10 
REMARK    5  A    between atoms: C_10  and  C_11 
REMARK    6  A    between atoms: C_12  and  O_13 
ROOT
HETATM    1  C   UNL     1      -5.722   2.267 -31.305  1.00  0.00     0.031 C 
HETATM    2  C   UNL     1      -5.746   1.565 -32.665  1.00  0.00     0.241 C 
HETATM    3  N   UNL     1      -5.443   0.118 -32.370  1.00  0.00    -0.067 N 
HETATM    4  H   UNL     1      -6.173  -0.463 -32.826  1.00  0.00     0.280 HD
HETATM    5  C   UNL     1      -5.570  -0.103 -30.883  1.00  0.00     0.235 C 
HETATM    6  C   UNL     1      -6.230   1.168 -30.374  1.00  0.00     0.035 C 
ENDROOT
BRANCH   3   7
HETATM    7  C   UNL     1      -4.173  -0.407 -32.992  1.00  0.00     0.276 C 
BRANCH   7   8
HETATM    8  C   UNL     1      -4.193  -1.890 -33.224  1.00  0.00     0.002 A 
HETATM    9  C   UNL     1      -3.335  -2.739 -32.513  1.00  0.00     0.073 A 
HETATM   10  C   UNL     1      -3.359  -4.118 -32.703  1.00  0.00     0.038 A 
HETATM   11  C   UNL     1      -4.251  -4.669 -33.626  1.00  0.00     0.022 A 
HETATM   12  C   UNL     1      -5.109  -3.838 -34.342  1.00  0.00     0.011 A 
HETATM   13 BR   UNL     1      -6.305  -4.578 -35.603  1.00  0.00    -0.051 Br
HETATM   14  C   UNL     1      -5.089  -2.457 -34.143  1.00  0.00     0.030 A 
BRANCH   9  15
HETATM   15  O   UNL     1      -2.447  -2.171 -31.640  1.00  0.00    -0.360 OA
HETATM   16  H   UNL     1      -2.462  -1.202 -31.790  1.00  0.00     0.217 HD
ENDBRANCH   9  15
ENDBRANCH   7   8
ENDBRANCH   3   7
BRANCH   1  17
HETATM   17  C   UNL     1      -4.315   2.783 -30.948  1.00  0.00     0.127 C 
BRANCH  17  18
HETATM   18  N   UNL     1      -3.536   3.054 -32.160  1.00  0.00    -0.376 N 
HETATM   19  H   UNL     1      -4.053   2.897 -33.021  1.00  0.00     0.161 HD
BRANCH  18  20
HETATM   20  C   UNL     1      -2.560   4.037 -32.181  1.00  0.00     0.100 A 
HETATM   21  C   UNL     1      -2.132   4.694 -33.343  1.00  0.00     0.048 A 
HETATM   22  C   UNL     1      -1.138   5.671 -33.276  1.00  0.00     0.005 A 
HETATM   23  C   UNL     1      -0.585   6.001 -32.047  1.00  0.00     0.017 A 
HETATM   24  C   UNL     1      -1.053   5.359 -30.914  1.00  0.00     0.089 A 
HETATM   25  N   UNL     1      -2.012   4.425 -31.015  1.00  0.00    -0.353 N 
HETATM   26  H   UNL     1      -2.339   3.985 -30.159  1.00  0.00     0.166 HD
ENDBRANCH  18  20
ENDBRANCH  17  18
ENDBRANCH   1  17
TORSDOF 6
ENDMDL
MODEL 5
REMARK VINA RESULT:      -7.4      4.067      8.854
REMARK  6 active torsions:
REMARK  status: ('A' for Active; 'I' for Inactive)
REMARK    1  A    between atoms: C_3  and  N_4 
REMARK    2  A    between atoms: N_4  and  C_5 
REMARK    3  A    between atoms: C_5  and  C_6 
REMARK    4  A    between atoms: N_8  and  C_10 
REMARK    5  A    between atoms: C_10  and  C_11 
REMARK    6  A    between atoms: C_12  and  O_13 
ROOT
HETATM    1  C   UNL     1      -2.321   5.302 -32.149  1.00  0.00     0.031 C 
HETATM    2  C   UNL     1      -2.606   3.940 -32.785  1.00  0.00     0.241 C 
HETATM    3  N   UNL     1      -3.747   3.362 -31.989  1.00  0.00    -0.067 N 
HETATM    4  H   UNL     1      -4.484   3.059 -32.655  1.00  0.00     0.280 HD
HETATM    5  C   UNL     1      -4.343   4.459 -31.142  1.00  0.00     0.235 C 
HETATM    6  C   UNL     1      -3.712   5.730 -31.684  1.00  0.00     0.035 C 
ENDROOT
BRANCH   3   7
HETATM    7  C   UNL     1      -3.428   2.083 -31.254  1.00  0.00     0.276 C 
BRANCH   7   8
HETATM    8  C   UNL     1      -3.849   0.848 -31.997  1.00  0.00     0.002 A 
HETATM    9  C   UNL     1      -3.171  -0.364 -31.816  1.00  0.00     0.073 A 
HETATM   10  C   UNL     1      -3.565  -1.521 -32.482  1.00  0.00     0.038 A 
HETATM   11  C   UNL     1      -4.654  -1.474 -33.355  1.00  0.00     0.022 A 
HETATM   12  C   UNL     1      -5.337  -0.276 -33.547  1.00  0.00     0.011 A 
HETATM   13 BR   UNL     1      -6.801  -0.206 -34.739  1.00  0.00    -0.051 Br
HETATM   14  C   UNL     1      -4.946   0.881 -32.871  1.00  0.00     0.030 A 
BRANCH   9  15
HETATM   15  O   UNL     1      -2.085  -0.375 -30.982  1.00  0.00    -0.360 OA
HETATM   16  H   UNL     1      -1.295  -0.576 -31.525  1.00  0.00     0.217 HD
ENDBRANCH   9  15
ENDBRANCH   7   8
ENDBRANCH   3   7
BRANCH   1  17
HETATM   17  C   UNL     1      -1.288   5.203 -31.011  1.00  0.00     0.127 C 
BRANCH  17  18
HETATM   18  N   UNL     1      -1.676   6.052 -29.880  1.00  0.00    -0.376 N 
HETATM   19  H   UNL     1      -2.590   5.828 -29.498  1.00  0.00     0.161 HD
BRANCH  18  20
HETATM   20  C   UNL     1      -0.730   6.551 -28.999  1.00  0.00     0.100 A 
HETATM   21  C   UNL     1       0.177   7.571 -29.315  1.00  0.00     0.048 A 
HETATM   22  C   UNL     1       1.102   8.011 -28.369  1.00  0.00     0.005 A 
HETATM   23  C   UNL     1       1.109   7.444 -27.103  1.00  0.00     0.017 A 
HETATM   24  C   UNL     1       0.179   6.461 -26.810  1.00  0.00     0.089 A 
HETATM   25  N   UNL     1      -0.698   6.063 -27.745  1.00  0.00    -0.353 N 
HETATM   26  H   UNL     1      -1.374   5.349 -27.488  1.00  0.00     0.166 HD
ENDBRANCH  18  20
ENDBRANCH  17  18
ENDBRANCH   1  17
TORSDOF 6
ENDMDL
MODEL 6
REMARK VINA RESULT:      -7.4      1.501      2.034
REMARK  6 active torsions:
REMARK  status: ('A' for Active; 'I' for Inactive)
REMARK    1  A    between atoms: C_3  and  N_4 
REMARK    2  A    between atoms: N_4  and  C_5 
REMARK    3  A    between atoms: C_5  and  C_6 
REMARK    4  A    between atoms: N_8  and  C_10 
REMARK    5  A    between atoms: C_10  and  C_11 
REMARK    6  A    between atoms: C_12  and  O_13 
ROOT
HETATM    1  C   UNL     1      -6.660   2.608 -32.969  1.00  0.00     0.031 C 
HETATM    2  C   UNL     1      -5.421   3.050 -32.186  1.00  0.00     0.241 C 
HETATM    3  N   UNL     1      -4.837   4.191 -32.980  1.00  0.00    -0.067 N 
HETATM    4  H   UNL     1      -4.686   4.989 -32.333  1.00  0.00     0.280 HD
HETATM    5  C   UNL     1      -5.857   4.635 -33.999  1.00  0.00     0.235 C 
HETATM    6  C   UNL     1      -7.134   3.926 -33.580  1.00  0.00     0.035 C 
ENDROOT
BRANCH   3   7
HETATM    7  C   UNL     1      -3.451   3.945 -33.523  1.00  0.00     0.276 C 
BRANCH   7   8
HETATM    8  C   UNL     1      -2.449   4.973 -33.084  1.00  0.00     0.002 A 
HETATM    9  C   UNL     1      -2.308   6.181 -33.780  1.00  0.00     0.073 A 
HETATM   10  C   UNL     1      -1.398   7.151 -33.369  1.00  0.00     0.038 A 
HETATM   11  C   UNL     1      -0.603   6.916 -32.245  1.00  0.00     0.022 A 
HETATM   12  C   UNL     1      -0.730   5.720 -31.544  1.00  0.00     0.011 A 
HETATM   13 BR   UNL     1       0.354   5.393 -30.033  1.00  0.00    -0.051 Br
HETATM   14  C   UNL     1      -1.650   4.753 -31.952  1.00  0.00     0.030 A 
BRANCH   9  15
HETATM   15  O   UNL     1      -3.074   6.371 -34.898  1.00  0.00    -0.360 OA
HETATM   16  H   UNL     1      -3.984   6.073 -34.689  1.00  0.00     0.217 HD
ENDBRANCH   9  15
ENDBRANCH   7   8
ENDBRANCH   3   7
BRANCH   1  17
HETATM   17  C   UNL     1      -6.328   1.523 -34.010  1.00  0.00     0.127 C 
BRANCH  17  18
HETATM   18  N   UNL     1      -5.491   0.473 -33.420  1.00  0.00    -0.376 N 
HETATM   19  H   UNL     1      -5.273   0.628 -32.440  1.00  0.00     0.161 HD
BRANCH  18  20
HETATM   20  C   UNL     1      -5.585  -0.843 -33.844  1.00  0.00     0.100 A 
HETATM   21  C   UNL     1      -6.772  -1.442 -34.288  1.00  0.00     0.048 A 
HETATM   22  C   UNL     1      -6.779  -2.777 -34.693  1.00  0.00     0.005 A 
HETATM   23  C   UNL     1      -5.599  -3.506 -34.669  1.00  0.00     0.017 A 
HETATM   24  C   UNL     1      -4.437  -2.876 -34.258  1.00  0.00     0.089 A 
HETATM   25  N   UNL     1      -4.466  -1.590 -33.876  1.00  0.00    -0.353 N 
HETATM   26  H   UNL     1      -3.591  -1.158 -33.594  1.00  0.00     0.166 HD
ENDBRANCH  18  20
ENDBRANCH  17  18
ENDBRANCH   1  17
TORSDOF 6
ENDMDL
MODEL 7
REMARK VINA RESULT:      -7.4      3.128      7.304
REMARK  6 active torsions:
REMARK  status: ('A' for Active; 'I' for Inactive)
REMARK    1  A    between atoms: C_3  and  N_4 
REMARK    2  A    between atoms: N_4  and  C_5 
REMARK    3  A    between atoms: C_5  and  C_6 
REMARK    4  A    between atoms: N_8  and  C_10 
REMARK    5  A    between atoms: C_10  and  C_11 
REMARK    6  A    between atoms: C_12  and  O_13 
ROOT
HETATM    1  C   UNL     1      -6.216   2.353 -30.644  1.00  0.00     0.031 C 
HETATM    2  C   UNL     1      -6.875   1.661 -31.840  1.00  0.00     0.241 C 
HETATM    3  N   UNL     1      -6.177   0.331 -31.962  1.00  0.00    -0.067 N 
HETATM    4  H   UNL     1      -6.903  -0.411 -32.007  1.00  0.00     0.280 HD
HETATM    5  C   UNL     1      -5.381   0.091 -30.703  1.00  0.00     0.235 C 
HETATM    6  C   UNL     1      -5.867   1.167 -29.746  1.00  0.00     0.035 C 
ENDROOT
BRANCH   3   7
HETATM    7  C   UNL     1      -5.419   0.124 -33.250  1.00  0.00     0.276 C 
BRANCH   7   8
HETATM    8  C   UNL     1      -5.563  -1.262 -33.810  1.00  0.00     0.002 A 
HETATM    9  C   UNL     1      -6.680  -1.612 -34.580  1.00  0.00     0.073 A 
HETATM   10  C   UNL     1      -6.814  -2.887 -35.123  1.00  0.00     0.038 A 
HETATM   11  C   UNL     1      -5.820  -3.840 -34.891  1.00  0.00     0.022 A 
HETATM   12  C   UNL     1      -4.706  -3.508 -34.126  1.00  0.00     0.011 A 
HETATM   13 BR   UNL     1      -3.368  -4.801 -33.797  1.00  0.00    -0.051 Br
HETATM   14  C   UNL     1      -4.569  -2.226 -33.590  1.00  0.00     0.030 A 
BRANCH   9  15
HETATM   15  O   UNL     1      -7.656  -0.669 -34.763  1.00  0.00    -0.360 OA
HETATM   16  H   UNL     1      -7.675  -0.444 -35.716  1.00  0.00     0.217 HD
ENDBRANCH   9  15
ENDBRANCH   7   8
ENDBRANCH   3   7
BRANCH   1  17
HETATM   17  C   UNL     1      -4.996   3.194 -31.065  1.00  0.00     0.127 C 
BRANCH  17  18
HETATM   18  N   UNL     1      -5.239   3.857 -32.350  1.00  0.00    -0.376 N 
HETATM   19  H   UNL     1      -6.095   4.405 -32.371  1.00  0.00     0.161 HD
BRANCH  18  20
HETATM   20  C   UNL     1      -4.190   4.298 -33.140  1.00  0.00     0.100 A 
HETATM   21  C   UNL     1      -2.837   4.142 -32.809  1.00  0.00     0.048 A 
HETATM   22  C   UNL     1      -1.842   4.621 -33.661  1.00  0.00     0.005 A 
HETATM   23  C   UNL     1      -2.199   5.241 -34.849  1.00  0.00     0.017 A 
HETATM   24  C   UNL     1      -3.542   5.351 -35.165  1.00  0.00     0.089 A 
HETATM   25  N   UNL     1      -4.473   4.877 -34.322  1.00  0.00    -0.353 N 
HETATM   26  H   UNL     1      -5.448   4.963 -34.595  1.00  0.00     0.166 HD
ENDBRANCH  18  20
ENDBRANCH  17  18
ENDBRANCH   1  17
TORSDOF 6
ENDMDL
MODEL 8
REMARK VINA RESULT:      -7.3      5.301      6.937
REMARK  6 active torsions:
REMARK  status: ('A' for Active; 'I' for Inactive)
REMARK    1  A    between atoms: C_3  and  N_4 
REMARK    2  A    between atoms: N_4  and  C_5 
REMARK    3  A    between atoms: C_5  and  C_6 
REMARK    4  A    between atoms: N_8  and  C_10 
REMARK    5  A    between atoms: C_10  and  C_11 
REMARK    6  A    between atoms: C_12  and  O_13 
ROOT
HETATM    1  C   UNL     1      -6.211   0.993 -32.597  1.00  0.00     0.031 C 
HETATM    2  C   UNL     1      -7.089   2.232 -32.785  1.00  0.00     0.241 C 
HETATM    3  N   UNL     1      -8.502   1.754 -32.573  1.00  0.00    -0.067 N 
HETATM    4  H   UNL     1      -8.955   2.383 -31.881  1.00  0.00     0.280 HD
HETATM    5  C   UNL     1      -8.454   0.379 -31.953  1.00  0.00     0.235 C 
HETATM    6  C   UNL     1      -6.999   0.205 -31.550  1.00  0.00     0.035 C 
ENDROOT
BRANCH   3   7
HETATM    7  C   UNL     1      -9.407   1.887 -33.773  1.00  0.00     0.276 C 
BRANCH   7   8
HETATM    8  C   UNL     1     -10.825   2.225 -33.415  1.00  0.00     0.002 A 
HETATM    9  C   UNL     1     -11.121   3.358 -32.646  1.00  0.00     0.073 A 
HETATM   10  C   UNL     1     -12.433   3.694 -32.326  1.00  0.00     0.038 A 
HETATM   11  C   UNL     1     -13.478   2.884 -32.774  1.00  0.00     0.022 A 
HETATM   12  C   UNL     1     -13.201   1.753 -33.537  1.00  0.00     0.011 A 
HETATM   13 BR   UNL     1     -14.612   0.645 -34.130  1.00  0.00    -0.051 Br
HETATM   14  C   UNL     1     -11.885   1.423 -33.864  1.00  0.00     0.030 A 
BRANCH   9  15
HETATM   15  O   UNL     1     -10.075   4.116 -32.191  1.00  0.00    -0.360 OA
HETATM   16  H   UNL     1      -9.632   3.612 -31.477  1.00  0.00     0.217 HD
ENDBRANCH   9  15
ENDBRANCH   7   8
ENDBRANCH   3   7
BRANCH   1  17
HETATM   17  C   UNL     1      -5.999   0.230 -33.918  1.00  0.00     0.127 C 
BRANCH  17  18
HETATM   18  N   UNL     1      -4.999  -0.829 -33.753  1.00  0.00    -0.376 N 
HETATM   19  H   UNL     1      -4.377  -0.684 -32.962  1.00  0.00     0.161 HD
BRANCH  18  20
HETATM   20  C   UNL     1      -5.278  -2.141 -34.102  1.00  0.00     0.100 A 
HETATM   21  C   UNL     1      -6.517  -2.577 -34.590  1.00  0.00     0.048 A 
HETATM   22  C   UNL     1      -6.715  -3.920 -34.913  1.00  0.00     0.005 A 
HETATM   23  C   UNL     1      -5.671  -4.821 -34.762  1.00  0.00     0.017 A 
HETATM   24  C   UNL     1      -4.450  -4.353 -34.309  1.00  0.00     0.089 A 
HETATM   25  N   UNL     1      -4.294  -3.054 -34.009  1.00  0.00    -0.353 N 
HETATM   26  H   UNL     1      -3.379  -2.747 -33.693  1.00  0.00     0.166 HD
ENDBRANCH  18  20
ENDBRANCH  17  18
ENDBRANCH   1  17
TORSDOF 6
ENDMDL
MODEL 9
REMARK VINA RESULT:      -7.3      3.920      8.873
REMARK  6 active torsions:
REMARK  status: ('A' for Active; 'I' for Inactive)
REMARK    1  A    between atoms: C_3  and  N_4 
REMARK    2  A    between atoms: N_4  and  C_5 
REMARK    3  A    between atoms: C_5  and  C_6 
REMARK    4  A    between atoms: N_8  and  C_10 
REMARK    5  A    between atoms: C_10  and  C_11 
REMARK    6  A    between atoms: C_12  and  O_13 
ROOT
HETATM    1  C   UNL     1      -1.465   5.306 -32.317  1.00  0.00     0.031 C 
HETATM    2  C   UNL     1      -2.303   4.030 -32.203  1.00  0.00     0.241 C 
HETATM    3  N   UNL     1      -3.639   4.378 -32.809  1.00  0.00    -0.067 N 
HETATM    4  H   UNL     1      -3.874   3.650 -33.511  1.00  0.00     0.280 HD
HETATM    5  C   UNL     1      -3.501   5.682 -33.556  1.00  0.00     0.235 C 
HETATM    6  C   UNL     1      -2.001   5.921 -33.610  1.00  0.00     0.035 C 
ENDROOT
BRANCH   3   7
HETATM    7  C   UNL     1      -4.808   4.303 -31.858  1.00  0.00     0.276 C 
BRANCH   7   8
HETATM    8  C   UNL     1      -5.225   2.897 -31.536  1.00  0.00     0.002 A 
HETATM    9  C   UNL     1      -5.460   2.504 -30.212  1.00  0.00     0.073 A 
HETATM   10  C   UNL     1      -5.868   1.209 -29.903  1.00  0.00     0.038 A 
HETATM   11  C   UNL     1      -6.041   0.279 -30.931  1.00  0.00     0.022 A 
HETATM   12  C   UNL     1      -5.809   0.654 -32.251  1.00  0.00     0.011 A 
HETATM   13 BR   UNL     1      -6.026  -0.606 -33.642  1.00  0.00    -0.051 Br
HETATM   14  C   UNL     1      -5.409   1.956 -32.560  1.00  0.00     0.030 A 
BRANCH   9  15
HETATM   15  O   UNL     1      -5.250   3.425 -29.222  1.00  0.00    -0.360 OA
HETATM   16  H   UNL     1      -4.773   4.183 -29.618  1.00  0.00     0.217 HD
ENDBRANCH   9  15
ENDBRANCH   7   8
ENDBRANCH   3   7
BRANCH   1  17
HETATM   17  C   UNL     1      -1.626   6.214 -31.084  1.00  0.00     0.127 C 
BRANCH  17  18
HETATM   18  N   UNL     1      -1.064   5.575 -29.890  1.00  0.00    -0.376 N 
HETATM   19  H   UNL     1      -0.788   4.608 -30.037  1.00  0.00     0.161 HD
BRANCH  18  20
HETATM   20  C   UNL     1      -0.340   6.303 -28.959  1.00  0.00     0.100 A 
HETATM   21  C   UNL     1       0.416   7.442 -29.269  1.00  0.00     0.048 A 
HETATM   22  C   UNL     1       1.121   8.113 -28.270  1.00  0.00     0.005 A 
HETATM   23  C   UNL     1       1.057   7.656 -26.961  1.00  0.00     0.017 A 
HETATM   24  C   UNL     1       0.274   6.549 -26.682  1.00  0.00     0.089 A 
HETATM   25  N   UNL     1      -0.392   5.928 -27.668  1.00  0.00    -0.353 N 
HETATM   26  H   UNL     1      -0.967   5.128 -27.421  1.00  0.00     0.166 HD
ENDBRANCH  18  20
ENDBRANCH  17  18
ENDBRANCH   1  17
TORSDOF 6
ENDMDL
MODEL 10
REMARK VINA RESULT:      -7.1      4.768      6.833
REMARK  6 active torsions:
REMARK  status: ('A' for Active; 'I' for Inactive)
REMARK    1  A    between atoms: C_3  and  N_4 
REMARK    2  A    between atoms: N_4  and  C_5 
REMARK    3  A    between atoms: C_5  and  C_6 
REMARK    4  A    between atoms: N_8  and  C_10 
REMARK    5  A    between atoms: C_10  and  C_11 
REMARK    6  A    between atoms: C_12  and  O_13 
ROOT
HETATM    1  C   UNL     1      -8.425   2.981 -30.710  1.00  0.00     0.031 C 
HETATM    2  C   UNL     1      -7.590   1.807 -31.227  1.00  0.00     0.241 C 
HETATM    3  N   UNL     1      -6.605   2.416 -32.192  1.00  0.00    -0.067 N 
HETATM    4  H   UNL     1      -5.654   2.087 -31.932  1.00  0.00     0.280 HD
HETATM    5  C   UNL     1      -6.618   3.913 -32.007  1.00  0.00     0.235 C 
HETATM    6  C   UNL     1      -7.409   4.122 -30.726  1.00  0.00     0.035 C 
ENDROOT
BRANCH   3   7
HETATM    7  C   UNL     1      -6.735   1.943 -33.618  1.00  0.00     0.276 C 
BRANCH   7   8
HETATM    8  C   UNL     1      -6.307   0.518 -33.815  1.00  0.00     0.002 A 
HETATM    9  C   UNL     1      -6.938  -0.297 -34.764  1.00  0.00     0.073 A 
HETATM   10  C   UNL     1      -6.535  -1.614 -34.971  1.00  0.00     0.038 A 
HETATM   11  C   UNL     1      -5.486  -2.138 -34.214  1.00  0.00     0.022 A 
HETATM   12  C   UNL     1      -4.850  -1.342 -33.265  1.00  0.00     0.011 A 
HETATM   13 BR   UNL     1      -3.440  -2.053 -32.228  1.00  0.00    -0.051 Br
HETATM   14  C   UNL     1      -5.249  -0.019 -33.066  1.00  0.00     0.030 A 
BRANCH   9  15
HETATM   15  O   UNL     1      -7.987   0.231 -35.468  1.00  0.00    -0.360 OA
HETATM   16  H   UNL     1      -8.228   1.083 -35.047  1.00  0.00     0.217 HD
ENDBRANCH   9  15
ENDBRANCH   7   8
ENDBRANCH   3   7
BRANCH   1  17
HETATM   17  C   UNL     1      -9.664   3.238 -31.588  1.00  0.00     0.127 C 
BRANCH  17  18
HETATM   18  N   UNL     1     -10.091   2.007 -32.261  1.00  0.00    -0.376 N 
HETATM   19  H   UNL     1      -9.918   1.166 -31.718  1.00  0.00     0.161 HD
BRANCH  18  20
HETATM   20  C   UNL     1     -11.186   1.996 -33.110  1.00  0.00     0.100 A 
HETATM   21  C   UNL     1     -11.146   1.549 -34.437  1.00  0.00     0.048 A 
HETATM   22  C   UNL     1     -12.296   1.577 -35.226  1.00  0.00     0.005 A 
HETATM   23  C   UNL     1     -13.488   2.036 -34.683  1.00  0.00     0.017 A 
HETATM   24  C   UNL     1     -13.503   2.438 -33.359  1.00  0.00     0.089 A 
HETATM   25  N   UNL     1     -12.377   2.397 -32.629  1.00  0.00    -0.353 N 
HETATM   26  H   UNL     1     -12.431   2.688 -31.656  1.00  0.00     0.166 HD
ENDBRANCH  18  20
ENDBRANCH  17  18
ENDBRANCH   1  17
TORSDOF 6
ENDMDL
