MODEL 1
REMARK VINA RESULT:      -8.7      0.000      0.000
REMARK  6 active torsions:
REMARK  status: ('A' for Active; 'I' for Inactive)
REMARK    1  A    between atoms: C_3  and  C_4 
REMARK       I    between atoms: C_4  and  N_5 
REMARK    2  A    between atoms: N_5  and  C_6 
REMARK    3  A    between atoms: C_6  and  C_7 
REMARK    4  A    between atoms: C_6  and  C_22 
REMARK       I    between atoms: C_7  and  N_8 
REMARK    5  A    between atoms: N_8  and  C_9 
REMARK    6  A    between atoms: C_11  and  C_12 
ROOT
HETATM    1  C   UNL     1      -3.156   3.033 -32.001  1.00  0.00     0.245 C 
HETATM    2  N   UNL     1      -4.356   2.895 -32.671  1.00  0.00    -0.325 N 
HETATM    3  O   UNL     1      -2.755   2.324 -31.079  1.00  0.00    -0.271 OA
HETATM    4  H   UNL     1      -4.602   3.672 -33.288  1.00  0.00     0.169 HD
ENDROOT
BRANCH   1   5
HETATM    5  C   UNL     1      -2.263   4.184 -32.539  1.00  0.00     0.180 C 
BRANCH   5   6
HETATM    6  N   UNL     1      -1.863   5.098 -31.466  1.00  0.00    -0.343 N 
HETATM    7  C   UNL     1      -0.559   5.366 -31.121  1.00  0.00     0.252 C 
HETATM    8  O   UNL     1       0.399   4.895 -31.724  1.00  0.00    -0.268 OA
HETATM    9  H   UNL     1      -2.588   5.365 -30.812  1.00  0.00     0.163 HD
BRANCH   7  10
HETATM   10  C   UNL     1      -0.353   6.216 -29.914  1.00  0.00     0.037 A 
HETATM   11  C   UNL     1      -0.863   7.523 -29.765  1.00  0.00    -0.046 A 
HETATM   12  C   UNL     1      -1.626   8.248 -30.840  1.00  0.00     0.049 C 
HETATM   13  C   UNL     1      -0.643   8.194 -28.548  1.00  0.00     0.007 A 
HETATM   14  C   UNL     1       0.104   7.607 -27.526  1.00  0.00     0.001 A 
HETATM   15  C   UNL     1       0.644   6.337 -27.699  1.00  0.00     0.001 A 
HETATM   16  C   UNL     1       0.417   5.645 -28.887  1.00  0.00     0.017 A 
ENDBRANCH   7  10
ENDBRANCH   5   6
BRANCH   5  17
HETATM   17  C   UNL     1      -2.847   4.896 -33.786  1.00  0.00     0.009 C 
HETATM   18  C   UNL     1      -3.506   6.227 -33.403  1.00  0.00     0.012 C 
HETATM   19  C   UNL     1      -1.764   5.162 -34.839  1.00  0.00     0.012 C 
ENDBRANCH   5  17
ENDBRANCH   1   5
BRANCH   2  20
HETATM   20  C   UNL     1      -5.293   1.849 -32.579  1.00  0.00     0.035 A 
HETATM   21  C   UNL     1      -5.166   0.622 -33.240  1.00  0.00     0.042 A 
HETATM   22  C   UNL     1      -6.156  -0.373 -33.133  1.00  0.00    -0.021 A 
HETATM   23  C   UNL     1      -7.295  -0.098 -32.364  1.00  0.00     0.012 A 
HETATM   24  C   UNL     1      -7.431   1.122 -31.700  1.00  0.00     0.003 A 
HETATM   25  C   UNL     1      -6.428   2.085 -31.800  1.00  0.00     0.029 A 
BRANCH  22  26
HETATM   26  C   UNL     1      -5.982  -1.655 -33.811  1.00  0.00     0.010 A 
HETATM   27  C   UNL     1      -6.936  -2.555 -34.352  1.00  0.00     0.152 A 
HETATM   28  N   UNL     1      -6.380  -3.631 -34.917  1.00  0.00    -0.187 NA
HETATM   29  N   UNL     1      -5.067  -3.426 -34.747  1.00  0.00    -0.289 N 
HETATM   30  H   UNL     1      -4.422  -4.122 -35.107  1.00  0.00     0.188 HD
HETATM   31  C   UNL     1      -4.776  -2.263 -34.093  1.00  0.00     0.123 A 
ENDBRANCH  22  26
ENDBRANCH   2  20
TORSDOF 6
ENDMDL
MODEL 2
REMARK VINA RESULT:      -8.7      1.990      9.302
REMARK  6 active torsions:
REMARK  status: ('A' for Active; 'I' for Inactive)
REMARK    1  A    between atoms: C_3  and  C_4 
REMARK       I    between atoms: C_4  and  N_5 
REMARK    2  A    between atoms: N_5  and  C_6 
REMARK    3  A    between atoms: C_6  and  C_7 
REMARK    4  A    between atoms: C_6  and  C_22 
REMARK       I    between atoms: C_7  and  N_8 
REMARK    5  A    between atoms: N_8  and  C_9 
REMARK    6  A    between atoms: C_11  and  C_12 
ROOT
HETATM    1  C   UNL     1      -3.805   2.876 -31.857  1.00  0.00     0.245 C 
HETATM    2  N   UNL     1      -3.662   4.132 -32.415  1.00  0.00    -0.325 N 
HETATM    3  O   UNL     1      -2.928   2.236 -31.280  1.00  0.00    -0.271 OA
HETATM    4  H   UNL     1      -4.440   4.439 -33.003  1.00  0.00     0.169 HD
ENDROOT
BRANCH   1   5
HETATM    5  C   UNL     1      -5.241   2.296 -31.971  1.00  0.00     0.180 C 
BRANCH   5   6
HETATM    6  N   UNL     1      -5.256   1.051 -32.744  1.00  0.00    -0.343 N 
HETATM    7  C   UNL     1      -5.707  -0.155 -32.262  1.00  0.00     0.252 C 
HETATM    8  O   UNL     1      -6.191  -0.286 -31.143  1.00  0.00    -0.268 OA
HETATM    9  H   UNL     1      -4.702   1.043 -33.590  1.00  0.00     0.163 HD
BRANCH   7  10
HETATM   10  C   UNL     1      -5.516  -1.338 -33.149  1.00  0.00     0.037 A 
HETATM   11  C   UNL     1      -4.365  -2.155 -33.149  1.00  0.00    -0.046 A 
HETATM   12  C   UNL     1      -3.156  -1.892 -32.294  1.00  0.00     0.049 C 
HETATM   13  C   UNL     1      -4.341  -3.277 -33.998  1.00  0.00     0.007 A 
HETATM   14  C   UNL     1      -5.403  -3.553 -34.859  1.00  0.00     0.001 A 
HETATM   15  C   UNL     1      -6.512  -2.715 -34.889  1.00  0.00     0.001 A 
HETATM   16  C   UNL     1      -6.569  -1.613 -34.037  1.00  0.00     0.017 A 
ENDBRANCH   7  10
ENDBRANCH   5   6
BRANCH   5  17
HETATM   17  C   UNL     1      -6.298   3.333 -32.430  1.00  0.00     0.009 C 
HETATM   18  C   UNL     1      -6.798   3.022 -33.846  1.00  0.00     0.012 C 
HETATM   19  C   UNL     1      -7.498   3.371 -31.476  1.00  0.00     0.012 C 
ENDBRANCH   5  17
ENDBRANCH   1   5
BRANCH   2  20
HETATM   20  C   UNL     1      -2.572   5.016 -32.311  1.00  0.00     0.035 A 
HETATM   21  C   UNL     1      -1.939   5.343 -31.106  1.00  0.00     0.042 A 
HETATM   22  C   UNL     1      -0.874   6.261 -31.065  1.00  0.00    -0.021 A 
HETATM   23  C   UNL     1      -0.470   6.866 -32.262  1.00  0.00     0.012 A 
HETATM   24  C   UNL     1      -1.093   6.546 -33.470  1.00  0.00     0.003 A 
HETATM   25  C   UNL     1      -2.132   5.617 -33.492  1.00  0.00     0.029 A 
BRANCH  22  26
HETATM   26  C   UNL     1      -0.214   6.559 -29.797  1.00  0.00     0.010 A 
HETATM   27  C   UNL     1      -0.108   7.773 -29.070  1.00  0.00     0.152 A 
HETATM   28  N   UNL     1       0.571   7.642 -27.926  1.00  0.00    -0.187 NA
HETATM   29  N   UNL     1       0.899   6.343 -27.908  1.00  0.00    -0.289 N 
HETATM   30  H   UNL     1       1.425   5.991 -27.114  1.00  0.00     0.188 HD
HETATM   31  C   UNL     1       0.456   5.653 -28.999  1.00  0.00     0.123 A 
ENDBRANCH  22  26
ENDBRANCH   2  20
TORSDOF 6
ENDMDL
MODEL 3
REMARK VINA RESULT:      -8.7      3.533      8.949
REMARK  6 active torsions:
REMARK  status: ('A' for Active; 'I' for Inactive)
REMARK    1  A    between atoms: C_3  and  C_4 
REMARK       I    between atoms: C_4  and  N_5 
REMARK    2  A    between atoms: N_5  and  C_6 
REMARK    3  A    between atoms: C_6  and  C_7 
REMARK    4  A    between atoms: C_6  and  C_22 
REMARK       I    between atoms: C_7  and  N_8 
REMARK    5  A    between atoms: N_8  and  C_9 
REMARK    6  A    between atoms: C_11  and  C_12 
ROOT
HETATM    1  C   UNL     1      -7.004   1.996 -31.524  1.00  0.00     0.245 C 
HETATM    2  N   UNL     1      -6.777   2.846 -32.588  1.00  0.00    -0.325 N 
HETATM    3  O   UNL     1      -6.556   2.125 -30.385  1.00  0.00    -0.271 OA
HETATM    4  H   UNL     1      -7.083   2.496 -33.499  1.00  0.00     0.169 HD
ENDROOT
BRANCH   1   5
HETATM    5  C   UNL     1      -7.951   0.811 -31.855  1.00  0.00     0.180 C 
BRANCH   5   6
HETATM    6  N   UNL     1      -7.206  -0.347 -32.357  1.00  0.00    -0.343 N 
HETATM    7  C   UNL     1      -6.715  -0.457 -33.637  1.00  0.00     0.252 C 
HETATM    8  O   UNL     1      -6.815   0.439 -34.468  1.00  0.00    -0.268 OA
HETATM    9  H   UNL     1      -7.255  -1.188 -31.798  1.00  0.00     0.163 HD
BRANCH   7  10
HETATM   10  C   UNL     1      -6.103  -1.766 -34.003  1.00  0.00     0.037 A 
HETATM   11  C   UNL     1      -4.740  -2.084 -33.826  1.00  0.00    -0.046 A 
HETATM   12  C   UNL     1      -3.718  -1.112 -33.303  1.00  0.00     0.049 C 
HETATM   13  C   UNL     1      -4.305  -3.380 -34.160  1.00  0.00     0.007 A 
HETATM   14  C   UNL     1      -5.184  -4.318 -34.702  1.00  0.00     0.001 A 
HETATM   15  C   UNL     1      -6.516  -3.981 -34.920  1.00  0.00     0.001 A 
HETATM   16  C   UNL     1      -6.974  -2.711 -34.572  1.00  0.00     0.017 A 
ENDBRANCH   7  10
ENDBRANCH   5   6
BRANCH   5  17
HETATM   17  C   UNL     1      -9.163   1.208 -32.737  1.00  0.00     0.009 C 
HETATM   18  C   UNL     1     -10.119   0.025 -32.928  1.00  0.00     0.012 C 
HETATM   19  C   UNL     1      -9.940   2.382 -32.126  1.00  0.00     0.012 C 
ENDBRANCH   5  17
ENDBRANCH   1   5
BRANCH   2  20
HETATM   20  C   UNL     1      -6.147   4.105 -32.583  1.00  0.00     0.035 A 
HETATM   21  C   UNL     1      -4.887   4.353 -33.140  1.00  0.00     0.042 A 
HETATM   22  C   UNL     1      -4.297   5.629 -33.073  1.00  0.00    -0.021 A 
HETATM   23  C   UNL     1      -4.992   6.650 -32.411  1.00  0.00     0.012 A 
HETATM   24  C   UNL     1      -6.249   6.413 -31.854  1.00  0.00     0.003 A 
HETATM   25  C   UNL     1      -6.827   5.148 -31.950  1.00  0.00     0.029 A 
BRANCH  22  26
HETATM   26  C   UNL     1      -2.994   5.865 -33.689  1.00  0.00     0.010 A 
HETATM   27  C   UNL     1      -2.106   6.968 -33.588  1.00  0.00     0.152 A 
HETATM   28  N   UNL     1      -0.985   6.805 -34.296  1.00  0.00    -0.187 NA
HETATM   29  N   UNL     1      -1.142   5.596 -34.852  1.00  0.00    -0.289 N 
HETATM   30  H   UNL     1      -0.400   5.240 -35.444  1.00  0.00     0.188 HD
HETATM   31  C   UNL     1      -2.322   4.993 -34.522  1.00  0.00     0.123 A 
ENDBRANCH  22  26
ENDBRANCH   2  20
TORSDOF 6
ENDMDL
MODEL 4
REMARK VINA RESULT:      -8.7      2.821      8.870
REMARK  6 active torsions:
REMARK  status: ('A' for Active; 'I' for Inactive)
REMARK    1  A    between atoms: C_3  and  C_4 
REMARK       I    between atoms: C_4  and  N_5 
REMARK    2  A    between atoms: N_5  and  C_6 
REMARK    3  A    between atoms: C_6  and  C_7 
REMARK    4  A    between atoms: C_6  and  C_22 
REMARK       I    between atoms: C_7  and  N_8 
REMARK    5  A    between atoms: N_8  and  C_9 
REMARK    6  A    between atoms: C_11  and  C_12 
ROOT
HETATM    1  C   UNL     1      -6.353   3.440 -31.898  1.00  0.00     0.245 C 
HETATM    2  N   UNL     1      -5.303   3.169 -32.753  1.00  0.00    -0.325 N 
HETATM    3  O   UNL     1      -6.518   4.480 -31.260  1.00  0.00    -0.271 OA
HETATM    4  H   UNL     1      -5.233   2.197 -33.062  1.00  0.00     0.169 HD
ENDROOT
BRANCH   1   5
HETATM    5  C   UNL     1      -7.405   2.301 -31.810  1.00  0.00     0.180 C 
BRANCH   5   6
HETATM    6  N   UNL     1      -7.016   1.149 -32.628  1.00  0.00    -0.343 N 
HETATM    7  C   UNL     1      -6.571  -0.049 -32.118  1.00  0.00     0.252 C 
HETATM    8  O   UNL     1      -6.510  -0.279 -30.916  1.00  0.00    -0.268 OA
HETATM    9  H   UNL     1      -6.859   1.331 -33.610  1.00  0.00     0.163 HD
BRANCH   7  10
HETATM   10  C   UNL     1      -6.093  -1.054 -33.109  1.00  0.00     0.037 A 
HETATM   11  C   UNL     1      -4.734  -1.325 -33.375  1.00  0.00    -0.046 A 
HETATM   12  C   UNL     1      -3.594  -0.581 -32.734  1.00  0.00     0.049 C 
HETATM   13  C   UNL     1      -4.420  -2.344 -34.294  1.00  0.00     0.007 A 
HETATM   14  C   UNL     1      -5.424  -3.039 -34.969  1.00  0.00     0.001 A 
HETATM   15  C   UNL     1      -6.761  -2.732 -34.738  1.00  0.00     0.001 A 
HETATM   16  C   UNL     1      -7.094  -1.745 -33.812  1.00  0.00     0.017 A 
ENDBRANCH   7  10
ENDBRANCH   5   6
BRANCH   5  17
HETATM   17  C   UNL     1      -8.861   2.777 -32.046  1.00  0.00     0.009 C 
HETATM   18  C   UNL     1      -9.637   1.772 -32.906  1.00  0.00     0.012 C 
HETATM   19  C   UNL     1      -9.607   2.980 -30.721  1.00  0.00     0.012 C 
ENDBRANCH   5  17
ENDBRANCH   1   5
BRANCH   2  20
HETATM   20  C   UNL     1      -4.303   4.045 -33.216  1.00  0.00     0.035 A 
HETATM   21  C   UNL     1      -3.213   4.467 -32.447  1.00  0.00     0.042 A 
HETATM   22  C   UNL     1      -2.263   5.371 -32.958  1.00  0.00    -0.021 A 
HETATM   23  C   UNL     1      -2.445   5.864 -34.257  1.00  0.00     0.012 A 
HETATM   24  C   UNL     1      -3.528   5.448 -35.033  1.00  0.00     0.003 A 
HETATM   25  C   UNL     1      -4.446   4.534 -34.516  1.00  0.00     0.029 A 
BRANCH  22  26
HETATM   26  C   UNL     1      -1.120   5.771 -32.142  1.00  0.00     0.010 A 
HETATM   27  C   UNL     1      -0.422   5.077 -31.120  1.00  0.00     0.152 A 
HETATM   28  N   UNL     1       0.596   5.778 -30.612  1.00  0.00    -0.187 NA
HETATM   29  N   UNL     1       0.563   6.922 -31.308  1.00  0.00    -0.289 N 
HETATM   30  H   UNL     1       1.260   7.630 -31.102  1.00  0.00     0.188 HD
HETATM   31  C   UNL     1      -0.441   6.969 -32.232  1.00  0.00     0.123 A 
ENDBRANCH  22  26
ENDBRANCH   2  20
TORSDOF 6
ENDMDL
MODEL 5
REMARK VINA RESULT:      -8.5      4.881      8.558
REMARK  6 active torsions:
REMARK  status: ('A' for Active; 'I' for Inactive)
REMARK    1  A    between atoms: C_3  and  C_4 
REMARK       I    between atoms: C_4  and  N_5 
REMARK    2  A    between atoms: N_5  and  C_6 
REMARK    3  A    between atoms: C_6  and  C_7 
REMARK    4  A    between atoms: C_6  and  C_22 
REMARK       I    between atoms: C_7  and  N_8 
REMARK    5  A    between atoms: N_8  and  C_9 
REMARK    6  A    between atoms: C_11  and  C_12 
ROOT
HETATM    1  C   UNL     1      -7.515   1.125 -32.256  1.00  0.00     0.245 C 
HETATM    2  N   UNL     1      -7.842   2.055 -33.223  1.00  0.00    -0.325 N 
HETATM    3  O   UNL     1      -8.303   0.555 -31.503  1.00  0.00    -0.271 OA
HETATM    4  H   UNL     1      -7.049   2.552 -33.635  1.00  0.00     0.169 HD
ENDROOT
BRANCH   1   5
HETATM    5  C   UNL     1      -6.000   0.787 -32.194  1.00  0.00     0.180 C 
BRANCH   5   6
HETATM    6  N   UNL     1      -5.750  -0.616 -32.539  1.00  0.00    -0.343 N 
HETATM    7  C   UNL     1      -4.611  -1.069 -33.163  1.00  0.00     0.252 C 
HETATM    8  O   UNL     1      -3.669  -0.336 -33.443  1.00  0.00    -0.268 OA
HETATM    9  H   UNL     1      -6.551  -1.232 -32.515  1.00  0.00     0.163 HD
BRANCH   7  10
HETATM   10  C   UNL     1      -4.598  -2.506 -33.556  1.00  0.00     0.037 A 
HETATM   11  C   UNL     1      -3.798  -3.492 -32.939  1.00  0.00    -0.046 A 
HETATM   12  C   UNL     1      -2.807  -3.198 -31.846  1.00  0.00     0.049 C 
HETATM   13  C   UNL     1      -3.926  -4.825 -33.370  1.00  0.00     0.007 A 
HETATM   14  C   UNL     1      -4.784  -5.165 -34.417  1.00  0.00     0.001 A 
HETATM   15  C   UNL     1      -5.532  -4.181 -35.053  1.00  0.00     0.001 A 
HETATM   16  C   UNL     1      -5.440  -2.858 -34.624  1.00  0.00     0.017 A 
ENDBRANCH   7  10
ENDBRANCH   5   6
BRANCH   5  17
HETATM   17  C   UNL     1      -5.313   1.242 -30.881  1.00  0.00     0.009 C 
HETATM   18  C   UNL     1      -5.551   2.735 -30.623  1.00  0.00     0.012 C 
HETATM   19  C   UNL     1      -5.820   0.442 -29.675  1.00  0.00     0.012 C 
ENDBRANCH   5  17
ENDBRANCH   1   5
BRANCH   2  20
HETATM   20  C   UNL     1      -9.120   2.430 -33.679  1.00  0.00     0.035 A 
HETATM   21  C   UNL     1     -10.250   1.609 -33.609  1.00  0.00     0.042 A 
HETATM   22  C   UNL     1     -11.494   2.031 -34.113  1.00  0.00    -0.021 A 
HETATM   23  C   UNL     1     -11.574   3.295 -34.713  1.00  0.00     0.012 A 
HETATM   24  C   UNL     1     -10.453   4.123 -34.787  1.00  0.00     0.003 A 
HETATM   25  C   UNL     1      -9.235   3.695 -34.261  1.00  0.00     0.029 A 
BRANCH  22  26
HETATM   26  C   UNL     1     -12.663   1.163 -34.000  1.00  0.00     0.010 A 
HETATM   27  C   UNL     1     -14.010   1.364 -34.399  1.00  0.00     0.152 A 
HETATM   28  N   UNL     1     -14.796   0.315 -34.138  1.00  0.00    -0.187 NA
HETATM   29  N   UNL     1     -13.959  -0.568 -33.577  1.00  0.00    -0.289 N 
HETATM   30  H   UNL     1     -14.330  -1.468 -33.292  1.00  0.00     0.188 HD
HETATM   31  C   UNL     1     -12.676  -0.112 -33.471  1.00  0.00     0.123 A 
ENDBRANCH  22  26
ENDBRANCH   2  20
TORSDOF 6
ENDMDL
MODEL 6
REMARK VINA RESULT:      -8.4      3.047      4.428
REMARK  6 active torsions:
REMARK  status: ('A' for Active; 'I' for Inactive)
REMARK    1  A    between atoms: C_3  and  C_4 
REMARK       I    between atoms: C_4  and  N_5 
REMARK    2  A    between atoms: N_5  and  C_6 
REMARK    3  A    between atoms: C_6  and  C_7 
REMARK    4  A    between atoms: C_6  and  C_22 
REMARK       I    between atoms: C_7  and  N_8 
REMARK    5  A    between atoms: N_8  and  C_9 
REMARK    6  A    between atoms: C_11  and  C_12 
ROOT
HETATM    1  C   UNL     1      -6.471   2.202 -32.022  1.00  0.00     0.245 C 
HETATM    2  N   UNL     1      -5.602   1.670 -32.955  1.00  0.00    -0.325 N 
HETATM    3  O   UNL     1      -6.996   1.592 -31.091  1.00  0.00    -0.271 OA
HETATM    4  H   UNL     1      -5.400   2.274 -33.755  1.00  0.00     0.169 HD
ENDROOT
BRANCH   1   5
HETATM    5  C   UNL     1      -6.733   3.722 -32.200  1.00  0.00     0.180 C 
BRANCH   5   6
HETATM    6  N   UNL     1      -5.483   4.464 -32.385  1.00  0.00    -0.343 N 
HETATM    7  C   UNL     1      -5.076   5.011 -33.580  1.00  0.00     0.252 C 
HETATM    8  O   UNL     1      -5.759   4.971 -34.597  1.00  0.00    -0.268 OA
HETATM    9  H   UNL     1      -4.793   4.369 -31.652  1.00  0.00     0.163 HD
BRANCH   7  10
HETATM   10  C   UNL     1      -3.711   5.609 -33.605  1.00  0.00     0.037 A 
HETATM   11  C   UNL     1      -3.273   6.628 -32.733  1.00  0.00    -0.046 A 
HETATM   12  C   UNL     1      -4.155   7.284 -31.706  1.00  0.00     0.049 C 
HETATM   13  C   UNL     1      -1.937   7.062 -32.826  1.00  0.00     0.007 A 
HETATM   14  C   UNL     1      -1.076   6.539 -33.791  1.00  0.00     0.001 A 
HETATM   15  C   UNL     1      -1.530   5.570 -34.680  1.00  0.00     0.001 A 
HETATM   16  C   UNL     1      -2.841   5.107 -34.587  1.00  0.00     0.017 A 
ENDBRANCH   7  10
ENDBRANCH   5   6
BRANCH   5  17
HETATM   17  C   UNL     1      -7.666   4.324 -31.118  1.00  0.00     0.009 C 
HETATM   18  C   UNL     1      -7.231   5.747 -30.744  1.00  0.00     0.012 C 
HETATM   19  C   UNL     1      -9.125   4.358 -31.590  1.00  0.00     0.012 C 
ENDBRANCH   5  17
ENDBRANCH   1   5
BRANCH   2  20
HETATM   20  C   UNL     1      -4.999   0.398 -32.964  1.00  0.00     0.035 A 
HETATM   21  C   UNL     1      -5.545  -0.724 -33.597  1.00  0.00     0.042 A 
HETATM   22  C   UNL     1      -4.908  -1.977 -33.542  1.00  0.00    -0.021 A 
HETATM   23  C   UNL     1      -3.716  -2.086 -32.813  1.00  0.00     0.012 A 
HETATM   24  C   UNL     1      -3.162  -0.973 -32.178  1.00  0.00     0.003 A 
HETATM   25  C   UNL     1      -3.798   0.265 -32.264  1.00  0.00     0.029 A 
BRANCH  22  26
HETATM   26  C   UNL     1      -5.486  -3.124 -34.237  1.00  0.00     0.010 A 
HETATM   27  C   UNL     1      -4.950  -4.408 -34.513  1.00  0.00     0.152 A 
HETATM   28  N   UNL     1      -5.803  -5.203 -35.166  1.00  0.00    -0.187 NA
HETATM   29  N   UNL     1      -6.893  -4.437 -35.309  1.00  0.00    -0.289 N 
HETATM   30  H   UNL     1      -7.700  -4.833 -35.780  1.00  0.00     0.188 HD
HETATM   31  C   UNL     1      -6.756  -3.189 -34.773  1.00  0.00     0.123 A 
ENDBRANCH  22  26
ENDBRANCH   2  20
TORSDOF 6
ENDMDL
MODEL 7
REMARK VINA RESULT:      -8.3      2.996      4.556
REMARK  6 active torsions:
REMARK  status: ('A' for Active; 'I' for Inactive)
REMARK    1  A    between atoms: C_3  and  C_4 
REMARK       I    between atoms: C_4  and  N_5 
REMARK    2  A    between atoms: N_5  and  C_6 
REMARK    3  A    between atoms: C_6  and  C_7 
REMARK    4  A    between atoms: C_6  and  C_22 
REMARK       I    between atoms: C_7  and  N_8 
REMARK    5  A    between atoms: N_8  and  C_9 
REMARK    6  A    between atoms: C_11  and  C_12 
ROOT
HETATM    1  C   UNL     1      -7.202   2.764 -31.875  1.00  0.00     0.245 C 
HETATM    2  N   UNL     1      -6.427   2.315 -32.926  1.00  0.00    -0.325 N 
HETATM    3  O   UNL     1      -8.136   2.156 -31.353  1.00  0.00    -0.271 OA
HETATM    4  H   UNL     1      -5.811   3.017 -33.344  1.00  0.00     0.169 HD
ENDROOT
BRANCH   1   5
HETATM    5  C   UNL     1      -6.775   4.152 -31.324  1.00  0.00     0.180 C 
BRANCH   5   6
HETATM    6  N   UNL     1      -5.457   4.546 -31.829  1.00  0.00    -0.343 N 
HETATM    7  C   UNL     1      -5.233   5.626 -32.651  1.00  0.00     0.252 C 
HETATM    8  O   UNL     1      -6.123   6.396 -32.996  1.00  0.00    -0.268 OA
HETATM    9  H   UNL     1      -4.721   3.857 -31.746  1.00  0.00     0.163 HD
BRANCH   7  10
HETATM   10  C   UNL     1      -3.846   5.788 -33.171  1.00  0.00     0.037 A 
HETATM   11  C   UNL     1      -2.825   6.502 -32.508  1.00  0.00    -0.046 A 
HETATM   12  C   UNL     1      -3.032   7.247 -31.217  1.00  0.00     0.049 C 
HETATM   13  C   UNL     1      -1.541   6.526 -33.083  1.00  0.00     0.007 A 
HETATM   14  C   UNL     1      -1.288   5.904 -34.306  1.00  0.00     0.001 A 
HETATM   15  C   UNL     1      -2.311   5.244 -34.978  1.00  0.00     0.001 A 
HETATM   16  C   UNL     1      -3.584   5.186 -34.413  1.00  0.00     0.017 A 
ENDBRANCH   7  10
ENDBRANCH   5   6
BRANCH   5  17
HETATM   17  C   UNL     1      -6.925   4.285 -29.787  1.00  0.00     0.009 C 
HETATM   18  C   UNL     1      -5.640   4.832 -29.153  1.00  0.00     0.012 C 
HETATM   19  C   UNL     1      -8.094   5.207 -29.415  1.00  0.00     0.012 C 
ENDBRANCH   5  17
ENDBRANCH   1   5
BRANCH   2  20
HETATM   20  C   UNL     1      -6.407   1.038 -33.517  1.00  0.00     0.035 A 
HETATM   21  C   UNL     1      -5.515   0.021 -33.158  1.00  0.00     0.042 A 
HETATM   22  C   UNL     1      -5.526  -1.225 -33.810  1.00  0.00    -0.021 A 
HETATM   23  C   UNL     1      -6.442  -1.423 -34.853  1.00  0.00     0.012 A 
HETATM   24  C   UNL     1      -7.337  -0.416 -35.218  1.00  0.00     0.003 A 
HETATM   25  C   UNL     1      -7.325   0.804 -34.544  1.00  0.00     0.029 A 
BRANCH  22  26
HETATM   26  C   UNL     1      -4.602  -2.277 -33.394  1.00  0.00     0.010 A 
HETATM   27  C   UNL     1      -4.330  -3.549 -33.960  1.00  0.00     0.152 A 
HETATM   28  N   UNL     1      -3.392  -4.230 -33.294  1.00  0.00    -0.187 NA
HETATM   29  N   UNL     1      -3.053  -3.398 -32.300  1.00  0.00    -0.289 N 
HETATM   30  H   UNL     1      -2.336  -3.696 -31.647  1.00  0.00     0.188 HD
HETATM   31  C   UNL     1      -3.745  -2.221 -32.314  1.00  0.00     0.123 A 
ENDBRANCH  22  26
ENDBRANCH   2  20
TORSDOF 6
ENDMDL
MODEL 8
REMARK VINA RESULT:      -8.3      3.180      9.367
REMARK  6 active torsions:
REMARK  status: ('A' for Active; 'I' for Inactive)
REMARK    1  A    between atoms: C_3  and  C_4 
REMARK       I    between atoms: C_4  and  N_5 
REMARK    2  A    between atoms: N_5  and  C_6 
REMARK    3  A    between atoms: C_6  and  C_7 
REMARK    4  A    between atoms: C_6  and  C_22 
REMARK       I    between atoms: C_7  and  N_8 
REMARK    5  A    between atoms: N_8  and  C_9 
REMARK    6  A    between atoms: C_11  and  C_12 
ROOT
HETATM    1  C   UNL     1      -6.783   3.270 -32.980  1.00  0.00     0.245 C 
HETATM    2  N   UNL     1      -5.683   3.309 -32.147  1.00  0.00    -0.325 N 
HETATM    3  O   UNL     1      -7.019   4.045 -33.906  1.00  0.00    -0.271 OA
HETATM    4  H   UNL     1      -5.734   2.700 -31.327  1.00  0.00     0.169 HD
ENDROOT
BRANCH   1   5
HETATM    5  C   UNL     1      -7.752   2.091 -32.689  1.00  0.00     0.180 C 
BRANCH   5   6
HETATM    6  N   UNL     1      -7.288   0.850 -33.316  1.00  0.00    -0.343 N 
HETATM    7  C   UNL     1      -6.717  -0.198 -32.631  1.00  0.00     0.252 C 
HETATM    8  O   UNL     1      -6.592  -0.207 -31.412  1.00  0.00    -0.268 OA
HETATM    9  H   UNL     1      -7.183   0.868 -34.321  1.00  0.00     0.163 HD
BRANCH   7  10
HETATM   10  C   UNL     1      -6.183  -1.318 -33.457  1.00  0.00     0.037 A 
HETATM   11  C   UNL     1      -4.810  -1.563 -33.673  1.00  0.00    -0.046 A 
HETATM   12  C   UNL     1      -3.712  -0.681 -33.146  1.00  0.00     0.049 C 
HETATM   13  C   UNL     1      -4.442  -2.693 -34.427  1.00  0.00     0.007 A 
HETATM   14  C   UNL     1      -5.406  -3.526 -34.995  1.00  0.00     0.001 A 
HETATM   15  C   UNL     1      -6.757  -3.250 -34.819  1.00  0.00     0.001 A 
HETATM   16  C   UNL     1      -7.144  -2.151 -34.054  1.00  0.00     0.017 A 
ENDBRANCH   7  10
ENDBRANCH   5   6
BRANCH   5  17
HETATM   17  C   UNL     1      -9.239   2.421 -32.975  1.00  0.00     0.009 C 
HETATM   18  C   UNL     1     -10.049   1.143 -33.230  1.00  0.00     0.012 C 
HETATM   19  C   UNL     1      -9.877   3.190 -31.811  1.00  0.00     0.012 C 
ENDBRANCH   5  17
ENDBRANCH   1   5
BRANCH   2  20
HETATM   20  C   UNL     1      -4.528   4.106 -32.261  1.00  0.00     0.035 A 
HETATM   21  C   UNL     1      -4.465   5.454 -31.891  1.00  0.00     0.042 A 
HETATM   22  C   UNL     1      -3.287   6.205 -32.060  1.00  0.00    -0.021 A 
HETATM   23  C   UNL     1      -2.174   5.576 -32.634  1.00  0.00     0.012 A 
HETATM   24  C   UNL     1      -2.225   4.232 -33.005  1.00  0.00     0.003 A 
HETATM   25  C   UNL     1      -3.395   3.499 -32.809  1.00  0.00     0.029 A 
BRANCH  22  26
HETATM   26  C   UNL     1      -3.243   7.602 -31.638  1.00  0.00     0.010 A 
HETATM   27  C   UNL     1      -2.188   8.551 -31.679  1.00  0.00     0.152 A 
HETATM   28  N   UNL     1      -2.544   9.751 -31.210  1.00  0.00    -0.187 NA
HETATM   29  N   UNL     1      -3.829   9.582 -30.872  1.00  0.00    -0.289 N 
HETATM   30  H   UNL     1      -4.333  10.376 -30.488  1.00  0.00     0.188 HD
HETATM   31  C   UNL     1      -4.295   8.321 -31.106  1.00  0.00     0.123 A 
ENDBRANCH  22  26
ENDBRANCH   2  20
TORSDOF 6
ENDMDL
MODEL 9
REMARK VINA RESULT:      -8.3     17.346     18.757
REMARK  6 active torsions:
REMARK  status: ('A' for Active; 'I' for Inactive)
REMARK    1  A    between atoms: C_3  and  C_4 
REMARK       I    between atoms: C_4  and  N_5 
REMARK    2  A    between atoms: N_5  and  C_6 
REMARK    3  A    between atoms: C_6  and  C_7 
REMARK    4  A    between atoms: C_6  and  C_22 
REMARK       I    between atoms: C_7  and  N_8 
REMARK    5  A    between atoms: N_8  and  C_9 
REMARK    6  A    between atoms: C_11  and  C_12 
ROOT
HETATM    1  C   UNL     1      -5.501 -14.093 -36.339  1.00  0.00     0.245 C 
HETATM    2  N   UNL     1      -5.640 -12.892 -37.005  1.00  0.00    -0.325 N 
HETATM    3  O   UNL     1      -5.979 -15.173 -36.685  1.00  0.00    -0.271 OA
HETATM    4  H   UNL     1      -5.325 -12.068 -36.488  1.00  0.00     0.169 HD
ENDROOT
BRANCH   1   5
HETATM    5  C   UNL     1      -4.616 -14.009 -35.066  1.00  0.00     0.180 C 
BRANCH   5   6
HETATM    6  N   UNL     1      -3.263 -14.514 -35.319  1.00  0.00    -0.343 N 
HETATM    7  C   UNL     1      -2.410 -14.001 -36.267  1.00  0.00     0.252 C 
HETATM    8  O   UNL     1      -2.690 -13.028 -36.958  1.00  0.00    -0.268 OA
HETATM    9  H   UNL     1      -3.044 -15.421 -34.929  1.00  0.00     0.163 HD
BRANCH   7  10
HETATM   10  C   UNL     1      -1.128 -14.734 -36.472  1.00  0.00     0.037 A 
HETATM   11  C   UNL     1      -0.426 -14.782 -37.695  1.00  0.00    -0.046 A 
HETATM   12  C   UNL     1      -0.922 -14.151 -38.968  1.00  0.00     0.049 C 
HETATM   13  C   UNL     1       0.805 -15.463 -37.735  1.00  0.00     0.007 A 
HETATM   14  C   UNL     1       1.302 -16.120 -36.609  1.00  0.00     0.001 A 
HETATM   15  C   UNL     1       0.580 -16.109 -35.420  1.00  0.00     0.001 A 
HETATM   16  C   UNL     1      -0.629 -15.419 -35.352  1.00  0.00     0.017 A 
ENDBRANCH   7  10
ENDBRANCH   5   6
BRANCH   5  17
HETATM   17  C   UNL     1      -5.284 -14.609 -33.802  1.00  0.00     0.009 C 
HETATM   18  C   UNL     1      -4.400 -15.694 -33.173  1.00  0.00     0.012 C 
HETATM   19  C   UNL     1      -5.568 -13.528 -32.751  1.00  0.00     0.012 C 
ENDBRANCH   5  17
ENDBRANCH   1   5
BRANCH   2  20
HETATM   20  C   UNL     1      -6.193 -12.656 -38.278  1.00  0.00     0.035 A 
HETATM   21  C   UNL     1      -7.549 -12.813 -38.585  1.00  0.00     0.042 A 
HETATM   22  C   UNL     1      -8.034 -12.592 -39.887  1.00  0.00    -0.021 A 
HETATM   23  C   UNL     1      -7.120 -12.231 -40.886  1.00  0.00     0.012 A 
HETATM   24  C   UNL     1      -5.765 -12.070 -40.590  1.00  0.00     0.003 A 
HETATM   25  C   UNL     1      -5.308 -12.272 -39.289  1.00  0.00     0.029 A 
BRANCH  22  26
HETATM   26  C   UNL     1      -9.460 -12.735 -40.171  1.00  0.00     0.010 A 
HETATM   27  C   UNL     1     -10.281 -13.890 -40.237  1.00  0.00     0.152 A 
HETATM   28  N   UNL     1     -11.559 -13.611 -40.510  1.00  0.00    -0.187 NA
HETATM   29  N   UNL     1     -11.568 -12.275 -40.616  1.00  0.00    -0.289 N 
HETATM   30  H   UNL     1     -12.449 -11.815 -40.818  1.00  0.00     0.188 HD
HETATM   31  C   UNL     1     -10.342 -11.704 -40.423  1.00  0.00     0.123 A 
ENDBRANCH  22  26
ENDBRANCH   2  20
TORSDOF 6
ENDMDL
MODEL 10
REMARK VINA RESULT:      -8.1      2.213      3.253
REMARK  6 active torsions:
REMARK  status: ('A' for Active; 'I' for Inactive)
REMARK    1  A    between atoms: C_3  and  C_4 
REMARK       I    between atoms: C_4  and  N_5 
REMARK    2  A    between atoms: N_5  and  C_6 
REMARK    3  A    between atoms: C_6  and  C_7 
REMARK    4  A    between atoms: C_6  and  C_22 
REMARK       I    between atoms: C_7  and  N_8 
REMARK    5  A    between atoms: N_8  and  C_9 
REMARK    6  A    between atoms: C_11  and  C_12 
ROOT
HETATM    1  C   UNL     1      -5.535   3.631 -32.847  1.00  0.00     0.245 C 
HETATM    2  N   UNL     1      -5.969   2.370 -32.488  1.00  0.00    -0.325 N 
HETATM    3  O   UNL     1      -5.149   3.974 -33.964  1.00  0.00    -0.271 OA
HETATM    4  H   UNL     1      -6.087   2.220 -31.484  1.00  0.00     0.169 HD
ENDROOT
BRANCH   1   5
HETATM    5  C   UNL     1      -5.603   4.672 -31.697  1.00  0.00     0.180 C 
BRANCH   5   6
HETATM    6  N   UNL     1      -4.264   5.067 -31.252  1.00  0.00    -0.343 N 
HETATM    7  C   UNL     1      -3.668   6.269 -31.559  1.00  0.00     0.252 C 
HETATM    8  O   UNL     1      -4.234   7.149 -32.198  1.00  0.00    -0.268 OA
HETATM    9  H   UNL     1      -3.675   4.328 -30.893  1.00  0.00     0.163 HD
BRANCH   7  10
HETATM   10  C   UNL     1      -2.250   6.434 -31.131  1.00  0.00     0.037 A 
HETATM   11  C   UNL     1      -1.136   6.014 -31.889  1.00  0.00    -0.046 A 
HETATM   12  C   UNL     1      -1.247   5.285 -33.200  1.00  0.00     0.049 C 
HETATM   13  C   UNL     1       0.152   6.286 -31.394  1.00  0.00     0.007 A 
HETATM   14  C   UNL     1       0.333   6.909 -30.159  1.00  0.00     0.001 A 
HETATM   15  C   UNL     1      -0.769   7.276 -29.395  1.00  0.00     0.001 A 
HETATM   16  C   UNL     1      -2.055   7.040 -29.879  1.00  0.00     0.017 A 
ENDBRANCH   7  10
ENDBRANCH   5   6
BRANCH   5  17
HETATM   17  C   UNL     1      -6.554   4.264 -30.542  1.00  0.00     0.009 C 
HETATM   18  C   UNL     1      -6.021   4.753 -29.190  1.00  0.00     0.012 C 
HETATM   19  C   UNL     1      -7.966   4.825 -30.753  1.00  0.00     0.012 C 
ENDBRANCH   5  17
ENDBRANCH   1   5
BRANCH   2  20
HETATM   20  C   UNL     1      -6.227   1.264 -33.320  1.00  0.00     0.035 A 
HETATM   21  C   UNL     1      -5.534   0.051 -33.249  1.00  0.00     0.042 A 
HETATM   22  C   UNL     1      -5.819  -1.007 -34.132  1.00  0.00    -0.021 A 
HETATM   23  C   UNL     1      -6.804  -0.811 -35.110  1.00  0.00     0.012 A 
HETATM   24  C   UNL     1      -7.502   0.395 -35.188  1.00  0.00     0.003 A 
HETATM   25  C   UNL     1      -7.221   1.423 -34.289  1.00  0.00     0.029 A 
BRANCH  22  26
HETATM   26  C   UNL     1      -5.099  -2.272 -34.016  1.00  0.00     0.010 A 
HETATM   27  C   UNL     1      -5.298  -3.516 -34.668  1.00  0.00     0.152 A 
HETATM   28  N   UNL     1      -4.411  -4.447 -34.304  1.00  0.00    -0.187 NA
HETATM   29  N   UNL     1      -3.633  -3.805 -33.422  1.00  0.00    -0.289 N 
HETATM   30  H   UNL     1      -2.863  -4.315 -33.001  1.00  0.00     0.188 HD
HETATM   31  C   UNL     1      -4.000  -2.507 -33.214  1.00  0.00     0.123 A 
ENDBRANCH  22  26
ENDBRANCH   2  20
TORSDOF 6
ENDMDL
