MODEL 1
REMARK VINA RESULT:      -8.8      0.000      0.000
REMARK  11 active torsions:
REMARK  status: ('A' for Active; 'I' for Inactive)
REMARK    1  A    between atoms: C_2  and  O_3 
REMARK    2  A    between atoms: O_3  and  C_4 
REMARK    3  A    between atoms: C_5  and  N_6 
REMARK       I    between atoms: N_6  and  C_7 
REMARK    4  A    between atoms: C_7  and  C_8 
REMARK    5  A    between atoms: C_9  and  C_10 
REMARK    6  A    between atoms: C_10  and  N_11 
REMARK    7  A    between atoms: C_24  and  N_25 
REMARK    8  A    between atoms: N_25  and  C_26 
REMARK    9  A    between atoms: C_30  and  O_31 
REMARK   10  A    between atoms: O_31  and  C_32 
REMARK   11  A    between atoms: C_32  and  C_33 
ROOT
HETATM    1  C   UNL     1     -10.623   6.492 -34.660  1.00  0.00     0.097 A 
HETATM    2  C   UNL     1      -9.763   5.926 -33.715  1.00  0.00     0.069 A 
HETATM    3  C   UNL     1      -9.994   4.615 -33.280  1.00  0.00     0.048 A 
HETATM    4  C   UNL     1     -11.032   3.805 -33.797  1.00  0.00     0.023 A 
HETATM    5  C   UNL     1     -11.884   4.399 -34.757  1.00  0.00     0.071 A 
HETATM    6  N   UNL     1     -12.909   3.752 -35.325  1.00  0.00    -0.259 NA
HETATM    7  C   UNL     1     -13.137   2.473 -34.966  1.00  0.00     0.142 A 
HETATM    8  C   UNL     1     -12.388   1.793 -34.025  1.00  0.00     0.089 A 
HETATM    9  C   UNL     1     -12.741   0.443 -33.717  1.00  0.00     0.103 C 
HETATM   10  N   UNL     1     -13.022  -0.645 -33.429  1.00  0.00    -0.191 NA
HETATM   11  C   UNL     1     -11.314   2.459 -33.397  1.00  0.00     0.067 A 
HETATM   12  C   UNL     1     -11.683   5.718 -35.144  1.00  0.00     0.071 A 
ENDROOT
BRANCH  11  13
HETATM   13  N   UNL     1     -10.572   1.762 -32.405  1.00  0.00    -0.354 N 
HETATM   14  H   UNL     1     -11.085   1.615 -31.534  1.00  0.00     0.166 HD
BRANCH  13  15
HETATM   15  C   UNL     1      -9.361   1.044 -32.404  1.00  0.00     0.034 A 
HETATM   16  C   UNL     1      -8.449   1.304 -31.368  1.00  0.00     0.056 A 
HETATM   17  C   UNL     1      -7.188   0.705 -31.348  1.00  0.00     0.069 A 
HETATM   18 CL   UNL     1      -6.120   1.081 -30.047  1.00  0.00    -0.081 Cl
HETATM   19  C   UNL     1      -6.810  -0.152 -32.382  1.00  0.00     0.091 A 
HETATM   20  C   UNL     1      -7.718  -0.451 -33.400  1.00  0.00     0.041 A 
HETATM   21  C   UNL     1      -8.984   0.151 -33.412  1.00  0.00     0.032 A 
BRANCH  19  22
HETATM   22  O   UNL     1      -5.582  -0.755 -32.342  1.00  0.00    -0.344 OA
BRANCH  22  23
HETATM   23  C   UNL     1      -5.047  -1.032 -33.646  1.00  0.00     0.235 C 
BRANCH  23  24
HETATM   24  C   UNL     1      -4.985  -2.519 -33.938  1.00  0.00     0.058 A 
HETATM   25  N   UNL     1      -3.889  -3.181 -33.474  1.00  0.00    -0.263 NA
HETATM   26  C   UNL     1      -3.786  -4.497 -33.769  1.00  0.00     0.117 A 
HETATM   27  C   UNL     1      -4.726  -5.203 -34.498  1.00  0.00     0.019 A 
HETATM   28  C   UNL     1      -5.839  -4.517 -34.964  1.00  0.00     0.003 A 
HETATM   29  C   UNL     1      -5.968  -3.158 -34.692  1.00  0.00     0.029 A 
ENDBRANCH  23  24
ENDBRANCH  22  23
ENDBRANCH  19  22
ENDBRANCH  13  15
ENDBRANCH  11  13
BRANCH   2  30
HETATM   30  N   UNL     1      -8.564   6.514 -33.257  1.00  0.00    -0.321 N 
HETATM   31  C   UNL     1      -7.581   5.972 -32.484  1.00  0.00     0.245 C 
HETATM   32  O   UNL     1      -7.000   6.633 -31.626  1.00  0.00    -0.268 OA
HETATM   33  H   UNL     1      -8.608   7.525 -33.174  1.00  0.00     0.169 HD
BRANCH  31  34
HETATM   34  C   UNL     1      -7.014   4.682 -32.969  1.00  0.00     0.072 C 
HETATM   35  C   UNL     1      -5.881   4.240 -32.398  1.00  0.00     0.006 C 
BRANCH  35  36
HETATM   36  C   UNL     1      -5.008   3.171 -32.955  1.00  0.00     0.261 C 
BRANCH  36  37
HETATM   37  N   UNL     1      -3.561   3.618 -32.944  1.00  0.00    -0.076 N 
HETATM   38  H   UNL     1      -3.043   2.922 -33.497  1.00  0.00     0.279 HD
HETATM   39  C   UNL     1      -3.349   4.945 -33.622  1.00  0.00     0.269 C 
HETATM   40  C   UNL     1      -2.960   3.601 -31.571  1.00  0.00     0.269 C 
ENDBRANCH  36  37
ENDBRANCH  35  36
ENDBRANCH  31  34
ENDBRANCH   2  30
BRANCH   1  41
HETATM   41  O   UNL     1     -10.368   7.764 -35.098  1.00  0.00    -0.349 OA
BRANCH  41  42
HETATM   42  C   UNL     1     -11.234   8.263 -36.123  1.00  0.00     0.171 C 
HETATM   43  C   UNL     1     -10.393   8.545 -37.354  1.00  0.00     0.034 C 
ENDBRANCH  41  42
ENDBRANCH   1  41
TORSDOF 11
ENDMDL
MODEL 2
REMARK VINA RESULT:      -8.7      3.124      7.666
REMARK  11 active torsions:
REMARK  status: ('A' for Active; 'I' for Inactive)
REMARK    1  A    between atoms: C_2  and  O_3 
REMARK    2  A    between atoms: O_3  and  C_4 
REMARK    3  A    between atoms: C_5  and  N_6 
REMARK       I    between atoms: N_6  and  C_7 
REMARK    4  A    between atoms: C_7  and  C_8 
REMARK    5  A    between atoms: C_9  and  C_10 
REMARK    6  A    between atoms: C_10  and  N_11 
REMARK    7  A    between atoms: C_24  and  N_25 
REMARK    8  A    between atoms: N_25  and  C_26 
REMARK    9  A    between atoms: C_30  and  O_31 
REMARK   10  A    between atoms: O_31  and  C_32 
REMARK   11  A    between atoms: C_32  and  C_33 
ROOT
HETATM    1  C   UNL     1      -6.684  -0.891 -33.345  1.00  0.00     0.097 A 
HETATM    2  C   UNL     1      -6.133  -0.212 -32.256  1.00  0.00     0.069 A 
HETATM    3  C   UNL     1      -6.827   0.872 -31.704  1.00  0.00     0.048 A 
HETATM    4  C   UNL     1      -8.101   1.282 -32.163  1.00  0.00     0.023 A 
HETATM    5  C   UNL     1      -8.640   0.574 -33.262  1.00  0.00     0.071 A 
HETATM    6  N   UNL     1      -9.830   0.858 -33.802  1.00  0.00    -0.259 NA
HETATM    7  C   UNL     1     -10.551   1.866 -33.271  1.00  0.00     0.142 A 
HETATM    8  C   UNL     1     -10.122   2.643 -32.212  1.00  0.00     0.089 A 
HETATM    9  C   UNL     1     -10.970   3.696 -31.749  1.00  0.00     0.103 C 
HETATM   10  N   UNL     1     -11.628   4.573 -31.372  1.00  0.00    -0.191 NA
HETATM   11  C   UNL     1      -8.861   2.377 -31.638  1.00  0.00     0.067 A 
HETATM   12  C   UNL     1      -7.921  -0.465 -33.840  1.00  0.00     0.071 A 
ENDROOT
BRANCH  11  13
HETATM   13  N   UNL     1      -8.414   3.204 -30.572  1.00  0.00    -0.354 N 
HETATM   14  H   UNL     1      -8.777   2.929 -29.658  1.00  0.00     0.166 HD
BRANCH  13  15
HETATM   15  C   UNL     1      -7.425   4.198 -30.444  1.00  0.00     0.034 A 
HETATM   16  C   UNL     1      -7.620   5.406 -31.132  1.00  0.00     0.056 A 
HETATM   17  C   UNL     1      -6.642   6.403 -31.133  1.00  0.00     0.069 A 
HETATM   18 CL   UNL     1      -6.951   7.856 -32.010  1.00  0.00    -0.081 Cl
HETATM   19  C   UNL     1      -5.438   6.196 -30.460  1.00  0.00     0.091 A 
HETATM   20  C   UNL     1      -5.243   5.017 -29.739  1.00  0.00     0.041 A 
HETATM   21  C   UNL     1      -6.230   4.021 -29.738  1.00  0.00     0.032 A 
BRANCH  19  22
HETATM   22  O   UNL     1      -4.496   7.188 -30.444  1.00  0.00    -0.344 OA
BRANCH  22  23
HETATM   23  C   UNL     1      -3.469   6.975 -29.464  1.00  0.00     0.235 C 
BRANCH  23  24
HETATM   24  C   UNL     1      -2.081   6.975 -30.075  1.00  0.00     0.058 A 
HETATM   25  N   UNL     1      -2.017   6.839 -31.429  1.00  0.00    -0.263 NA
HETATM   26  C   UNL     1      -0.788   6.784 -31.991  1.00  0.00     0.117 A 
HETATM   27  C   UNL     1       0.394   6.866 -31.277  1.00  0.00     0.019 A 
HETATM   28  C   UNL     1       0.316   7.006 -29.899  1.00  0.00     0.003 A 
HETATM   29  C   UNL     1      -0.934   7.050 -29.287  1.00  0.00     0.029 A 
ENDBRANCH  23  24
ENDBRANCH  22  23
ENDBRANCH  19  22
ENDBRANCH  13  15
ENDBRANCH  11  13
BRANCH   2  30
HETATM   30  N   UNL     1      -4.983  -0.619 -31.545  1.00  0.00    -0.321 N 
HETATM   31  C   UNL     1      -3.723  -0.100 -31.577  1.00  0.00     0.245 C 
HETATM   32  O   UNL     1      -2.729  -0.820 -31.518  1.00  0.00    -0.268 OA
HETATM   33  H   UNL     1      -4.991  -1.599 -31.278  1.00  0.00     0.169 HD
BRANCH  31  34
HETATM   34  C   UNL     1      -3.622   1.365 -31.325  1.00  0.00     0.072 C 
HETATM   35  C   UNL     1      -3.396   2.169 -32.378  1.00  0.00     0.006 C 
BRANCH  35  36
HETATM   36  C   UNL     1      -2.950   3.586 -32.288  1.00  0.00     0.261 C 
BRANCH  36  37
HETATM   37  N   UNL     1      -3.867   4.476 -33.100  1.00  0.00    -0.076 N 
HETATM   38  H   UNL     1      -4.106   5.271 -32.491  1.00  0.00     0.279 HD
HETATM   39  C   UNL     1      -3.201   5.056 -34.318  1.00  0.00     0.269 C 
HETATM   40  C   UNL     1      -5.163   3.806 -33.450  1.00  0.00     0.269 C 
ENDBRANCH  36  37
ENDBRANCH  35  36
ENDBRANCH  31  34
ENDBRANCH   2  30
BRANCH   1  41
HETATM   41  O   UNL     1      -6.008  -1.967 -33.856  1.00  0.00    -0.349 OA
BRANCH  41  42
HETATM   42  C   UNL     1      -6.786  -2.898 -34.617  1.00  0.00     0.171 C 
HETATM   43  C   UNL     1      -5.904  -4.088 -34.948  1.00  0.00     0.034 C 
ENDBRANCH  41  42
ENDBRANCH   1  41
TORSDOF 11
ENDMDL
MODEL 3
REMARK VINA RESULT:      -8.6      3.757      7.819
REMARK  11 active torsions:
REMARK  status: ('A' for Active; 'I' for Inactive)
REMARK    1  A    between atoms: C_2  and  O_3 
REMARK    2  A    between atoms: O_3  and  C_4 
REMARK    3  A    between atoms: C_5  and  N_6 
REMARK       I    between atoms: N_6  and  C_7 
REMARK    4  A    between atoms: C_7  and  C_8 
REMARK    5  A    between atoms: C_9  and  C_10 
REMARK    6  A    between atoms: C_10  and  N_11 
REMARK    7  A    between atoms: C_24  and  N_25 
REMARK    8  A    between atoms: N_25  and  C_26 
REMARK    9  A    between atoms: C_30  and  O_31 
REMARK   10  A    between atoms: O_31  and  C_32 
REMARK   11  A    between atoms: C_32  and  C_33 
ROOT
HETATM    1  C   UNL     1      -2.751   7.866 -28.248  1.00  0.00     0.097 A 
HETATM    2  C   UNL     1      -3.925   7.239 -28.671  1.00  0.00     0.069 A 
HETATM    3  C   UNL     1      -3.970   6.659 -29.945  1.00  0.00     0.048 A 
HETATM    4  C   UNL     1      -2.853   6.626 -30.813  1.00  0.00     0.023 A 
HETATM    5  C   UNL     1      -1.675   7.261 -30.359  1.00  0.00     0.071 A 
HETATM    6  N   UNL     1      -0.547   7.312 -31.078  1.00  0.00    -0.259 NA
HETATM    7  C   UNL     1      -0.535   6.725 -32.292  1.00  0.00     0.142 A 
HETATM    8  C   UNL     1      -1.629   6.093 -32.852  1.00  0.00     0.089 A 
HETATM    9  C   UNL     1      -1.495   5.524 -34.156  1.00  0.00     0.103 C 
HETATM   10  N   UNL     1      -1.422   5.078 -35.224  1.00  0.00    -0.191 NA
HETATM   11  C   UNL     1      -2.835   6.044 -32.122  1.00  0.00     0.067 A 
HETATM   12  C   UNL     1      -1.654   7.883 -29.117  1.00  0.00     0.071 A 
ENDROOT
BRANCH  11  13
HETATM   13  N   UNL     1      -3.964   5.422 -32.721  1.00  0.00    -0.354 N 
HETATM   14  H   UNL     1      -4.434   6.004 -33.416  1.00  0.00     0.166 HD
BRANCH  13  15
HETATM   15  C   UNL     1      -4.476   4.111 -32.733  1.00  0.00     0.034 A 
HETATM   16  C   UNL     1      -3.763   3.125 -32.033  1.00  0.00     0.056 A 
HETATM   17  C   UNL     1      -4.153   1.784 -32.075  1.00  0.00     0.069 A 
HETATM   18 CL   UNL     1      -3.220   0.630 -31.195  1.00  0.00    -0.081 Cl
HETATM   19  C   UNL     1      -5.254   1.405 -32.841  1.00  0.00     0.091 A 
HETATM   20  C   UNL     1      -5.998   2.377 -33.513  1.00  0.00     0.041 A 
HETATM   21  C   UNL     1      -5.604   3.722 -33.463  1.00  0.00     0.032 A 
BRANCH  19  22
HETATM   22  O   UNL     1      -5.645   0.093 -32.856  1.00  0.00    -0.344 OA
BRANCH  22  23
HETATM   23  C   UNL     1      -5.985  -0.379 -34.169  1.00  0.00     0.235 C 
BRANCH  23  24
HETATM   24  C   UNL     1      -5.812  -1.879 -34.304  1.00  0.00     0.058 A 
HETATM   25  N   UNL     1      -4.549  -2.360 -34.136  1.00  0.00    -0.263 NA
HETATM   26  C   UNL     1      -4.362  -3.689 -34.304  1.00  0.00     0.117 A 
HETATM   27  C   UNL     1      -5.371  -4.579 -34.623  1.00  0.00     0.019 A 
HETATM   28  C   UNL     1      -6.654  -4.077 -34.790  1.00  0.00     0.003 A 
HETATM   29  C   UNL     1      -6.879  -2.711 -34.641  1.00  0.00     0.029 A 
ENDBRANCH  23  24
ENDBRANCH  22  23
ENDBRANCH  19  22
ENDBRANCH  13  15
ENDBRANCH  11  13
BRANCH   2  30
HETATM   30  N   UNL     1      -5.053   6.997 -27.856  1.00  0.00    -0.321 N 
HETATM   31  C   UNL     1      -6.225   6.378 -28.171  1.00  0.00     0.245 C 
HETATM   32  O   UNL     1      -7.301   6.773 -27.728  1.00  0.00    -0.268 OA
HETATM   33  H   UNL     1      -5.158   7.660 -27.094  1.00  0.00     0.169 HD
BRANCH  31  34
HETATM   34  C   UNL     1      -6.097   5.018 -28.768  1.00  0.00     0.072 C 
HETATM   35  C   UNL     1      -7.027   4.634 -29.659  1.00  0.00     0.006 C 
BRANCH  35  36
HETATM   36  C   UNL     1      -7.250   3.232 -30.106  1.00  0.00     0.261 C 
BRANCH  36  37
HETATM   37  N   UNL     1      -8.479   3.153 -30.988  1.00  0.00    -0.076 N 
HETATM   38  H   UNL     1      -8.240   3.650 -31.856  1.00  0.00     0.279 HD
HETATM   39  C   UNL     1      -8.832   1.745 -31.384  1.00  0.00     0.269 C 
HETATM   40  C   UNL     1      -9.659   3.869 -30.401  1.00  0.00     0.269 C 
ENDBRANCH  36  37
ENDBRANCH  35  36
ENDBRANCH  31  34
ENDBRANCH   2  30
BRANCH   1  41
HETATM   41  O   UNL     1      -2.712   8.404 -26.989  1.00  0.00    -0.349 OA
BRANCH  41  42
HETATM   42  C   UNL     1      -2.029   7.632 -25.995  1.00  0.00     0.171 C 
HETATM   43  C   UNL     1      -2.717   7.867 -24.662  1.00  0.00     0.034 C 
ENDBRANCH  41  42
ENDBRANCH   1  41
TORSDOF 11
ENDMDL
MODEL 4
REMARK VINA RESULT:      -8.6      3.202      7.213
REMARK  11 active torsions:
REMARK  status: ('A' for Active; 'I' for Inactive)
REMARK    1  A    between atoms: C_2  and  O_3 
REMARK    2  A    between atoms: O_3  and  C_4 
REMARK    3  A    between atoms: C_5  and  N_6 
REMARK       I    between atoms: N_6  and  C_7 
REMARK    4  A    between atoms: C_7  and  C_8 
REMARK    5  A    between atoms: C_9  and  C_10 
REMARK    6  A    between atoms: C_10  and  N_11 
REMARK    7  A    between atoms: C_24  and  N_25 
REMARK    8  A    between atoms: N_25  and  C_26 
REMARK    9  A    between atoms: C_30  and  O_31 
REMARK   10  A    between atoms: O_31  and  C_32 
REMARK   11  A    between atoms: C_32  and  C_33 
ROOT
HETATM    1  C   UNL     1     -10.919   1.974 -33.633  1.00  0.00     0.097 A 
HETATM    2  C   UNL     1      -9.650   1.957 -34.217  1.00  0.00     0.069 A 
HETATM    3  C   UNL     1      -8.808   3.064 -34.056  1.00  0.00     0.048 A 
HETATM    4  C   UNL     1      -9.161   4.189 -33.273  1.00  0.00     0.023 A 
HETATM    5  C   UNL     1     -10.447   4.179 -32.686  1.00  0.00     0.071 A 
HETATM    6  N   UNL     1     -10.913   5.178 -31.928  1.00  0.00    -0.259 NA
HETATM    7  C   UNL     1     -10.115   6.242 -31.711  1.00  0.00     0.142 A 
HETATM    8  C   UNL     1      -8.849   6.377 -32.247  1.00  0.00     0.089 A 
HETATM    9  C   UNL     1      -8.107   7.563 -31.957  1.00  0.00     0.103 C 
HETATM   10  N   UNL     1      -7.494   8.528 -31.759  1.00  0.00    -0.191 NA
HETATM   11  C   UNL     1      -8.342   5.346 -33.066  1.00  0.00     0.067 A 
HETATM   12  C   UNL     1     -11.298   3.101 -32.896  1.00  0.00     0.071 A 
ENDROOT
BRANCH  11  13
HETATM   13  N   UNL     1      -7.053   5.510 -33.641  1.00  0.00    -0.354 N 
HETATM   14  H   UNL     1      -7.046   6.092 -34.480  1.00  0.00     0.166 HD
BRANCH  13  15
HETATM   15  C   UNL     1      -5.741   5.225 -33.216  1.00  0.00     0.034 A 
HETATM   16  C   UNL     1      -4.722   5.250 -34.181  1.00  0.00     0.056 A 
HETATM   17  C   UNL     1      -3.413   4.886 -33.859  1.00  0.00     0.069 A 
HETATM   18 CL   UNL     1      -2.217   4.933 -35.102  1.00  0.00    -0.081 Cl
HETATM   19  C   UNL     1      -3.106   4.468 -32.564  1.00  0.00     0.091 A 
HETATM   20  C   UNL     1      -4.099   4.473 -31.583  1.00  0.00     0.041 A 
HETATM   21  C   UNL     1      -5.411   4.843 -31.911  1.00  0.00     0.032 A 
BRANCH  19  22
HETATM   22  O   UNL     1      -1.816   4.137 -32.251  1.00  0.00    -0.344 OA
BRANCH  22  23
HETATM   23  C   UNL     1      -0.921   5.261 -32.290  1.00  0.00     0.235 C 
BRANCH  23  24
HETATM   24  C   UNL     1      -0.374   5.608 -30.919  1.00  0.00     0.058 A 
HETATM   25  N   UNL     1       0.436   4.681 -30.339  1.00  0.00    -0.263 NA
HETATM   26  C   UNL     1       0.893   4.946 -29.093  1.00  0.00     0.117 A 
HETATM   27  C   UNL     1       0.594   6.098 -28.388  1.00  0.00     0.019 A 
HETATM   28  C   UNL     1      -0.232   7.036 -28.991  1.00  0.00     0.003 A 
HETATM   29  C   UNL     1      -0.732   6.787 -30.266  1.00  0.00     0.029 A 
ENDBRANCH  23  24
ENDBRANCH  22  23
ENDBRANCH  19  22
ENDBRANCH  13  15
ENDBRANCH  11  13
BRANCH   2  30
HETATM   30  N   UNL     1      -9.064   0.837 -34.846  1.00  0.00    -0.321 N 
HETATM   31  C   UNL     1      -7.867   0.237 -34.594  1.00  0.00     0.245 C 
HETATM   32  O   UNL     1      -7.165  -0.206 -35.500  1.00  0.00    -0.268 OA
HETATM   33  H   UNL     1      -9.373   0.695 -35.803  1.00  0.00     0.169 HD
BRANCH  31  34
HETATM   34  C   UNL     1      -7.632  -0.167 -33.178  1.00  0.00     0.072 C 
HETATM   35  C   UNL     1      -6.513   0.271 -32.578  1.00  0.00     0.006 C 
BRANCH  35  36
HETATM   36  C   UNL     1      -5.956  -0.277 -31.311  1.00  0.00     0.261 C 
BRANCH  36  37
HETATM   37  N   UNL     1      -4.470  -0.532 -31.460  1.00  0.00    -0.076 N 
HETATM   38  H   UNL     1      -4.182  -1.044 -30.615  1.00  0.00     0.279 HD
HETATM   39  C   UNL     1      -4.137  -1.417 -32.631  1.00  0.00     0.269 C 
HETATM   40  C   UNL     1      -3.665   0.734 -31.483  1.00  0.00     0.269 C 
ENDBRANCH  36  37
ENDBRANCH  35  36
ENDBRANCH  31  34
ENDBRANCH   2  30
BRANCH   1  41
HETATM   41  O   UNL     1     -11.721   0.872 -33.774  1.00  0.00    -0.349 OA
BRANCH  41  42
HETATM   42  C   UNL     1     -12.932   1.064 -34.514  1.00  0.00     0.171 C 
HETATM   43  C   UNL     1     -14.093   0.637 -33.634  1.00  0.00     0.034 C 
ENDBRANCH  41  42
ENDBRANCH   1  41
TORSDOF 11
ENDMDL
MODEL 5
REMARK VINA RESULT:      -8.5      4.437      8.002
REMARK  11 active torsions:
REMARK  status: ('A' for Active; 'I' for Inactive)
REMARK    1  A    between atoms: C_2  and  O_3 
REMARK    2  A    between atoms: O_3  and  C_4 
REMARK    3  A    between atoms: C_5  and  N_6 
REMARK       I    between atoms: N_6  and  C_7 
REMARK    4  A    between atoms: C_7  and  C_8 
REMARK    5  A    between atoms: C_9  and  C_10 
REMARK    6  A    between atoms: C_10  and  N_11 
REMARK    7  A    between atoms: C_24  and  N_25 
REMARK    8  A    between atoms: N_25  and  C_26 
REMARK    9  A    between atoms: C_30  and  O_31 
REMARK   10  A    between atoms: O_31  and  C_32 
REMARK   11  A    between atoms: C_32  and  C_33 
ROOT
HETATM    1  C   UNL     1      -1.049   7.784 -29.215  1.00  0.00     0.097 A 
HETATM    2  C   UNL     1      -2.233   7.124 -28.877  1.00  0.00     0.069 A 
HETATM    3  C   UNL     1      -3.013   6.555 -29.891  1.00  0.00     0.048 A 
HETATM    4  C   UNL     1      -2.628   6.566 -31.253  1.00  0.00     0.023 A 
HETATM    5  C   UNL     1      -1.423   7.234 -31.568  1.00  0.00     0.071 A 
HETATM    6  N   UNL     1      -0.943   7.327 -32.814  1.00  0.00    -0.259 NA
HETATM    7  C   UNL     1      -1.641   6.754 -33.814  1.00  0.00     0.142 A 
HETATM    8  C   UNL     1      -2.841   6.093 -33.634  1.00  0.00     0.089 A 
HETATM    9  C   UNL     1      -3.497   5.542 -34.778  1.00  0.00     0.103 C 
HETATM   10  N   UNL     1      -4.062   5.109 -35.693  1.00  0.00    -0.191 NA
HETATM   11  C   UNL     1      -3.379   5.999 -32.333  1.00  0.00     0.067 A 
HETATM   12  C   UNL     1      -0.681   7.843 -30.564  1.00  0.00     0.071 A 
ENDROOT
BRANCH  11  13
HETATM   13  N   UNL     1      -4.631   5.348 -32.163  1.00  0.00    -0.354 N 
HETATM   14  H   UNL     1      -5.434   5.974 -32.240  1.00  0.00     0.166 HD
BRANCH  13  15
HETATM   15  C   UNL     1      -5.044   4.003 -32.112  1.00  0.00     0.034 A 
HETATM   16  C   UNL     1      -4.105   3.048 -31.691  1.00  0.00     0.056 A 
HETATM   17  C   UNL     1      -4.407   1.684 -31.704  1.00  0.00     0.069 A 
HETATM   18 CL   UNL     1      -3.198   0.570 -31.181  1.00  0.00    -0.081 Cl
HETATM   19  C   UNL     1      -5.651   1.252 -32.162  1.00  0.00     0.091 A 
HETATM   20  C   UNL     1      -6.610   2.190 -32.548  1.00  0.00     0.041 A 
HETATM   21  C   UNL     1      -6.303   3.559 -32.528  1.00  0.00     0.032 A 
BRANCH  19  22
HETATM   22  O   UNL     1      -5.948  -0.084 -32.147  1.00  0.00    -0.344 OA
BRANCH  22  23
HETATM   23  C   UNL     1      -6.725  -0.501 -33.280  1.00  0.00     0.235 C 
BRANCH  23  24
HETATM   24  C   UNL     1      -6.216  -1.796 -33.882  1.00  0.00     0.058 A 
HETATM   25  N   UNL     1      -7.162  -2.676 -34.312  1.00  0.00    -0.263 NA
HETATM   26  C   UNL     1      -6.731  -3.861 -34.804  1.00  0.00     0.117 A 
HETATM   27  C   UNL     1      -5.399  -4.221 -34.901  1.00  0.00     0.019 A 
HETATM   28  C   UNL     1      -4.445  -3.316 -34.460  1.00  0.00     0.003 A 
HETATM   29  C   UNL     1      -4.854  -2.094 -33.934  1.00  0.00     0.029 A 
ENDBRANCH  23  24
ENDBRANCH  22  23
ENDBRANCH  19  22
ENDBRANCH  13  15
ENDBRANCH  11  13
BRANCH   2  30
HETATM   30  N   UNL     1      -2.652   6.839 -27.559  1.00  0.00    -0.321 N 
HETATM   31  C   UNL     1      -3.374   7.612 -26.700  1.00  0.00     0.245 C 
HETATM   32  O   UNL     1      -3.131   7.635 -25.496  1.00  0.00    -0.268 OA
HETATM   33  H   UNL     1      -2.058   6.173 -27.073  1.00  0.00     0.169 HD
BRANCH  31  34
HETATM   34  C   UNL     1      -4.668   8.129 -27.228  1.00  0.00     0.072 C 
HETATM   35  C   UNL     1      -5.657   7.245 -27.443  1.00  0.00     0.006 C 
BRANCH  35  36
HETATM   36  C   UNL     1      -6.877   7.513 -28.252  1.00  0.00     0.261 C 
BRANCH  36  37
HETATM   37  N   UNL     1      -7.422   6.219 -28.820  1.00  0.00    -0.076 N 
HETATM   38  H   UNL     1      -8.178   5.925 -28.187  1.00  0.00     0.279 HD
HETATM   39  C   UNL     1      -8.044   6.387 -30.180  1.00  0.00     0.269 C 
HETATM   40  C   UNL     1      -6.409   5.112 -28.814  1.00  0.00     0.269 C 
ENDBRANCH  36  37
ENDBRANCH  35  36
ENDBRANCH  31  34
ENDBRANCH   2  30
BRANCH   1  41
HETATM   41  O   UNL     1      -0.281   8.309 -28.210  1.00  0.00    -0.349 OA
BRANCH  41  42
HETATM   42  C   UNL     1       1.080   7.868 -28.159  1.00  0.00     0.171 C 
HETATM   43  C   UNL     1       1.403   7.499 -26.723  1.00  0.00     0.034 C 
ENDBRANCH  41  42
ENDBRANCH   1  41
TORSDOF 11
ENDMDL
MODEL 6
REMARK VINA RESULT:      -8.4      3.268      7.776
REMARK  11 active torsions:
REMARK  status: ('A' for Active; 'I' for Inactive)
REMARK    1  A    between atoms: C_2  and  O_3 
REMARK    2  A    between atoms: O_3  and  C_4 
REMARK    3  A    between atoms: C_5  and  N_6 
REMARK       I    between atoms: N_6  and  C_7 
REMARK    4  A    between atoms: C_7  and  C_8 
REMARK    5  A    between atoms: C_9  and  C_10 
REMARK    6  A    between atoms: C_10  and  N_11 
REMARK    7  A    between atoms: C_24  and  N_25 
REMARK    8  A    between atoms: N_25  and  C_26 
REMARK    9  A    between atoms: C_30  and  O_31 
REMARK   10  A    between atoms: O_31  and  C_32 
REMARK   11  A    between atoms: C_32  and  C_33 
ROOT
HETATM    1  C   UNL     1      -9.864   0.706 -32.789  1.00  0.00     0.097 A 
HETATM    2  C   UNL     1      -9.352   1.643 -31.888  1.00  0.00     0.069 A 
HETATM    3  C   UNL     1      -8.004   1.568 -31.515  1.00  0.00     0.048 A 
HETATM    4  C   UNL     1      -7.109   0.614 -32.057  1.00  0.00     0.023 A 
HETATM    5  C   UNL     1      -7.650  -0.318 -32.972  1.00  0.00     0.071 A 
HETATM    6  N   UNL     1      -6.922  -1.276 -33.555  1.00  0.00    -0.259 NA
HETATM    7  C   UNL     1      -5.609  -1.354 -33.258  1.00  0.00     0.142 A 
HETATM    8  C   UNL     1      -4.972  -0.515 -32.364  1.00  0.00     0.089 A 
HETATM    9  C   UNL     1      -3.578  -0.710 -32.119  1.00  0.00     0.103 C 
HETATM   10  N   UNL     1      -2.453  -0.863 -31.882  1.00  0.00    -0.191 NA
HETATM   11  C   UNL     1      -5.723   0.491 -31.720  1.00  0.00     0.067 A 
HETATM   12  C   UNL     1      -9.001  -0.272 -33.295  1.00  0.00     0.071 A 
ENDROOT
BRANCH  11  13
HETATM   13  N   UNL     1      -5.066   1.327 -30.777  1.00  0.00    -0.354 N 
HETATM   14  H   UNL     1      -4.646   0.817 -29.998  1.00  0.00     0.166 HD
BRANCH  13  15
HETATM   15  C   UNL     1      -4.679   2.681 -30.760  1.00  0.00     0.034 A 
HETATM   16  C   UNL     1      -3.486   3.027 -31.414  1.00  0.00     0.056 A 
HETATM   17  C   UNL     1      -2.985   4.330 -31.361  1.00  0.00     0.069 A 
HETATM   18 CL   UNL     1      -1.509   4.676 -32.183  1.00  0.00    -0.081 Cl
HETATM   19  C   UNL     1      -3.663   5.306 -30.631  1.00  0.00     0.091 A 
HETATM   20  C   UNL     1      -4.870   4.988 -30.006  1.00  0.00     0.041 A 
HETATM   21  C   UNL     1      -5.370   3.679 -30.066  1.00  0.00     0.032 A 
BRANCH  19  22
HETATM   22  O   UNL     1      -3.180   6.585 -30.606  1.00  0.00    -0.344 OA
BRANCH  22  23
HETATM   23  C   UNL     1      -3.084   7.126 -29.278  1.00  0.00     0.235 C 
BRANCH  23  24
HETATM   24  C   UNL     1      -1.655   7.155 -28.771  1.00  0.00     0.058 A 
HETATM   25  N   UNL     1      -1.474   6.845 -27.457  1.00  0.00    -0.263 NA
HETATM   26  C   UNL     1      -0.214   6.916 -26.969  1.00  0.00     0.117 A 
HETATM   27  C   UNL     1       0.889   7.273 -27.724  1.00  0.00     0.019 A 
HETATM   28  C   UNL     1       0.692   7.586 -29.061  1.00  0.00     0.003 A 
HETATM   29  C   UNL     1      -0.595   7.538 -29.591  1.00  0.00     0.029 A 
ENDBRANCH  23  24
ENDBRANCH  22  23
ENDBRANCH  19  22
ENDBRANCH  13  15
ENDBRANCH  11  13
BRANCH   2  30
HETATM   30  N   UNL     1     -10.047   2.779 -31.419  1.00  0.00    -0.321 N 
HETATM   31  C   UNL     1      -9.594   4.052 -31.243  1.00  0.00     0.245 C 
HETATM   32  O   UNL     1      -9.958   4.738 -30.290  1.00  0.00    -0.268 OA
HETATM   33  H   UNL     1     -10.830   2.560 -30.811  1.00  0.00     0.169 HD
BRANCH  31  34
HETATM   34  C   UNL     1      -8.941   4.676 -32.428  1.00  0.00     0.072 C 
HETATM   35  C   UNL     1      -7.604   4.808 -32.411  1.00  0.00     0.006 C 
BRANCH  35  36
HETATM   36  C   UNL     1      -6.823   5.678 -33.332  1.00  0.00     0.261 C 
BRANCH  36  37
HETATM   37  N   UNL     1      -5.984   4.830 -34.266  1.00  0.00    -0.076 N 
HETATM   38  H   UNL     1      -6.353   4.998 -35.212  1.00  0.00     0.279 HD
HETATM   39  C   UNL     1      -4.536   5.239 -34.294  1.00  0.00     0.269 C 
HETATM   40  C   UNL     1      -6.134   3.361 -34.006  1.00  0.00     0.269 C 
ENDBRANCH  36  37
ENDBRANCH  35  36
ENDBRANCH  31  34
ENDBRANCH   2  30
BRANCH   1  41
HETATM   41  O   UNL     1     -11.176   0.809 -33.166  1.00  0.00    -0.349 OA
BRANCH  41  42
HETATM   42  C   UNL     1     -11.427   1.506 -34.392  1.00  0.00     0.171 C 
HETATM   43  C   UNL     1     -12.846   1.193 -34.829  1.00  0.00     0.034 C 
ENDBRANCH  41  42
ENDBRANCH   1  41
TORSDOF 11
ENDMDL
MODEL 7
REMARK VINA RESULT:      -8.3      3.030      5.310
REMARK  11 active torsions:
REMARK  status: ('A' for Active; 'I' for Inactive)
REMARK    1  A    between atoms: C_2  and  O_3 
REMARK    2  A    between atoms: O_3  and  C_4 
REMARK    3  A    between atoms: C_5  and  N_6 
REMARK       I    between atoms: N_6  and  C_7 
REMARK    4  A    between atoms: C_7  and  C_8 
REMARK    5  A    between atoms: C_9  and  C_10 
REMARK    6  A    between atoms: C_10  and  N_11 
REMARK    7  A    between atoms: C_24  and  N_25 
REMARK    8  A    between atoms: N_25  and  C_26 
REMARK    9  A    between atoms: C_30  and  O_31 
REMARK   10  A    between atoms: O_31  and  C_32 
REMARK   11  A    between atoms: C_32  and  C_33 
ROOT
HETATM    1  C   UNL     1      -4.262   7.539 -31.254  1.00  0.00     0.097 A 
HETATM    2  C   UNL     1      -4.220   6.574 -32.264  1.00  0.00     0.069 A 
HETATM    3  C   UNL     1      -5.421   6.054 -32.763  1.00  0.00     0.048 A 
HETATM    4  C   UNL     1      -6.691   6.503 -32.331  1.00  0.00     0.023 A 
HETATM    5  C   UNL     1      -6.706   7.484 -31.313  1.00  0.00     0.071 A 
HETATM    6  N   UNL     1      -7.835   7.994 -30.806  1.00  0.00    -0.259 NA
HETATM    7  C   UNL     1      -9.012   7.552 -31.291  1.00  0.00     0.142 A 
HETATM    8  C   UNL     1      -9.126   6.583 -32.269  1.00  0.00     0.089 A 
HETATM    9  C   UNL     1     -10.433   6.185 -32.688  1.00  0.00     0.103 C 
HETATM   10  N   UNL     1     -11.482   5.825 -33.027  1.00  0.00    -0.191 NA
HETATM   11  C   UNL     1      -7.951   6.015 -32.805  1.00  0.00     0.067 A 
HETATM   12  C   UNL     1      -5.512   7.957 -30.784  1.00  0.00     0.071 A 
ENDROOT
BRANCH  11  13
HETATM   13  N   UNL     1      -8.079   4.994 -33.785  1.00  0.00    -0.354 N 
HETATM   14  H   UNL     1      -8.285   5.345 -34.722  1.00  0.00     0.166 HD
BRANCH  13  15
HETATM   15  C   UNL     1      -7.792   3.615 -33.816  1.00  0.00     0.034 A 
HETATM   16  C   UNL     1      -8.761   2.735 -33.310  1.00  0.00     0.056 A 
HETATM   17  C   UNL     1      -8.513   1.363 -33.218  1.00  0.00     0.069 A 
HETATM   18 CL   UNL     1      -9.749   0.346 -32.577  1.00  0.00    -0.081 Cl
HETATM   19  C   UNL     1      -7.276   0.853 -33.612  1.00  0.00     0.091 A 
HETATM   20  C   UNL     1      -6.315   1.709 -34.153  1.00  0.00     0.041 A 
HETATM   21  C   UNL     1      -6.571   3.084 -34.247  1.00  0.00     0.032 A 
BRANCH  19  22
HETATM   22  O   UNL     1      -7.051  -0.495 -33.543  1.00  0.00    -0.344 OA
BRANCH  22  23
HETATM   23  C   UNL     1      -5.730  -0.868 -33.967  1.00  0.00     0.235 C 
BRANCH  23  24
HETATM   24  C   UNL     1      -5.603  -2.360 -34.205  1.00  0.00     0.058 A 
HETATM   25  N   UNL     1      -4.397  -2.919 -33.910  1.00  0.00    -0.263 NA
HETATM   26  C   UNL     1      -4.243  -4.239 -34.165  1.00  0.00     0.117 A 
HETATM   27  C   UNL     1      -5.235  -5.046 -34.693  1.00  0.00     0.019 A 
HETATM   28  C   UNL     1      -6.460  -4.465 -34.988  1.00  0.00     0.003 A 
HETATM   29  C   UNL     1      -6.646  -3.106 -34.754  1.00  0.00     0.029 A 
ENDBRANCH  23  24
ENDBRANCH  22  23
ENDBRANCH  19  22
ENDBRANCH  13  15
ENDBRANCH  11  13
BRANCH   2  30
HETATM   30  N   UNL     1      -3.054   6.173 -32.952  1.00  0.00    -0.321 N 
HETATM   31  C   UNL     1      -2.260   5.087 -32.737  1.00  0.00     0.245 C 
HETATM   32  O   UNL     1      -1.038   5.150 -32.853  1.00  0.00    -0.268 OA
HETATM   33  H   UNL     1      -2.552   6.939 -33.390  1.00  0.00     0.169 HD
BRANCH  31  34
HETATM   34  C   UNL     1      -2.958   3.770 -32.715  1.00  0.00     0.072 C 
HETATM   35  C   UNL     1      -3.316   3.270 -31.520  1.00  0.00     0.006 C 
BRANCH  35  36
HETATM   36  C   UNL     1      -3.718   1.858 -31.274  1.00  0.00     0.261 C 
BRANCH  36  37
HETATM   37  N   UNL     1      -5.193   1.785 -30.941  1.00  0.00    -0.076 N 
HETATM   38  H   UNL     1      -5.679   1.613 -31.832  1.00  0.00     0.279 HD
HETATM   39  C   UNL     1      -5.538   0.631 -30.038  1.00  0.00     0.269 C 
HETATM   40  C   UNL     1      -5.732   3.079 -30.407  1.00  0.00     0.269 C 
ENDBRANCH  36  37
ENDBRANCH  35  36
ENDBRANCH  31  34
ENDBRANCH   2  30
BRANCH   1  41
HETATM   41  O   UNL     1      -3.081   8.059 -30.797  1.00  0.00    -0.349 OA
BRANCH  41  42
HETATM   42  C   UNL     1      -2.501   7.406 -29.662  1.00  0.00     0.171 C 
HETATM   43  C   UNL     1      -2.089   8.473 -28.664  1.00  0.00     0.034 C 
ENDBRANCH  41  42
ENDBRANCH   1  41
TORSDOF 11
ENDMDL
MODEL 8
REMARK VINA RESULT:      -8.2      3.219      8.437
REMARK  11 active torsions:
REMARK  status: ('A' for Active; 'I' for Inactive)
REMARK    1  A    between atoms: C_2  and  O_3 
REMARK    2  A    between atoms: O_3  and  C_4 
REMARK    3  A    between atoms: C_5  and  N_6 
REMARK       I    between atoms: N_6  and  C_7 
REMARK    4  A    between atoms: C_7  and  C_8 
REMARK    5  A    between atoms: C_9  and  C_10 
REMARK    6  A    between atoms: C_10  and  N_11 
REMARK    7  A    between atoms: C_24  and  N_25 
REMARK    8  A    between atoms: N_25  and  C_26 
REMARK    9  A    between atoms: C_30  and  O_31 
REMARK   10  A    between atoms: O_31  and  C_32 
REMARK   11  A    between atoms: C_32  and  C_33 
ROOT
HETATM    1  C   UNL     1      -9.749   0.549 -32.826  1.00  0.00     0.097 A 
HETATM    2  C   UNL     1      -9.288   1.526 -31.939  1.00  0.00     0.069 A 
HETATM    3  C   UNL     1      -7.937   1.533 -31.571  1.00  0.00     0.048 A 
HETATM    4  C   UNL     1      -6.991   0.624 -32.103  1.00  0.00     0.023 A 
HETATM    5  C   UNL     1      -7.481  -0.350 -33.003  1.00  0.00     0.071 A 
HETATM    6  N   UNL     1      -6.701  -1.274 -33.577  1.00  0.00    -0.259 NA
HETATM    7  C   UNL     1      -5.386  -1.272 -33.283  1.00  0.00     0.142 A 
HETATM    8  C   UNL     1      -4.795  -0.386 -32.403  1.00  0.00     0.089 A 
HETATM    9  C   UNL     1      -3.390  -0.498 -32.161  1.00  0.00     0.103 C 
HETATM   10  N   UNL     1      -2.258  -0.584 -31.926  1.00  0.00    -0.191 NA
HETATM   11  C   UNL     1      -5.599   0.584 -31.770  1.00  0.00     0.067 A 
HETATM   12  C   UNL     1      -8.833  -0.385 -33.322  1.00  0.00     0.071 A 
ENDROOT
BRANCH  11  13
HETATM   13  N   UNL     1      -4.988   1.468 -30.841  1.00  0.00    -0.354 N 
HETATM   14  H   UNL     1      -4.594   1.000 -30.024  1.00  0.00     0.166 HD
BRANCH  13  15
HETATM   15  C   UNL     1      -4.614   2.826 -30.870  1.00  0.00     0.034 A 
HETATM   16  C   UNL     1      -3.404   3.157 -31.502  1.00  0.00     0.056 A 
HETATM   17  C   UNL     1      -2.918   4.466 -31.490  1.00  0.00     0.069 A 
HETATM   18 CL   UNL     1      -1.419   4.792 -32.280  1.00  0.00    -0.081 Cl
HETATM   19  C   UNL     1      -3.627   5.465 -30.824  1.00  0.00     0.091 A 
HETATM   20  C   UNL     1      -4.850   5.161 -30.223  1.00  0.00     0.041 A 
HETATM   21  C   UNL     1      -5.336   3.846 -30.242  1.00  0.00     0.032 A 
BRANCH  19  22
HETATM   22  O   UNL     1      -3.156   6.749 -30.839  1.00  0.00    -0.344 OA
BRANCH  22  23
HETATM   23  C   UNL     1      -3.079   7.338 -29.531  1.00  0.00     0.235 C 
BRANCH  23  24
HETATM   24  C   UNL     1      -1.680   7.270 -28.951  1.00  0.00     0.058 A 
HETATM   25  N   UNL     1      -1.591   7.045 -27.611  1.00  0.00    -0.263 NA
HETATM   26  C   UNL     1      -0.354   7.033 -27.063  1.00  0.00     0.117 A 
HETATM   27  C   UNL     1       0.813   7.226 -27.781  1.00  0.00     0.019 A 
HETATM   28  C   UNL     1       0.709   7.454 -29.145  1.00  0.00     0.003 A 
HETATM   29  C   UNL     1      -0.550   7.488 -29.739  1.00  0.00     0.029 A 
ENDBRANCH  23  24
ENDBRANCH  22  23
ENDBRANCH  19  22
ENDBRANCH  13  15
ENDBRANCH  11  13
BRANCH   2  30
HETATM   30  N   UNL     1     -10.045   2.627 -31.483  1.00  0.00    -0.321 N 
HETATM   31  C   UNL     1     -10.000   3.928 -31.888  1.00  0.00     0.245 C 
HETATM   32  O   UNL     1     -10.126   4.854 -31.090  1.00  0.00    -0.268 OA
HETATM   33  H   UNL     1     -10.378   2.530 -30.529  1.00  0.00     0.169 HD
BRANCH  31  34
HETATM   34  C   UNL     1     -10.154   4.155 -33.353  1.00  0.00     0.072 C 
HETATM   35  C   UNL     1     -11.126   4.988 -33.760  1.00  0.00     0.006 C 
BRANCH  35  36
HETATM   36  C   UNL     1     -11.634   5.086 -35.156  1.00  0.00     0.261 C 
BRANCH  36  37
HETATM   37  N   UNL     1     -13.136   5.282 -35.153  1.00  0.00    -0.076 N 
HETATM   38  H   UNL     1     -13.538   4.414 -35.533  1.00  0.00     0.279 HD
HETATM   39  C   UNL     1     -13.707   5.449 -33.771  1.00  0.00     0.269 C 
HETATM   40  C   UNL     1     -13.577   6.388 -36.065  1.00  0.00     0.269 C 
ENDBRANCH  36  37
ENDBRANCH  35  36
ENDBRANCH  31  34
ENDBRANCH   2  30
BRANCH   1  41
HETATM   41  O   UNL     1     -11.066   0.572 -33.199  1.00  0.00    -0.349 OA
BRANCH  41  42
HETATM   42  C   UNL     1     -11.351   1.169 -34.470  1.00  0.00     0.171 C 
HETATM   43  C   UNL     1     -12.814   1.572 -34.483  1.00  0.00     0.034 C 
ENDBRANCH  41  42
ENDBRANCH   1  41
TORSDOF 11
ENDMDL
MODEL 9
REMARK VINA RESULT:      -8.2      4.125      6.866
REMARK  11 active torsions:
REMARK  status: ('A' for Active; 'I' for Inactive)
REMARK    1  A    between atoms: C_2  and  O_3 
REMARK    2  A    between atoms: O_3  and  C_4 
REMARK    3  A    between atoms: C_5  and  N_6 
REMARK       I    between atoms: N_6  and  C_7 
REMARK    4  A    between atoms: C_7  and  C_8 
REMARK    5  A    between atoms: C_9  and  C_10 
REMARK    6  A    between atoms: C_10  and  N_11 
REMARK    7  A    between atoms: C_24  and  N_25 
REMARK    8  A    between atoms: N_25  and  C_26 
REMARK    9  A    between atoms: C_30  and  O_31 
REMARK   10  A    between atoms: O_31  and  C_32 
REMARK   11  A    between atoms: C_32  and  C_33 
ROOT
HETATM    1  C   UNL     1      -2.756   7.714 -28.053  1.00  0.00     0.097 A 
HETATM    2  C   UNL     1      -2.581   7.084 -29.288  1.00  0.00     0.069 A 
HETATM    3  C   UNL     1      -3.675   6.460 -29.899  1.00  0.00     0.048 A 
HETATM    4  C   UNL     1      -4.979   6.486 -29.350  1.00  0.00     0.023 A 
HETATM    5  C   UNL     1      -5.132   7.136 -28.104  1.00  0.00     0.071 A 
HETATM    6  N   UNL     1      -6.305   7.231 -27.467  1.00  0.00    -0.259 NA
HETATM    7  C   UNL     1      -7.393   6.682 -28.045  1.00  0.00     0.142 A 
HETATM    8  C   UNL     1      -7.365   6.004 -29.248  1.00  0.00     0.089 A 
HETATM    9  C   UNL     1      -8.584   5.451 -29.748  1.00  0.00     0.103 C 
HETATM   10  N   UNL     1      -9.554   4.970 -30.164  1.00  0.00    -0.191 NA
HETATM   11  C   UNL     1      -6.137   5.873 -29.929  1.00  0.00     0.067 A 
HETATM   12  C   UNL     1      -4.031   7.705 -27.476  1.00  0.00     0.071 A 
ENDROOT
BRANCH  11  13
HETATM   13  N   UNL     1      -6.113   5.144 -31.148  1.00  0.00    -0.354 N 
HETATM   14  H   UNL     1      -5.770   5.683 -31.944  1.00  0.00     0.166 HD
BRANCH  13  15
HETATM   15  C   UNL     1      -6.261   3.785 -31.487  1.00  0.00     0.034 A 
HETATM   16  C   UNL     1      -5.365   2.868 -30.915  1.00  0.00     0.056 A 
HETATM   17  C   UNL     1      -5.385   1.518 -31.274  1.00  0.00     0.069 A 
HETATM   18 CL   UNL     1      -4.247   0.454 -30.535  1.00  0.00    -0.081 Cl
HETATM   19  C   UNL     1      -6.293   1.068 -32.233  1.00  0.00     0.091 A 
HETATM   20  C   UNL     1      -7.216   1.958 -32.784  1.00  0.00     0.041 A 
HETATM   21  C   UNL     1      -7.194   3.311 -32.416  1.00  0.00     0.032 A 
BRANCH  19  22
HETATM   22  O   UNL     1      -6.323  -0.261 -32.560  1.00  0.00    -0.344 OA
BRANCH  22  23
HETATM   23  C   UNL     1      -5.792  -0.532 -33.867  1.00  0.00     0.235 C 
BRANCH  23  24
HETATM   24  C   UNL     1      -5.709  -2.018 -34.157  1.00  0.00     0.058 A 
HETATM   25  N   UNL     1      -4.490  -2.600 -33.987  1.00  0.00    -0.263 NA
HETATM   26  C   UNL     1      -4.381  -3.914 -34.291  1.00  0.00     0.117 A 
HETATM   27  C   UNL     1      -5.428  -4.692 -34.751  1.00  0.00     0.019 A 
HETATM   28  C   UNL     1      -6.665  -4.088 -34.918  1.00  0.00     0.003 A 
HETATM   29  C   UNL     1      -6.809  -2.733 -34.630  1.00  0.00     0.029 A 
ENDBRANCH  23  24
ENDBRANCH  22  23
ENDBRANCH  19  22
ENDBRANCH  13  15
ENDBRANCH  11  13
BRANCH   2  30
HETATM   30  N   UNL     1      -1.406   7.147 -30.069  1.00  0.00    -0.321 N 
HETATM   31  C   UNL     1      -0.535   6.151 -30.394  1.00  0.00     0.245 C 
HETATM   32  O   UNL     1       0.677   6.348 -30.449  1.00  0.00    -0.268 OA
HETATM   33  H   UNL     1      -0.966   8.062 -30.076  1.00  0.00     0.169 HD
BRANCH  31  34
HETATM   34  C   UNL     1      -1.142   4.941 -31.019  1.00  0.00     0.072 C 
HETATM   35  C   UNL     1      -1.436   4.992 -32.329  1.00  0.00     0.006 C 
BRANCH  35  36
HETATM   36  C   UNL     1      -2.321   4.030 -33.041  1.00  0.00     0.261 C 
BRANCH  36  37
HETATM   37  N   UNL     1      -2.627   4.535 -34.436  1.00  0.00    -0.076 N 
HETATM   38  H   UNL     1      -2.638   3.705 -35.044  1.00  0.00     0.279 HD
HETATM   39  C   UNL     1      -3.989   5.166 -34.550  1.00  0.00     0.269 C 
HETATM   40  C   UNL     1      -1.558   5.439 -34.972  1.00  0.00     0.269 C 
ENDBRANCH  36  37
ENDBRANCH  35  36
ENDBRANCH  31  34
ENDBRANCH   2  30
BRANCH   1  41
HETATM   41  O   UNL     1      -1.684   8.345 -27.481  1.00  0.00    -0.349 OA
BRANCH  41  42
HETATM   42  C   UNL     1      -0.848   7.536 -26.645  1.00  0.00     0.171 C 
HETATM   43  C   UNL     1       0.591   7.739 -27.082  1.00  0.00     0.034 C 
ENDBRANCH  41  42
ENDBRANCH   1  41
TORSDOF 11
ENDMDL
MODEL 10
REMARK VINA RESULT:      -8.1      4.420      8.747
REMARK  11 active torsions:
REMARK  status: ('A' for Active; 'I' for Inactive)
REMARK    1  A    between atoms: C_2  and  O_3 
REMARK    2  A    between atoms: O_3  and  C_4 
REMARK    3  A    between atoms: C_5  and  N_6 
REMARK       I    between atoms: N_6  and  C_7 
REMARK    4  A    between atoms: C_7  and  C_8 
REMARK    5  A    between atoms: C_9  and  C_10 
REMARK    6  A    between atoms: C_10  and  N_11 
REMARK    7  A    between atoms: C_24  and  N_25 
REMARK    8  A    between atoms: N_25  and  C_26 
REMARK    9  A    between atoms: C_30  and  O_31 
REMARK   10  A    between atoms: O_31  and  C_32 
REMARK   11  A    between atoms: C_32  and  C_33 
ROOT
HETATM    1  C   UNL     1       0.041   6.953 -29.254  1.00  0.00     0.097 A 
HETATM    2  C   UNL     1      -1.294   6.865 -28.851  1.00  0.00     0.069 A 
HETATM    3  C   UNL     1      -2.282   6.605 -29.809  1.00  0.00     0.048 A 
HETATM    4  C   UNL     1      -1.986   6.366 -31.172  1.00  0.00     0.023 A 
HETATM    5  C   UNL     1      -0.628   6.453 -31.553  1.00  0.00     0.071 A 
HETATM    6  N   UNL     1      -0.206   6.257 -32.807  1.00  0.00    -0.259 NA
HETATM    7  C   UNL     1      -1.121   5.959 -33.751  1.00  0.00     0.142 A 
HETATM    8  C   UNL     1      -2.477   5.868 -33.506  1.00  0.00     0.089 A 
HETATM    9  C   UNL     1      -3.350   5.562 -34.596  1.00  0.00     0.103 C 
HETATM   10  N   UNL     1      -4.082   5.342 -35.468  1.00  0.00    -0.191 NA
HETATM   11  C   UNL     1      -2.949   6.090 -32.195  1.00  0.00     0.067 A 
HETATM   12  C   UNL     1       0.341   6.766 -30.608  1.00  0.00     0.071 A 
ENDROOT
BRANCH  11  13
HETATM   13  N   UNL     1      -4.350   6.028 -31.960  1.00  0.00    -0.354 N 
HETATM   14  H   UNL     1      -4.850   6.877 -32.227  1.00  0.00     0.166 HD
BRANCH  13  15
HETATM   15  C   UNL     1      -5.249   4.995 -31.631  1.00  0.00     0.034 A 
HETATM   16  C   UNL     1      -4.711   3.741 -31.303  1.00  0.00     0.056 A 
HETATM   17  C   UNL     1      -5.538   2.642 -31.058  1.00  0.00     0.069 A 
HETATM   18 CL   UNL     1      -4.802   1.131 -30.669  1.00  0.00    -0.081 Cl
HETATM   19  C   UNL     1      -6.922   2.778 -31.161  1.00  0.00     0.091 A 
HETATM   20  C   UNL     1      -7.476   4.027 -31.449  1.00  0.00     0.041 A 
HETATM   21  C   UNL     1      -6.641   5.127 -31.690  1.00  0.00     0.032 A 
BRANCH  19  22
HETATM   22  O   UNL     1      -7.726   1.703 -30.894  1.00  0.00    -0.344 OA
BRANCH  22  23
HETATM   23  C   UNL     1      -8.592   1.361 -31.988  1.00  0.00     0.235 C 
BRANCH  23  24
HETATM   24  C   UNL     1      -7.880   0.550 -33.053  1.00  0.00     0.058 A 
HETATM   25  N   UNL     1      -8.065   0.950 -34.342  1.00  0.00    -0.263 NA
HETATM   26  C   UNL     1      -7.483   0.210 -35.313  1.00  0.00     0.117 A 
HETATM   27  C   UNL     1      -6.710  -0.912 -35.073  1.00  0.00     0.019 A 
HETATM   28  C   UNL     1      -6.528  -1.309 -33.756  1.00  0.00     0.003 A 
HETATM   29  C   UNL     1      -7.127  -0.579 -32.733  1.00  0.00     0.029 A 
ENDBRANCH  23  24
ENDBRANCH  22  23
ENDBRANCH  19  22
ENDBRANCH  13  15
ENDBRANCH  11  13
BRANCH   2  30
HETATM   30  N   UNL     1      -1.737   6.867 -27.510  1.00  0.00    -0.321 N 
HETATM   31  C   UNL     1      -1.921   7.921 -26.667  1.00  0.00     0.245 C 
HETATM   32  O   UNL     1      -1.643   7.846 -25.472  1.00  0.00    -0.268 OA
HETATM   33  H   UNL     1      -1.543   6.003 -27.013  1.00  0.00     0.169 HD
BRANCH  31  34
HETATM   34  C   UNL     1      -2.794   9.014 -27.180  1.00  0.00     0.072 C 
HETATM   35  C   UNL     1      -4.090   8.733 -27.399  1.00  0.00     0.006 C 
BRANCH  35  36
HETATM   36  C   UNL     1      -5.021   9.576 -28.198  1.00  0.00     0.261 C 
BRANCH  36  37
HETATM   37  N   UNL     1      -6.267   8.790 -28.550  1.00  0.00    -0.076 N 
HETATM   38  H   UNL     1      -6.559   9.120 -29.480  1.00  0.00     0.279 HD
HETATM   39  C   UNL     1      -6.015   7.312 -28.681  1.00  0.00     0.269 C 
HETATM   40  C   UNL     1      -7.411   9.070 -27.622  1.00  0.00     0.269 C 
ENDBRANCH  36  37
ENDBRANCH  35  36
ENDBRANCH  31  34
ENDBRANCH   2  30
BRANCH   1  41
HETATM   41  O   UNL     1       0.998   7.179 -28.302  1.00  0.00    -0.349 OA
BRANCH  41  42
HETATM   42  C   UNL     1       1.399   8.542 -28.122  1.00  0.00     0.171 C 
HETATM   43  C   UNL     1       1.776   8.733 -26.664  1.00  0.00     0.034 C 
ENDBRANCH  41  42
ENDBRANCH   1  41
TORSDOF 11
ENDMDL
