MODEL 1
REMARK VINA RESULT:      -9.8      0.000      0.000
REMARK  7 active torsions:
REMARK  status: ('A' for Active; 'I' for Inactive)
REMARK    1  A    between atoms: C_5  and  C_6 
REMARK       I    between atoms: C_6  and  N_7 
REMARK    2  A    between atoms: N_7  and  C_8 
REMARK    3  A    between atoms: C_8  and  C_9 
REMARK    4  A    between atoms: C_9  and  C_10 
REMARK    5  A    between atoms: N_15  and  C_17 
REMARK    6  A    between atoms: C_17  and  C_18 
REMARK    7  A    between atoms: C_21  and  C_22 
ROOT
HETATM    1  C   UNL     1      -2.416   5.433 -34.033  1.00  0.00     0.131 A 
HETATM    2  N   UNL     1      -3.516   5.107 -33.272  1.00  0.00    -0.319 N 
HETATM    3  C   UNL     1      -4.555   4.965 -34.157  1.00  0.00     0.131 A 
HETATM    4  C   UNL     1      -5.921   4.471 -33.842  1.00  0.00     0.108 C 
HETATM    5  C   UNL     1      -5.855   3.142 -33.099  1.00  0.00     0.243 C 
HETATM    6  N   UNL     1      -5.500   3.287 -31.615  1.00  0.00    -0.065 N 
HETATM    7  H   UNL     1      -6.411   3.271 -31.134  1.00  0.00     0.280 HD
HETATM    8  C   UNL     1      -4.853   4.592 -31.184  1.00  0.00     0.255 C 
HETATM    9  C   UNL     1      -3.506   4.876 -31.846  1.00  0.00     0.159 C 
HETATM   10  N   UNL     1      -4.123   5.249 -35.364  1.00  0.00    -0.135 NA
HETATM   11  N   UNL     1      -2.791   5.540 -35.287  1.00  0.00    -0.135 NA
ENDROOT
BRANCH   1  12
HETATM   12  C   UNL     1      -1.015   5.549 -33.541  1.00  0.00     0.100 C 
BRANCH  12  13
HETATM   13  C   UNL     1      -0.804   6.918 -32.890  1.00  0.00     0.130 C 
BRANCH  13  14
HETATM   14  N   UNL     1      -0.351   6.836 -31.510  1.00  0.00    -0.360 N 
HETATM   15  C   UNL     1      -1.100   7.328 -30.468  1.00  0.00     0.223 C 
HETATM   16  O   UNL     1      -2.155   7.934 -30.635  1.00  0.00    -0.273 OA
HETATM   17  H   UNL     1       0.483   6.285 -31.335  1.00  0.00     0.162 HD
BRANCH  15  18
HETATM   18  C   UNL     1      -0.544   7.021 -29.082  1.00  0.00     0.103 C 
HETATM   19  C   UNL     1      -1.644   7.249 -28.044  1.00  0.00     0.248 C 
HETATM   20  N   UNL     1      -1.116   6.981 -26.648  1.00  0.00    -0.074 N 
HETATM   21  C   UNL     1      -2.203   7.105 -25.610  1.00  0.00     0.269 C 
HETATM   22  H   UNL     1      -0.801   6.001 -26.608  1.00  0.00     0.279 HD
HETATM   23  C   UNL     1       0.070   7.851 -26.305  1.00  0.00     0.234 C 
HETATM   24  C   UNL     1       1.172   7.621 -27.329  1.00  0.00     0.029 C 
HETATM   25  C   UNL     1       0.691   7.868 -28.757  1.00  0.00     0.017 C 
ENDBRANCH  15  18
ENDBRANCH  13  14
ENDBRANCH  12  13
ENDBRANCH   1  12
BRANCH   6  26
HETATM   26  C   UNL     1      -4.771   2.065 -31.076  1.00  0.00     0.273 C 
BRANCH  26  27
HETATM   27  C   UNL     1      -5.021   0.818 -31.873  1.00  0.00    -0.033 A 
HETATM   28  C   UNL     1      -6.289   0.222 -31.884  1.00  0.00     0.010 A 
HETATM   29  C   UNL     1      -6.518  -0.944 -32.620  1.00  0.00     0.015 A 
HETATM   30  C   UNL     1      -5.494  -1.544 -33.365  1.00  0.00    -0.002 A 
HETATM   31  C   UNL     1      -4.228  -0.944 -33.351  1.00  0.00     0.015 A 
HETATM   32  C   UNL     1      -3.990   0.221 -32.612  1.00  0.00     0.010 A 
BRANCH  30  33
HETATM   33  C   UNL     1      -5.739  -2.756 -34.145  1.00  0.00     0.085 A 
HETATM   34  O   UNL     1      -4.755  -3.705 -34.107  1.00  0.00    -0.322 OA
HETATM   35  C   UNL     1      -5.159  -4.742 -34.884  1.00  0.00     0.142 A 
HETATM   36  C   UNL     1      -6.393  -4.482 -35.426  1.00  0.00     0.027 A 
HETATM   37  C   UNL     1      -6.769  -3.200 -34.952  1.00  0.00     0.040 A 
ENDBRANCH  30  33
ENDBRANCH  26  27
ENDBRANCH   6  26
TORSDOF 7
ENDMDL
MODEL 2
REMARK VINA RESULT:      -9.7      2.391     10.781
REMARK  7 active torsions:
REMARK  status: ('A' for Active; 'I' for Inactive)
REMARK    1  A    between atoms: C_5  and  C_6 
REMARK       I    between atoms: C_6  and  N_7 
REMARK    2  A    between atoms: N_7  and  C_8 
REMARK    3  A    between atoms: C_8  and  C_9 
REMARK    4  A    between atoms: C_9  and  C_10 
REMARK    5  A    between atoms: N_15  and  C_17 
REMARK    6  A    between atoms: C_17  and  C_18 
REMARK    7  A    between atoms: C_21  and  C_22 
ROOT
HETATM    1  C   UNL     1      -4.631   4.927 -33.734  1.00  0.00     0.131 A 
HETATM    2  N   UNL     1      -3.410   5.195 -33.158  1.00  0.00    -0.319 N 
HETATM    3  C   UNL     1      -2.619   5.685 -34.167  1.00  0.00     0.131 A 
HETATM    4  C   UNL     1      -1.256   6.260 -34.021  1.00  0.00     0.108 C 
HETATM    5  C   UNL     1      -1.240   7.343 -32.949  1.00  0.00     0.243 C 
HETATM    6  N   UNL     1      -1.227   6.791 -31.520  1.00  0.00    -0.065 N 
HETATM    7  H   UNL     1      -0.232   6.807 -31.252  1.00  0.00     0.280 HD
HETATM    8  C   UNL     1      -1.661   5.348 -31.333  1.00  0.00     0.255 C 
HETATM    9  C   UNL     1      -3.102   5.064 -31.753  1.00  0.00     0.159 C 
HETATM   10  N   UNL     1      -3.301   5.655 -35.289  1.00  0.00    -0.135 NA
HETATM   11  N   UNL     1      -4.554   5.183 -35.019  1.00  0.00    -0.135 NA
ENDROOT
BRANCH   1  12
HETATM   12  C   UNL     1      -5.867   4.513 -33.013  1.00  0.00     0.100 C 
BRANCH  12  13
HETATM   13  C   UNL     1      -6.657   3.517 -33.866  1.00  0.00     0.130 C 
BRANCH  13  14
HETATM   14  N   UNL     1      -6.363   2.128 -33.552  1.00  0.00    -0.360 N 
HETATM   15  C   UNL     1      -7.175   1.101 -33.968  1.00  0.00     0.223 C 
HETATM   16  O   UNL     1      -8.236   1.287 -34.559  1.00  0.00    -0.273 OA
HETATM   17  H   UNL     1      -5.464   1.938 -33.122  1.00  0.00     0.162 HD
BRANCH  15  18
HETATM   18  C   UNL     1      -6.635  -0.296 -33.680  1.00  0.00     0.103 C 
HETATM   19  C   UNL     1      -5.242  -0.172 -33.062  1.00  0.00     0.248 C 
HETATM   20  N   UNL     1      -4.661  -1.546 -32.791  1.00  0.00    -0.074 N 
HETATM   21  C   UNL     1      -3.327  -1.457 -32.092  1.00  0.00     0.269 C 
HETATM   22  H   UNL     1      -5.288  -2.035 -32.136  1.00  0.00     0.279 HD
HETATM   23  C   UNL     1      -4.569  -2.389 -34.041  1.00  0.00     0.234 C 
HETATM   24  C   UNL     1      -5.954  -2.525 -34.656  1.00  0.00     0.029 C 
HETATM   25  C   UNL     1      -6.592  -1.166 -34.941  1.00  0.00     0.017 C 
ENDBRANCH  15  18
ENDBRANCH  13  14
ENDBRANCH  12  13
ENDBRANCH   1  12
BRANCH   6  26
HETATM   26  C   UNL     1      -1.895   7.736 -30.532  1.00  0.00     0.273 C 
BRANCH  26  27
HETATM   27  C   UNL     1      -1.006   8.136 -29.389  1.00  0.00    -0.033 A 
HETATM   28  C   UNL     1      -1.418   9.115 -28.475  1.00  0.00     0.010 A 
HETATM   29  C   UNL     1      -0.586   9.491 -27.417  1.00  0.00     0.015 A 
HETATM   30  C   UNL     1       0.673   8.901 -27.239  1.00  0.00    -0.002 A 
HETATM   31  C   UNL     1       1.079   7.922 -28.155  1.00  0.00     0.015 A 
HETATM   32  C   UNL     1       0.254   7.544 -29.221  1.00  0.00     0.010 A 
BRANCH  30  33
HETATM   33  C   UNL     1       1.535   9.287 -26.124  1.00  0.00     0.085 A 
HETATM   34  O   UNL     1       1.357  10.552 -25.636  1.00  0.00    -0.322 OA
HETATM   35  C   UNL     1       2.239  10.724 -24.617  1.00  0.00     0.142 A 
HETATM   36  C   UNL     1       2.987   9.588 -24.436  1.00  0.00     0.027 A 
HETATM   37  C   UNL     1       2.537   8.660 -25.407  1.00  0.00     0.040 A 
ENDBRANCH  30  33
ENDBRANCH  26  27
ENDBRANCH   6  26
TORSDOF 7
ENDMDL
MODEL 3
REMARK VINA RESULT:      -9.6      5.198      7.888
REMARK  7 active torsions:
REMARK  status: ('A' for Active; 'I' for Inactive)
REMARK    1  A    between atoms: C_5  and  C_6 
REMARK       I    between atoms: C_6  and  N_7 
REMARK    2  A    between atoms: N_7  and  C_8 
REMARK    3  A    between atoms: C_8  and  C_9 
REMARK    4  A    between atoms: C_9  and  C_10 
REMARK    5  A    between atoms: N_15  and  C_17 
REMARK    6  A    between atoms: C_17  and  C_18 
REMARK    7  A    between atoms: C_21  and  C_22 
ROOT
HETATM    1  C   UNL     1     -13.668   4.069 -32.538  1.00  0.00     0.131 A 
HETATM    2  N   UNL     1     -12.875   3.513 -33.516  1.00  0.00    -0.319 N 
HETATM    3  C   UNL     1     -12.786   4.456 -34.508  1.00  0.00     0.131 A 
HETATM    4  C   UNL     1     -11.919   4.390 -35.714  1.00  0.00     0.108 C 
HETATM    5  C   UNL     1     -10.476   4.095 -35.323  1.00  0.00     0.243 C 
HETATM    6  N   UNL     1     -10.222   2.621 -34.986  1.00  0.00    -0.065 N 
HETATM    7  H   UNL     1      -9.846   2.223 -35.858  1.00  0.00     0.280 HD
HETATM    8  C   UNL     1     -11.435   1.769 -34.656  1.00  0.00     0.255 C 
HETATM    9  C   UNL     1     -12.214   2.232 -33.425  1.00  0.00     0.159 C 
HETATM   10  N   UNL     1     -13.528   5.488 -34.177  1.00  0.00    -0.135 NA
HETATM   11  N   UNL     1     -14.077   5.247 -32.949  1.00  0.00    -0.135 NA
ENDROOT
BRANCH   1  12
HETATM   12  C   UNL     1     -13.940   3.486 -31.194  1.00  0.00     0.100 C 
BRANCH  12  13
HETATM   13  C   UNL     1     -13.185   4.276 -30.122  1.00  0.00     0.130 C 
BRANCH  13  14
HETATM   14  N   UNL     1     -11.759   3.990 -30.093  1.00  0.00    -0.360 N 
HETATM   15  C   UNL     1     -10.831   4.866 -30.604  1.00  0.00     0.223 C 
HETATM   16  O   UNL     1     -11.143   5.903 -31.184  1.00  0.00    -0.273 OA
HETATM   17  H   UNL     1     -11.467   3.174 -29.565  1.00  0.00     0.162 HD
BRANCH  15  18
HETATM   18  C   UNL     1      -9.379   4.475 -30.353  1.00  0.00     0.103 C 
HETATM   19  C   UNL     1      -8.478   5.285 -31.286  1.00  0.00     0.248 C 
HETATM   20  N   UNL     1      -7.025   4.899 -31.084  1.00  0.00    -0.074 N 
HETATM   21  C   UNL     1      -6.104   5.748 -31.923  1.00  0.00     0.269 C 
HETATM   22  H   UNL     1      -6.775   5.097 -30.105  1.00  0.00     0.279 HD
HETATM   23  C   UNL     1      -6.783   3.427 -31.323  1.00  0.00     0.234 C 
HETATM   24  C   UNL     1      -7.669   2.616 -30.390  1.00  0.00     0.029 C 
HETATM   25  C   UNL     1      -9.146   2.973 -30.545  1.00  0.00     0.017 C 
ENDBRANCH  15  18
ENDBRANCH  13  14
ENDBRANCH  12  13
ENDBRANCH   1  12
BRANCH   6  26
HETATM   26  C   UNL     1      -9.093   2.448 -33.979  1.00  0.00     0.273 C 
BRANCH  26  27
HETATM   27  C   UNL     1      -8.372   1.137 -34.107  1.00  0.00    -0.033 A 
HETATM   28  C   UNL     1      -8.454   0.178 -33.089  1.00  0.00     0.010 A 
HETATM   29  C   UNL     1      -7.775  -1.039 -33.205  1.00  0.00     0.015 A 
HETATM   30  C   UNL     1      -7.003  -1.333 -34.337  1.00  0.00    -0.002 A 
HETATM   31  C   UNL     1      -6.926  -0.370 -35.352  1.00  0.00     0.015 A 
HETATM   32  C   UNL     1      -7.598   0.852 -35.240  1.00  0.00     0.010 A 
BRANCH  30  33
HETATM   33  C   UNL     1      -6.306  -2.611 -34.462  1.00  0.00     0.085 A 
HETATM   34  O   UNL     1      -5.000  -2.627 -34.052  1.00  0.00    -0.322 OA
HETATM   35  C   UNL     1      -4.527  -3.885 -34.245  1.00  0.00     0.142 A 
HETATM   36  C   UNL     1      -5.507  -4.688 -34.775  1.00  0.00     0.027 A 
HETATM   37  C   UNL     1      -6.654  -3.868 -34.918  1.00  0.00     0.040 A 
ENDBRANCH  30  33
ENDBRANCH  26  27
ENDBRANCH   6  26
TORSDOF 7
ENDMDL
MODEL 4
REMARK VINA RESULT:      -9.6      1.592      2.133
REMARK  7 active torsions:
REMARK  status: ('A' for Active; 'I' for Inactive)
REMARK    1  A    between atoms: C_5  and  C_6 
REMARK       I    between atoms: C_6  and  N_7 
REMARK    2  A    between atoms: N_7  and  C_8 
REMARK    3  A    between atoms: C_8  and  C_9 
REMARK    4  A    between atoms: C_9  and  C_10 
REMARK    5  A    between atoms: N_15  and  C_17 
REMARK    6  A    between atoms: C_17  and  C_18 
REMARK    7  A    between atoms: C_21  and  C_22 
ROOT
HETATM    1  C   UNL     1      -3.051   6.695 -31.836  1.00  0.00     0.131 A 
HETATM    2  N   UNL     1      -3.591   5.490 -31.447  1.00  0.00    -0.319 N 
HETATM    3  C   UNL     1      -4.481   5.785 -30.445  1.00  0.00     0.131 A 
HETATM    4  C   UNL     1      -5.429   4.838 -29.799  1.00  0.00     0.108 C 
HETATM    5  C   UNL     1      -6.250   4.099 -30.848  1.00  0.00     0.243 C 
HETATM    6  N   UNL     1      -5.487   2.961 -31.535  1.00  0.00    -0.065 N 
HETATM    7  H   UNL     1      -5.774   2.117 -31.019  1.00  0.00     0.280 HD
HETATM    8  C   UNL     1      -3.971   2.986 -31.432  1.00  0.00     0.255 C 
HETATM    9  C   UNL     1      -3.318   4.214 -32.066  1.00  0.00     0.159 C 
HETATM   10  N   UNL     1      -4.433   7.075 -30.204  1.00  0.00    -0.135 NA
HETATM   11  N   UNL     1      -3.542   7.642 -31.071  1.00  0.00    -0.135 NA
ENDROOT
BRANCH   1  12
HETATM   12  C   UNL     1      -2.139   6.912 -32.994  1.00  0.00     0.100 C 
BRANCH  12  13
HETATM   13  C   UNL     1      -0.710   7.142 -32.494  1.00  0.00     0.130 C 
BRANCH  13  14
HETATM   14  N   UNL     1      -0.613   7.224 -31.045  1.00  0.00    -0.360 N 
HETATM   15  C   UNL     1       0.194   6.379 -30.321  1.00  0.00     0.223 C 
HETATM   16  O   UNL     1       0.821   5.456 -30.834  1.00  0.00    -0.273 OA
HETATM   17  H   UNL     1      -1.067   8.016 -30.601  1.00  0.00     0.162 HD
BRANCH  15  18
HETATM   18  C   UNL     1       0.289   6.706 -28.835  1.00  0.00     0.103 C 
HETATM   19  C   UNL     1      -1.124   6.803 -28.257  1.00  0.00     0.248 C 
HETATM   20  N   UNL     1      -1.066   7.157 -26.783  1.00  0.00    -0.074 N 
HETATM   21  C   UNL     1      -2.441   7.166 -26.161  1.00  0.00     0.269 C 
HETATM   22  H   UNL     1      -0.543   6.415 -26.296  1.00  0.00     0.279 HD
HETATM   23  C   UNL     1      -0.343   8.459 -26.532  1.00  0.00     0.234 C 
HETATM   24  C   UNL     1       1.067   8.365 -27.097  1.00  0.00     0.029 C 
HETATM   25  C   UNL     1       1.069   8.000 -28.580  1.00  0.00     0.017 C 
ENDBRANCH  15  18
ENDBRANCH  13  14
ENDBRANCH  12  13
ENDBRANCH   1  12
BRANCH   6  26
HETATM   26  C   UNL     1      -5.974   2.716 -32.955  1.00  0.00     0.273 C 
BRANCH  26  27
HETATM   27  C   UNL     1      -5.949   1.269 -33.356  1.00  0.00    -0.033 A 
HETATM   28  C   UNL     1      -6.670   0.827 -34.473  1.00  0.00     0.010 A 
HETATM   29  C   UNL     1      -6.653  -0.522 -34.840  1.00  0.00     0.015 A 
HETATM   30  C   UNL     1      -5.914  -1.463 -34.109  1.00  0.00    -0.002 A 
HETATM   31  C   UNL     1      -5.193  -1.015 -32.995  1.00  0.00     0.015 A 
HETATM   32  C   UNL     1      -5.211   0.333 -32.617  1.00  0.00     0.010 A 
BRANCH  30  33
HETATM   33  C   UNL     1      -5.885  -2.869 -34.504  1.00  0.00     0.085 A 
HETATM   34  O   UNL     1      -4.786  -3.582 -34.111  1.00  0.00    -0.322 OA
HETATM   35  C   UNL     1      -4.938  -4.852 -34.567  1.00  0.00     0.142 A 
HETATM   36  C   UNL     1      -6.122  -4.976 -35.250  1.00  0.00     0.027 A 
HETATM   37  C   UNL     1      -6.735  -3.698 -35.213  1.00  0.00     0.040 A 
ENDBRANCH  30  33
ENDBRANCH  26  27
ENDBRANCH   6  26
TORSDOF 7
ENDMDL
MODEL 5
REMARK VINA RESULT:      -9.5      5.345      8.837
REMARK  7 active torsions:
REMARK  status: ('A' for Active; 'I' for Inactive)
REMARK    1  A    between atoms: C_5  and  C_6 
REMARK       I    between atoms: C_6  and  N_7 
REMARK    2  A    between atoms: N_7  and  C_8 
REMARK    3  A    between atoms: C_8  and  C_9 
REMARK    4  A    between atoms: C_9  and  C_10 
REMARK    5  A    between atoms: N_15  and  C_17 
REMARK    6  A    between atoms: C_17  and  C_18 
REMARK    7  A    between atoms: C_21  and  C_22 
ROOT
HETATM    1  C   UNL     1     -10.719   5.892 -32.120  1.00  0.00     0.131 A 
HETATM    2  N   UNL     1      -9.526   5.272 -31.824  1.00  0.00    -0.319 N 
HETATM    3  C   UNL     1      -9.827   4.302 -30.901  1.00  0.00     0.131 A 
HETATM    4  C   UNL     1      -8.901   3.262 -30.380  1.00  0.00     0.108 C 
HETATM    5  C   UNL     1      -8.227   2.517 -31.526  1.00  0.00     0.243 C 
HETATM    6  N   UNL     1      -7.080   3.300 -32.175  1.00  0.00    -0.065 N 
HETATM    7  H   UNL     1      -6.233   2.933 -31.717  1.00  0.00     0.280 HD
HETATM    8  C   UNL     1      -7.041   4.799 -31.929  1.00  0.00     0.255 C 
HETATM    9  C   UNL     1      -8.259   5.555 -32.457  1.00  0.00     0.159 C 
HETATM   10  N   UNL     1     -11.106   4.375 -30.614  1.00  0.00    -0.135 NA
HETATM   11  N   UNL     1     -11.662   5.365 -31.373  1.00  0.00    -0.135 NA
ENDROOT
BRANCH   1  12
HETATM   12  C   UNL     1     -10.934   6.918 -33.178  1.00  0.00     0.100 C 
BRANCH  12  13
HETATM   13  C   UNL     1     -12.111   6.509 -34.067  1.00  0.00     0.130 C 
BRANCH  13  14
HETATM   14  N   UNL     1     -12.257   5.069 -34.203  1.00  0.00    -0.360 N 
HETATM   15  C   UNL     1     -11.481   4.336 -35.069  1.00  0.00     0.223 C 
HETATM   16  O   UNL     1     -10.673   4.852 -35.838  1.00  0.00    -0.273 OA
HETATM   17  H   UNL     1     -12.869   4.607 -33.537  1.00  0.00     0.162 HD
BRANCH  15  18
HETATM   18  C   UNL     1     -11.665   2.826 -34.970  1.00  0.00     0.103 C 
HETATM   19  C   UNL     1     -13.140   2.523 -34.700  1.00  0.00     0.248 C 
HETATM   20  N   UNL     1     -13.354   1.027 -34.565  1.00  0.00    -0.074 N 
HETATM   21  C   UNL     1     -14.814   0.689 -34.392  1.00  0.00     0.269 C 
HETATM   22  H   UNL     1     -13.065   0.582 -35.447  1.00  0.00     0.279 HD
HETATM   23  C   UNL     1     -12.518   0.423 -33.461  1.00  0.00     0.234 C 
HETATM   24  C   UNL     1     -11.049   0.714 -33.729  1.00  0.00     0.029 C 
HETATM   25  C   UNL     1     -10.777   2.209 -33.884  1.00  0.00     0.017 C 
ENDBRANCH  15  18
ENDBRANCH  13  14
ENDBRANCH  12  13
ENDBRANCH   1  12
BRANCH   6  26
HETATM   26  C   UNL     1      -6.897   2.942 -33.642  1.00  0.00     0.273 C 
BRANCH  26  27
HETATM   27  C   UNL     1      -6.658   1.478 -33.877  1.00  0.00    -0.033 A 
HETATM   28  C   UNL     1      -5.647   0.801 -33.182  1.00  0.00     0.010 A 
HETATM   29  C   UNL     1      -5.420  -0.560 -33.407  1.00  0.00     0.015 A 
HETATM   30  C   UNL     1      -6.195  -1.281 -34.326  1.00  0.00    -0.002 A 
HETATM   31  C   UNL     1      -7.205  -0.599 -35.018  1.00  0.00     0.015 A 
HETATM   32  C   UNL     1      -7.433   0.765 -34.802  1.00  0.00     0.010 A 
BRANCH  30  33
HETATM   33  C   UNL     1      -5.965  -2.707 -34.550  1.00  0.00     0.085 A 
HETATM   34  O   UNL     1      -4.727  -3.177 -34.207  1.00  0.00    -0.322 OA
HETATM   35  C   UNL     1      -4.704  -4.506 -34.487  1.00  0.00     0.142 A 
HETATM   36  C   UNL     1      -5.910  -4.906 -35.006  1.00  0.00     0.027 A 
HETATM   37  C   UNL     1      -6.725  -3.748 -35.050  1.00  0.00     0.040 A 
ENDBRANCH  30  33
ENDBRANCH  26  27
ENDBRANCH   6  26
TORSDOF 7
ENDMDL
MODEL 6
REMARK VINA RESULT:      -9.5      2.979      4.910
REMARK  7 active torsions:
REMARK  status: ('A' for Active; 'I' for Inactive)
REMARK    1  A    between atoms: C_5  and  C_6 
REMARK       I    between atoms: C_6  and  N_7 
REMARK    2  A    between atoms: N_7  and  C_8 
REMARK    3  A    between atoms: C_8  and  C_9 
REMARK    4  A    between atoms: C_9  and  C_10 
REMARK    5  A    between atoms: N_15  and  C_17 
REMARK    6  A    between atoms: C_17  and  C_18 
REMARK    7  A    between atoms: C_21  and  C_22 
ROOT
HETATM    1  C   UNL     1      -6.628   3.477 -32.392  1.00  0.00     0.131 A 
HETATM    2  N   UNL     1      -7.967   3.753 -32.548  1.00  0.00    -0.319 N 
HETATM    3  C   UNL     1      -8.053   4.595 -33.627  1.00  0.00     0.131 A 
HETATM    4  C   UNL     1      -9.301   5.060 -34.288  1.00  0.00     0.108 C 
HETATM    5  C   UNL     1     -10.196   3.878 -34.642  1.00  0.00     0.243 C 
HETATM    6  N   UNL     1     -10.968   3.314 -33.444  1.00  0.00    -0.065 N 
HETATM    7  H   UNL     1     -11.893   3.762 -33.505  1.00  0.00     0.280 HD
HETATM    8  C   UNL     1     -10.451   3.669 -32.060  1.00  0.00     0.255 C 
HETATM    9  C   UNL     1      -9.036   3.171 -31.769  1.00  0.00     0.159 C 
HETATM   10  N   UNL     1      -6.839   4.859 -34.054  1.00  0.00    -0.135 NA
HETATM   11  N   UNL     1      -5.952   4.162 -33.285  1.00  0.00    -0.135 NA
ENDROOT
BRANCH   1  12
HETATM   12  C   UNL     1      -6.042   2.492 -31.440  1.00  0.00     0.100 C 
BRANCH  12  13
HETATM   13  C   UNL     1      -5.190   3.219 -30.397  1.00  0.00     0.130 C 
BRANCH  13  14
HETATM   14  N   UNL     1      -4.173   4.079 -30.983  1.00  0.00    -0.360 N 
HETATM   15  C   UNL     1      -2.967   3.585 -31.420  1.00  0.00     0.223 C 
HETATM   16  O   UNL     1      -2.637   2.410 -31.277  1.00  0.00    -0.273 OA
HETATM   17  H   UNL     1      -4.441   5.039 -31.173  1.00  0.00     0.162 HD
BRANCH  15  18
HETATM   18  C   UNL     1      -2.087   4.599 -32.142  1.00  0.00     0.103 C 
HETATM   19  C   UNL     1      -2.463   6.005 -31.674  1.00  0.00     0.248 C 
HETATM   20  N   UNL     1      -1.625   7.043 -32.396  1.00  0.00    -0.074 N 
HETATM   21  C   UNL     1      -1.906   8.435 -31.887  1.00  0.00     0.269 C 
HETATM   22  H   UNL     1      -0.635   6.861 -32.181  1.00  0.00     0.279 HD
HETATM   23  C   UNL     1      -1.782   6.966 -33.897  1.00  0.00     0.234 C 
HETATM   24  C   UNL     1      -1.400   5.572 -34.369  1.00  0.00     0.029 C 
HETATM   25  C   UNL     1      -2.208   4.484 -33.665  1.00  0.00     0.017 C 
ENDBRANCH  15  18
ENDBRANCH  13  14
ENDBRANCH  12  13
ENDBRANCH   1  12
BRANCH   6  26
HETATM   26  C   UNL     1     -11.261   1.828 -33.596  1.00  0.00     0.273 C 
BRANCH  26  27
HETATM   27  C   UNL     1     -10.026   0.984 -33.731  1.00  0.00    -0.033 A 
HETATM   28  C   UNL     1      -9.700   0.039 -32.750  1.00  0.00     0.010 A 
HETATM   29  C   UNL     1      -8.546  -0.741 -32.873  1.00  0.00     0.015 A 
HETATM   30  C   UNL     1      -7.691  -0.602 -33.975  1.00  0.00    -0.002 A 
HETATM   31  C   UNL     1      -8.023   0.345 -34.953  1.00  0.00     0.015 A 
HETATM   32  C   UNL     1      -9.173   1.133 -34.834  1.00  0.00     0.010 A 
BRANCH  30  33
HETATM   33  C   UNL     1      -6.493  -1.427 -34.108  1.00  0.00     0.085 A 
HETATM   34  O   UNL     1      -6.654  -2.622 -34.755  1.00  0.00    -0.322 OA
HETATM   35  C   UNL     1      -5.445  -3.240 -34.777  1.00  0.00     0.142 A 
HETATM   36  C   UNL     1      -4.500  -2.464 -34.154  1.00  0.00     0.027 A 
HETATM   37  C   UNL     1      -5.173  -1.295 -33.719  1.00  0.00     0.040 A 
ENDBRANCH  30  33
ENDBRANCH  26  27
ENDBRANCH   6  26
TORSDOF 7
ENDMDL
MODEL 7
REMARK VINA RESULT:      -9.3      2.176      3.544
REMARK  7 active torsions:
REMARK  status: ('A' for Active; 'I' for Inactive)
REMARK    1  A    between atoms: C_5  and  C_6 
REMARK       I    between atoms: C_6  and  N_7 
REMARK    2  A    between atoms: N_7  and  C_8 
REMARK    3  A    between atoms: C_8  and  C_9 
REMARK    4  A    between atoms: C_9  and  C_10 
REMARK    5  A    between atoms: N_15  and  C_17 
REMARK    6  A    between atoms: C_17  and  C_18 
REMARK    7  A    between atoms: C_21  and  C_22 
ROOT
HETATM    1  C   UNL     1      -2.139   7.280 -30.231  1.00  0.00     0.131 A 
HETATM    2  N   UNL     1      -2.737   6.513 -31.205  1.00  0.00    -0.319 N 
HETATM    3  C   UNL     1      -1.805   6.380 -32.203  1.00  0.00     0.131 A 
HETATM    4  C   UNL     1      -1.917   5.516 -33.407  1.00  0.00     0.108 C 
HETATM    5  C   UNL     1      -2.275   4.088 -33.014  1.00  0.00     0.243 C 
HETATM    6  N   UNL     1      -3.756   3.901 -32.667  1.00  0.00    -0.065 N 
HETATM    7  H   UNL     1      -4.176   3.543 -33.537  1.00  0.00     0.280 HD
HETATM    8  C   UNL     1      -4.550   5.152 -32.334  1.00  0.00     0.255 C 
HETATM    9  C   UNL     1      -4.046   5.910 -31.107  1.00  0.00     0.159 C 
HETATM   10  N   UNL     1      -0.739   7.075 -31.879  1.00  0.00    -0.135 NA
HETATM   11  N   UNL     1      -0.947   7.635 -30.650  1.00  0.00    -0.135 NA
ENDROOT
BRANCH   1  12
HETATM   12  C   UNL     1      -2.701   7.579 -28.884  1.00  0.00     0.100 C 
BRANCH  12  13
HETATM   13  C   UNL     1      -1.734   7.100 -27.799  1.00  0.00     0.130 C 
BRANCH  13  14
HETATM   14  N   UNL     1      -0.846   8.146 -27.317  1.00  0.00    -0.360 N 
HETATM   15  C   UNL     1       0.410   7.868 -26.831  1.00  0.00     0.223 C 
HETATM   16  O   UNL     1       0.834   6.723 -26.700  1.00  0.00    -0.273 OA
HETATM   17  H   UNL     1      -1.142   9.104 -27.472  1.00  0.00     0.162 HD
BRANCH  15  18
HETATM   18  C   UNL     1       1.257   9.096 -26.513  1.00  0.00     0.103 C 
HETATM   19  C   UNL     1       2.244   8.742 -25.400  1.00  0.00     0.248 C 
HETATM   20  N   UNL     1       3.084   9.951 -25.036  1.00  0.00    -0.074 N 
HETATM   21  C   UNL     1       4.133   9.609 -24.008  1.00  0.00     0.269 C 
HETATM   22  H   UNL     1       3.601  10.246 -25.877  1.00  0.00     0.279 HD
HETATM   23  C   UNL     1       2.242  11.124 -24.591  1.00  0.00     0.234 C 
HETATM   24  C   UNL     1       1.264  11.487 -25.698  1.00  0.00     0.029 C 
HETATM   25  C   UNL     1       0.397  10.299 -26.112  1.00  0.00     0.017 C 
ENDBRANCH  15  18
ENDBRANCH  13  14
ENDBRANCH  12  13
ENDBRANCH   1  12
BRANCH   6  26
HETATM   26  C   UNL     1      -3.974   2.782 -31.659  1.00  0.00     0.273 C 
BRANCH  26  27
HETATM   27  C   UNL     1      -4.399   1.485 -32.285  1.00  0.00    -0.033 A 
HETATM   28  C   UNL     1      -5.584   1.408 -33.029  1.00  0.00     0.010 A 
HETATM   29  C   UNL     1      -5.983   0.198 -33.604  1.00  0.00     0.015 A 
HETATM   30  C   UNL     1      -5.212  -0.963 -33.457  1.00  0.00    -0.002 A 
HETATM   31  C   UNL     1      -4.028  -0.880 -32.713  1.00  0.00     0.015 A 
HETATM   32  C   UNL     1      -3.625   0.326 -32.129  1.00  0.00     0.010 A 
BRANCH  30  33
HETATM   33  C   UNL     1      -5.624  -2.224 -34.071  1.00  0.00     0.085 A 
HETATM   34  O   UNL     1      -4.651  -3.178 -34.197  1.00  0.00    -0.322 OA
HETATM   35  C   UNL     1      -5.218  -4.263 -34.784  1.00  0.00     0.142 A 
HETATM   36  C   UNL     1      -6.546  -4.029 -35.040  1.00  0.00     0.027 A 
HETATM   37  C   UNL     1      -6.811  -2.714 -34.583  1.00  0.00     0.040 A 
ENDBRANCH  30  33
ENDBRANCH  26  27
ENDBRANCH   6  26
TORSDOF 7
ENDMDL
MODEL 8
REMARK VINA RESULT:      -9.3      1.891      2.865
REMARK  7 active torsions:
REMARK  status: ('A' for Active; 'I' for Inactive)
REMARK    1  A    between atoms: C_5  and  C_6 
REMARK       I    between atoms: C_6  and  N_7 
REMARK    2  A    between atoms: N_7  and  C_8 
REMARK    3  A    between atoms: C_8  and  C_9 
REMARK    4  A    between atoms: C_9  and  C_10 
REMARK    5  A    between atoms: N_15  and  C_17 
REMARK    6  A    between atoms: C_17  and  C_18 
REMARK    7  A    between atoms: C_21  and  C_22 
ROOT
HETATM    1  C   UNL     1      -3.756   8.041 -31.522  1.00  0.00     0.131 A 
HETATM    2  N   UNL     1      -3.786   6.992 -32.413  1.00  0.00    -0.319 N 
HETATM    3  C   UNL     1      -2.547   6.965 -33.002  1.00  0.00     0.131 A 
HETATM    4  C   UNL     1      -2.032   5.921 -33.928  1.00  0.00     0.108 C 
HETATM    5  C   UNL     1      -2.210   4.532 -33.326  1.00  0.00     0.243 C 
HETATM    6  N   UNL     1      -3.644   4.000 -33.427  1.00  0.00    -0.065 N 
HETATM    7  H   UNL     1      -3.634   3.405 -34.268  1.00  0.00     0.280 HD
HETATM    8  C   UNL     1      -4.742   5.019 -33.681  1.00  0.00     0.255 C 
HETATM    9  C   UNL     1      -4.888   6.074 -32.585  1.00  0.00     0.159 C 
HETATM   10  N   UNL     1      -1.839   7.970 -32.542  1.00  0.00    -0.135 NA
HETATM   11  N   UNL     1      -2.592   8.640 -31.620  1.00  0.00    -0.135 NA
ENDROOT
BRANCH   1  12
HETATM   12  C   UNL     1      -4.820   8.384 -30.538  1.00  0.00     0.100 C 
BRANCH  12  13
HETATM   13  C   UNL     1      -4.597   7.607 -29.239  1.00  0.00     0.130 C 
BRANCH  13  14
HETATM   14  N   UNL     1      -3.203   7.562 -28.826  1.00  0.00    -0.360 N 
HETATM   15  C   UNL     1      -2.696   8.421 -27.881  1.00  0.00     0.223 C 
HETATM   16  O   UNL     1      -3.358   9.328 -27.382  1.00  0.00    -0.273 OA
HETATM   17  H   UNL     1      -2.650   6.785 -29.171  1.00  0.00     0.162 HD
BRANCH  15  18
HETATM   18  C   UNL     1      -1.259   8.133 -27.461  1.00  0.00     0.103 C 
HETATM   19  C   UNL     1      -0.854   9.121 -26.367  1.00  0.00     0.248 C 
HETATM   20  N   UNL     1       0.584   8.882 -25.947  1.00  0.00    -0.074 N 
HETATM   21  C   UNL     1       0.984   9.778 -24.801  1.00  0.00     0.269 C 
HETATM   22  H   UNL     1       0.656   7.919 -25.587  1.00  0.00     0.279 HD
HETATM   23  C   UNL     1       1.549   9.005 -27.102  1.00  0.00     0.234 C 
HETATM   24  C   UNL     1       1.157   8.017 -28.190  1.00  0.00     0.029 C 
HETATM   25  C   UNL     1      -0.289   8.207 -28.645  1.00  0.00     0.017 C 
ENDBRANCH  15  18
ENDBRANCH  13  14
ENDBRANCH  12  13
ENDBRANCH   1  12
BRANCH   6  26
HETATM   26  C   UNL     1      -3.983   3.042 -32.295  1.00  0.00     0.273 C 
BRANCH  26  27
HETATM   27  C   UNL     1      -4.402   1.680 -32.768  1.00  0.00    -0.033 A 
HETATM   28  C   UNL     1      -5.694   1.465 -33.265  1.00  0.00     0.010 A 
HETATM   29  C   UNL     1      -6.085   0.194 -33.696  1.00  0.00     0.015 A 
HETATM   30  C   UNL     1      -5.201  -0.893 -33.648  1.00  0.00    -0.002 A 
HETATM   31  C   UNL     1      -3.910  -0.671 -33.150  1.00  0.00     0.015 A 
HETATM   32  C   UNL     1      -3.513   0.597 -32.711  1.00  0.00     0.010 A 
BRANCH  30  33
HETATM   33  C   UNL     1      -5.608  -2.217 -34.112  1.00  0.00     0.085 A 
HETATM   34  O   UNL     1      -4.635  -3.178 -34.116  1.00  0.00    -0.322 OA
HETATM   35  C   UNL     1      -5.196  -4.325 -34.576  1.00  0.00     0.142 A 
HETATM   36  C   UNL     1      -6.522  -4.124 -34.871  1.00  0.00     0.027 A 
HETATM   37  C   UNL     1      -6.790  -2.764 -34.575  1.00  0.00     0.040 A 
ENDBRANCH  30  33
ENDBRANCH  26  27
ENDBRANCH   6  26
TORSDOF 7
ENDMDL
MODEL 9
REMARK VINA RESULT:      -9.1      3.436      4.272
REMARK  7 active torsions:
REMARK  status: ('A' for Active; 'I' for Inactive)
REMARK    1  A    between atoms: C_5  and  C_6 
REMARK       I    between atoms: C_6  and  N_7 
REMARK    2  A    between atoms: N_7  and  C_8 
REMARK    3  A    between atoms: C_8  and  C_9 
REMARK    4  A    between atoms: C_9  and  C_10 
REMARK    5  A    between atoms: N_15  and  C_17 
REMARK    6  A    between atoms: C_17  and  C_18 
REMARK    7  A    between atoms: C_21  and  C_22 
ROOT
HETATM    1  C   UNL     1      -4.017   5.384 -33.571  1.00  0.00     0.131 A 
HETATM    2  N   UNL     1      -4.352   4.344 -32.734  1.00  0.00    -0.319 N 
HETATM    3  C   UNL     1      -5.292   4.845 -31.870  1.00  0.00     0.131 A 
HETATM    4  C   UNL     1      -6.076   4.072 -30.871  1.00  0.00     0.108 C 
HETATM    5  C   UNL     1      -6.747   2.871 -31.526  1.00  0.00     0.243 C 
HETATM    6  N   UNL     1      -5.793   1.697 -31.776  1.00  0.00    -0.065 N 
HETATM    7  H   UNL     1      -5.941   1.074 -30.969  1.00  0.00     0.280 HD
HETATM    8  C   UNL     1      -4.305   2.003 -31.768  1.00  0.00     0.255 C 
HETATM    9  C   UNL     1      -3.859   2.990 -32.846  1.00  0.00     0.159 C 
HETATM   10  N   UNL     1      -5.466   6.121 -32.130  1.00  0.00    -0.135 NA
HETATM   11  N   UNL     1      -4.672   6.456 -33.190  1.00  0.00    -0.135 NA
ENDROOT
BRANCH   1  12
HETATM   12  C   UNL     1      -3.139   5.294 -34.771  1.00  0.00     0.100 C 
BRANCH  12  13
HETATM   13  C   UNL     1      -1.772   5.910 -34.462  1.00  0.00     0.130 C 
BRANCH  13  14
HETATM   14  N   UNL     1      -1.393   5.798 -33.063  1.00  0.00    -0.360 N 
HETATM   15  C   UNL     1      -1.220   6.904 -32.265  1.00  0.00     0.223 C 
HETATM   16  O   UNL     1      -1.297   8.053 -32.693  1.00  0.00    -0.273 OA
HETATM   17  H   UNL     1      -1.385   4.865 -32.665  1.00  0.00     0.162 HD
BRANCH  15  18
HETATM   18  C   UNL     1      -0.973   6.596 -30.792  1.00  0.00     0.103 C 
HETATM   19  C   UNL     1      -2.158   7.108 -29.973  1.00  0.00     0.248 C 
HETATM   20  N   UNL     1      -1.931   6.845 -28.496  1.00  0.00    -0.074 N 
HETATM   21  C   UNL     1      -3.125   7.252 -27.670  1.00  0.00     0.269 C 
HETATM   22  H   UNL     1      -1.833   5.828 -28.364  1.00  0.00     0.279 HD
HETATM   23  C   UNL     1      -0.665   7.491 -27.985  1.00  0.00     0.234 C 
HETATM   24  C   UNL     1       0.519   6.978 -28.790  1.00  0.00     0.029 C 
HETATM   25  C   UNL     1       0.338   7.209 -30.289  1.00  0.00     0.017 C 
ENDBRANCH  15  18
ENDBRANCH  13  14
ENDBRANCH  12  13
ENDBRANCH   1  12
BRANCH   6  26
HETATM   26  C   UNL     1      -6.213   0.861 -32.976  1.00  0.00     0.273 C 
BRANCH  26  27
HETATM   27  C   UNL     1      -7.695   0.857 -33.215  1.00  0.00    -0.033 A 
HETATM   28  C   UNL     1      -8.268   1.729 -34.150  1.00  0.00     0.010 A 
HETATM   29  C   UNL     1      -9.649   1.731 -34.365  1.00  0.00     0.015 A 
HETATM   30  C   UNL     1     -10.494   0.862 -33.660  1.00  0.00    -0.002 A 
HETATM   31  C   UNL     1      -9.915  -0.008 -32.727  1.00  0.00     0.015 A 
HETATM   32  C   UNL     1      -8.534  -0.011 -32.501  1.00  0.00     0.010 A 
BRANCH  30  33
HETATM   33  C   UNL     1     -11.936   0.856 -33.896  1.00  0.00     0.085 A 
HETATM   34  O   UNL     1     -12.632  -0.181 -33.338  1.00  0.00    -0.322 OA
HETATM   35  C   UNL     1     -13.940  -0.017 -33.666  1.00  0.00     0.142 A 
HETATM   36  C   UNL     1     -14.104   1.112 -34.429  1.00  0.00     0.027 A 
HETATM   37  C   UNL     1     -12.813   1.676 -34.581  1.00  0.00     0.040 A 
ENDBRANCH  30  33
ENDBRANCH  26  27
ENDBRANCH   6  26
TORSDOF 7
ENDMDL
MODEL 10
REMARK VINA RESULT:      -9.0      2.619     11.155
REMARK  7 active torsions:
REMARK  status: ('A' for Active; 'I' for Inactive)
REMARK    1  A    between atoms: C_5  and  C_6 
REMARK       I    between atoms: C_6  and  N_7 
REMARK    2  A    between atoms: N_7  and  C_8 
REMARK    3  A    between atoms: C_8  and  C_9 
REMARK    4  A    between atoms: C_9  and  C_10 
REMARK    5  A    between atoms: N_15  and  C_17 
REMARK    6  A    between atoms: C_17  and  C_18 
REMARK    7  A    between atoms: C_21  and  C_22 
ROOT
HETATM    1  C   UNL     1      -4.201   4.664 -32.344  1.00  0.00     0.131 A 
HETATM    2  N   UNL     1      -3.225   5.623 -32.192  1.00  0.00    -0.319 N 
HETATM    3  C   UNL     1      -3.864   6.733 -31.700  1.00  0.00     0.131 A 
HETATM    4  C   UNL     1      -3.219   7.987 -31.229  1.00  0.00     0.108 C 
HETATM    5  C   UNL     1      -2.127   7.681 -30.211  1.00  0.00     0.243 C 
HETATM    6  N   UNL     1      -0.824   7.177 -30.843  1.00  0.00    -0.065 N 
HETATM    7  H   UNL     1      -0.234   8.018 -30.910  1.00  0.00     0.280 HD
HETATM    8  C   UNL     1      -0.907   6.642 -32.262  1.00  0.00     0.255 C 
HETATM    9  C   UNL     1      -1.813   5.422 -32.424  1.00  0.00     0.159 C 
HETATM   10  N   UNL     1      -5.150   6.479 -31.621  1.00  0.00    -0.135 NA
HETATM   11  N   UNL     1      -5.359   5.190 -32.021  1.00  0.00    -0.135 NA
ENDROOT
BRANCH   1  12
HETATM   12  C   UNL     1      -3.977   3.239 -32.714  1.00  0.00     0.100 C 
BRANCH  12  13
HETATM   13  C   UNL     1      -4.644   2.323 -31.685  1.00  0.00     0.130 C 
BRANCH  13  14
HETATM   14  N   UNL     1      -5.151   1.086 -32.257  1.00  0.00    -0.360 N 
HETATM   15  C   UNL     1      -4.320   0.040 -32.579  1.00  0.00     0.223 C 
HETATM   16  O   UNL     1      -3.097   0.106 -32.481  1.00  0.00    -0.273 OA
HETATM   17  H   UNL     1      -6.159   0.977 -32.290  1.00  0.00     0.162 HD
BRANCH  15  18
HETATM   18  C   UNL     1      -5.036  -1.230 -33.024  1.00  0.00     0.103 C 
HETATM   19  C   UNL     1      -3.994  -2.309 -33.324  1.00  0.00     0.248 C 
HETATM   20  N   UNL     1      -4.672  -3.580 -33.800  1.00  0.00    -0.074 N 
HETATM   21  C   UNL     1      -3.677  -4.693 -34.012  1.00  0.00     0.269 C 
HETATM   22  H   UNL     1      -5.301  -3.905 -33.053  1.00  0.00     0.279 HD
HETATM   23  C   UNL     1      -5.514  -3.355 -35.033  1.00  0.00     0.234 C 
HETATM   24  C   UNL     1      -6.559  -2.290 -34.738  1.00  0.00     0.029 C 
HETATM   25  C   UNL     1      -5.931  -0.988 -34.245  1.00  0.00     0.017 C 
ENDBRANCH  15  18
ENDBRANCH  13  14
ENDBRANCH  12  13
ENDBRANCH   1  12
BRANCH   6  26
HETATM   26  C   UNL     1      -0.053   6.252 -29.912  1.00  0.00     0.273 C 
BRANCH  26  27
HETATM   27  C   UNL     1       0.426   6.926 -28.659  1.00  0.00    -0.033 A 
HETATM   28  C   UNL     1       0.107   6.400 -27.401  1.00  0.00     0.010 A 
HETATM   29  C   UNL     1       0.546   7.033 -26.235  1.00  0.00     0.015 A 
HETATM   30  C   UNL     1       1.317   8.202 -26.291  1.00  0.00    -0.002 A 
HETATM   31  C   UNL     1       1.634   8.724 -27.552  1.00  0.00     0.015 A 
HETATM   32  C   UNL     1       1.192   8.099 -28.724  1.00  0.00     0.010 A 
BRANCH  30  33
HETATM   33  C   UNL     1       1.787   8.855 -25.071  1.00  0.00     0.085 A 
HETATM   34  O   UNL     1       0.845   9.542 -24.356  1.00  0.00    -0.322 OA
HETATM   35  C   UNL     1       1.465  10.074 -23.271  1.00  0.00     0.142 A 
HETATM   36  C   UNL     1       2.797   9.742 -23.271  1.00  0.00     0.027 A 
HETATM   37  C   UNL     1       3.009   8.957 -24.432  1.00  0.00     0.040 A 
ENDBRANCH  30  33
ENDBRANCH  26  27
ENDBRANCH   6  26
TORSDOF 7
ENDMDL
