MODEL 1
REMARK VINA RESULT:     -10.8      0.000      0.000
REMARK  6 active torsions:
REMARK  status: ('A' for Active; 'I' for Inactive)
REMARK    1  A    between atoms: C_2  and  O_3 
REMARK    2  A    between atoms: C_2  and  C_4 
REMARK    3  A    between atoms: C_6  and  N_7 
REMARK       I    between atoms: N_7  and  C_8 
REMARK    4  A    between atoms: C_8  and  C_9 
REMARK    5  A    between atoms: C_12  and  C_13 
REMARK    6  A    between atoms: C_18  and  C_19 
ROOT
HETATM    1  C   UNL     1      -5.210   1.107 -31.772  1.00  0.00     0.096 C 
HETATM    2  C   UNL     1      -5.866   0.516 -32.836  1.00  0.00     0.138 C 
HETATM    3  N   UNL     1      -7.106   0.155 -32.358  1.00  0.00    -0.240 N 
HETATM    4  C   UNL     1      -8.127  -0.516 -33.143  1.00  0.00     0.221 C 
HETATM    5  C   UNL     1      -7.802  -0.396 -34.643  1.00  0.00     0.066 C 
HETATM    6  C   UNL     1      -6.320  -0.687 -34.920  1.00  0.00     0.118 C 
HETATM    7  N   UNL     1      -5.498   0.236 -34.120  1.00  0.00    -0.365 N 
HETATM    8  N   UNL     1      -7.229   0.307 -31.030  1.00  0.00    -0.181 NA
HETATM    9  C   UNL     1      -6.089   0.909 -30.681  1.00  0.00     0.160 C 
HETATM   10  H   UNL     1      -4.502   0.138 -34.328  1.00  0.00     0.161 HD
ENDROOT
BRANCH   1  11
HETATM   11  C   UNL     1      -3.911   1.754 -31.723  1.00  0.00     0.261 C 
HETATM   12  N   UNL     1      -3.907   3.016 -32.289  1.00  0.00    -0.323 N 
HETATM   13  H   UNL     1      -4.813   3.353 -32.598  1.00  0.00     0.169 HD
HETATM   14  O   UNL     1      -2.964   1.204 -31.173  1.00  0.00    -0.267 OA
BRANCH  12  15
HETATM   15  C   UNL     1      -2.841   3.935 -32.337  1.00  0.00     0.035 A 
HETATM   16  C   UNL     1      -2.207   4.453 -31.204  1.00  0.00     0.039 A 
HETATM   17  C   UNL     1      -1.167   5.394 -31.319  1.00  0.00    -0.028 A 
HETATM   18  C   UNL     1      -0.776   5.818 -32.596  1.00  0.00     0.010 A 
HETATM   19  C   UNL     1      -1.388   5.292 -33.732  1.00  0.00     0.003 A 
HETATM   20  C   UNL     1      -2.411   4.351 -33.602  1.00  0.00     0.029 A 
BRANCH  17  21
HETATM   21  C   UNL     1      -0.525   5.959 -30.069  1.00  0.00     0.147 C 
HETATM   22  C   UNL     1       0.521   7.015 -30.394  1.00  0.00     0.044 C 
BRANCH  21  23
HETATM   23  O   UNL     1       0.089   4.919 -29.308  1.00  0.00    -0.391 OA
HETATM   24  H   UNL     1      -0.462   4.127 -29.425  1.00  0.00     0.210 HD
ENDBRANCH  21  23
ENDBRANCH  17  21
ENDBRANCH  12  15
ENDBRANCH   1  11
BRANCH   4  25
HETATM   25  C   UNL     1      -9.503   0.056 -32.880  1.00  0.00     0.409 C 
HETATM   26  F   UNL     1     -10.396  -0.852 -32.437  1.00  0.00    -0.169 F 
HETATM   27  F   UNL     1      -9.472   1.086 -32.004  1.00  0.00    -0.169 F 
HETATM   28  F   UNL     1     -10.016   0.554 -34.039  1.00  0.00    -0.169 F 
ENDBRANCH   4  25
BRANCH   6  29
HETATM   29  C   UNL     1      -5.963  -2.157 -34.733  1.00  0.00    -0.035 A 
HETATM   30  C   UNL     1      -4.661  -2.487 -34.310  1.00  0.00     0.009 A 
HETATM   31  C   UNL     1      -4.266  -3.818 -34.155  1.00  0.00     0.001 A 
HETATM   32  C   UNL     1      -5.167  -4.846 -34.411  1.00  0.00     0.000 A 
HETATM   33  C   UNL     1      -6.463  -4.543 -34.818  1.00  0.00     0.001 A 
HETATM   34  C   UNL     1      -6.858  -3.211 -34.976  1.00  0.00     0.009 A 
ENDBRANCH   6  29
TORSDOF 6
ENDMDL
MODEL 2
REMARK VINA RESULT:      -9.8      2.032      2.405
REMARK  6 active torsions:
REMARK  status: ('A' for Active; 'I' for Inactive)
REMARK    1  A    between atoms: C_2  and  O_3 
REMARK    2  A    between atoms: C_2  and  C_4 
REMARK    3  A    between atoms: C_6  and  N_7 
REMARK       I    between atoms: N_7  and  C_8 
REMARK    4  A    between atoms: C_8  and  C_9 
REMARK    5  A    between atoms: C_12  and  C_13 
REMARK    6  A    between atoms: C_18  and  C_19 
ROOT
HETATM    1  C   UNL     1      -6.204   3.019 -32.988  1.00  0.00     0.096 C 
HETATM    2  C   UNL     1      -6.732   1.901 -33.607  1.00  0.00     0.138 C 
HETATM    3  N   UNL     1      -7.578   1.327 -32.684  1.00  0.00    -0.240 N 
HETATM    4  C   UNL     1      -8.339   0.112 -32.912  1.00  0.00     0.221 C 
HETATM    5  C   UNL     1      -8.391  -0.204 -34.418  1.00  0.00     0.066 C 
HETATM    6  C   UNL     1      -7.012  -0.041 -35.072  1.00  0.00     0.118 C 
HETATM    7  N   UNL     1      -6.532   1.330 -34.830  1.00  0.00    -0.365 N 
HETATM    8  N   UNL     1      -7.498   1.888 -31.468  1.00  0.00    -0.181 NA
HETATM    9  C   UNL     1      -6.685   2.930 -31.661  1.00  0.00     0.160 C 
HETATM   10  H   UNL     1      -5.651   1.517 -35.314  1.00  0.00     0.161 HD
ENDROOT
BRANCH   1  11
HETATM   11  C   UNL     1      -5.327   4.049 -33.518  1.00  0.00     0.261 C 
HETATM   12  N   UNL     1      -4.171   4.217 -32.778  1.00  0.00    -0.323 N 
HETATM   13  H   UNL     1      -4.050   3.564 -32.011  1.00  0.00     0.169 HD
HETATM   14  O   UNL     1      -5.615   4.636 -34.555  1.00  0.00    -0.267 OA
BRANCH  12  15
HETATM   15  C   UNL     1      -3.085   5.070 -33.058  1.00  0.00     0.035 A 
HETATM   16  C   UNL     1      -2.729   6.163 -32.264  1.00  0.00     0.039 A 
HETATM   17  C   UNL     1      -1.651   6.997 -32.616  1.00  0.00    -0.028 A 
HETATM   18  C   UNL     1      -0.937   6.721 -33.790  1.00  0.00     0.010 A 
HETATM   19  C   UNL     1      -1.273   5.622 -34.578  1.00  0.00     0.003 A 
HETATM   20  C   UNL     1      -2.338   4.797 -34.209  1.00  0.00     0.029 A 
BRANCH  17  21
HETATM   21  C   UNL     1      -1.314   8.192 -31.750  1.00  0.00     0.147 C 
HETATM   22  C   UNL     1      -1.369   7.853 -30.267  1.00  0.00     0.044 C 
BRANCH  21  23
HETATM   23  O   UNL     1      -2.211   9.271 -32.010  1.00  0.00    -0.391 OA
HETATM   24  H   UNL     1      -2.446   9.651 -31.147  1.00  0.00     0.210 HD
ENDBRANCH  21  23
ENDBRANCH  17  21
ENDBRANCH  12  15
ENDBRANCH   1  11
BRANCH   4  25
HETATM   25  C   UNL     1      -9.749   0.224 -32.373  1.00  0.00     0.409 C 
HETATM   26  F   UNL     1     -10.402   1.331 -32.782  1.00  0.00    -0.169 F 
HETATM   27  F   UNL     1     -10.504  -0.855 -32.682  1.00  0.00    -0.169 F 
HETATM   28  F   UNL     1      -9.712   0.289 -31.014  1.00  0.00    -0.169 F 
ENDBRANCH   4  25
BRANCH   6  29
HETATM   29  C   UNL     1      -6.028  -1.127 -34.652  1.00  0.00    -0.035 A 
HETATM   30  C   UNL     1      -6.260  -2.450 -35.076  1.00  0.00     0.009 A 
HETATM   31  C   UNL     1      -5.413  -3.492 -34.692  1.00  0.00     0.001 A 
HETATM   32  C   UNL     1      -4.310  -3.231 -33.885  1.00  0.00     0.000 A 
HETATM   33  C   UNL     1      -4.055  -1.930 -33.465  1.00  0.00     0.001 A 
HETATM   34  C   UNL     1      -4.904  -0.887 -33.845  1.00  0.00     0.009 A 
ENDBRANCH   6  29
TORSDOF 6
ENDMDL
MODEL 3
REMARK VINA RESULT:      -9.4      4.771      7.504
REMARK  6 active torsions:
REMARK  status: ('A' for Active; 'I' for Inactive)
REMARK    1  A    between atoms: C_2  and  O_3 
REMARK    2  A    between atoms: C_2  and  C_4 
REMARK    3  A    between atoms: C_6  and  N_7 
REMARK       I    between atoms: N_7  and  C_8 
REMARK    4  A    between atoms: C_8  and  C_9 
REMARK    5  A    between atoms: C_12  and  C_13 
REMARK    6  A    between atoms: C_18  and  C_19 
ROOT
HETATM    1  C   UNL     1      -7.956   1.652 -32.789  1.00  0.00     0.096 C 
HETATM    2  C   UNL     1      -9.072   2.251 -33.345  1.00  0.00     0.138 C 
HETATM    3  N   UNL     1      -9.608   3.038 -32.350  1.00  0.00    -0.240 N 
HETATM    4  C   UNL     1     -10.808   3.843 -32.495  1.00  0.00     0.221 C 
HETATM    5  C   UNL     1     -11.150   4.015 -33.987  1.00  0.00     0.066 C 
HETATM    6  C   UNL     1     -11.032   2.686 -34.746  1.00  0.00     0.118 C 
HETATM    7  N   UNL     1      -9.670   2.157 -34.567  1.00  0.00    -0.365 N 
HETATM    8  N   UNL     1      -9.027   2.854 -31.154  1.00  0.00    -0.181 NA
HETATM    9  C   UNL     1      -8.009   2.034 -31.428  1.00  0.00     0.160 C 
HETATM   10  H   UNL     1      -9.513   1.311 -35.120  1.00  0.00     0.161 HD
ENDROOT
BRANCH   1  11
HETATM   11  C   UNL     1      -6.958   0.795 -33.404  1.00  0.00     0.261 C 
HETATM   12  N   UNL     1      -6.477  -0.182 -32.552  1.00  0.00    -0.323 N 
HETATM   13  H   UNL     1      -6.924  -0.221 -31.642  1.00  0.00     0.169 HD
HETATM   14  O   UNL     1      -6.656   0.940 -34.583  1.00  0.00    -0.267 OA
BRANCH  12  15
HETATM   15  C   UNL     1      -5.567  -1.215 -32.852  1.00  0.00     0.035 A 
HETATM   16  C   UNL     1      -5.813  -2.222 -33.791  1.00  0.00     0.039 A 
HETATM   17  C   UNL     1      -4.875  -3.245 -34.022  1.00  0.00    -0.028 A 
HETATM   18  C   UNL     1      -3.683  -3.250 -33.285  1.00  0.00     0.010 A 
HETATM   19  C   UNL     1      -3.421  -2.240 -32.362  1.00  0.00     0.003 A 
HETATM   20  C   UNL     1      -4.356  -1.225 -32.152  1.00  0.00     0.029 A 
BRANCH  17  21
HETATM   21  C   UNL     1      -5.189  -4.337 -35.023  1.00  0.00     0.147 C 
HETATM   22  C   UNL     1      -6.678  -4.424 -35.323  1.00  0.00     0.044 C 
BRANCH  21  23
HETATM   23  O   UNL     1      -4.741  -5.603 -34.541  1.00  0.00    -0.391 OA
HETATM   24  H   UNL     1      -5.502  -6.016 -34.098  1.00  0.00     0.210 HD
ENDBRANCH  21  23
ENDBRANCH  17  21
ENDBRANCH  12  15
ENDBRANCH   1  11
BRANCH   4  25
HETATM   25  C   UNL     1     -10.651   5.205 -31.855  1.00  0.00     0.409 C 
HETATM   26  F   UNL     1     -11.478   6.143 -32.359  1.00  0.00    -0.169 F 
HETATM   27  F   UNL     1     -10.820   5.164 -30.514  1.00  0.00    -0.169 F 
HETATM   28  F   UNL     1      -9.387   5.663 -32.068  1.00  0.00    -0.169 F 
ENDBRANCH   4  25
BRANCH   6  29
HETATM   29  C   UNL     1     -12.134   1.699 -34.379  1.00  0.00    -0.035 A 
HETATM   30  C   UNL     1     -13.474   2.059 -34.624  1.00  0.00     0.009 A 
HETATM   31  C   UNL     1     -14.527   1.210 -34.276  1.00  0.00     0.001 A 
HETATM   32  C   UNL     1     -14.262  -0.021 -33.685  1.00  0.00     0.000 A 
HETATM   33  C   UNL     1     -12.947  -0.403 -33.445  1.00  0.00     0.001 A 
HETATM   34  C   UNL     1     -11.892   0.447 -33.790  1.00  0.00     0.009 A 
ENDBRANCH   6  29
TORSDOF 6
ENDMDL
MODEL 4
REMARK VINA RESULT:      -9.4      4.574      8.451
REMARK  6 active torsions:
REMARK  status: ('A' for Active; 'I' for Inactive)
REMARK    1  A    between atoms: C_2  and  O_3 
REMARK    2  A    between atoms: C_2  and  C_4 
REMARK    3  A    between atoms: C_6  and  N_7 
REMARK       I    between atoms: N_7  and  C_8 
REMARK    4  A    between atoms: C_8  and  C_9 
REMARK    5  A    between atoms: C_12  and  C_13 
REMARK    6  A    between atoms: C_18  and  C_19 
ROOT
HETATM    1  C   UNL     1      -8.365   2.793 -32.656  1.00  0.00     0.096 C 
HETATM    2  C   UNL     1      -7.286   2.022 -32.262  1.00  0.00     0.138 C 
HETATM    3  N   UNL     1      -6.173   2.639 -32.788  1.00  0.00    -0.240 N 
HETATM    4  C   UNL     1      -4.813   2.155 -32.630  1.00  0.00     0.221 C 
HETATM    5  C   UNL     1      -4.749   1.127 -31.486  1.00  0.00     0.066 C 
HETATM    6  C   UNL     1      -5.906   0.121 -31.570  1.00  0.00     0.118 C 
HETATM    7  N   UNL     1      -7.179   0.861 -31.553  1.00  0.00    -0.365 N 
HETATM    8  N   UNL     1      -6.468   3.640 -33.631  1.00  0.00    -0.181 NA
HETATM    9  C   UNL     1      -7.796   3.750 -33.529  1.00  0.00     0.160 C 
HETATM   10  H   UNL     1      -7.985   0.233 -31.526  1.00  0.00     0.161 HD
ENDROOT
BRANCH   1  11
HETATM   11  C   UNL     1      -9.771   2.668 -32.315  1.00  0.00     0.261 C 
HETATM   12  N   UNL     1     -10.551   2.221 -33.366  1.00  0.00    -0.323 N 
HETATM   13  H   UNL     1     -10.041   1.974 -34.207  1.00  0.00     0.169 HD
HETATM   14  O   UNL     1     -10.156   2.899 -31.174  1.00  0.00    -0.267 OA
BRANCH  12  15
HETATM   15  C   UNL     1     -11.927   1.921 -33.350  1.00  0.00     0.035 A 
HETATM   16  C   UNL     1     -12.901   2.762 -32.804  1.00  0.00     0.039 A 
HETATM   17  C   UNL     1     -14.258   2.390 -32.791  1.00  0.00    -0.028 A 
HETATM   18  C   UNL     1     -14.626   1.148 -33.329  1.00  0.00     0.010 A 
HETATM   19  C   UNL     1     -13.664   0.312 -33.892  1.00  0.00     0.003 A 
HETATM   20  C   UNL     1     -12.323   0.701 -33.908  1.00  0.00     0.029 A 
BRANCH  17  21
HETATM   21  C   UNL     1     -15.282   3.311 -32.162  1.00  0.00     0.147 C 
HETATM   22  C   UNL     1     -16.669   2.684 -32.131  1.00  0.00     0.044 C 
BRANCH  21  23
HETATM   23  O   UNL     1     -15.351   4.546 -32.875  1.00  0.00    -0.391 OA
HETATM   24  H   UNL     1     -14.637   4.525 -33.535  1.00  0.00     0.210 HD
ENDBRANCH  21  23
ENDBRANCH  17  21
ENDBRANCH  12  15
ENDBRANCH   1  11
BRANCH   4  25
HETATM   25  C   UNL     1      -3.845   3.283 -32.347  1.00  0.00     0.409 C 
HETATM   26  F   UNL     1      -3.360   3.877 -33.456  1.00  0.00    -0.169 F 
HETATM   27  F   UNL     1      -4.386   4.236 -31.555  1.00  0.00    -0.169 F 
HETATM   28  F   UNL     1      -2.764   2.796 -31.678  1.00  0.00    -0.169 F 
ENDBRANCH   4  25
BRANCH   6  29
HETATM   29  C   UNL     1      -5.765  -0.843 -32.742  1.00  0.00    -0.035 A 
HETATM   30  C   UNL     1      -6.899  -1.117 -33.532  1.00  0.00     0.009 A 
HETATM   31  C   UNL     1      -6.838  -2.019 -34.597  1.00  0.00     0.001 A 
HETATM   32  C   UNL     1      -5.640  -2.657 -34.901  1.00  0.00     0.000 A 
HETATM   33  C   UNL     1      -4.505  -2.392 -34.143  1.00  0.00     0.001 A 
HETATM   34  C   UNL     1      -4.565  -1.492 -33.075  1.00  0.00     0.009 A 
ENDBRANCH   6  29
TORSDOF 6
ENDMDL
MODEL 5
REMARK VINA RESULT:      -9.3      1.661      2.088
REMARK  6 active torsions:
REMARK  status: ('A' for Active; 'I' for Inactive)
REMARK    1  A    between atoms: C_2  and  O_3 
REMARK    2  A    between atoms: C_2  and  C_4 
REMARK    3  A    between atoms: C_6  and  N_7 
REMARK       I    between atoms: N_7  and  C_8 
REMARK    4  A    between atoms: C_8  and  C_9 
REMARK    5  A    between atoms: C_12  and  C_13 
REMARK    6  A    between atoms: C_18  and  C_19 
ROOT
HETATM    1  C   UNL     1      -6.138   1.961 -31.598  1.00  0.00     0.096 C 
HETATM    2  C   UNL     1      -6.578   1.329 -32.747  1.00  0.00     0.138 C 
HETATM    3  N   UNL     1      -7.823   0.825 -32.442  1.00  0.00    -0.240 N 
HETATM    4  C   UNL     1      -8.650   0.067 -33.363  1.00  0.00     0.221 C 
HETATM    5  C   UNL     1      -8.145   0.258 -34.805  1.00  0.00     0.066 C 
HETATM    6  C   UNL     1      -6.617   0.136 -34.884  1.00  0.00     0.118 C 
HETATM    7  N   UNL     1      -6.015   1.123 -33.972  1.00  0.00    -0.365 N 
HETATM    8  N   UNL     1      -8.136   0.930 -31.141  1.00  0.00    -0.181 NA
HETATM    9  C   UNL     1      -7.126   1.643 -30.636  1.00  0.00     0.160 C 
HETATM   10  H   UNL     1      -4.996   1.138 -34.045  1.00  0.00     0.161 HD
ENDROOT
BRANCH   1  11
HETATM   11  C   UNL     1      -4.936   2.744 -31.370  1.00  0.00     0.261 C 
HETATM   12  N   UNL     1      -5.150   4.108 -31.442  1.00  0.00    -0.323 N 
HETATM   13  H   UNL     1      -6.116   4.387 -31.573  1.00  0.00     0.169 HD
HETATM   14  O   UNL     1      -3.878   2.190 -31.091  1.00  0.00    -0.267 OA
BRANCH  12  15
HETATM   15  C   UNL     1      -4.222   5.140 -31.197  1.00  0.00     0.035 A 
HETATM   16  C   UNL     1      -3.091   5.372 -31.984  1.00  0.00     0.039 A 
HETATM   17  C   UNL     1      -2.184   6.401 -31.667  1.00  0.00    -0.028 A 
HETATM   18  C   UNL     1      -2.425   7.192 -30.536  1.00  0.00     0.010 A 
HETATM   19  C   UNL     1      -3.560   6.979 -29.756  1.00  0.00     0.003 A 
HETATM   20  C   UNL     1      -4.457   5.962 -30.090  1.00  0.00     0.029 A 
BRANCH  17  21
HETATM   21  C   UNL     1      -0.952   6.604 -32.524  1.00  0.00     0.147 C 
HETATM   22  C   UNL     1       0.281   6.907 -31.685  1.00  0.00     0.044 C 
BRANCH  21  23
HETATM   23  O   UNL     1      -1.154   7.673 -33.448  1.00  0.00    -0.391 OA
HETATM   24  H   UNL     1      -0.280   8.065 -33.615  1.00  0.00     0.210 HD
ENDBRANCH  21  23
ENDBRANCH  17  21
ENDBRANCH  12  15
ENDBRANCH   1  11
BRANCH   4  25
HETATM   25  C   UNL     1     -10.104   0.480 -33.281  1.00  0.00     0.409 C 
HETATM   26  F   UNL     1     -10.323   1.552 -32.494  1.00  0.00    -0.169 F 
HETATM   27  F   UNL     1     -10.636   0.729 -34.499  1.00  0.00    -0.169 F 
HETATM   28  F   UNL     1     -10.835  -0.536 -32.745  1.00  0.00    -0.169 F 
ENDBRANCH   4  25
BRANCH   6  29
HETATM   29  C   UNL     1      -6.128  -1.291 -34.665  1.00  0.00    -0.035 A 
HETATM   30  C   UNL     1      -4.861  -1.489 -34.081  1.00  0.00     0.009 A 
HETATM   31  C   UNL     1      -4.345  -2.773 -33.889  1.00  0.00     0.001 A 
HETATM   32  C   UNL     1      -5.089  -3.885 -34.267  1.00  0.00     0.000 A 
HETATM   33  C   UNL     1      -6.348  -3.714 -34.834  1.00  0.00     0.001 A 
HETATM   34  C   UNL     1      -6.863  -2.430 -35.030  1.00  0.00     0.009 A 
ENDBRANCH   6  29
TORSDOF 6
ENDMDL
MODEL 6
REMARK VINA RESULT:      -9.3      4.498      8.257
REMARK  6 active torsions:
REMARK  status: ('A' for Active; 'I' for Inactive)
REMARK    1  A    between atoms: C_2  and  O_3 
REMARK    2  A    between atoms: C_2  and  C_4 
REMARK    3  A    between atoms: C_6  and  N_7 
REMARK       I    between atoms: N_7  and  C_8 
REMARK    4  A    between atoms: C_8  and  C_9 
REMARK    5  A    between atoms: C_12  and  C_13 
REMARK    6  A    between atoms: C_18  and  C_19 
ROOT
HETATM    1  C   UNL     1      -7.993   3.022 -32.121  1.00  0.00     0.096 C 
HETATM    2  C   UNL     1      -6.978   2.128 -31.833  1.00  0.00     0.138 C 
HETATM    3  N   UNL     1      -5.834   2.676 -32.370  1.00  0.00    -0.240 N 
HETATM    4  C   UNL     1      -4.521   2.058 -32.312  1.00  0.00     0.221 C 
HETATM    5  C   UNL     1      -4.507   0.950 -31.243  1.00  0.00     0.066 C 
HETATM    6  C   UNL     1      -5.757   0.064 -31.338  1.00  0.00     0.118 C 
HETATM    7  N   UNL     1      -6.952   0.915 -31.209  1.00  0.00    -0.365 N 
HETATM    8  N   UNL     1      -6.067   3.758 -33.128  1.00  0.00    -0.181 NA
HETATM    9  C   UNL     1      -7.372   3.982 -32.955  1.00  0.00     0.160 C 
HETATM   10  H   UNL     1      -7.812   0.364 -31.185  1.00  0.00     0.161 HD
ENDROOT
BRANCH   1  11
HETATM   11  C   UNL     1      -9.389   3.004 -31.721  1.00  0.00     0.261 C 
HETATM   12  N   UNL     1     -10.263   3.165 -32.780  1.00  0.00    -0.323 N 
HETATM   13  H   UNL     1      -9.830   3.205 -33.696  1.00  0.00     0.169 HD
HETATM   14  O   UNL     1      -9.697   2.806 -30.551  1.00  0.00    -0.267 OA
BRANCH  12  15
HETATM   15  C   UNL     1     -11.671   3.118 -32.750  1.00  0.00     0.035 A 
HETATM   16  C   UNL     1     -12.423   2.010 -33.151  1.00  0.00     0.039 A 
HETATM   17  C   UNL     1     -13.829   2.038 -33.127  1.00  0.00    -0.028 A 
HETATM   18  C   UNL     1     -14.476   3.206 -32.701  1.00  0.00     0.010 A 
HETATM   19  C   UNL     1     -13.735   4.309 -32.280  1.00  0.00     0.003 A 
HETATM   20  C   UNL     1     -12.340   4.261 -32.299  1.00  0.00     0.029 A 
BRANCH  17  21
HETATM   21  C   UNL     1     -14.611   0.831 -33.599  1.00  0.00     0.147 C 
HETATM   22  C   UNL     1     -13.744  -0.418 -33.670  1.00  0.00     0.044 C 
BRANCH  21  23
HETATM   23  O   UNL     1     -15.178   1.072 -34.887  1.00  0.00    -0.391 OA
HETATM   24  H   UNL     1     -15.374   2.023 -34.930  1.00  0.00     0.210 HD
ENDBRANCH  21  23
ENDBRANCH  17  21
ENDBRANCH  12  15
ENDBRANCH   1  11
BRANCH   4  25
HETATM   25  C   UNL     1      -3.438   3.069 -32.001  1.00  0.00     0.409 C 
HETATM   26  F   UNL     1      -3.910   4.269 -31.607  1.00  0.00    -0.169 F 
HETATM   27  F   UNL     1      -2.573   2.622 -31.063  1.00  0.00    -0.169 F 
HETATM   28  F   UNL     1      -2.702   3.303 -33.122  1.00  0.00    -0.169 F 
ENDBRANCH   4  25
BRANCH   6  29
HETATM   29  C   UNL     1      -5.758  -0.823 -32.578  1.00  0.00    -0.035 A 
HETATM   30  C   UNL     1      -4.582  -1.525 -32.907  1.00  0.00     0.009 A 
HETATM   31  C   UNL     1      -4.513  -2.325 -34.050  1.00  0.00     0.001 A 
HETATM   32  C   UNL     1      -5.621  -2.447 -34.882  1.00  0.00     0.000 A 
HETATM   33  C   UNL     1      -6.797  -1.773 -34.570  1.00  0.00     0.001 A 
HETATM   34  C   UNL     1      -6.866  -0.970 -33.428  1.00  0.00     0.009 A 
ENDBRANCH   6  29
TORSDOF 6
ENDMDL
MODEL 7
REMARK VINA RESULT:      -9.2      3.157      8.090
REMARK  6 active torsions:
REMARK  status: ('A' for Active; 'I' for Inactive)
REMARK    1  A    between atoms: C_2  and  O_3 
REMARK    2  A    between atoms: C_2  and  C_4 
REMARK    3  A    between atoms: C_6  and  N_7 
REMARK       I    between atoms: N_7  and  C_8 
REMARK    4  A    between atoms: C_8  and  C_9 
REMARK    5  A    between atoms: C_12  and  C_13 
REMARK    6  A    between atoms: C_18  and  C_19 
ROOT
HETATM    1  C   UNL     1      -5.913   2.302 -32.049  1.00  0.00     0.096 C 
HETATM    2  C   UNL     1      -5.297   3.472 -31.645  1.00  0.00     0.138 C 
HETATM    3  N   UNL     1      -6.114   4.493 -32.078  1.00  0.00    -0.240 N 
HETATM    4  C   UNL     1      -5.840   5.905 -31.879  1.00  0.00     0.221 C 
HETATM    5  C   UNL     1      -4.764   6.086 -30.793  1.00  0.00     0.066 C 
HETATM    6  C   UNL     1      -3.597   5.109 -30.993  1.00  0.00     0.118 C 
HETATM    7  N   UNL     1      -4.125   3.735 -30.998  1.00  0.00    -0.365 N 
HETATM    8  N   UNL     1      -7.108   4.077 -32.876  1.00  0.00    -0.181 NA
HETATM    9  C   UNL     1      -7.001   2.746 -32.836  1.00  0.00     0.160 C 
HETATM   10  H   UNL     1      -3.377   3.039 -31.049  1.00  0.00     0.161 HD
ENDROOT
BRANCH   1  11
HETATM   11  C   UNL     1      -5.547   0.920 -31.788  1.00  0.00     0.261 C 
HETATM   12  N   UNL     1      -5.127   0.243 -32.918  1.00  0.00    -0.323 N 
HETATM   13  H   UNL     1      -5.062   0.805 -33.760  1.00  0.00     0.169 HD
HETATM   14  O   UNL     1      -5.577   0.476 -30.646  1.00  0.00    -0.267 OA
BRANCH  12  15
HETATM   15  C   UNL     1      -4.634  -1.074 -32.999  1.00  0.00     0.035 A 
HETATM   16  C   UNL     1      -5.109  -2.029 -33.904  1.00  0.00     0.039 A 
HETATM   17  C   UNL     1      -4.596  -3.339 -33.913  1.00  0.00    -0.028 A 
HETATM   18  C   UNL     1      -3.600  -3.684 -32.989  1.00  0.00     0.010 A 
HETATM   19  C   UNL     1      -3.107  -2.733 -32.097  1.00  0.00     0.003 A 
HETATM   20  C   UNL     1      -3.618  -1.434 -32.108  1.00  0.00     0.029 A 
BRANCH  17  21
HETATM   21  C   UNL     1      -5.156  -4.356 -34.885  1.00  0.00     0.147 C 
HETATM   22  C   UNL     1      -6.673  -4.279 -34.979  1.00  0.00     0.044 C 
BRANCH  21  23
HETATM   23  O   UNL     1      -4.785  -5.679 -34.497  1.00  0.00    -0.391 OA
HETATM   24  H   UNL     1      -3.866  -5.806 -34.791  1.00  0.00     0.210 HD
ENDBRANCH  21  23
ENDBRANCH  17  21
ENDBRANCH  12  15
ENDBRANCH   1  11
BRANCH   4  25
HETATM   25  C   UNL     1      -7.086   6.668 -31.483  1.00  0.00     0.409 C 
HETATM   26  F   UNL     1      -7.869   7.011 -32.525  1.00  0.00    -0.169 F 
HETATM   27  F   UNL     1      -7.840   5.990 -30.588  1.00  0.00    -0.169 F 
HETATM   28  F   UNL     1      -6.730   7.835 -30.879  1.00  0.00    -0.169 F 
ENDBRANCH   4  25
BRANCH   6  29
HETATM   29  C   UNL     1      -2.744   5.451 -32.209  1.00  0.00    -0.035 A 
HETATM   30  C   UNL     1      -2.261   6.767 -32.347  1.00  0.00     0.009 A 
HETATM   31  C   UNL     1      -1.505   7.148 -33.458  1.00  0.00     0.001 A 
HETATM   32  C   UNL     1      -1.207   6.218 -34.449  1.00  0.00     0.000 A 
HETATM   33  C   UNL     1      -1.662   4.910 -34.327  1.00  0.00     0.001 A 
HETATM   34  C   UNL     1      -2.422   4.528 -33.217  1.00  0.00     0.009 A 
ENDBRANCH   6  29
TORSDOF 6
ENDMDL
MODEL 8
REMARK VINA RESULT:      -9.0      4.284      8.143
REMARK  6 active torsions:
REMARK  status: ('A' for Active; 'I' for Inactive)
REMARK    1  A    between atoms: C_2  and  O_3 
REMARK    2  A    between atoms: C_2  and  C_4 
REMARK    3  A    between atoms: C_6  and  N_7 
REMARK       I    between atoms: N_7  and  C_8 
REMARK    4  A    between atoms: C_8  and  C_9 
REMARK    5  A    between atoms: C_12  and  C_13 
REMARK    6  A    between atoms: C_18  and  C_19 
ROOT
HETATM    1  C   UNL     1      -7.027   3.771 -33.337  1.00  0.00     0.096 C 
HETATM    2  C   UNL     1      -6.184   3.009 -32.549  1.00  0.00     0.138 C 
HETATM    3  N   UNL     1      -4.907   3.410 -32.872  1.00  0.00    -0.240 N 
HETATM    4  C   UNL     1      -3.699   2.856 -32.287  1.00  0.00     0.221 C 
HETATM    5  C   UNL     1      -4.043   2.083 -31.000  1.00  0.00     0.066 C 
HETATM    6  C   UNL     1      -5.270   1.183 -31.199  1.00  0.00     0.118 C 
HETATM    7  N   UNL     1      -6.402   2.015 -31.641  1.00  0.00    -0.365 N 
HETATM    8  N   UNL     1      -4.859   4.238 -33.927  1.00  0.00    -0.181 NA
HETATM    9  C   UNL     1      -6.147   4.477 -34.191  1.00  0.00     0.160 C 
HETATM   10  H   UNL     1      -7.267   1.475 -31.712  1.00  0.00     0.161 HD
ENDROOT
BRANCH   1  11
HETATM   11  C   UNL     1      -8.478   3.838 -33.352  1.00  0.00     0.261 C 
HETATM   12  N   UNL     1      -9.054   3.003 -34.292  1.00  0.00    -0.323 N 
HETATM   13  H   UNL     1      -8.405   2.407 -34.796  1.00  0.00     0.169 HD
HETATM   14  O   UNL     1      -9.076   4.543 -32.548  1.00  0.00    -0.267 OA
BRANCH  12  15
HETATM   15  C   UNL     1     -10.426   2.771 -34.514  1.00  0.00     0.035 A 
HETATM   16  C   UNL     1     -11.081   1.586 -34.165  1.00  0.00     0.039 A 
HETATM   17  C   UNL     1     -12.449   1.403 -34.442  1.00  0.00    -0.028 A 
HETATM   18  C   UNL     1     -13.152   2.430 -35.087  1.00  0.00     0.010 A 
HETATM   19  C   UNL     1     -12.511   3.622 -35.421  1.00  0.00     0.003 A 
HETATM   20  C   UNL     1     -11.157   3.792 -35.129  1.00  0.00     0.029 A 
BRANCH  17  21
HETATM   21  C   UNL     1     -13.119   0.095 -34.080  1.00  0.00     0.147 C 
HETATM   22  C   UNL     1     -14.584   0.288 -33.716  1.00  0.00     0.044 C 
BRANCH  21  23
HETATM   23  O   UNL     1     -12.449  -0.525 -32.983  1.00  0.00    -0.391 OA
HETATM   24  H   UNL     1     -11.916  -1.248 -33.355  1.00  0.00     0.210 HD
ENDBRANCH  21  23
ENDBRANCH  17  21
ENDBRANCH  12  15
ENDBRANCH   1  11
BRANCH   4  25
HETATM   25  C   UNL     1      -2.684   3.933 -31.970  1.00  0.00     0.409 C 
HETATM   26  F   UNL     1      -1.867   4.232 -32.999  1.00  0.00    -0.169 F 
HETATM   27  F   UNL     1      -3.266   5.075 -31.541  1.00  0.00    -0.169 F 
HETATM   28  F   UNL     1      -1.876   3.511 -30.958  1.00  0.00    -0.169 F 
ENDBRANCH   4  25
BRANCH   6  29
HETATM   29  C   UNL     1      -4.986  -0.010 -32.105  1.00  0.00    -0.035 A 
HETATM   30  C   UNL     1      -5.861  -0.266 -33.179  1.00  0.00     0.009 A 
HETATM   31  C   UNL     1      -5.671  -1.365 -34.021  1.00  0.00     0.001 A 
HETATM   32  C   UNL     1      -4.597  -2.224 -33.812  1.00  0.00     0.000 A 
HETATM   33  C   UNL     1      -3.713  -1.983 -32.765  1.00  0.00     0.001 A 
HETATM   34  C   UNL     1      -3.904  -0.886 -31.921  1.00  0.00     0.009 A 
ENDBRANCH   6  29
TORSDOF 6
ENDMDL
MODEL 9
REMARK VINA RESULT:      -8.9      4.677      7.542
REMARK  6 active torsions:
REMARK  status: ('A' for Active; 'I' for Inactive)
REMARK    1  A    between atoms: C_2  and  O_3 
REMARK    2  A    between atoms: C_2  and  C_4 
REMARK    3  A    between atoms: C_6  and  N_7 
REMARK       I    between atoms: N_7  and  C_8 
REMARK    4  A    between atoms: C_8  and  C_9 
REMARK    5  A    between atoms: C_12  and  C_13 
REMARK    6  A    between atoms: C_18  and  C_19 
ROOT
HETATM    1  C   UNL     1      -8.859   2.222 -32.881  1.00  0.00     0.096 C 
HETATM    2  C   UNL     1      -9.895   2.526 -33.744  1.00  0.00     0.138 C 
HETATM    3  N   UNL     1     -10.111   3.880 -33.607  1.00  0.00    -0.240 N 
HETATM    4  C   UNL     1     -11.128   4.627 -34.325  1.00  0.00     0.221 C 
HETATM    5  C   UNL     1     -11.636   3.807 -35.525  1.00  0.00     0.066 C 
HETATM    6  C   UNL     1     -11.904   2.347 -35.133  1.00  0.00     0.118 C 
HETATM    7  N   UNL     1     -10.668   1.771 -34.578  1.00  0.00    -0.365 N 
HETATM    8  N   UNL     1      -9.416   4.430 -32.600  1.00  0.00    -0.181 NA
HETATM    9  C   UNL     1      -8.638   3.429 -32.178  1.00  0.00     0.160 C 
HETATM   10  H   UNL     1     -10.769   0.775 -34.374  1.00  0.00     0.161 HD
ENDROOT
BRANCH   1  11
HETATM   11  C   UNL     1      -8.156   0.966 -32.678  1.00  0.00     0.261 C 
HETATM   12  N   UNL     1      -7.293   0.650 -33.711  1.00  0.00    -0.323 N 
HETATM   13  H   UNL     1      -7.208   1.355 -34.435  1.00  0.00     0.169 HD
HETATM   14  O   UNL     1      -8.316   0.326 -31.645  1.00  0.00    -0.267 OA
BRANCH  12  15
HETATM   15  C   UNL     1      -6.412  -0.447 -33.792  1.00  0.00     0.035 A 
HETATM   16  C   UNL     1      -5.273  -0.591 -32.994  1.00  0.00     0.039 A 
HETATM   17  C   UNL     1      -4.415  -1.696 -33.146  1.00  0.00    -0.028 A 
HETATM   18  C   UNL     1      -4.712  -2.656 -34.123  1.00  0.00     0.010 A 
HETATM   19  C   UNL     1      -5.856  -2.530 -34.910  1.00  0.00     0.003 A 
HETATM   20  C   UNL     1      -6.704  -1.434 -34.739  1.00  0.00     0.029 A 
BRANCH  17  21
HETATM   21  C   UNL     1      -3.173  -1.804 -32.286  1.00  0.00     0.147 C 
HETATM   22  C   UNL     1      -2.959  -3.220 -31.771  1.00  0.00     0.044 C 
BRANCH  21  23
HETATM   23  O   UNL     1      -3.255  -0.915 -31.173  1.00  0.00    -0.391 OA
HETATM   24  H   UNL     1      -2.845  -0.079 -31.454  1.00  0.00     0.210 HD
ENDBRANCH  21  23
ENDBRANCH  17  21
ENDBRANCH  12  15
ENDBRANCH   1  11
BRANCH   4  25
HETATM   25  C   UNL     1     -10.605   5.960 -34.813  1.00  0.00     0.409 C 
HETATM   26  F   UNL     1     -11.326   6.494 -35.820  1.00  0.00    -0.169 F 
HETATM   27  F   UNL     1     -10.521   6.873 -33.819  1.00  0.00    -0.169 F 
HETATM   28  F   UNL     1      -9.342   5.803 -35.296  1.00  0.00    -0.169 F 
ENDBRANCH   4  25
BRANCH   6  29
HETATM   29  C   UNL     1     -13.121   2.193 -34.229  1.00  0.00    -0.035 A 
HETATM   30  C   UNL     1     -14.072   1.201 -34.539  1.00  0.00     0.009 A 
HETATM   31  C   UNL     1     -15.225   1.038 -33.767  1.00  0.00     0.001 A 
HETATM   32  C   UNL     1     -15.446   1.855 -32.664  1.00  0.00     0.000 A 
HETATM   33  C   UNL     1     -14.514   2.833 -32.332  1.00  0.00     0.001 A 
HETATM   34  C   UNL     1     -13.362   3.000 -33.105  1.00  0.00     0.009 A 
ENDBRANCH   6  29
TORSDOF 6
ENDMDL
MODEL 10
REMARK VINA RESULT:      -8.9      1.724      2.167
REMARK  6 active torsions:
REMARK  status: ('A' for Active; 'I' for Inactive)
REMARK    1  A    between atoms: C_2  and  O_3 
REMARK    2  A    between atoms: C_2  and  C_4 
REMARK    3  A    between atoms: C_6  and  N_7 
REMARK       I    between atoms: N_7  and  C_8 
REMARK    4  A    between atoms: C_8  and  C_9 
REMARK    5  A    between atoms: C_12  and  C_13 
REMARK    6  A    between atoms: C_18  and  C_19 
ROOT
HETATM    1  C   UNL     1      -4.945   2.737 -31.190  1.00  0.00     0.096 C 
HETATM    2  C   UNL     1      -5.743   2.308 -32.235  1.00  0.00     0.138 C 
HETATM    3  N   UNL     1      -6.966   2.013 -31.674  1.00  0.00    -0.240 N 
HETATM    4  C   UNL     1      -8.110   1.510 -32.414  1.00  0.00     0.221 C 
HETATM    5  C   UNL     1      -7.905   1.741 -33.922  1.00  0.00     0.066 C 
HETATM    6  C   UNL     1      -6.487   1.349 -34.361  1.00  0.00     0.118 C 
HETATM    7  N   UNL     1      -5.515   2.118 -33.566  1.00  0.00    -0.365 N 
HETATM    8  N   UNL     1      -6.959   2.050 -30.333  1.00  0.00    -0.181 NA
HETATM    9  C   UNL     1      -5.741   2.515 -30.042  1.00  0.00     0.160 C 
HETATM   10  H   UNL     1      -4.554   1.953 -33.875  1.00  0.00     0.161 HD
ENDROOT
BRANCH   1  11
HETATM   11  C   UNL     1      -3.590   3.261 -31.210  1.00  0.00     0.261 C 
HETATM   12  N   UNL     1      -3.539   4.643 -31.234  1.00  0.00    -0.323 N 
HETATM   13  H   UNL     1      -4.437   5.110 -31.165  1.00  0.00     0.169 HD
HETATM   14  O   UNL     1      -2.630   2.502 -31.153  1.00  0.00    -0.267 OA
BRANCH  12  15
HETATM   15  C   UNL     1      -2.395   5.463 -31.181  1.00  0.00     0.035 A 
HETATM   16  C   UNL     1      -1.977   6.142 -30.032  1.00  0.00     0.039 A 
HETATM   17  C   UNL     1      -0.841   6.974 -30.052  1.00  0.00    -0.028 A 
HETATM   18  C   UNL     1      -0.132   7.123 -31.252  1.00  0.00     0.010 A 
HETATM   19  C   UNL     1      -0.531   6.435 -32.397  1.00  0.00     0.003 A 
HETATM   20  C   UNL     1      -1.653   5.605 -32.358  1.00  0.00     0.029 A 
BRANCH  17  21
HETATM   21  C   UNL     1      -0.436   7.719 -28.798  1.00  0.00     0.147 C 
HETATM   22  C   UNL     1      -1.156   9.054 -28.671  1.00  0.00     0.044 C 
BRANCH  21  23
HETATM   23  O   UNL     1       0.973   7.952 -28.787  1.00  0.00    -0.391 OA
HETATM   24  H   UNL     1       1.099   8.872 -28.501  1.00  0.00     0.210 HD
ENDBRANCH  21  23
ENDBRANCH  17  21
ENDBRANCH  12  15
ENDBRANCH   1  11
BRANCH   4  25
HETATM   25  C   UNL     1      -9.397   2.172 -31.975  1.00  0.00     0.409 C 
HETATM   26  F   UNL     1     -10.465   1.843 -32.729  1.00  0.00    -0.169 F 
HETATM   27  F   UNL     1      -9.693   1.913 -30.681  1.00  0.00    -0.169 F 
HETATM   28  F   UNL     1      -9.269   3.524 -32.074  1.00  0.00    -0.169 F 
ENDBRANCH   4  25
BRANCH   6  29
HETATM   29  C   UNL     1      -6.257  -0.158 -34.334  1.00  0.00    -0.035 A 
HETATM   30  C   UNL     1      -5.042  -0.647 -33.814  1.00  0.00     0.009 A 
HETATM   31  C   UNL     1      -4.761  -2.015 -33.796  1.00  0.00     0.001 A 
HETATM   32  C   UNL     1      -5.692  -2.923 -34.288  1.00  0.00     0.000 A 
HETATM   33  C   UNL     1      -6.903  -2.464 -34.795  1.00  0.00     0.001 A 
HETATM   34  C   UNL     1      -7.184  -1.095 -34.817  1.00  0.00     0.009 A 
ENDBRANCH   6  29
TORSDOF 6
ENDMDL
