MODEL 1
REMARK VINA RESULT:      -8.6      0.000      0.000
REMARK  8 active torsions:
REMARK  status: ('A' for Active; 'I' for Inactive)
REMARK    1  A    between atoms: C_2  and  O_3 
REMARK    2  A    between atoms: O_3  and  C_4 
REMARK    3  A    between atoms: C_4  and  C_5 
REMARK    4  A    between atoms: C_6  and  C_8 
REMARK    5  A    between atoms: C_6  and  O_7 
REMARK    6  A    between atoms: C_16  and  C_17 
REMARK    7  A    between atoms: C_18  and  C_19 
REMARK    8  A    between atoms: N_26  and  C_27 
ROOT
HETATM    1  C   UNL     1      -6.060   3.186 -31.923  1.00  0.00     0.177 C 
HETATM    2  C   UNL     1      -5.582   4.642 -31.834  1.00  0.00     0.250 C 
HETATM    3  N   UNL     1      -4.741   4.947 -32.980  1.00  0.00    -0.303 N 
HETATM    4  C   UNL     1      -5.045   4.557 -34.237  1.00  0.00     0.319 C 
HETATM    5  O   UNL     1      -4.533   5.089 -35.211  1.00  0.00    -0.247 OA
HETATM    6  N   UNL     1      -5.897   3.517 -34.358  1.00  0.00    -0.333 N 
HETATM    7  C   UNL     1      -6.712   2.966 -33.292  1.00  0.00     0.142 C 
HETATM    8  H   UNL     1      -4.212   5.813 -32.953  1.00  0.00     0.167 HD
HETATM    9  H   UNL     1      -6.119   3.279 -35.318  1.00  0.00     0.165 HD
ENDROOT
BRANCH   7  10
HETATM   10  C   UNL     1      -6.937   1.521 -33.646  1.00  0.00     0.015 A 
HETATM   11  C   UNL     1      -8.173   0.859 -33.923  1.00  0.00     0.097 A 
HETATM   12  N   UNL     1      -7.977  -0.444 -34.161  1.00  0.00    -0.167 NA
HETATM   13  N   UNL     1      -6.645  -0.646 -34.072  1.00  0.00    -0.244 N 
HETATM   14  C   UNL     1      -5.985   0.525 -33.778  1.00  0.00     0.130 A 
BRANCH  11  15
HETATM   15  C   UNL     1      -9.529   1.410 -33.965  1.00  0.00    -0.005 A 
HETATM   16  C   UNL     1      -9.778   2.696 -34.461  1.00  0.00     0.014 A 
HETATM   17  C   UNL     1     -11.079   3.205 -34.488  1.00  0.00     0.001 A 
HETATM   18  C   UNL     1     -12.143   2.428 -34.034  1.00  0.00     0.000 A 
HETATM   19  C   UNL     1     -11.909   1.139 -33.557  1.00  0.00     0.001 A 
HETATM   20  C   UNL     1     -10.609   0.632 -33.525  1.00  0.00     0.014 A 
ENDBRANCH  11  15
BRANCH  13  21
HETATM   21  C   UNL     1      -6.091  -1.943 -34.264  1.00  0.00     0.058 A 
HETATM   22  C   UNL     1      -6.925  -2.991 -34.686  1.00  0.00     0.031 A 
HETATM   23  C   UNL     1      -6.408  -4.274 -34.871  1.00  0.00     0.002 A 
HETATM   24  C   UNL     1      -5.058  -4.523 -34.638  1.00  0.00     0.000 A 
HETATM   25  C   UNL     1      -4.222  -3.489 -34.218  1.00  0.00     0.002 A 
HETATM   26  C   UNL     1      -4.733  -2.200 -34.032  1.00  0.00     0.031 A 
ENDBRANCH  13  21
ENDBRANCH   7  10
BRANCH   1  27
HETATM   27  C   UNL     1      -7.040   2.854 -30.822  1.00  0.00     0.270 C 
HETATM   28  O   UNL     1      -8.252   2.975 -30.914  1.00  0.00    -0.265 OA
BRANCH  27  29
HETATM   29  O   UNL     1      -6.384   2.389 -29.727  1.00  0.00    -0.321 OA
BRANCH  29  30
HETATM   30  C   UNL     1      -5.640   1.171 -29.898  1.00  0.00     0.174 C 
HETATM   31  C   UNL     1      -6.548  -0.002 -30.220  1.00  0.00     0.034 C 
ENDBRANCH  29  30
ENDBRANCH  27  29
ENDBRANCH   1  27
BRANCH   2  32
HETATM   32  C   UNL     1      -6.757   5.680 -31.677  1.00  0.00     0.439 C 
HETATM   33  F   UNL     1      -7.208   5.757 -30.407  1.00  0.00    -0.166 F 
HETATM   34  F   UNL     1      -6.344   6.923 -32.032  1.00  0.00    -0.166 F 
HETATM   35  F   UNL     1      -7.810   5.377 -32.468  1.00  0.00    -0.166 F 
ENDBRANCH   2  32
BRANCH   2  36
HETATM   36  O   UNL     1      -4.652   4.765 -30.752  1.00  0.00    -0.363 OA
HETATM   37  H   UNL     1      -4.637   3.895 -30.318  1.00  0.00     0.213 HD
ENDBRANCH   2  36
TORSDOF 8
ENDMDL
MODEL 2
REMARK VINA RESULT:      -8.3      1.822      3.091
REMARK  8 active torsions:
REMARK  status: ('A' for Active; 'I' for Inactive)
REMARK    1  A    between atoms: C_2  and  O_3 
REMARK    2  A    between atoms: O_3  and  C_4 
REMARK    3  A    between atoms: C_4  and  C_5 
REMARK    4  A    between atoms: C_6  and  C_8 
REMARK    5  A    between atoms: C_6  and  O_7 
REMARK    6  A    between atoms: C_16  and  C_17 
REMARK    7  A    between atoms: C_18  and  C_19 
REMARK    8  A    between atoms: N_26  and  C_27 
ROOT
HETATM    1  C   UNL     1      -6.472   3.205 -32.251  1.00  0.00     0.177 C 
HETATM    2  C   UNL     1      -6.748   4.385 -31.308  1.00  0.00     0.250 C 
HETATM    3  N   UNL     1      -8.140   4.355 -30.890  1.00  0.00    -0.303 N 
HETATM    4  C   UNL     1      -8.773   3.218 -30.527  1.00  0.00     0.319 C 
HETATM    5  O   UNL     1      -9.805   3.243 -29.871  1.00  0.00    -0.247 OA
HETATM    6  N   UNL     1      -8.239   2.061 -30.973  1.00  0.00    -0.333 N 
HETATM    7  C   UNL     1      -6.922   1.912 -31.565  1.00  0.00     0.142 C 
HETATM    8  H   UNL     1      -8.502   5.176 -30.415  1.00  0.00     0.167 HD
HETATM    9  H   UNL     1      -8.729   1.233 -30.652  1.00  0.00     0.165 HD
ENDROOT
BRANCH   7  10
HETATM   10  C   UNL     1      -7.012   0.722 -32.481  1.00  0.00     0.015 A 
HETATM   11  C   UNL     1      -8.055   0.388 -33.399  1.00  0.00     0.097 A 
HETATM   12  N   UNL     1      -7.799  -0.773 -34.015  1.00  0.00    -0.167 NA
HETATM   13  N   UNL     1      -6.606  -1.193 -33.544  1.00  0.00    -0.244 N 
HETATM   14  C   UNL     1      -6.095  -0.304 -32.627  1.00  0.00     0.130 A 
BRANCH  11  15
HETATM   15  C   UNL     1      -9.285   1.120 -33.709  1.00  0.00    -0.005 A 
HETATM   16  C   UNL     1      -9.249   2.365 -34.351  1.00  0.00     0.014 A 
HETATM   17  C   UNL     1     -10.434   3.050 -34.635  1.00  0.00     0.001 A 
HETATM   18  C   UNL     1     -11.663   2.490 -34.293  1.00  0.00     0.000 A 
HETATM   19  C   UNL     1     -11.712   1.242 -33.674  1.00  0.00     0.001 A 
HETATM   20  C   UNL     1     -10.528   0.560 -33.385  1.00  0.00     0.014 A 
ENDBRANCH  11  15
BRANCH  13  21
HETATM   21  C   UNL     1      -6.037  -2.419 -33.992  1.00  0.00     0.058 A 
HETATM   22  C   UNL     1      -6.858  -3.367 -34.623  1.00  0.00     0.031 A 
HETATM   23  C   UNL     1      -6.326  -4.580 -35.063  1.00  0.00     0.002 A 
HETATM   24  C   UNL     1      -4.975  -4.858 -34.876  1.00  0.00     0.000 A 
HETATM   25  C   UNL     1      -4.152  -3.923 -34.250  1.00  0.00     0.002 A 
HETATM   26  C   UNL     1      -4.677  -2.704 -33.809  1.00  0.00     0.031 A 
ENDBRANCH  13  21
ENDBRANCH   7  10
BRANCH   1  27
HETATM   27  C   UNL     1      -5.009   3.116 -32.617  1.00  0.00     0.270 C 
HETATM   28  O   UNL     1      -4.218   2.327 -32.121  1.00  0.00    -0.265 OA
BRANCH  27  29
HETATM   29  O   UNL     1      -4.705   4.023 -33.582  1.00  0.00    -0.321 OA
BRANCH  29  30
HETATM   30  C   UNL     1      -3.436   4.688 -33.456  1.00  0.00     0.174 C 
HETATM   31  C   UNL     1      -2.963   5.253 -34.783  1.00  0.00     0.034 C 
ENDBRANCH  29  30
ENDBRANCH  27  29
ENDBRANCH   1  27
BRANCH   2  32
HETATM   32  C   UNL     1      -5.768   4.447 -30.077  1.00  0.00     0.439 C 
HETATM   33  F   UNL     1      -4.579   5.003 -30.394  1.00  0.00    -0.166 F 
HETATM   34  F   UNL     1      -6.305   5.193 -29.078  1.00  0.00    -0.166 F 
HETATM   35  F   UNL     1      -5.523   3.223 -29.561  1.00  0.00    -0.166 F 
ENDBRANCH   2  32
BRANCH   2  36
HETATM   36  O   UNL     1      -6.698   5.605 -32.057  1.00  0.00    -0.363 OA
HETATM   37  H   UNL     1      -7.427   5.549 -32.699  1.00  0.00     0.213 HD
ENDBRANCH   2  36
TORSDOF 8
ENDMDL
MODEL 3
REMARK VINA RESULT:      -8.1      2.175      5.623
REMARK  8 active torsions:
REMARK  status: ('A' for Active; 'I' for Inactive)
REMARK    1  A    between atoms: C_2  and  O_3 
REMARK    2  A    between atoms: O_3  and  C_4 
REMARK    3  A    between atoms: C_4  and  C_5 
REMARK    4  A    between atoms: C_6  and  C_8 
REMARK    5  A    between atoms: C_6  and  O_7 
REMARK    6  A    between atoms: C_16  and  C_17 
REMARK    7  A    between atoms: C_18  and  C_19 
REMARK    8  A    between atoms: N_26  and  C_27 
ROOT
HETATM    1  C   UNL     1      -6.251   3.129 -32.123  1.00  0.00     0.177 C 
HETATM    2  C   UNL     1      -5.072   3.484 -31.206  1.00  0.00     0.250 C 
HETATM    3  N   UNL     1      -5.169   2.718 -29.975  1.00  0.00    -0.303 N 
HETATM    4  C   UNL     1      -5.493   1.406 -29.950  1.00  0.00     0.319 C 
HETATM    5  O   UNL     1      -5.248   0.707 -28.978  1.00  0.00    -0.247 OA
HETATM    6  N   UNL     1      -6.150   0.927 -31.027  1.00  0.00    -0.333 N 
HETATM    7  C   UNL     1      -6.296   1.608 -32.299  1.00  0.00     0.142 C 
HETATM    8  H   UNL     1      -4.560   2.988 -29.208  1.00  0.00     0.167 HD
HETATM    9  H   UNL     1      -6.346  -0.067 -30.978  1.00  0.00     0.165 HD
ENDROOT
BRANCH   7  10
HETATM   10  C   UNL     1      -7.574   1.092 -32.902  1.00  0.00     0.015 A 
HETATM   11  C   UNL     1      -7.780  -0.115 -33.640  1.00  0.00     0.097 A 
HETATM   12  N   UNL     1      -9.051  -0.215 -34.051  1.00  0.00    -0.167 NA
HETATM   13  N   UNL     1      -9.685   0.880 -33.580  1.00  0.00    -0.244 N 
HETATM   14  C   UNL     1      -8.825   1.682 -32.868  1.00  0.00     0.130 A 
BRANCH  11  15
HETATM   15  C   UNL     1      -6.823  -1.170 -33.976  1.00  0.00    -0.005 A 
HETATM   16  C   UNL     1      -5.441  -0.955 -33.886  1.00  0.00     0.014 A 
HETATM   17  C   UNL     1      -4.543  -1.974 -34.215  1.00  0.00     0.001 A 
HETATM   18  C   UNL     1      -5.017  -3.219 -34.622  1.00  0.00     0.000 A 
HETATM   19  C   UNL     1      -6.390  -3.451 -34.695  1.00  0.00     0.001 A 
HETATM   20  C   UNL     1      -7.287  -2.432 -34.371  1.00  0.00     0.014 A 
ENDBRANCH  11  15
BRANCH  13  21
HETATM   21  C   UNL     1     -11.067   1.093 -33.850  1.00  0.00     0.058 A 
HETATM   22  C   UNL     1     -11.999   0.114 -33.472  1.00  0.00     0.031 A 
HETATM   23  C   UNL     1     -13.359   0.295 -33.734  1.00  0.00     0.002 A 
HETATM   24  C   UNL     1     -13.798   1.451 -34.374  1.00  0.00     0.000 A 
HETATM   25  C   UNL     1     -12.879   2.429 -34.753  1.00  0.00     0.002 A 
HETATM   26  C   UNL     1     -11.516   2.255 -34.492  1.00  0.00     0.031 A 
ENDBRANCH  13  21
ENDBRANCH   7  10
BRANCH   1  27
HETATM   27  C   UNL     1      -6.131   3.805 -33.470  1.00  0.00     0.270 C 
HETATM   28  O   UNL     1      -5.720   3.260 -34.483  1.00  0.00    -0.265 OA
BRANCH  27  29
HETATM   29  O   UNL     1      -6.559   5.092 -33.395  1.00  0.00    -0.321 OA
BRANCH  29  30
HETATM   30  C   UNL     1      -7.933   5.287 -33.021  1.00  0.00     0.174 C 
HETATM   31  C   UNL     1      -8.865   5.145 -34.210  1.00  0.00     0.034 C 
ENDBRANCH  29  30
ENDBRANCH  27  29
ENDBRANCH   1  27
BRANCH   2  32
HETATM   32  C   UNL     1      -3.667   3.310 -31.895  1.00  0.00     0.439 C 
HETATM   33  F   UNL     1      -3.375   4.329 -32.731  1.00  0.00    -0.166 F 
HETATM   34  F   UNL     1      -2.682   3.263 -30.962  1.00  0.00    -0.166 F 
HETATM   35  F   UNL     1      -3.588   2.163 -32.605  1.00  0.00    -0.166 F 
ENDBRANCH   2  32
BRANCH   2  36
HETATM   36  O   UNL     1      -5.238   4.823 -30.726  1.00  0.00    -0.363 OA
HETATM   37  H   UNL     1      -5.515   4.738 -29.798  1.00  0.00     0.213 HD
ENDBRANCH   2  36
TORSDOF 8
ENDMDL
MODEL 4
REMARK VINA RESULT:      -7.7      3.184      6.419
REMARK  8 active torsions:
REMARK  status: ('A' for Active; 'I' for Inactive)
REMARK    1  A    between atoms: C_2  and  O_3 
REMARK    2  A    between atoms: O_3  and  C_4 
REMARK    3  A    between atoms: C_4  and  C_5 
REMARK    4  A    between atoms: C_6  and  C_8 
REMARK    5  A    between atoms: C_6  and  O_7 
REMARK    6  A    between atoms: C_16  and  C_17 
REMARK    7  A    between atoms: C_18  and  C_19 
REMARK    8  A    between atoms: N_26  and  C_27 
ROOT
HETATM    1  C   UNL     1      -9.803   3.186 -32.702  1.00  0.00     0.177 C 
HETATM    2  C   UNL     1     -11.300   3.243 -33.037  1.00  0.00     0.250 C 
HETATM    3  N   UNL     1     -11.591   4.476 -33.750  1.00  0.00    -0.303 N 
HETATM    4  C   UNL     1     -10.802   4.958 -34.735  1.00  0.00     0.319 C 
HETATM    5  O   UNL     1     -11.215   5.783 -35.537  1.00  0.00    -0.247 OA
HETATM    6  N   UNL     1      -9.524   4.524 -34.751  1.00  0.00    -0.333 N 
HETATM    7  C   UNL     1      -9.003   3.403 -33.991  1.00  0.00     0.142 C 
HETATM    8  H   UNL     1     -12.567   4.726 -33.869  1.00  0.00     0.167 HD
HETATM    9  H   UNL     1      -8.977   4.888 -35.524  1.00  0.00     0.165 HD
ENDROOT
BRANCH   7  10
HETATM   10  C   UNL     1      -7.543   3.693 -33.772  1.00  0.00     0.015 A 
HETATM   11  C   UNL     1      -6.452   2.771 -33.743  1.00  0.00     0.097 A 
HETATM   12  N   UNL     1      -5.298   3.400 -33.483  1.00  0.00    -0.167 NA
HETATM   13  N   UNL     1      -5.603   4.710 -33.368  1.00  0.00    -0.244 N 
HETATM   14  C   UNL     1      -6.949   4.924 -33.553  1.00  0.00     0.130 A 
BRANCH  11  15
HETATM   15  C   UNL     1      -6.460   1.321 -33.944  1.00  0.00    -0.005 A 
HETATM   16  C   UNL     1      -7.014   0.748 -35.097  1.00  0.00     0.014 A 
HETATM   17  C   UNL     1      -7.016  -0.639 -35.268  1.00  0.00     0.001 A 
HETATM   18  C   UNL     1      -6.451  -1.463 -34.297  1.00  0.00     0.000 A 
HETATM   19  C   UNL     1      -5.878  -0.904 -33.157  1.00  0.00     0.001 A 
HETATM   20  C   UNL     1      -5.880   0.481 -32.983  1.00  0.00     0.014 A 
ENDBRANCH  11  15
BRANCH  13  21
HETATM   21  C   UNL     1      -4.591   5.669 -33.078  1.00  0.00     0.058 A 
HETATM   22  C   UNL     1      -3.459   5.744 -33.905  1.00  0.00     0.031 A 
HETATM   23  C   UNL     1      -2.449   6.670 -33.635  1.00  0.00     0.002 A 
HETATM   24  C   UNL     1      -2.559   7.526 -32.542  1.00  0.00     0.000 A 
HETATM   25  C   UNL     1      -3.680   7.457 -31.716  1.00  0.00     0.002 A 
HETATM   26  C   UNL     1      -4.697   6.534 -31.980  1.00  0.00     0.031 A 
ENDBRANCH  13  21
ENDBRANCH   7  10
BRANCH   1  27
HETATM   27  C   UNL     1      -9.423   1.867 -32.072  1.00  0.00     0.270 C 
HETATM   28  O   UNL     1      -9.277   0.822 -32.687  1.00  0.00    -0.265 OA
BRANCH  27  29
HETATM   29  O   UNL     1      -9.252   2.013 -30.732  1.00  0.00    -0.321 OA
BRANCH  29  30
HETATM   30  C   UNL     1      -8.552   3.193 -30.303  1.00  0.00     0.174 C 
HETATM   31  C   UNL     1      -7.073   2.926 -30.092  1.00  0.00     0.034 C 
ENDBRANCH  29  30
ENDBRANCH  27  29
ENDBRANCH   1  27
BRANCH   2  32
HETATM   32  C   UNL     1     -11.815   1.977 -33.822  1.00  0.00     0.439 C 
HETATM   33  F   UNL     1     -12.079   0.937 -33.002  1.00  0.00    -0.166 F 
HETATM   34  F   UNL     1     -12.964   2.265 -34.485  1.00  0.00    -0.166 F 
HETATM   35  F   UNL     1     -10.925   1.555 -34.745  1.00  0.00    -0.166 F 
ENDBRANCH   2  32
BRANCH   2  36
HETATM   36  O   UNL     1     -12.044   3.426 -31.827  1.00  0.00    -0.363 OA
HETATM   37  H   UNL     1     -12.980   3.360 -32.082  1.00  0.00     0.213 HD
ENDBRANCH   2  36
TORSDOF 8
ENDMDL
MODEL 5
REMARK VINA RESULT:      -7.7      2.494      3.138
REMARK  8 active torsions:
REMARK  status: ('A' for Active; 'I' for Inactive)
REMARK    1  A    between atoms: C_2  and  O_3 
REMARK    2  A    between atoms: O_3  and  C_4 
REMARK    3  A    between atoms: C_4  and  C_5 
REMARK    4  A    between atoms: C_6  and  C_8 
REMARK    5  A    between atoms: C_6  and  O_7 
REMARK    6  A    between atoms: C_16  and  C_17 
REMARK    7  A    between atoms: C_18  and  C_19 
REMARK    8  A    between atoms: N_26  and  C_27 
ROOT
HETATM    1  C   UNL     1      -8.905   4.639 -32.167  1.00  0.00     0.177 C 
HETATM    2  C   UNL     1      -9.261   6.126 -32.304  1.00  0.00     0.250 C 
HETATM    3  N   UNL     1      -9.144   6.526 -33.697  1.00  0.00    -0.303 N 
HETATM    4  C   UNL     1      -9.600   5.768 -34.719  1.00  0.00     0.319 C 
HETATM    5  O   UNL     1      -9.802   6.245 -35.826  1.00  0.00    -0.247 OA
HETATM    6  N   UNL     1      -9.764   4.452 -34.468  1.00  0.00    -0.333 N 
HETATM    7  C   UNL     1      -9.759   3.836 -33.154  1.00  0.00     0.142 C 
HETATM    8  H   UNL     1      -9.173   7.520 -33.900  1.00  0.00     0.167 HD
HETATM    9  H   UNL     1     -10.135   3.929 -35.253  1.00  0.00     0.165 HD
ENDROOT
BRANCH   7  10
HETATM   10  C   UNL     1      -9.299   2.419 -33.362  1.00  0.00     0.015 A 
HETATM   11  C   UNL     1     -10.095   1.242 -33.507  1.00  0.00     0.097 A 
HETATM   12  N   UNL     1      -9.325   0.153 -33.637  1.00  0.00    -0.167 NA
HETATM   13  N   UNL     1      -8.049   0.592 -33.607  1.00  0.00    -0.244 N 
HETATM   14  C   UNL     1      -7.998   1.958 -33.458  1.00  0.00     0.130 A 
BRANCH  11  15
HETATM   15  C   UNL     1     -11.553   1.106 -33.520  1.00  0.00    -0.005 A 
HETATM   16  C   UNL     1     -12.389   2.230 -33.535  1.00  0.00     0.014 A 
HETATM   17  C   UNL     1     -13.779   2.080 -33.543  1.00  0.00     0.001 A 
HETATM   18  C   UNL     1     -14.343   0.806 -33.551  1.00  0.00     0.000 A 
HETATM   19  C   UNL     1     -13.521  -0.320 -33.557  1.00  0.00     0.001 A 
HETATM   20  C   UNL     1     -12.134  -0.170 -33.544  1.00  0.00     0.014 A 
ENDBRANCH  11  15
BRANCH  13  21
HETATM   21  C   UNL     1      -6.963  -0.323 -33.711  1.00  0.00     0.058 A 
HETATM   22  C   UNL     1      -7.050  -1.392 -34.617  1.00  0.00     0.031 A 
HETATM   23  C   UNL     1      -6.003  -2.308 -34.731  1.00  0.00     0.002 A 
HETATM   24  C   UNL     1      -4.863  -2.166 -33.944  1.00  0.00     0.000 A 
HETATM   25  C   UNL     1      -4.768  -1.108 -33.042  1.00  0.00     0.002 A 
HETATM   26  C   UNL     1      -5.812  -0.185 -32.923  1.00  0.00     0.031 A 
ENDBRANCH  13  21
ENDBRANCH   7  10
BRANCH   1  27
HETATM   27  C   UNL     1      -9.131   4.139 -30.759  1.00  0.00     0.270 C 
HETATM   28  O   UNL     1     -10.077   3.448 -30.414  1.00  0.00    -0.265 OA
BRANCH  27  29
HETATM   29  O   UNL     1      -8.128   4.554 -29.942  1.00  0.00    -0.321 OA
BRANCH  29  30
HETATM   30  C   UNL     1      -6.831   3.983 -30.183  1.00  0.00     0.174 C 
HETATM   31  C   UNL     1      -6.827   2.482 -29.959  1.00  0.00     0.034 C 
ENDBRANCH  29  30
ENDBRANCH  27  29
ENDBRANCH   1  27
BRANCH   2  32
HETATM   32  C   UNL     1     -10.673   6.490 -31.707  1.00  0.00     0.439 C 
HETATM   33  F   UNL     1     -10.651   6.588 -30.360  1.00  0.00    -0.166 F 
HETATM   34  F   UNL     1     -11.098   7.686 -32.188  1.00  0.00    -0.166 F 
HETATM   35  F   UNL     1     -11.613   5.579 -32.035  1.00  0.00    -0.166 F 
ENDBRANCH   2  32
BRANCH   2  36
HETATM   36  O   UNL     1      -8.234   6.912 -31.691  1.00  0.00    -0.363 OA
HETATM   37  H   UNL     1      -7.474   6.315 -31.583  1.00  0.00     0.213 HD
ENDBRANCH   2  36
TORSDOF 8
ENDMDL
MODEL 6
REMARK VINA RESULT:      -7.7      1.776      2.914
REMARK  8 active torsions:
REMARK  status: ('A' for Active; 'I' for Inactive)
REMARK    1  A    between atoms: C_2  and  O_3 
REMARK    2  A    between atoms: O_3  and  C_4 
REMARK    3  A    between atoms: C_4  and  C_5 
REMARK    4  A    between atoms: C_6  and  C_8 
REMARK    5  A    between atoms: C_6  and  O_7 
REMARK    6  A    between atoms: C_16  and  C_17 
REMARK    7  A    between atoms: C_18  and  C_19 
REMARK    8  A    between atoms: N_26  and  C_27 
ROOT
HETATM    1  C   UNL     1      -7.427   3.953 -33.047  1.00  0.00     0.177 C 
HETATM    2  C   UNL     1      -7.784   5.209 -32.241  1.00  0.00     0.250 C 
HETATM    3  N   UNL     1      -9.081   5.028 -31.610  1.00  0.00    -0.303 N 
HETATM    4  C   UNL     1      -9.447   3.878 -31.002  1.00  0.00     0.319 C 
HETATM    5  O   UNL     1     -10.372   3.845 -30.203  1.00  0.00    -0.247 OA
HETATM    6  N   UNL     1      -8.779   2.764 -31.367  1.00  0.00    -0.333 N 
HETATM    7  C   UNL     1      -7.546   2.731 -32.131  1.00  0.00     0.142 C 
HETATM    8  H   UNL     1      -9.518   5.847 -31.199  1.00  0.00     0.167 HD
HETATM    9  H   UNL     1      -9.066   1.931 -30.864  1.00  0.00     0.165 HD
ENDROOT
BRANCH   7  10
HETATM   10  C   UNL     1      -7.541   1.412 -32.853  1.00  0.00     0.015 A 
HETATM   11  C   UNL     1      -8.593   0.814 -33.613  1.00  0.00     0.097 A 
HETATM   12  N   UNL     1      -8.229  -0.389 -34.075  1.00  0.00    -0.167 NA
HETATM   13  N   UNL     1      -6.959  -0.581 -33.660  1.00  0.00    -0.244 N 
HETATM   14  C   UNL     1      -6.507   0.495 -32.933  1.00  0.00     0.130 A 
BRANCH  11  15
HETATM   15  C   UNL     1      -9.930   1.333 -33.911  1.00  0.00    -0.005 A 
HETATM   16  C   UNL     1     -11.082   0.688 -33.443  1.00  0.00     0.014 A 
HETATM   17  C   UNL     1     -12.349   1.197 -33.742  1.00  0.00     0.001 A 
HETATM   18  C   UNL     1     -12.474   2.361 -34.497  1.00  0.00     0.000 A 
HETATM   19  C   UNL     1     -11.334   3.022 -34.950  1.00  0.00     0.001 A 
HETATM   20  C   UNL     1     -10.069   2.512 -34.656  1.00  0.00     0.014 A 
ENDBRANCH  11  15
BRANCH  13  21
HETATM   21  C   UNL     1      -6.264  -1.784 -33.977  1.00  0.00     0.058 A 
HETATM   22  C   UNL     1      -6.966  -2.847 -34.568  1.00  0.00     0.031 A 
HETATM   23  C   UNL     1      -6.309  -4.039 -34.879  1.00  0.00     0.002 A 
HETATM   24  C   UNL     1      -4.951  -4.181 -34.603  1.00  0.00     0.000 A 
HETATM   25  C   UNL     1      -4.247  -3.130 -34.016  1.00  0.00     0.002 A 
HETATM   26  C   UNL     1      -4.898  -1.932 -33.704  1.00  0.00     0.031 A 
ENDBRANCH  13  21
ENDBRANCH   7  10
BRANCH   1  27
HETATM   27  C   UNL     1      -6.032   4.038 -33.622  1.00  0.00     0.270 C 
HETATM   28  O   UNL     1      -5.706   4.773 -34.541  1.00  0.00    -0.265 OA
BRANCH  27  29
HETATM   29  O   UNL     1      -5.195   3.195 -32.963  1.00  0.00    -0.321 OA
BRANCH  29  30
HETATM   30  C   UNL     1      -3.837   3.637 -32.807  1.00  0.00     0.174 C 
HETATM   31  C   UNL     1      -3.198   3.064 -31.556  1.00  0.00     0.034 C 
ENDBRANCH  29  30
ENDBRANCH  27  29
ENDBRANCH   1  27
BRANCH   2  32
HETATM   32  C   UNL     1      -6.677   5.620 -31.197  1.00  0.00     0.439 C 
HETATM   33  F   UNL     1      -7.146   6.470 -30.259  1.00  0.00    -0.166 F 
HETATM   34  F   UNL     1      -6.208   4.525 -30.547  1.00  0.00    -0.166 F 
HETATM   35  F   UNL     1      -5.616   6.209 -31.789  1.00  0.00    -0.166 F 
ENDBRANCH   2  32
BRANCH   2  36
HETATM   36  O   UNL     1      -8.051   6.287 -33.145  1.00  0.00    -0.363 OA
HETATM   37  H   UNL     1      -7.838   5.946 -34.031  1.00  0.00     0.213 HD
ENDBRANCH   2  36
TORSDOF 8
ENDMDL
MODEL 7
REMARK VINA RESULT:      -7.5      3.035      6.015
REMARK  8 active torsions:
REMARK  status: ('A' for Active; 'I' for Inactive)
REMARK    1  A    between atoms: C_2  and  O_3 
REMARK    2  A    between atoms: O_3  and  C_4 
REMARK    3  A    between atoms: C_4  and  C_5 
REMARK    4  A    between atoms: C_6  and  C_8 
REMARK    5  A    between atoms: C_6  and  O_7 
REMARK    6  A    between atoms: C_16  and  C_17 
REMARK    7  A    between atoms: C_18  and  C_19 
REMARK    8  A    between atoms: N_26  and  C_27 
ROOT
HETATM    1  C   UNL     1      -6.738   5.020 -30.803  1.00  0.00     0.177 C 
HETATM    2  C   UNL     1      -7.397   6.048 -29.872  1.00  0.00     0.250 C 
HETATM    3  N   UNL     1      -6.999   5.784 -28.499  1.00  0.00    -0.303 N 
HETATM    4  C   UNL     1      -5.731   5.478 -28.148  1.00  0.00     0.319 C 
HETATM    5  O   UNL     1      -5.344   5.589 -26.994  1.00  0.00    -0.247 OA
HETATM    6  N   UNL     1      -4.936   4.991 -29.125  1.00  0.00    -0.333 N 
HETATM    7  C   UNL     1      -5.227   5.022 -30.545  1.00  0.00     0.142 C 
HETATM    8  H   UNL     1      -7.504   6.271 -27.766  1.00  0.00     0.167 HD
HETATM    9  H   UNL     1      -3.986   4.804 -28.823  1.00  0.00     0.165 HD
ENDROOT
BRANCH   7  10
HETATM   10  C   UNL     1      -4.495   3.853 -31.145  1.00  0.00     0.015 A 
HETATM   11  C   UNL     1      -3.211   3.840 -31.772  1.00  0.00     0.097 A 
HETATM   12  N   UNL     1      -2.908   2.614 -32.220  1.00  0.00    -0.167 NA
HETATM   13  N   UNL     1      -3.947   1.823 -31.879  1.00  0.00    -0.244 N 
HETATM   14  C   UNL     1      -4.916   2.537 -31.214  1.00  0.00     0.130 A 
BRANCH  11  15
HETATM   15  C   UNL     1      -2.266   4.940 -31.969  1.00  0.00    -0.005 A 
HETATM   16  C   UNL     1      -2.481   5.918 -32.949  1.00  0.00     0.014 A 
HETATM   17  C   UNL     1      -1.565   6.959 -33.125  1.00  0.00     0.001 A 
HETATM   18  C   UNL     1      -0.434   7.039 -32.314  1.00  0.00     0.000 A 
HETATM   19  C   UNL     1      -0.221   6.083 -31.322  1.00  0.00     0.001 A 
HETATM   20  C   UNL     1      -1.133   5.041 -31.149  1.00  0.00     0.014 A 
ENDBRANCH  11  15
BRANCH  13  21
HETATM   21  C   UNL     1      -3.950   0.441 -32.221  1.00  0.00     0.058 A 
HETATM   22  C   UNL     1      -3.116  -0.443 -31.517  1.00  0.00     0.031 A 
HETATM   23  C   UNL     1      -3.094  -1.801 -31.840  1.00  0.00     0.002 A 
HETATM   24  C   UNL     1      -3.903  -2.288 -32.864  1.00  0.00     0.000 A 
HETATM   25  C   UNL     1      -4.735  -1.418 -33.567  1.00  0.00     0.002 A 
HETATM   26  C   UNL     1      -4.763  -0.057 -33.249  1.00  0.00     0.031 A 
ENDBRANCH  13  21
ENDBRANCH   7  10
BRANCH   1  27
HETATM   27  C   UNL     1      -7.017   5.325 -32.256  1.00  0.00     0.270 C 
HETATM   28  O   UNL     1      -6.216   5.840 -33.021  1.00  0.00    -0.265 OA
BRANCH  27  29
HETATM   29  O   UNL     1      -8.274   4.932 -32.590  1.00  0.00    -0.321 OA
BRANCH  29  30
HETATM   30  C   UNL     1      -8.400   4.149 -33.789  1.00  0.00     0.174 C 
HETATM   31  C   UNL     1      -7.846   2.747 -33.607  1.00  0.00     0.034 C 
ENDBRANCH  29  30
ENDBRANCH  27  29
ENDBRANCH   1  27
BRANCH   2  32
HETATM   32  C   UNL     1      -7.114   7.541 -30.287  1.00  0.00     0.439 C 
HETATM   33  F   UNL     1      -7.341   8.407 -29.276  1.00  0.00    -0.166 F 
HETATM   34  F   UNL     1      -5.818   7.694 -30.661  1.00  0.00    -0.166 F 
HETATM   35  F   UNL     1      -7.873   7.929 -31.335  1.00  0.00    -0.166 F 
ENDBRANCH   2  32
BRANCH   2  36
HETATM   36  O   UNL     1      -8.806   5.796 -29.818  1.00  0.00    -0.363 OA
HETATM   37  H   UNL     1      -9.181   6.235 -30.600  1.00  0.00     0.213 HD
ENDBRANCH   2  36
TORSDOF 8
ENDMDL
MODEL 8
REMARK VINA RESULT:      -7.4      2.359      4.096
REMARK  8 active torsions:
REMARK  status: ('A' for Active; 'I' for Inactive)
REMARK    1  A    between atoms: C_2  and  O_3 
REMARK    2  A    between atoms: O_3  and  C_4 
REMARK    3  A    between atoms: C_4  and  C_5 
REMARK    4  A    between atoms: C_6  and  C_8 
REMARK    5  A    between atoms: C_6  and  O_7 
REMARK    6  A    between atoms: C_16  and  C_17 
REMARK    7  A    between atoms: C_18  and  C_19 
REMARK    8  A    between atoms: N_26  and  C_27 
ROOT
HETATM    1  C   UNL     1      -7.864   3.300 -31.940  1.00  0.00     0.177 C 
HETATM    2  C   UNL     1      -8.969   4.360 -31.845  1.00  0.00     0.250 C 
HETATM    3  N   UNL     1      -9.517   4.610 -33.168  1.00  0.00    -0.303 N 
HETATM    4  C   UNL     1      -9.796   3.620 -34.045  1.00  0.00     0.319 C 
HETATM    5  O   UNL     1     -10.549   3.800 -34.991  1.00  0.00    -0.247 OA
HETATM    6  N   UNL     1      -9.158   2.446 -33.854  1.00  0.00    -0.333 N 
HETATM    7  C   UNL     1      -8.424   2.069 -32.660  1.00  0.00     0.142 C 
HETATM    8  H   UNL     1     -10.124   5.416 -33.277  1.00  0.00     0.167 HD
HETATM    9  H   UNL     1      -9.420   1.725 -34.517  1.00  0.00     0.165 HD
ENDROOT
BRANCH   7  10
HETATM   10  C   UNL     1      -7.380   1.084 -33.110  1.00  0.00     0.015 A 
HETATM   11  C   UNL     1      -6.024   1.339 -33.481  1.00  0.00     0.097 A 
HETATM   12  N   UNL     1      -5.410   0.211 -33.863  1.00  0.00    -0.167 NA
HETATM   13  N   UNL     1      -6.321  -0.776 -33.726  1.00  0.00    -0.244 N 
HETATM   14  C   UNL     1      -7.517  -0.285 -33.258  1.00  0.00     0.130 A 
BRANCH  11  15
HETATM   15  C   UNL     1      -5.291   2.606 -33.495  1.00  0.00    -0.005 A 
HETATM   16  C   UNL     1      -5.695   3.672 -34.308  1.00  0.00     0.014 A 
HETATM   17  C   UNL     1      -4.979   4.873 -34.311  1.00  0.00     0.001 A 
HETATM   18  C   UNL     1      -3.863   5.022 -33.490  1.00  0.00     0.000 A 
HETATM   19  C   UNL     1      -3.464   3.975 -32.661  1.00  0.00     0.001 A 
HETATM   20  C   UNL     1      -4.176   2.774 -32.662  1.00  0.00     0.014 A 
ENDBRANCH  11  15
BRANCH  13  21
HETATM   21  C   UNL     1      -5.992  -2.120 -34.062  1.00  0.00     0.058 A 
HETATM   22  C   UNL     1      -4.675  -2.571 -33.883  1.00  0.00     0.031 A 
HETATM   23  C   UNL     1      -4.325  -3.881 -34.214  1.00  0.00     0.002 A 
HETATM   24  C   UNL     1      -5.285  -4.751 -34.725  1.00  0.00     0.000 A 
HETATM   25  C   UNL     1      -6.596  -4.312 -34.906  1.00  0.00     0.002 A 
HETATM   26  C   UNL     1      -6.954  -3.002 -34.576  1.00  0.00     0.031 A 
ENDBRANCH  13  21
ENDBRANCH   7  10
BRANCH   1  27
HETATM   27  C   UNL     1      -7.346   2.911 -30.575  1.00  0.00     0.270 C 
HETATM   28  O   UNL     1      -7.247   1.761 -30.174  1.00  0.00    -0.265 OA
BRANCH  27  29
HETATM   29  O   UNL     1      -6.992   4.017 -29.869  1.00  0.00    -0.321 OA
BRANCH  29  30
HETATM   30  C   UNL     1      -5.583   4.244 -29.701  1.00  0.00     0.174 C 
HETATM   31  C   UNL     1      -5.209   5.689 -29.976  1.00  0.00     0.034 C 
ENDBRANCH  29  30
ENDBRANCH  27  29
ENDBRANCH   1  27
BRANCH   2  32
HETATM   32  C   UNL     1     -10.095   4.001 -30.803  1.00  0.00     0.439 C 
HETATM   33  F   UNL     1     -10.006   2.726 -30.369  1.00  0.00    -0.166 F 
HETATM   34  F   UNL     1     -10.005   4.803 -29.711  1.00  0.00    -0.166 F 
HETATM   35  F   UNL     1     -11.333   4.174 -31.314  1.00  0.00    -0.166 F 
ENDBRANCH   2  32
BRANCH   2  36
HETATM   36  O   UNL     1      -8.378   5.627 -31.534  1.00  0.00    -0.363 OA
HETATM   37  H   UNL     1      -7.460   5.433 -31.277  1.00  0.00     0.213 HD
ENDBRANCH   2  36
TORSDOF 8
ENDMDL
MODEL 9
REMARK VINA RESULT:      -7.3     15.720     17.892
REMARK  8 active torsions:
REMARK  status: ('A' for Active; 'I' for Inactive)
REMARK    1  A    between atoms: C_2  and  O_3 
REMARK    2  A    between atoms: O_3  and  C_4 
REMARK    3  A    between atoms: C_4  and  C_5 
REMARK    4  A    between atoms: C_6  and  C_8 
REMARK    5  A    between atoms: C_6  and  O_7 
REMARK    6  A    between atoms: C_16  and  C_17 
REMARK    7  A    between atoms: C_18  and  C_19 
REMARK    8  A    between atoms: N_26  and  C_27 
ROOT
HETATM    1  C   UNL     1      -6.178 -14.098 -39.332  1.00  0.00     0.177 C 
HETATM    2  C   UNL     1      -7.684 -14.254 -39.580  1.00  0.00     0.250 C 
HETATM    3  N   UNL     1      -8.146 -15.499 -38.988  1.00  0.00    -0.303 N 
HETATM    4  C   UNL     1      -7.757 -15.918 -37.764  1.00  0.00     0.319 C 
HETATM    5  O   UNL     1      -8.390 -16.763 -37.148  1.00  0.00    -0.247 OA
HETATM    6  N   UNL     1      -6.608 -15.398 -37.285  1.00  0.00    -0.333 N 
HETATM    7  C   UNL     1      -5.908 -14.250 -37.832  1.00  0.00     0.142 C 
HETATM    8  H   UNL     1      -9.079 -15.814 -39.234  1.00  0.00     0.167 HD
HETATM    9  H   UNL     1      -6.371 -15.717 -36.352  1.00  0.00     0.165 HD
ENDROOT
BRANCH   7  10
HETATM   10  C   UNL     1      -4.459 -14.441 -37.478  1.00  0.00     0.015 A 
HETATM   11  C   UNL     1      -3.857 -14.449 -36.182  1.00  0.00     0.097 A 
HETATM   12  N   UNL     1      -2.530 -14.608 -36.269  1.00  0.00    -0.167 NA
HETATM   13  N   UNL     1      -2.252 -14.731 -37.585  1.00  0.00    -0.244 N 
HETATM   14  C   UNL     1      -3.398 -14.650 -38.342  1.00  0.00     0.130 A 
BRANCH  11  15
HETATM   15  C   UNL     1      -4.486 -14.305 -34.868  1.00  0.00    -0.005 A 
HETATM   16  C   UNL     1      -5.065 -13.094 -34.467  1.00  0.00     0.014 A 
HETATM   17  C   UNL     1      -5.658 -12.975 -33.207  1.00  0.00     0.001 A 
HETATM   18  C   UNL     1      -5.690 -14.069 -32.344  1.00  0.00     0.000 A 
HETATM   19  C   UNL     1      -5.136 -15.285 -32.741  1.00  0.00     0.001 A 
HETATM   20  C   UNL     1      -4.540 -15.402 -33.997  1.00  0.00     0.014 A 
ENDBRANCH  11  15
BRANCH  13  21
HETATM   21  C   UNL     1      -0.912 -14.905 -38.032  1.00  0.00     0.058 A 
HETATM   22  C   UNL     1      -0.572 -14.536 -39.344  1.00  0.00     0.031 A 
HETATM   23  C   UNL     1       0.733 -14.707 -39.809  1.00  0.00     0.002 A 
HETATM   24  C   UNL     1       1.708 -15.245 -38.972  1.00  0.00     0.000 A 
HETATM   25  C   UNL     1       1.379 -15.615 -37.669  1.00  0.00     0.002 A 
HETATM   26  C   UNL     1       0.074 -15.445 -37.195  1.00  0.00     0.031 A 
ENDBRANCH  13  21
ENDBRANCH   7  10
BRANCH   1  27
HETATM   27  C   UNL     1      -5.669 -12.761 -39.818  1.00  0.00     0.270 C 
HETATM   28  O   UNL     1      -5.390 -11.821 -39.090  1.00  0.00    -0.265 OA
BRANCH  27  29
HETATM   29  O   UNL     1      -5.552 -12.761 -41.172  1.00  0.00    -0.321 OA
BRANCH  29  30
HETATM   30  C   UNL     1      -4.509 -13.584 -41.722  1.00  0.00     0.174 C 
HETATM   31  C   UNL     1      -4.970 -14.316 -42.969  1.00  0.00     0.034 C 
ENDBRANCH  29  30
ENDBRANCH  27  29
ENDBRANCH   1  27
BRANCH   2  32
HETATM   32  C   UNL     1      -8.532 -13.021 -39.088  1.00  0.00     0.439 C 
HETATM   33  F   UNL     1      -8.603 -12.043 -40.016  1.00  0.00    -0.166 F 
HETATM   34  F   UNL     1      -9.805 -13.401 -38.808  1.00  0.00    -0.166 F 
HETATM   35  F   UNL     1      -8.028 -12.477 -37.959  1.00  0.00    -0.166 F 
ENDBRANCH   2  32
BRANCH   2  36
HETATM   36  O   UNL     1      -7.907 -14.498 -40.974  1.00  0.00    -0.363 OA
HETATM   37  H   UNL     1      -8.483 -13.776 -41.278  1.00  0.00     0.213 HD
ENDBRANCH   2  36
TORSDOF 8
ENDMDL
MODEL 10
REMARK VINA RESULT:      -7.3     15.649     17.896
REMARK  8 active torsions:
REMARK  status: ('A' for Active; 'I' for Inactive)
REMARK    1  A    between atoms: C_2  and  O_3 
REMARK    2  A    between atoms: O_3  and  C_4 
REMARK    3  A    between atoms: C_4  and  C_5 
REMARK    4  A    between atoms: C_6  and  C_8 
REMARK    5  A    between atoms: C_6  and  O_7 
REMARK    6  A    between atoms: C_16  and  C_17 
REMARK    7  A    between atoms: C_18  and  C_19 
REMARK    8  A    between atoms: N_26  and  C_27 
ROOT
HETATM    1  C   UNL     1      -3.386 -14.672 -39.003  1.00  0.00     0.177 C 
HETATM    2  C   UNL     1      -1.882 -14.386 -39.113  1.00  0.00     0.250 C 
HETATM    3  N   UNL     1      -1.669 -12.953 -39.238  1.00  0.00    -0.303 N 
HETATM    4  C   UNL     1      -2.335 -12.044 -38.493  1.00  0.00     0.319 C 
HETATM    5  O   UNL     1      -1.922 -10.901 -38.362  1.00  0.00    -0.247 OA
HETATM    6  N   UNL     1      -3.503 -12.448 -37.951  1.00  0.00    -0.333 N 
HETATM    7  C   UNL     1      -3.966 -13.821 -37.869  1.00  0.00     0.142 C 
HETATM    8  H   UNL     1      -0.739 -12.641 -39.502  1.00  0.00     0.167 HD
HETATM    9  H   UNL     1      -3.953 -11.744 -37.376  1.00  0.00     0.165 HD
ENDROOT
BRANCH   7  10
HETATM   10  C   UNL     1      -5.469 -13.752 -37.852  1.00  0.00     0.015 A 
HETATM   11  C   UNL     1      -6.350 -13.904 -36.737  1.00  0.00     0.097 A 
HETATM   12  N   UNL     1      -7.630 -13.816 -37.121  1.00  0.00    -0.167 NA
HETATM   13  N   UNL     1      -7.608 -13.585 -38.451  1.00  0.00    -0.244 N 
HETATM   14  C   UNL     1      -6.317 -13.524 -38.922  1.00  0.00     0.130 A 
BRANCH  11  15
HETATM   15  C   UNL     1      -6.028 -14.135 -35.328  1.00  0.00    -0.005 A 
HETATM   16  C   UNL     1      -5.757 -15.422 -34.844  1.00  0.00     0.014 A 
HETATM   17  C   UNL     1      -5.456 -15.623 -33.495  1.00  0.00     0.001 A 
HETATM   18  C   UNL     1      -5.408 -14.539 -32.620  1.00  0.00     0.000 A 
HETATM   19  C   UNL     1      -5.655 -13.252 -33.094  1.00  0.00     0.001 A 
HETATM   20  C   UNL     1      -5.961 -13.051 -34.441  1.00  0.00     0.014 A 
ENDBRANCH  11  15
BRANCH  13  21
HETATM   21  C   UNL     1      -8.820 -13.448 -39.185  1.00  0.00     0.058 A 
HETATM   22  C   UNL     1      -9.264 -12.166 -39.545  1.00  0.00     0.031 A 
HETATM   23  C   UNL     1     -10.454 -12.005 -40.257  1.00  0.00     0.002 A 
HETATM   24  C   UNL     1     -11.209 -13.119 -40.616  1.00  0.00     0.000 A 
HETATM   25  C   UNL     1     -10.775 -14.397 -40.263  1.00  0.00     0.002 A 
HETATM   26  C   UNL     1      -9.583 -14.565 -39.551  1.00  0.00     0.031 A 
ENDBRANCH  13  21
ENDBRANCH   7  10
BRANCH   1  27
HETATM   27  C   UNL     1      -3.657 -16.136 -38.746  1.00  0.00     0.270 C 
HETATM   28  O   UNL     1      -3.943 -16.605 -37.654  1.00  0.00    -0.265 OA
BRANCH  27  29
HETATM   29  O   UNL     1      -3.554 -16.848 -39.898  1.00  0.00    -0.321 OA
BRANCH  29  30
HETATM   30  C   UNL     1      -4.494 -16.523 -40.936  1.00  0.00     0.174 C 
HETATM   31  C   UNL     1      -5.917 -16.860 -40.531  1.00  0.00     0.034 C 
ENDBRANCH  29  30
ENDBRANCH  27  29
ENDBRANCH   1  27
BRANCH   2  32
HETATM   32  C   UNL     1      -1.038 -15.003 -37.935  1.00  0.00     0.439 C 
HETATM   33  F   UNL     1      -0.846 -16.331 -38.081  1.00  0.00    -0.166 F 
HETATM   34  F   UNL     1       0.189 -14.425 -37.875  1.00  0.00    -0.166 F 
HETATM   35  F   UNL     1      -1.623 -14.804 -36.734  1.00  0.00    -0.166 F 
ENDBRANCH   2  32
BRANCH   2  36
HETATM   36  O   UNL     1      -1.406 -14.860 -40.378  1.00  0.00    -0.363 OA
HETATM   37  H   UNL     1      -1.208 -14.063 -40.900  1.00  0.00     0.213 HD
ENDBRANCH   2  36
TORSDOF 8
ENDMDL
