MODEL 1
REMARK VINA RESULT:      -9.2      0.000      0.000
REMARK  5 active torsions:
REMARK  status: ('A' for Active; 'I' for Inactive)
REMARK    1  A    between atoms: C_3  and  N_4 
REMARK       I    between atoms: N_4  and  C_5 
REMARK    2  A    between atoms: C_9  and  N_10 
REMARK       I    between atoms: N_10  and  C_11 
REMARK    3  A    between atoms: C_11  and  C_12 
REMARK    4  A    between atoms: C_17  and  C_18 
REMARK    5  A    between atoms: C_24  and  C_25 
ROOT
HETATM    1  C   UNL     1      -5.083   2.932 -33.135  1.00  0.00     0.148 C 
HETATM    2  N   UNL     1      -6.068   2.906 -34.067  1.00  0.00    -0.165 NA
HETATM    3  N   UNL     1      -6.611   1.688 -33.899  1.00  0.00    -0.240 N 
HETATM    4  C   UNL     1      -5.936   0.890 -33.020  1.00  0.00     0.123 C 
HETATM    5  N   UNL     1      -6.254  -0.411 -32.878  1.00  0.00    -0.364 N 
HETATM    6  C   UNL     1      -7.119  -1.127 -33.825  1.00  0.00     0.143 C 
HETATM    7  C   UNL     1      -7.456  -0.259 -35.060  1.00  0.00     0.068 C 
HETATM    8  C   UNL     1      -7.718   1.207 -34.700  1.00  0.00     0.221 C 
HETATM    9  C   UNL     1      -4.996   1.694 -32.437  1.00  0.00     0.089 C 
HETATM   10  H   UNL     1      -5.773  -1.003 -32.203  1.00  0.00     0.162 HD
ENDROOT
BRANCH   1  11
HETATM   11  C   UNL     1      -4.205   4.103 -32.957  1.00  0.00     0.276 C 
HETATM   12  N   UNL     1      -3.395   3.972 -31.845  1.00  0.00    -0.322 N 
HETATM   13  H   UNL     1      -3.532   3.095 -31.348  1.00  0.00     0.169 HD
HETATM   14  O   UNL     1      -4.262   5.065 -33.714  1.00  0.00    -0.266 OA
BRANCH  12  15
HETATM   15  C   UNL     1      -2.497   4.907 -31.305  1.00  0.00     0.037 A 
HETATM   16  C   UNL     1      -2.865   6.183 -30.875  1.00  0.00     0.059 A 
HETATM   17  C   UNL     1      -1.934   7.079 -30.307  1.00  0.00     0.042 A 
HETATM   18  C   UNL     1      -0.583   6.700 -30.233  1.00  0.00    -0.035 A 
HETATM   19  C   UNL     1       0.538   7.590 -29.777  1.00  0.00     0.050 C 
HETATM   20  C   UNL     1      -0.224   5.403 -30.652  1.00  0.00     0.011 A 
HETATM   21  C   UNL     1      -1.165   4.521 -31.185  1.00  0.00     0.030 A 
BRANCH  17  22
HETATM   22  N   UNL     1      -2.485   8.322 -29.913  1.00  0.00    -0.327 N 
HETATM   23  C   UNL     1      -2.564   9.495 -30.635  1.00  0.00     0.218 C 
HETATM   24  C   UNL     1      -3.321  10.575 -29.900  1.00  0.00     0.117 C 
HETATM   25  O   UNL     1      -2.093   9.718 -31.744  1.00  0.00    -0.274 OA
HETATM   26  H   UNL     1      -2.623   8.427 -28.915  1.00  0.00     0.169 HD
ENDBRANCH  17  22
ENDBRANCH  12  15
ENDBRANCH   1  11
BRANCH   8  27
HETATM   27  C   UNL     1      -9.021   1.407 -33.959  1.00  0.00     0.409 C 
HETATM   28  F   UNL     1      -8.831   1.621 -32.638  1.00  0.00    -0.169 F 
HETATM   29  F   UNL     1      -9.655   2.509 -34.440  1.00  0.00    -0.169 F 
HETATM   30  F   UNL     1      -9.884   0.379 -34.090  1.00  0.00    -0.169 F 
ENDBRANCH   8  27
BRANCH   6  31
HETATM   31  C   UNL     1      -6.510  -2.415 -34.293  1.00  0.00     0.075 A 
HETATM   32  O   UNL     1      -5.149  -2.466 -34.360  1.00  0.00    -0.325 OA
HETATM   33  C   UNL     1      -4.821  -3.715 -34.783  1.00  0.00     0.142 A 
HETATM   34  C   UNL     1      -5.952  -4.471 -34.983  1.00  0.00     0.027 A 
HETATM   35  C   UNL     1      -7.046  -3.632 -34.668  1.00  0.00     0.037 A 
ENDBRANCH   6  31
TORSDOF 5
ENDMDL
MODEL 2
REMARK VINA RESULT:      -9.1      2.578      4.033
REMARK  5 active torsions:
REMARK  status: ('A' for Active; 'I' for Inactive)
REMARK    1  A    between atoms: C_3  and  N_4 
REMARK       I    between atoms: N_4  and  C_5 
REMARK    2  A    between atoms: C_9  and  N_10 
REMARK       I    between atoms: N_10  and  C_11 
REMARK    3  A    between atoms: C_11  and  C_12 
REMARK    4  A    between atoms: C_17  and  C_18 
REMARK    5  A    between atoms: C_24  and  C_25 
ROOT
HETATM    1  C   UNL     1      -6.225   2.824 -32.158  1.00  0.00     0.148 C 
HETATM    2  N   UNL     1      -6.367   1.477 -32.117  1.00  0.00    -0.165 NA
HETATM    3  N   UNL     1      -7.421   1.259 -32.923  1.00  0.00    -0.240 N 
HETATM    4  C   UNL     1      -8.042   2.397 -33.352  1.00  0.00     0.123 C 
HETATM    5  N   UNL     1      -9.210   2.341 -34.019  1.00  0.00    -0.364 N 
HETATM    6  C   UNL     1     -10.033   1.126 -34.085  1.00  0.00     0.143 C 
HETATM    7  C   UNL     1      -9.480   0.012 -33.165  1.00  0.00     0.068 C 
HETATM    8  C   UNL     1      -7.949  -0.065 -33.181  1.00  0.00     0.221 C 
HETATM    9  C   UNL     1      -7.239   3.430 -32.951  1.00  0.00     0.089 C 
HETATM   10  H   UNL     1      -9.662   3.186 -34.366  1.00  0.00     0.162 HD
ENDROOT
BRANCH   1  11
HETATM   11  C   UNL     1      -5.169   3.522 -31.402  1.00  0.00     0.276 C 
HETATM   12  N   UNL     1      -4.339   4.251 -32.234  1.00  0.00    -0.322 N 
HETATM   13  H   UNL     1      -4.602   4.192 -33.215  1.00  0.00     0.169 HD
HETATM   14  O   UNL     1      -5.064   3.399 -30.187  1.00  0.00    -0.266 OA
BRANCH  12  15
HETATM   15  C   UNL     1      -3.181   4.972 -31.898  1.00  0.00     0.037 A 
HETATM   16  C   UNL     1      -3.190   6.169 -31.180  1.00  0.00     0.059 A 
HETATM   17  C   UNL     1      -1.998   6.843 -30.835  1.00  0.00     0.042 A 
HETATM   18  C   UNL     1      -0.771   6.327 -31.285  1.00  0.00    -0.035 A 
HETATM   19  C   UNL     1       0.562   6.999 -31.110  1.00  0.00     0.050 C 
HETATM   20  C   UNL     1      -0.771   5.109 -31.992  1.00  0.00     0.011 A 
HETATM   21  C   UNL     1      -1.959   4.442 -32.299  1.00  0.00     0.030 A 
BRANCH  17  22
HETATM   22  N   UNL     1      -2.193   8.032 -30.094  1.00  0.00    -0.327 N 
HETATM   23  C   UNL     1      -2.299   9.328 -30.558  1.00  0.00     0.218 C 
HETATM   24  C   UNL     1      -2.610  10.312 -29.457  1.00  0.00     0.117 C 
HETATM   25  O   UNL     1      -2.159   9.717 -31.712  1.00  0.00    -0.274 OA
HETATM   26  H   UNL     1      -2.001   7.950 -29.103  1.00  0.00     0.169 HD
ENDBRANCH  17  22
ENDBRANCH  12  15
ENDBRANCH   1  11
BRANCH   8  27
HETATM   27  C   UNL     1      -7.401  -0.598 -34.485  1.00  0.00     0.409 C 
HETATM   28  F   UNL     1      -6.124  -0.211 -34.699  1.00  0.00    -0.169 F 
HETATM   29  F   UNL     1      -7.391  -1.956 -34.456  1.00  0.00    -0.169 F 
HETATM   30  F   UNL     1      -8.124  -0.241 -35.566  1.00  0.00    -0.169 F 
ENDBRANCH   8  27
BRANCH   6  31
HETATM   31  C   UNL     1     -11.464   1.384 -33.720  1.00  0.00     0.075 A 
HETATM   32  O   UNL     1     -11.763   2.622 -33.231  1.00  0.00    -0.325 OA
HETATM   33  C   UNL     1     -13.101   2.639 -32.992  1.00  0.00     0.142 A 
HETATM   34  C   UNL     1     -13.668   1.432 -33.326  1.00  0.00     0.027 A 
HETATM   35  C   UNL     1     -12.611   0.618 -33.797  1.00  0.00     0.037 A 
ENDBRANCH   6  31
TORSDOF 5
ENDMDL
MODEL 3
REMARK VINA RESULT:      -8.9      4.090      9.402
REMARK  5 active torsions:
REMARK  status: ('A' for Active; 'I' for Inactive)
REMARK    1  A    between atoms: C_3  and  N_4 
REMARK       I    between atoms: N_4  and  C_5 
REMARK    2  A    between atoms: C_9  and  N_10 
REMARK       I    between atoms: N_10  and  C_11 
REMARK    3  A    between atoms: C_11  and  C_12 
REMARK    4  A    between atoms: C_17  and  C_18 
REMARK    5  A    between atoms: C_24  and  C_25 
ROOT
HETATM    1  C   UNL     1      -5.260   3.688 -31.871  1.00  0.00     0.148 C 
HETATM    2  N   UNL     1      -4.975   4.730 -32.689  1.00  0.00    -0.165 NA
HETATM    3  N   UNL     1      -3.650   4.889 -32.526  1.00  0.00    -0.240 N 
HETATM    4  C   UNL     1      -3.109   4.108 -31.546  1.00  0.00     0.123 C 
HETATM    5  N   UNL     1      -1.834   4.278 -31.146  1.00  0.00    -0.364 N 
HETATM    6  C   UNL     1      -1.038   5.459 -31.505  1.00  0.00     0.143 C 
HETATM    7  C   UNL     1      -1.893   6.526 -32.229  1.00  0.00     0.068 C 
HETATM    8  C   UNL     1      -2.893   5.914 -33.216  1.00  0.00     0.221 C 
HETATM    9  C   UNL     1      -4.104   3.251 -31.163  1.00  0.00     0.089 C 
HETATM   10  H   UNL     1      -1.417   3.679 -30.436  1.00  0.00     0.162 HD
ENDROOT
BRANCH   1  11
HETATM   11  C   UNL     1      -6.628   3.158 -31.726  1.00  0.00     0.276 C 
HETATM   12  N   UNL     1      -7.170   2.797 -32.946  1.00  0.00    -0.322 N 
HETATM   13  H   UNL     1      -6.536   2.947 -33.727  1.00  0.00     0.169 HD
HETATM   14  O   UNL     1      -7.182   3.107 -30.634  1.00  0.00    -0.266 OA
BRANCH  12  15
HETATM   15  C   UNL     1      -8.468   2.339 -33.222  1.00  0.00     0.037 A 
HETATM   16  C   UNL     1      -9.414   3.067 -33.946  1.00  0.00     0.059 A 
HETATM   17  C   UNL     1     -10.698   2.553 -34.229  1.00  0.00     0.042 A 
HETATM   18  C   UNL     1     -11.056   1.297 -33.710  1.00  0.00    -0.035 A 
HETATM   19  C   UNL     1     -12.422   0.679 -33.817  1.00  0.00     0.050 C 
HETATM   20  C   UNL     1     -10.089   0.561 -32.998  1.00  0.00     0.011 A 
HETATM   21  C   UNL     1      -8.815   1.075 -32.753  1.00  0.00     0.030 A 
BRANCH  17  22
HETATM   22  N   UNL     1     -11.521   3.420 -34.986  1.00  0.00    -0.327 N 
HETATM   23  C   UNL     1     -12.378   4.404 -34.536  1.00  0.00     0.218 C 
HETATM   24  C   UNL     1     -13.002   5.186 -35.665  1.00  0.00     0.117 C 
HETATM   25  O   UNL     1     -12.660   4.667 -33.373  1.00  0.00    -0.274 OA
HETATM   26  H   UNL     1     -11.673   3.130 -35.945  1.00  0.00     0.169 HD
ENDBRANCH  17  22
ENDBRANCH  12  15
ENDBRANCH   1  11
BRANCH   8  27
HETATM   27  C   UNL     1      -2.228   5.331 -34.443  1.00  0.00     0.409 C 
HETATM   28  F   UNL     1      -1.916   4.026 -34.284  1.00  0.00    -0.169 F 
HETATM   29  F   UNL     1      -3.080   5.397 -35.499  1.00  0.00    -0.169 F 
HETATM   30  F   UNL     1      -1.105   5.980 -34.813  1.00  0.00    -0.169 F 
ENDBRANCH   8  27
BRANCH   6  31
HETATM   31  C   UNL     1      -0.386   6.093 -30.313  1.00  0.00     0.075 A 
HETATM   32  O   UNL     1       0.092   5.253 -29.351  1.00  0.00    -0.325 OA
HETATM   33  C   UNL     1       0.652   6.032 -28.389  1.00  0.00     0.142 A 
HETATM   34  C   UNL     1       0.546   7.362 -28.721  1.00  0.00     0.027 A 
HETATM   35  C   UNL     1      -0.126   7.405 -29.965  1.00  0.00     0.037 A 
ENDBRANCH   6  31
TORSDOF 5
ENDMDL
MODEL 4
REMARK VINA RESULT:      -8.9      3.226      4.576
REMARK  5 active torsions:
REMARK  status: ('A' for Active; 'I' for Inactive)
REMARK    1  A    between atoms: C_3  and  N_4 
REMARK       I    between atoms: N_4  and  C_5 
REMARK    2  A    between atoms: C_9  and  N_10 
REMARK       I    between atoms: N_10  and  C_11 
REMARK    3  A    between atoms: C_11  and  C_12 
REMARK    4  A    between atoms: C_17  and  C_18 
REMARK    5  A    between atoms: C_24  and  C_25 
ROOT
HETATM    1  C   UNL     1      -2.977   3.376 -31.842  1.00  0.00     0.148 C 
HETATM    2  N   UNL     1      -2.835   2.212 -31.163  1.00  0.00    -0.165 NA
HETATM    3  N   UNL     1      -3.695   1.390 -31.788  1.00  0.00    -0.240 N 
HETATM    4  C   UNL     1      -4.477   2.004 -32.723  1.00  0.00     0.123 C 
HETATM    5  N   UNL     1      -5.502   1.354 -33.307  1.00  0.00    -0.364 N 
HETATM    6  C   UNL     1      -6.031   0.081 -32.799  1.00  0.00     0.143 C 
HETATM    7  C   UNL     1      -5.388  -0.304 -31.445  1.00  0.00     0.068 C 
HETATM    8  C   UNL     1      -3.889   0.010 -31.390  1.00  0.00     0.221 C 
HETATM    9  C   UNL     1      -3.976   3.270 -32.851  1.00  0.00     0.089 C 
HETATM   10  H   UNL     1      -6.070   1.798 -34.027  1.00  0.00     0.162 HD
ENDROOT
BRANCH   1  11
HETATM   11  C   UNL     1      -2.210   4.585 -31.492  1.00  0.00     0.276 C 
HETATM   12  N   UNL     1      -2.893   5.385 -30.595  1.00  0.00    -0.322 N 
HETATM   13  H   UNL     1      -3.795   5.002 -30.322  1.00  0.00     0.169 HD
HETATM   14  O   UNL     1      -1.120   4.820 -32.001  1.00  0.00    -0.266 OA
BRANCH  12  15
HETATM   15  C   UNL     1      -2.528   6.647 -30.097  1.00  0.00     0.037 A 
HETATM   16  C   UNL     1      -1.363   6.890 -29.369  1.00  0.00     0.059 A 
HETATM   17  C   UNL     1      -1.019   8.183 -28.917  1.00  0.00     0.042 A 
HETATM   18  C   UNL     1      -1.910   9.244 -29.150  1.00  0.00    -0.035 A 
HETATM   19  C   UNL     1      -1.745  10.640 -28.620  1.00  0.00     0.050 C 
HETATM   20  C   UNL     1      -3.074   8.992 -29.903  1.00  0.00     0.011 A 
HETATM   21  C   UNL     1      -3.383   7.712 -30.366  1.00  0.00     0.030 A 
BRANCH  17  22
HETATM   22  N   UNL     1       0.205   8.248 -28.209  1.00  0.00    -0.327 N 
HETATM   23  C   UNL     1       0.417   8.156 -26.848  1.00  0.00     0.218 C 
HETATM   24  C   UNL     1       1.884   8.167 -26.491  1.00  0.00     0.117 C 
HETATM   25  O   UNL     1      -0.432   8.081 -25.968  1.00  0.00    -0.274 OA
HETATM   26  H   UNL     1       0.978   8.637 -28.735  1.00  0.00     0.169 HD
ENDBRANCH  17  22
ENDBRANCH  12  15
ENDBRANCH   1  11
BRANCH   8  27
HETATM   27  C   UNL     1      -3.063  -0.904 -32.266  1.00  0.00     0.409 C 
HETATM   28  F   UNL     1      -2.796  -0.354 -33.471  1.00  0.00    -0.169 F 
HETATM   29  F   UNL     1      -1.862  -1.140 -31.676  1.00  0.00    -0.169 F 
HETATM   30  F   UNL     1      -3.629  -2.109 -32.481  1.00  0.00    -0.169 F 
ENDBRANCH   8  27
BRANCH   6  31
HETATM   31  C   UNL     1      -7.521   0.106 -32.634  1.00  0.00     0.075 A 
HETATM   32  O   UNL     1      -8.013   0.796 -31.566  1.00  0.00    -0.325 OA
HETATM   33  C   UNL     1      -9.367   0.703 -31.625  1.00  0.00     0.142 A 
HETATM   34  C   UNL     1      -9.754  -0.032 -32.721  1.00  0.00     0.027 A 
HETATM   35  C   UNL     1      -8.561  -0.420 -33.375  1.00  0.00     0.037 A 
ENDBRANCH   6  31
TORSDOF 5
ENDMDL
MODEL 5
REMARK VINA RESULT:      -8.8      1.305      2.263
REMARK  5 active torsions:
REMARK  status: ('A' for Active; 'I' for Inactive)
REMARK    1  A    between atoms: C_3  and  N_4 
REMARK       I    between atoms: N_4  and  C_5 
REMARK    2  A    between atoms: C_9  and  N_10 
REMARK       I    between atoms: N_10  and  C_11 
REMARK    3  A    between atoms: C_11  and  C_12 
REMARK    4  A    between atoms: C_17  and  C_18 
REMARK    5  A    between atoms: C_24  and  C_25 
ROOT
HETATM    1  C   UNL     1      -4.654   2.898 -32.591  1.00  0.00     0.148 C 
HETATM    2  N   UNL     1      -5.510   2.984 -33.638  1.00  0.00    -0.165 NA
HETATM    3  N   UNL     1      -6.151   1.803 -33.604  1.00  0.00    -0.240 N 
HETATM    4  C   UNL     1      -5.648   0.920 -32.691  1.00  0.00     0.123 C 
HETATM    5  N   UNL     1      -6.068  -0.359 -32.658  1.00  0.00    -0.364 N 
HETATM    6  C   UNL     1      -6.850  -0.969 -33.742  1.00  0.00     0.143 C 
HETATM    7  C   UNL     1      -6.967  -0.025 -34.962  1.00  0.00     0.068 C 
HETATM    8  C   UNL     1      -7.176   1.439 -34.561  1.00  0.00     0.221 C 
HETATM    9  C   UNL     1      -4.739   1.628 -31.953  1.00  0.00     0.089 C 
HETATM   10  H   UNL     1      -5.717  -1.014 -31.960  1.00  0.00     0.162 HD
ENDROOT
BRANCH   1  11
HETATM   11  C   UNL     1      -3.729   3.992 -32.244  1.00  0.00     0.276 C 
HETATM   12  N   UNL     1      -4.363   4.991 -31.529  1.00  0.00    -0.322 N 
HETATM   13  H   UNL     1      -5.347   4.799 -31.355  1.00  0.00     0.169 HD
HETATM   14  O   UNL     1      -2.559   3.981 -32.610  1.00  0.00    -0.266 OA
BRANCH  12  15
HETATM   15  C   UNL     1      -3.840   6.222 -31.099  1.00  0.00     0.037 A 
HETATM   16  C   UNL     1      -2.793   6.348 -30.185  1.00  0.00     0.059 A 
HETATM   17  C   UNL     1      -2.276   7.606 -29.807  1.00  0.00     0.042 A 
HETATM   18  C   UNL     1      -2.880   8.769 -30.314  1.00  0.00    -0.035 A 
HETATM   19  C   UNL     1      -2.528  10.171 -29.905  1.00  0.00     0.050 C 
HETATM   20  C   UNL     1      -3.923   8.632 -31.251  1.00  0.00     0.011 A 
HETATM   21  C   UNL     1      -4.401   7.378 -31.634  1.00  0.00     0.030 A 
BRANCH  17  22
HETATM   22  N   UNL     1      -1.206   7.544 -28.883  1.00  0.00    -0.327 N 
HETATM   23  C   UNL     1       0.143   7.393 -29.138  1.00  0.00     0.218 C 
HETATM   24  C   UNL     1       0.979   7.481 -27.884  1.00  0.00     0.117 C 
HETATM   25  O   UNL     1       0.676   7.197 -30.223  1.00  0.00    -0.274 OA
HETATM   26  H   UNL     1      -1.481   7.356 -27.927  1.00  0.00     0.169 HD
ENDBRANCH  17  22
ENDBRANCH  12  15
ENDBRANCH   1  11
BRANCH   8  27
HETATM   27  C   UNL     1      -8.546   1.701 -33.979  1.00  0.00     0.409 C 
HETATM   28  F   UNL     1      -9.028   2.914 -34.329  1.00  0.00    -0.169 F 
HETATM   29  F   UNL     1      -9.428   0.785 -34.457  1.00  0.00    -0.169 F 
HETATM   30  F   UNL     1      -8.591   1.614 -32.634  1.00  0.00    -0.169 F 
ENDBRANCH   8  27
BRANCH   6  31
HETATM   31  C   UNL     1      -6.273  -2.276 -34.198  1.00  0.00     0.075 A 
HETATM   32  O   UNL     1      -4.930  -2.447 -34.037  1.00  0.00    -0.325 OA
HETATM   33  C   UNL     1      -4.634  -3.693 -34.493  1.00  0.00     0.142 A 
HETATM   34  C   UNL     1      -5.769  -4.327 -34.939  1.00  0.00     0.027 A 
HETATM   35  C   UNL     1      -6.831  -3.412 -34.750  1.00  0.00     0.037 A 
ENDBRANCH   6  31
TORSDOF 5
ENDMDL
MODEL 6
REMARK VINA RESULT:      -8.7      5.166      8.907
REMARK  5 active torsions:
REMARK  status: ('A' for Active; 'I' for Inactive)
REMARK    1  A    between atoms: C_3  and  N_4 
REMARK       I    between atoms: N_4  and  C_5 
REMARK    2  A    between atoms: C_9  and  N_10 
REMARK       I    between atoms: N_10  and  C_11 
REMARK    3  A    between atoms: C_11  and  C_12 
REMARK    4  A    between atoms: C_17  and  C_18 
REMARK    5  A    between atoms: C_24  and  C_25 
ROOT
HETATM    1  C   UNL     1      -9.561   1.760 -33.884  1.00  0.00     0.148 C 
HETATM    2  N   UNL     1      -8.818   1.665 -32.754  1.00  0.00    -0.165 NA
HETATM    3  N   UNL     1      -7.726   0.997 -33.165  1.00  0.00    -0.240 N 
HETATM    4  C   UNL     1      -7.801   0.537 -34.448  1.00  0.00     0.123 C 
HETATM    5  N   UNL     1      -6.865  -0.295 -34.943  1.00  0.00    -0.364 N 
HETATM    6  C   UNL     1      -5.885  -0.986 -34.095  1.00  0.00     0.143 C 
HETATM    7  C   UNL     1      -6.180  -0.773 -32.591  1.00  0.00     0.068 C 
HETATM    8  C   UNL     1      -6.636   0.655 -32.273  1.00  0.00     0.221 C 
HETATM    9  C   UNL     1      -8.935   1.092 -34.974  1.00  0.00     0.089 C 
HETATM   10  H   UNL     1      -6.901  -0.618 -35.909  1.00  0.00     0.162 HD
ENDROOT
BRANCH   1  11
HETATM   11  C   UNL     1     -10.874   2.430 -33.904  1.00  0.00     0.276 C 
HETATM   12  N   UNL     1     -11.738   1.892 -32.969  1.00  0.00    -0.322 N 
HETATM   13  H   UNL     1     -11.324   1.140 -32.424  1.00  0.00     0.169 HD
HETATM   14  O   UNL     1     -11.124   3.324 -34.705  1.00  0.00    -0.266 OA
BRANCH  12  15
HETATM   15  C   UNL     1     -13.090   2.204 -32.750  1.00  0.00     0.037 A 
HETATM   16  C   UNL     1     -13.527   3.354 -32.090  1.00  0.00     0.059 A 
HETATM   17  C   UNL     1     -14.898   3.644 -31.921  1.00  0.00     0.042 A 
HETATM   18  C   UNL     1     -15.851   2.714 -32.372  1.00  0.00    -0.035 A 
HETATM   19  C   UNL     1     -17.333   2.822 -32.149  1.00  0.00     0.050 C 
HETATM   20  C   UNL     1     -15.401   1.567 -33.054  1.00  0.00     0.011 A 
HETATM   21  C   UNL     1     -14.041   1.311 -33.236  1.00  0.00     0.030 A 
BRANCH  17  22
HETATM   22  N   UNL     1     -15.159   4.859 -31.244  1.00  0.00    -0.327 N 
HETATM   23  C   UNL     1     -15.635   6.047 -31.760  1.00  0.00     0.218 C 
HETATM   24  C   UNL     1     -15.881   7.084 -30.690  1.00  0.00     0.117 C 
HETATM   25  O   UNL     1     -15.848   6.313 -32.937  1.00  0.00    -0.274 OA
HETATM   26  H   UNL     1     -14.731   4.934 -30.329  1.00  0.00     0.169 HD
ENDBRANCH  17  22
ENDBRANCH  12  15
ENDBRANCH   1  11
BRANCH   8  27
HETATM   27  C   UNL     1      -5.524   1.671 -32.400  1.00  0.00     0.409 C 
HETATM   28  F   UNL     1      -5.557   2.321 -33.584  1.00  0.00    -0.169 F 
HETATM   29  F   UNL     1      -5.659   2.620 -31.437  1.00  0.00    -0.169 F 
HETATM   30  F   UNL     1      -4.290   1.147 -32.253  1.00  0.00    -0.169 F 
ENDBRANCH   8  27
BRANCH   6  31
HETATM   31  C   UNL     1      -5.828  -2.459 -34.370  1.00  0.00     0.075 A 
HETATM   32  O   UNL     1      -4.630  -3.078 -34.170  1.00  0.00    -0.325 OA
HETATM   33  C   UNL     1      -4.813  -4.394 -34.456  1.00  0.00     0.142 A 
HETATM   34  C   UNL     1      -6.114  -4.630 -34.832  1.00  0.00     0.027 A 
HETATM   35  C   UNL     1      -6.773  -3.380 -34.778  1.00  0.00     0.037 A 
ENDBRANCH   6  31
TORSDOF 5
ENDMDL
MODEL 7
REMARK VINA RESULT:      -8.6      3.171      4.224
REMARK  5 active torsions:
REMARK  status: ('A' for Active; 'I' for Inactive)
REMARK    1  A    between atoms: C_3  and  N_4 
REMARK       I    between atoms: N_4  and  C_5 
REMARK    2  A    between atoms: C_9  and  N_10 
REMARK       I    between atoms: N_10  and  C_11 
REMARK    3  A    between atoms: C_11  and  C_12 
REMARK    4  A    between atoms: C_17  and  C_18 
REMARK    5  A    between atoms: C_24  and  C_25 
ROOT
HETATM    1  C   UNL     1      -2.924   3.711 -32.100  1.00  0.00     0.148 C 
HETATM    2  N   UNL     1      -2.886   2.585 -31.345  1.00  0.00    -0.165 NA
HETATM    3  N   UNL     1      -3.806   1.798 -31.930  1.00  0.00    -0.240 N 
HETATM    4  C   UNL     1      -4.524   2.413 -32.915  1.00  0.00     0.123 C 
HETATM    5  N   UNL     1      -5.594   1.814 -33.472  1.00  0.00    -0.364 N 
HETATM    6  C   UNL     1      -6.232   0.625 -32.891  1.00  0.00     0.143 C 
HETATM    7  C   UNL     1      -5.638   0.276 -31.507  1.00  0.00     0.068 C 
HETATM    8  C   UNL     1      -4.118   0.468 -31.448  1.00  0.00     0.221 C 
HETATM    9  C   UNL     1      -3.918   3.623 -33.115  1.00  0.00     0.089 C 
HETATM   10  H   UNL     1      -6.115   2.256 -34.227  1.00  0.00     0.162 HD
ENDROOT
BRANCH   1  11
HETATM   11  C   UNL     1      -2.062   4.873 -31.816  1.00  0.00     0.276 C 
HETATM   12  N   UNL     1      -1.741   4.957 -30.474  1.00  0.00    -0.322 N 
HETATM   13  H   UNL     1      -2.140   4.206 -29.917  1.00  0.00     0.169 HD
HETATM   14  O   UNL     1      -1.736   5.658 -32.699  1.00  0.00    -0.266 OA
BRANCH  12  15
HETATM   15  C   UNL     1      -1.018   5.964 -29.812  1.00  0.00     0.037 A 
HETATM   16  C   UNL     1      -1.523   7.237 -29.544  1.00  0.00     0.059 A 
HETATM   17  C   UNL     1      -0.773   8.207 -28.845  1.00  0.00     0.042 A 
HETATM   18  C   UNL     1       0.546   7.904 -28.466  1.00  0.00    -0.035 A 
HETATM   19  C   UNL     1       1.505   8.874 -27.836  1.00  0.00     0.050 C 
HETATM   20  C   UNL     1       1.039   6.610 -28.723  1.00  0.00     0.011 A 
HETATM   21  C   UNL     1       0.272   5.654 -29.391  1.00  0.00     0.030 A 
BRANCH  17  22
HETATM   22  N   UNL     1      -1.446   9.437 -28.649  1.00  0.00    -0.327 N 
HETATM   23  C   UNL     1      -2.093   9.893 -27.518  1.00  0.00     0.218 C 
HETATM   24  C   UNL     1      -2.598  11.307 -27.673  1.00  0.00     0.117 C 
HETATM   25  O   UNL     1      -2.285   9.280 -26.475  1.00  0.00    -0.274 OA
HETATM   26  H   UNL     1      -1.679   9.933 -29.501  1.00  0.00     0.169 HD
ENDBRANCH  17  22
ENDBRANCH  12  15
ENDBRANCH   1  11
BRANCH   8  27
HETATM   27  C   UNL     1      -3.363  -0.566 -32.251  1.00  0.00     0.409 C 
HETATM   28  F   UNL     1      -3.011  -0.109 -33.473  1.00  0.00    -0.169 F 
HETATM   29  F   UNL     1      -2.207  -0.885 -31.613  1.00  0.00    -0.169 F 
HETATM   30  F   UNL     1      -4.038  -1.721 -32.423  1.00  0.00    -0.169 F 
ENDBRANCH   8  27
BRANCH   6  31
HETATM   31  C   UNL     1      -7.717   0.783 -32.752  1.00  0.00     0.075 A 
HETATM   32  O   UNL     1      -8.166   1.967 -32.245  1.00  0.00    -0.325 OA
HETATM   33  C   UNL     1      -9.523   1.899 -32.227  1.00  0.00     0.142 A 
HETATM   34  C   UNL     1      -9.953   0.690 -32.722  1.00  0.00     0.027 A 
HETATM   35  C   UNL     1      -8.787  -0.034 -33.061  1.00  0.00     0.037 A 
ENDBRANCH   6  31
TORSDOF 5
ENDMDL
MODEL 8
REMARK VINA RESULT:      -8.4      4.762      9.674
REMARK  5 active torsions:
REMARK  status: ('A' for Active; 'I' for Inactive)
REMARK    1  A    between atoms: C_3  and  N_4 
REMARK       I    between atoms: N_4  and  C_5 
REMARK    2  A    between atoms: C_9  and  N_10 
REMARK       I    between atoms: N_10  and  C_11 
REMARK    3  A    between atoms: C_11  and  C_12 
REMARK    4  A    between atoms: C_17  and  C_18 
REMARK    5  A    between atoms: C_24  and  C_25 
ROOT
HETATM    1  C   UNL     1      -5.924   4.533 -31.677  1.00  0.00     0.148 C 
HETATM    2  N   UNL     1      -5.467   5.434 -32.581  1.00  0.00    -0.165 NA
HETATM    3  N   UNL     1      -4.131   5.324 -32.468  1.00  0.00    -0.240 N 
HETATM    4  C   UNL     1      -3.720   4.517 -31.446  1.00  0.00     0.123 C 
HETATM    5  N   UNL     1      -2.421   4.445 -31.098  1.00  0.00    -0.364 N 
HETATM    6  C   UNL     1      -1.416   5.407 -31.568  1.00  0.00     0.143 C 
HETATM    7  C   UNL     1      -2.065   6.576 -32.346  1.00  0.00     0.068 C 
HETATM    8  C   UNL     1      -3.211   6.119 -33.255  1.00  0.00     0.221 C 
HETATM    9  C   UNL     1      -4.853   3.915 -30.972  1.00  0.00     0.089 C 
HETATM   10  H   UNL     1      -2.106   3.822 -30.356  1.00  0.00     0.162 HD
ENDROOT
BRANCH   1  11
HETATM   11  C   UNL     1      -7.364   4.310 -31.454  1.00  0.00     0.276 C 
HETATM   12  N   UNL     1      -8.083   4.385 -32.632  1.00  0.00    -0.322 N 
HETATM   13  H   UNL     1      -7.502   4.568 -33.447  1.00  0.00     0.169 HD
HETATM   14  O   UNL     1      -7.816   4.128 -30.329  1.00  0.00    -0.266 OA
BRANCH  12  15
HETATM   15  C   UNL     1      -9.475   4.315 -32.811  1.00  0.00     0.037 A 
HETATM   16  C   UNL     1     -10.195   3.120 -32.851  1.00  0.00     0.059 A 
HETATM   17  C   UNL     1     -11.599   3.097 -32.999  1.00  0.00     0.042 A 
HETATM   18  C   UNL     1     -12.283   4.311 -33.178  1.00  0.00    -0.035 A 
HETATM   19  C   UNL     1     -13.750   4.437 -33.477  1.00  0.00     0.050 C 
HETATM   20  C   UNL     1     -11.550   5.513 -33.117  1.00  0.00     0.011 A 
HETATM   21  C   UNL     1     -10.165   5.516 -32.941  1.00  0.00     0.030 A 
BRANCH  17  22
HETATM   22  N   UNL     1     -12.165   1.800 -33.004  1.00  0.00    -0.327 N 
HETATM   23  C   UNL     1     -12.662   1.082 -34.072  1.00  0.00     0.218 C 
HETATM   24  C   UNL     1     -13.085  -0.314 -33.683  1.00  0.00     0.117 C 
HETATM   25  O   UNL     1     -12.789   1.465 -35.229  1.00  0.00    -0.274 OA
HETATM   26  H   UNL     1     -12.449   1.459 -32.093  1.00  0.00     0.169 HD
ENDBRANCH  17  22
ENDBRANCH  12  15
ENDBRANCH   1  11
BRANCH   8  27
HETATM   27  C   UNL     1      -2.734   5.328 -34.452  1.00  0.00     0.409 C 
HETATM   28  F   UNL     1      -3.608   5.381 -35.481  1.00  0.00    -0.169 F 
HETATM   29  F   UNL     1      -1.568   5.852 -34.911  1.00  0.00    -0.169 F 
HETATM   30  F   UNL     1      -2.493   4.028 -34.184  1.00  0.00    -0.169 F 
ENDBRANCH   8  27
BRANCH   6  31
HETATM   31  C   UNL     1      -0.596   5.972 -30.447  1.00  0.00     0.075 A 
HETATM   32  O   UNL     1       0.024   5.078 -29.625  1.00  0.00    -0.325 OA
HETATM   33  C   UNL     1       0.717   5.801 -28.707  1.00  0.00     0.142 A 
HETATM   34  C   UNL     1       0.557   7.148 -28.930  1.00  0.00     0.027 A 
HETATM   35  C   UNL     1      -0.293   7.261 -30.055  1.00  0.00     0.037 A 
ENDBRANCH   6  31
TORSDOF 5
ENDMDL
MODEL 9
REMARK VINA RESULT:      -8.3      1.882      2.309
REMARK  5 active torsions:
REMARK  status: ('A' for Active; 'I' for Inactive)
REMARK    1  A    between atoms: C_3  and  N_4 
REMARK       I    between atoms: N_4  and  C_5 
REMARK    2  A    between atoms: C_9  and  N_10 
REMARK       I    between atoms: N_10  and  C_11 
REMARK    3  A    between atoms: C_11  and  C_12 
REMARK    4  A    between atoms: C_17  and  C_18 
REMARK    5  A    between atoms: C_24  and  C_25 
ROOT
HETATM    1  C   UNL     1      -4.696   2.522 -32.149  1.00  0.00     0.148 C 
HETATM    2  N   UNL     1      -5.414   2.686 -33.287  1.00  0.00    -0.165 NA
HETATM    3  N   UNL     1      -6.085   1.525 -33.391  1.00  0.00    -0.240 N 
HETATM    4  C   UNL     1      -5.721   0.584 -32.471  1.00  0.00     0.123 C 
HETATM    5  N   UNL     1      -6.174  -0.682 -32.555  1.00  0.00    -0.364 N 
HETATM    6  C   UNL     1      -6.832  -1.213 -33.756  1.00  0.00     0.143 C 
HETATM    7  C   UNL     1      -6.775  -0.209 -34.931  1.00  0.00     0.068 C 
HETATM    8  C   UNL     1      -6.993   1.240 -34.483  1.00  0.00     0.221 C 
HETATM    9  C   UNL     1      -4.891   1.226 -31.593  1.00  0.00     0.089 C 
HETATM   10  H   UNL     1      -5.929  -1.379 -31.855  1.00  0.00     0.162 HD
ENDROOT
BRANCH   1  11
HETATM   11  C   UNL     1      -3.793   3.569 -31.636  1.00  0.00     0.276 C 
HETATM   12  N   UNL     1      -4.449   4.774 -31.469  1.00  0.00    -0.322 N 
HETATM   13  H   UNL     1      -5.435   4.733 -31.715  1.00  0.00     0.169 HD
HETATM   14  O   UNL     1      -2.604   3.348 -31.441  1.00  0.00    -0.266 OA
BRANCH  12  15
HETATM   15  C   UNL     1      -3.911   6.014 -31.085  1.00  0.00     0.037 A 
HETATM   16  C   UNL     1      -3.910   6.490 -29.773  1.00  0.00     0.059 A 
HETATM   17  C   UNL     1      -3.328   7.728 -29.427  1.00  0.00     0.042 A 
HETATM   18  C   UNL     1      -2.793   8.536 -30.445  1.00  0.00    -0.035 A 
HETATM   19  C   UNL     1      -2.260   9.928 -30.251  1.00  0.00     0.050 C 
HETATM   20  C   UNL     1      -2.781   8.038 -31.763  1.00  0.00     0.011 A 
HETATM   21  C   UNL     1      -3.336   6.798 -32.081  1.00  0.00     0.030 A 
BRANCH  17  22
HETATM   22  N   UNL     1      -3.404   8.046 -28.050  1.00  0.00    -0.327 N 
HETATM   23  C   UNL     1      -4.448   8.626 -27.357  1.00  0.00     0.218 C 
HETATM   24  C   UNL     1      -4.182   8.704 -25.873  1.00  0.00     0.117 C 
HETATM   25  O   UNL     1      -5.495   9.062 -27.821  1.00  0.00    -0.274 OA
HETATM   26  H   UNL     1      -2.513   8.064 -27.570  1.00  0.00     0.169 HD
ENDBRANCH  17  22
ENDBRANCH  12  15
ENDBRANCH   1  11
BRANCH   8  27
HETATM   27  C   UNL     1      -8.417   1.517 -34.059  1.00  0.00     0.409 C 
HETATM   28  F   UNL     1      -8.810   2.772 -34.372  1.00  0.00    -0.169 F 
HETATM   29  F   UNL     1      -9.261   0.677 -34.714  1.00  0.00    -0.169 F 
HETATM   30  F   UNL     1      -8.638   1.334 -32.741  1.00  0.00    -0.169 F 
ENDBRANCH   8  27
BRANCH   6  31
HETATM   31  C   UNL     1      -6.238  -2.515 -34.205  1.00  0.00     0.075 A 
HETATM   32  O   UNL     1      -7.109  -3.505 -34.550  1.00  0.00    -0.325 OA
HETATM   33  C   UNL     1      -6.362  -4.571 -34.940  1.00  0.00     0.142 A 
HETATM   34  C   UNL     1      -5.021  -4.278 -34.855  1.00  0.00     0.027 A 
HETATM   35  C   UNL     1      -4.938  -2.948 -34.379  1.00  0.00     0.037 A 
ENDBRANCH   6  31
TORSDOF 5
ENDMDL
MODEL 10
REMARK VINA RESULT:      -8.3      5.997      9.136
REMARK  5 active torsions:
REMARK  status: ('A' for Active; 'I' for Inactive)
REMARK    1  A    between atoms: C_3  and  N_4 
REMARK       I    between atoms: N_4  and  C_5 
REMARK    2  A    between atoms: C_9  and  N_10 
REMARK       I    between atoms: N_10  and  C_11 
REMARK    3  A    between atoms: C_11  and  C_12 
REMARK    4  A    between atoms: C_17  and  C_18 
REMARK    5  A    between atoms: C_24  and  C_25 
ROOT
HETATM    1  C   UNL     1      -1.031   7.602 -27.744  1.00  0.00     0.148 C 
HETATM    2  N   UNL     1      -0.197   6.960 -28.598  1.00  0.00    -0.165 NA
HETATM    3  N   UNL     1      -1.016   6.584 -29.596  1.00  0.00    -0.240 N 
HETATM    4  C   UNL     1      -2.338   6.821 -29.353  1.00  0.00     0.123 C 
HETATM    5  N   UNL     1      -3.292   6.344 -30.177  1.00  0.00    -0.364 N 
HETATM    6  C   UNL     1      -3.023   5.324 -31.199  1.00  0.00     0.143 C 
HETATM    7  C   UNL     1      -1.586   4.764 -31.084  1.00  0.00     0.068 C 
HETATM    8  C   UNL     1      -0.553   5.846 -30.753  1.00  0.00     0.221 C 
HETATM    9  C   UNL     1      -2.377   7.562 -28.204  1.00  0.00     0.089 C 
HETATM   10  H   UNL     1      -4.278   6.543 -30.016  1.00  0.00     0.162 HD
ENDROOT
BRANCH   1  11
HETATM   11  C   UNL     1      -0.554   8.192 -26.480  1.00  0.00     0.276 C 
HETATM   12  N   UNL     1       0.720   8.714 -26.606  1.00  0.00    -0.322 N 
HETATM   13  H   UNL     1       1.105   8.613 -27.543  1.00  0.00     0.169 HD
HETATM   14  O   UNL     1      -1.234   8.157 -25.461  1.00  0.00    -0.266 OA
BRANCH  12  15
HETATM   15  C   UNL     1       1.535   9.276 -25.610  1.00  0.00     0.037 A 
HETATM   16  C   UNL     1       2.475   8.553 -24.873  1.00  0.00     0.059 A 
HETATM   17  C   UNL     1       3.298   9.165 -23.904  1.00  0.00     0.042 A 
HETATM   18  C   UNL     1       3.119  10.531 -23.625  1.00  0.00    -0.035 A 
HETATM   19  C   UNL     1       3.825  11.287 -22.536  1.00  0.00     0.050 C 
HETATM   20  C   UNL     1       2.182  11.256 -24.387  1.00  0.00     0.011 A 
HETATM   21  C   UNL     1       1.398  10.638 -25.362  1.00  0.00     0.030 A 
BRANCH  17  22
HETATM   22  N   UNL     1       4.203   8.285 -23.265  1.00  0.00    -0.327 N 
HETATM   23  C   UNL     1       4.107   7.712 -22.012  1.00  0.00     0.218 C 
HETATM   24  C   UNL     1       5.230   6.742 -21.734  1.00  0.00     0.117 C 
HETATM   25  O   UNL     1       3.249   7.923 -21.163  1.00  0.00    -0.274 OA
HETATM   26  H   UNL     1       5.129   8.258 -23.675  1.00  0.00     0.169 HD
ENDBRANCH  17  22
ENDBRANCH  12  15
ENDBRANCH   1  11
BRANCH   8  27
HETATM   27  C   UNL     1      -0.302   6.792 -31.906  1.00  0.00     0.409 C 
HETATM   28  F   UNL     1      -1.020   7.932 -31.798  1.00  0.00    -0.169 F 
HETATM   29  F   UNL     1       1.006   7.161 -31.917  1.00  0.00    -0.169 F 
HETATM   30  F   UNL     1      -0.561   6.256 -33.116  1.00  0.00    -0.169 F 
ENDBRANCH   8  27
BRANCH   6  31
HETATM   31  C   UNL     1      -3.992   4.182 -31.135  1.00  0.00     0.075 A 
HETATM   32  O   UNL     1      -5.020   4.293 -30.246  1.00  0.00    -0.325 OA
HETATM   33  C   UNL     1      -5.774   3.169 -30.371  1.00  0.00     0.142 A 
HETATM   34  C   UNL     1      -5.249   2.339 -31.333  1.00  0.00     0.027 A 
HETATM   35  C   UNL     1      -4.096   2.991 -31.829  1.00  0.00     0.037 A 
ENDBRANCH   6  31
TORSDOF 5
ENDMDL
