MODEL 1
REMARK VINA RESULT:      -8.6      0.000      0.000
REMARK  14 active torsions:
REMARK  status: ('A' for Active; 'I' for Inactive)
REMARK    1  A    between atoms: C_2  and  N_3 
REMARK    2  A    between atoms: N_3  and  C_5 
REMARK    3  A    between atoms: N_3  and  C_39 
REMARK    4  A    between atoms: C_5  and  C_6 
REMARK    5  A    between atoms: C_6  and  C_7 
REMARK    6  A    between atoms: C_7  and  N_8 
REMARK    7  A    between atoms: C_11  and  O_12 
REMARK    8  A    between atoms: C_13  and  C_14 
REMARK    9  A    between atoms: C_14  and  C_15 
REMARK   10  A    between atoms: C_18  and  O_19 
REMARK   11  A    between atoms: O_19  and  C_20 
REMARK   12  A    between atoms: C_20  and  C_21 
REMARK   13  A    between atoms: C_31  and  C_32 
REMARK   14  A    between atoms: C_35  and  O_36 
ROOT
HETATM    1  N   UNL     1      -7.987   1.187 -33.094  1.00  0.00    -0.333 N 
HETATM    2  C   UNL     1      -9.109   1.077 -32.304  1.00  0.00     0.278 A 
HETATM    3  O   UNL     1     -10.070   0.337 -32.442  1.00  0.00    -0.265 OA
HETATM    4  C   UNL     1      -9.041   2.139 -31.278  1.00  0.00     0.146 A 
HETATM    5  C   UNL     1      -7.878   2.777 -31.447  1.00  0.00     0.059 A 
HETATM    6  C   UNL     1      -7.069   2.194 -32.566  1.00  0.00     0.161 A 
ENDROOT
BRANCH   5   7
HETATM    7  C   UNL     1      -7.405   4.027 -30.820  1.00  0.00     0.193 C 
HETATM    8  O   UNL     1      -8.055   4.496 -29.886  1.00  0.00    -0.287 OA
BRANCH   7   9
HETATM    9  C   UNL     1      -6.151   4.689 -31.253  1.00  0.00     0.015 A 
HETATM   10  C   UNL     1      -6.062   5.440 -32.430  1.00  0.00     0.018 A 
HETATM   11  C   UNL     1      -4.843   6.019 -32.808  1.00  0.00     0.038 A 
HETATM   12  C   UNL     1      -3.715   5.874 -31.998  1.00  0.00     0.069 A 
HETATM   13  C   UNL     1      -3.823   5.176 -30.794  1.00  0.00     0.038 A 
HETATM   14  C   UNL     1      -5.032   4.585 -30.421  1.00  0.00     0.018 A 
BRANCH  12  15
HETATM   15  O   UNL     1      -2.474   6.385 -32.253  1.00  0.00    -0.347 OA
BRANCH  15  16
HETATM   16  C   UNL     1      -1.358   5.539 -31.976  1.00  0.00     0.214 C 
BRANCH  16  17
HETATM   17  C   UNL     1      -0.685   6.018 -30.711  1.00  0.00    -0.034 A 
HETATM   18  C   UNL     1       0.079   5.145 -29.926  1.00  0.00     0.010 A 
HETATM   19  C   UNL     1       0.728   5.607 -28.777  1.00  0.00     0.007 A 
HETATM   20  C   UNL     1       0.624   6.948 -28.393  1.00  0.00    -0.062 A 
HETATM   21  C   UNL     1       1.330   7.461 -27.172  1.00  0.00     0.048 C 
HETATM   22  C   UNL     1      -0.136   7.823 -29.177  1.00  0.00     0.007 A 
HETATM   23  C   UNL     1      -0.784   7.362 -30.325  1.00  0.00     0.010 A 
ENDBRANCH  16  17
ENDBRANCH  15  16
ENDBRANCH  12  15
ENDBRANCH   7   9
ENDBRANCH   5   7
BRANCH   4  24
HETATM   24  O   UNL     1     -10.079   2.429 -30.445  1.00  0.00    -0.355 OA
HETATM   25  H   UNL     1     -10.804   2.767 -31.006  1.00  0.00     0.218 HD
ENDBRANCH   4  24
BRANCH   6  26
HETATM   26  C   UNL     1      -5.734   1.612 -32.138  1.00  0.00    -0.030 A 
HETATM   27  C   UNL     1      -4.538   1.882 -32.828  1.00  0.00     0.012 A 
HETATM   28  C   UNL     1      -3.327   1.330 -32.400  1.00  0.00     0.037 A 
HETATM   29  C   UNL     1      -3.306   0.508 -31.278  1.00  0.00     0.065 A 
HETATM   30  C   UNL     1      -4.474   0.226 -30.584  1.00  0.00     0.037 A 
HETATM   31  C   UNL     1      -5.684   0.771 -31.013  1.00  0.00     0.012 A 
BRANCH  29  32
HETATM   32  O   UNL     1      -2.150  -0.049 -30.822  1.00  0.00    -0.361 OA
HETATM   33  H   UNL     1      -2.068  -0.950 -31.175  1.00  0.00     0.217 HD
ENDBRANCH  29  32
ENDBRANCH   6  26
BRANCH   1  34
HETATM   34  C   UNL     1      -7.600   0.299 -34.186  1.00  0.00     0.129 C 
BRANCH  34  35
HETATM   35  C   UNL     1      -7.285  -1.144 -33.775  1.00  0.00     0.048 C 
BRANCH  35  36
HETATM   36  C   UNL     1      -5.786  -1.435 -33.806  1.00  0.00     0.236 C 
BRANCH  36  37
HETATM   37  N   UNL     1      -5.469  -2.616 -34.721  1.00  0.00    -0.072 N 
HETATM   38  H   UNL     1      -5.158  -2.240 -35.626  1.00  0.00     0.279 HD
BRANCH  37  39
HETATM   39  C   UNL     1      -6.701  -3.474 -34.970  1.00  0.00     0.230 C 
HETATM   40  C   UNL     1      -6.311  -4.857 -35.460  1.00  0.00     0.034 C 
ENDBRANCH  37  39
BRANCH  37  41
HETATM   41  C   UNL     1      -4.314  -3.442 -34.154  1.00  0.00     0.230 C 
HETATM   42  C   UNL     1      -3.700  -2.761 -32.942  1.00  0.00     0.034 C 
ENDBRANCH  37  41
ENDBRANCH  36  37
ENDBRANCH  35  36
ENDBRANCH  34  35
ENDBRANCH   1  34
TORSDOF 14
ENDMDL
MODEL 2
REMARK VINA RESULT:      -8.4      2.096      4.020
REMARK  14 active torsions:
REMARK  status: ('A' for Active; 'I' for Inactive)
REMARK    1  A    between atoms: C_2  and  N_3 
REMARK    2  A    between atoms: N_3  and  C_5 
REMARK    3  A    between atoms: N_3  and  C_39 
REMARK    4  A    between atoms: C_5  and  C_6 
REMARK    5  A    between atoms: C_6  and  C_7 
REMARK    6  A    between atoms: C_7  and  N_8 
REMARK    7  A    between atoms: C_11  and  O_12 
REMARK    8  A    between atoms: C_13  and  C_14 
REMARK    9  A    between atoms: C_14  and  C_15 
REMARK   10  A    between atoms: C_18  and  O_19 
REMARK   11  A    between atoms: O_19  and  C_20 
REMARK   12  A    between atoms: C_20  and  C_21 
REMARK   13  A    between atoms: C_31  and  C_32 
REMARK   14  A    between atoms: C_35  and  O_36 
ROOT
HETATM    1  N   UNL     1      -7.852   1.923 -31.964  1.00  0.00    -0.333 N 
HETATM    2  C   UNL     1      -7.959   3.054 -31.187  1.00  0.00     0.278 A 
HETATM    3  O   UNL     1      -8.793   3.321 -30.337  1.00  0.00    -0.265 OA
HETATM    4  C   UNL     1      -6.934   4.015 -31.650  1.00  0.00     0.146 A 
HETATM    5  C   UNL     1      -6.229   3.407 -32.609  1.00  0.00     0.059 A 
HETATM    6  C   UNL     1      -6.696   2.004 -32.854  1.00  0.00     0.161 A 
ENDROOT
BRANCH   5   7
HETATM    7  C   UNL     1      -5.227   3.981 -33.529  1.00  0.00     0.193 C 
HETATM    8  O   UNL     1      -5.568   4.236 -34.683  1.00  0.00    -0.287 OA
BRANCH   7   9
HETATM    9  C   UNL     1      -3.849   4.298 -33.079  1.00  0.00     0.015 A 
HETATM   10  C   UNL     1      -2.931   4.984 -33.882  1.00  0.00     0.018 A 
HETATM   11  C   UNL     1      -1.633   5.230 -33.417  1.00  0.00     0.038 A 
HETATM   12  C   UNL     1      -1.253   4.817 -32.139  1.00  0.00     0.069 A 
HETATM   13  C   UNL     1      -2.189   4.187 -31.318  1.00  0.00     0.038 A 
HETATM   14  C   UNL     1      -3.481   3.927 -31.781  1.00  0.00     0.018 A 
BRANCH  12  15
HETATM   15  O   UNL     1      -0.023   4.994 -31.572  1.00  0.00    -0.347 OA
BRANCH  15  16
HETATM   16  C   UNL     1       0.382   6.338 -31.314  1.00  0.00     0.214 C 
BRANCH  16  17
HETATM   17  C   UNL     1      -0.055   6.720 -29.919  1.00  0.00    -0.034 A 
HETATM   18  C   UNL     1       0.457   6.058 -28.796  1.00  0.00     0.010 A 
HETATM   19  C   UNL     1       0.074   6.443 -27.508  1.00  0.00     0.007 A 
HETATM   20  C   UNL     1      -0.829   7.496 -27.321  1.00  0.00    -0.062 A 
HETATM   21  C   UNL     1      -1.234   7.932 -25.944  1.00  0.00     0.048 C 
HETATM   22  C   UNL     1      -1.339   8.162 -28.441  1.00  0.00     0.007 A 
HETATM   23  C   UNL     1      -0.955   7.777 -29.728  1.00  0.00     0.010 A 
ENDBRANCH  16  17
ENDBRANCH  15  16
ENDBRANCH  12  15
ENDBRANCH   7   9
ENDBRANCH   5   7
BRANCH   4  24
HETATM   24  O   UNL     1      -6.882   5.305 -31.217  1.00  0.00    -0.355 OA
HETATM   25  H   UNL     1      -5.989   5.442 -30.845  1.00  0.00     0.218 HD
ENDBRANCH   4  24
BRANCH   6  26
HETATM   26  C   UNL     1      -5.654   0.938 -32.569  1.00  0.00    -0.030 A 
HETATM   27  C   UNL     1      -5.294  -0.038 -33.517  1.00  0.00     0.012 A 
HETATM   28  C   UNL     1      -4.326  -1.001 -33.218  1.00  0.00     0.037 A 
HETATM   29  C   UNL     1      -3.711  -0.991 -31.971  1.00  0.00     0.065 A 
HETATM   30  C   UNL     1      -4.052  -0.041 -31.019  1.00  0.00     0.037 A 
HETATM   31  C   UNL     1      -5.023   0.918 -31.314  1.00  0.00     0.012 A 
BRANCH  29  32
HETATM   32  O   UNL     1      -2.761  -1.907 -31.635  1.00  0.00    -0.361 OA
HETATM   33  H   UNL     1      -2.569  -1.838 -30.686  1.00  0.00     0.217 HD
ENDBRANCH  29  32
ENDBRANCH   6  26
BRANCH   1  34
HETATM   34  C   UNL     1      -8.614   0.688 -31.813  1.00  0.00     0.129 C 
BRANCH  34  35
HETATM   35  C   UNL     1      -9.302   0.183 -33.087  1.00  0.00     0.048 C 
BRANCH  35  36
HETATM   36  C   UNL     1     -10.665   0.838 -33.300  1.00  0.00     0.236 C 
BRANCH  36  37
HETATM   37  N   UNL     1     -10.714   1.597 -34.625  1.00  0.00    -0.072 N 
HETATM   38  H   UNL     1     -10.109   1.103 -35.294  1.00  0.00     0.279 HD
BRANCH  37  39
HETATM   39  C   UNL     1     -10.183   3.015 -34.474  1.00  0.00     0.230 C 
HETATM   40  C   UNL     1     -10.830   3.716 -33.293  1.00  0.00     0.034 C 
ENDBRANCH  37  39
BRANCH  37  41
HETATM   41  C   UNL     1     -12.130   1.585 -35.201  1.00  0.00     0.230 C 
HETATM   42  C   UNL     1     -13.090   0.864 -34.271  1.00  0.00     0.034 C 
ENDBRANCH  37  41
ENDBRANCH  36  37
ENDBRANCH  35  36
ENDBRANCH  34  35
ENDBRANCH   1  34
TORSDOF 14
ENDMDL
MODEL 3
REMARK VINA RESULT:      -8.4      2.542      4.500
REMARK  14 active torsions:
REMARK  status: ('A' for Active; 'I' for Inactive)
REMARK    1  A    between atoms: C_2  and  N_3 
REMARK    2  A    between atoms: N_3  and  C_5 
REMARK    3  A    between atoms: N_3  and  C_39 
REMARK    4  A    between atoms: C_5  and  C_6 
REMARK    5  A    between atoms: C_6  and  C_7 
REMARK    6  A    between atoms: C_7  and  N_8 
REMARK    7  A    between atoms: C_11  and  O_12 
REMARK    8  A    between atoms: C_13  and  C_14 
REMARK    9  A    between atoms: C_14  and  C_15 
REMARK   10  A    between atoms: C_18  and  O_19 
REMARK   11  A    between atoms: O_19  and  C_20 
REMARK   12  A    between atoms: C_20  and  C_21 
REMARK   13  A    between atoms: C_31  and  C_32 
REMARK   14  A    between atoms: C_35  and  O_36 
ROOT
HETATM    1  N   UNL     1      -8.791   1.611 -32.358  1.00  0.00    -0.333 N 
HETATM    2  C   UNL     1      -8.672   2.460 -31.281  1.00  0.00     0.278 A 
HETATM    3  O   UNL     1      -9.402   2.568 -30.310  1.00  0.00    -0.265 OA
HETATM    4  C   UNL     1      -7.538   3.371 -31.552  1.00  0.00     0.146 A 
HETATM    5  C   UNL     1      -6.996   2.991 -32.713  1.00  0.00     0.059 A 
HETATM    6  C   UNL     1      -7.691   1.801 -33.302  1.00  0.00     0.161 A 
ENDROOT
BRANCH   5   7
HETATM    7  C   UNL     1      -5.972   3.676 -33.527  1.00  0.00     0.193 C 
HETATM    8  O   UNL     1      -6.300   4.126 -34.624  1.00  0.00    -0.287 OA
BRANCH   7   9
HETATM    9  C   UNL     1      -4.588   3.874 -33.031  1.00  0.00     0.015 A 
HETATM   10  C   UNL     1      -4.044   3.116 -31.988  1.00  0.00     0.018 A 
HETATM   11  C   UNL     1      -2.740   3.366 -31.539  1.00  0.00     0.038 A 
HETATM   12  C   UNL     1      -1.965   4.355 -32.147  1.00  0.00     0.069 A 
HETATM   13  C   UNL     1      -2.489   5.068 -33.227  1.00  0.00     0.038 A 
HETATM   14  C   UNL     1      -3.793   4.831 -33.669  1.00  0.00     0.018 A 
BRANCH  12  15
HETATM   15  O   UNL     1      -0.688   4.697 -31.804  1.00  0.00    -0.347 OA
BRANCH  15  16
HETATM   16  C   UNL     1      -0.391   6.090 -31.723  1.00  0.00     0.214 C 
BRANCH  16  17
HETATM   17  C   UNL     1       0.015   6.422 -30.306  1.00  0.00    -0.034 A 
HETATM   18  C   UNL     1       0.477   5.426 -29.437  1.00  0.00     0.010 A 
HETATM   19  C   UNL     1       0.886   5.748 -28.140  1.00  0.00     0.007 A 
HETATM   20  C   UNL     1       0.838   7.072 -27.689  1.00  0.00    -0.062 A 
HETATM   21  C   UNL     1       1.291   7.435 -26.305  1.00  0.00     0.048 C 
HETATM   22  C   UNL     1       0.381   8.070 -28.557  1.00  0.00     0.007 A 
HETATM   23  C   UNL     1      -0.027   7.747 -29.853  1.00  0.00     0.010 A 
ENDBRANCH  16  17
ENDBRANCH  15  16
ENDBRANCH  12  15
ENDBRANCH   7   9
ENDBRANCH   5   7
BRANCH   4  24
HETATM   24  O   UNL     1      -7.258   4.453 -30.774  1.00  0.00    -0.355 OA
HETATM   25  H   UNL     1      -6.802   4.117 -29.978  1.00  0.00     0.218 HD
ENDBRANCH   4  24
BRANCH   6  26
HETATM   26  C   UNL     1      -6.814   0.570 -33.445  1.00  0.00    -0.030 A 
HETATM   27  C   UNL     1      -5.950   0.137 -32.423  1.00  0.00     0.012 A 
HETATM   28  C   UNL     1      -5.161  -1.004 -32.591  1.00  0.00     0.037 A 
HETATM   29  C   UNL     1      -5.235  -1.720 -33.781  1.00  0.00     0.065 A 
HETATM   30  C   UNL     1      -6.077  -1.310 -34.804  1.00  0.00     0.037 A 
HETATM   31  C   UNL     1      -6.861  -0.167 -34.641  1.00  0.00     0.012 A 
BRANCH  29  32
HETATM   32  O   UNL     1      -4.487  -2.839 -33.989  1.00  0.00    -0.361 OA
HETATM   33  H   UNL     1      -4.812  -3.300 -34.779  1.00  0.00     0.217 HD
ENDBRANCH  29  32
ENDBRANCH   6  26
BRANCH   1  34
HETATM   34  C   UNL     1      -9.727   0.499 -32.491  1.00  0.00     0.129 C 
BRANCH  34  35
HETATM   35  C   UNL     1     -10.884   0.733 -33.469  1.00  0.00     0.048 C 
BRANCH  35  36
HETATM   36  C   UNL     1     -11.376   2.179 -33.442  1.00  0.00     0.236 C 
BRANCH  36  37
HETATM   37  N   UNL     1     -12.827   2.280 -33.905  1.00  0.00    -0.072 N 
HETATM   38  H   UNL     1     -13.414   2.426 -33.074  1.00  0.00     0.279 HD
BRANCH  37  39
HETATM   39  C   UNL     1     -13.286   0.997 -34.582  1.00  0.00     0.230 C 
HETATM   40  C   UNL     1     -14.749   0.718 -34.284  1.00  0.00     0.034 C 
ENDBRANCH  37  39
BRANCH  37  41
HETATM   41  C   UNL     1     -13.019   3.496 -34.813  1.00  0.00     0.230 C 
HETATM   42  C   UNL     1     -12.297   3.307 -36.136  1.00  0.00     0.034 C 
ENDBRANCH  37  41
ENDBRANCH  36  37
ENDBRANCH  35  36
ENDBRANCH  34  35
ENDBRANCH   1  34
TORSDOF 14
ENDMDL
MODEL 4
REMARK VINA RESULT:      -8.3      2.541      4.620
REMARK  14 active torsions:
REMARK  status: ('A' for Active; 'I' for Inactive)
REMARK    1  A    between atoms: C_2  and  N_3 
REMARK    2  A    between atoms: N_3  and  C_5 
REMARK    3  A    between atoms: N_3  and  C_39 
REMARK    4  A    between atoms: C_5  and  C_6 
REMARK    5  A    between atoms: C_6  and  C_7 
REMARK    6  A    between atoms: C_7  and  N_8 
REMARK    7  A    between atoms: C_11  and  O_12 
REMARK    8  A    between atoms: C_13  and  C_14 
REMARK    9  A    between atoms: C_14  and  C_15 
REMARK   10  A    between atoms: C_18  and  O_19 
REMARK   11  A    between atoms: O_19  and  C_20 
REMARK   12  A    between atoms: C_20  and  C_21 
REMARK   13  A    between atoms: C_31  and  C_32 
REMARK   14  A    between atoms: C_35  and  O_36 
ROOT
HETATM    1  N   UNL     1      -8.755   2.893 -32.248  1.00  0.00    -0.333 N 
HETATM    2  C   UNL     1      -8.912   2.971 -30.883  1.00  0.00     0.278 A 
HETATM    3  O   UNL     1      -9.920   3.221 -30.243  1.00  0.00    -0.265 OA
HETATM    4  C   UNL     1      -7.573   2.830 -30.269  1.00  0.00     0.146 A 
HETATM    5  C   UNL     1      -6.706   2.607 -31.261  1.00  0.00     0.059 A 
HETATM    6  C   UNL     1      -7.377   2.557 -32.601  1.00  0.00     0.161 A 
ENDROOT
BRANCH   5   7
HETATM    7  C   UNL     1      -5.230   2.588 -31.218  1.00  0.00     0.193 C 
HETATM    8  O   UNL     1      -4.674   1.662 -30.630  1.00  0.00    -0.287 OA
BRANCH   7   9
HETATM    9  C   UNL     1      -4.418   3.622 -31.904  1.00  0.00     0.015 A 
HETATM   10  C   UNL     1      -4.903   4.906 -32.176  1.00  0.00     0.018 A 
HETATM   11  C   UNL     1      -4.102   5.834 -32.855  1.00  0.00     0.038 A 
HETATM   12  C   UNL     1      -2.804   5.494 -33.240  1.00  0.00     0.069 A 
HETATM   13  C   UNL     1      -2.302   4.233 -32.913  1.00  0.00     0.038 A 
HETATM   14  C   UNL     1      -3.101   3.300 -32.249  1.00  0.00     0.018 A 
BRANCH  12  15
HETATM   15  O   UNL     1      -1.928   6.303 -33.906  1.00  0.00    -0.347 OA
BRANCH  15  16
HETATM   16  C   UNL     1      -1.749   7.623 -33.393  1.00  0.00     0.214 C 
BRANCH  16  17
HETATM   17  C   UNL     1      -1.099   7.534 -32.033  1.00  0.00    -0.034 A 
HETATM   18  C   UNL     1      -1.704   8.103 -30.905  1.00  0.00     0.010 A 
HETATM   19  C   UNL     1      -1.112   7.984 -29.644  1.00  0.00     0.007 A 
HETATM   20  C   UNL     1       0.096   7.295 -29.489  1.00  0.00    -0.062 A 
HETATM   21  C   UNL     1       0.733   7.144 -28.139  1.00  0.00     0.048 C 
HETATM   22  C   UNL     1       0.701   6.722 -30.614  1.00  0.00     0.007 A 
HETATM   23  C   UNL     1       0.109   6.841 -31.873  1.00  0.00     0.010 A 
ENDBRANCH  16  17
ENDBRANCH  15  16
ENDBRANCH  12  15
ENDBRANCH   7   9
ENDBRANCH   5   7
BRANCH   4  24
HETATM   24  O   UNL     1      -7.343   3.041 -28.944  1.00  0.00    -0.355 OA
HETATM   25  H   UNL     1      -6.886   2.245 -28.607  1.00  0.00     0.218 HD
ENDBRANCH   4  24
BRANCH   6  26
HETATM   26  C   UNL     1      -7.256   1.222 -33.313  1.00  0.00    -0.030 A 
HETATM   27  C   UNL     1      -7.076   1.124 -34.705  1.00  0.00     0.012 A 
HETATM   28  C   UNL     1      -6.966  -0.125 -35.324  1.00  0.00     0.037 A 
HETATM   29  C   UNL     1      -7.031  -1.281 -34.553  1.00  0.00     0.065 A 
HETATM   30  C   UNL     1      -7.211  -1.208 -33.180  1.00  0.00     0.037 A 
HETATM   31  C   UNL     1      -7.329   0.037 -32.561  1.00  0.00     0.012 A 
BRANCH  29  32
HETATM   32  O   UNL     1      -6.926  -2.518 -35.111  1.00  0.00    -0.361 OA
HETATM   33  H   UNL     1      -6.053  -2.609 -35.527  1.00  0.00     0.217 HD
ENDBRANCH  29  32
ENDBRANCH   6  26
BRANCH   1  34
HETATM   34  C   UNL     1      -9.817   2.907 -33.249  1.00  0.00     0.129 C 
BRANCH  34  35
HETATM   35  C   UNL     1     -10.821   1.752 -33.154  1.00  0.00     0.048 C 
BRANCH  35  36
HETATM   36  C   UNL     1     -11.109   1.129 -34.518  1.00  0.00     0.236 C 
BRANCH  36  37
HETATM   37  N   UNL     1     -12.579   1.291 -34.902  1.00  0.00    -0.072 N 
HETATM   38  H   UNL     1     -12.700   0.913 -35.851  1.00  0.00     0.279 HD
BRANCH  37  39
HETATM   39  C   UNL     1     -12.990   2.755 -34.926  1.00  0.00     0.230 C 
HETATM   40  C   UNL     1     -12.338   3.485 -36.087  1.00  0.00     0.034 C 
ENDBRANCH  37  39
BRANCH  37  41
HETATM   41  C   UNL     1     -13.472   0.470 -33.971  1.00  0.00     0.230 C 
HETATM   42  C   UNL     1     -14.940   0.672 -34.307  1.00  0.00     0.034 C 
ENDBRANCH  37  41
ENDBRANCH  36  37
ENDBRANCH  35  36
ENDBRANCH  34  35
ENDBRANCH   1  34
TORSDOF 14
ENDMDL
MODEL 5
REMARK VINA RESULT:      -8.2      2.205      4.840
REMARK  14 active torsions:
REMARK  status: ('A' for Active; 'I' for Inactive)
REMARK    1  A    between atoms: C_2  and  N_3 
REMARK    2  A    between atoms: N_3  and  C_5 
REMARK    3  A    between atoms: N_3  and  C_39 
REMARK    4  A    between atoms: C_5  and  C_6 
REMARK    5  A    between atoms: C_6  and  C_7 
REMARK    6  A    between atoms: C_7  and  N_8 
REMARK    7  A    between atoms: C_11  and  O_12 
REMARK    8  A    between atoms: C_13  and  C_14 
REMARK    9  A    between atoms: C_14  and  C_15 
REMARK   10  A    between atoms: C_18  and  O_19 
REMARK   11  A    between atoms: O_19  and  C_20 
REMARK   12  A    between atoms: C_20  and  C_21 
REMARK   13  A    between atoms: C_31  and  C_32 
REMARK   14  A    between atoms: C_35  and  O_36 
ROOT
HETATM    1  N   UNL     1      -7.207   0.296 -32.226  1.00  0.00    -0.333 N 
HETATM    2  C   UNL     1      -6.501  -0.542 -33.059  1.00  0.00     0.278 A 
HETATM    3  O   UNL     1      -6.890  -1.538 -33.648  1.00  0.00    -0.265 OA
HETATM    4  C   UNL     1      -5.086  -0.114 -33.031  1.00  0.00     0.146 A 
HETATM    5  C   UNL     1      -5.019   0.976 -32.261  1.00  0.00     0.059 A 
HETATM    6  C   UNL     1      -6.362   1.382 -31.732  1.00  0.00     0.161 A 
ENDROOT
BRANCH   5   7
HETATM    7  C   UNL     1      -3.826   1.680 -31.750  1.00  0.00     0.193 C 
HETATM    8  O   UNL     1      -2.933   1.015 -31.226  1.00  0.00    -0.287 OA
BRANCH   7   9
HETATM    9  C   UNL     1      -3.662   3.146 -31.903  1.00  0.00     0.015 A 
HETATM   10  C   UNL     1      -3.945   4.049 -30.873  1.00  0.00     0.018 A 
HETATM   11  C   UNL     1      -3.802   5.427 -31.082  1.00  0.00     0.038 A 
HETATM   12  C   UNL     1      -3.348   5.908 -32.311  1.00  0.00     0.069 A 
HETATM   13  C   UNL     1      -3.008   5.001 -33.317  1.00  0.00     0.038 A 
HETATM   14  C   UNL     1      -3.163   3.628 -33.118  1.00  0.00     0.018 A 
BRANCH  12  15
HETATM   15  O   UNL     1      -3.168   7.221 -32.641  1.00  0.00    -0.347 OA
BRANCH  15  16
HETATM   16  C   UNL     1      -1.823   7.665 -32.816  1.00  0.00     0.214 C 
BRANCH  16  17
HETATM   17  C   UNL     1      -1.105   7.582 -31.490  1.00  0.00    -0.034 A 
HETATM   18  C   UNL     1       0.069   6.831 -31.351  1.00  0.00     0.010 A 
HETATM   19  C   UNL     1       0.746   6.791 -30.128  1.00  0.00     0.007 A 
HETATM   20  C   UNL     1       0.260   7.499 -29.024  1.00  0.00    -0.062 A 
HETATM   21  C   UNL     1       0.986   7.479 -27.711  1.00  0.00     0.048 C 
HETATM   22  C   UNL     1      -0.911   8.253 -29.161  1.00  0.00     0.007 A 
HETATM   23  C   UNL     1      -1.587   8.294 -30.382  1.00  0.00     0.010 A 
ENDBRANCH  16  17
ENDBRANCH  15  16
ENDBRANCH  12  15
ENDBRANCH   7   9
ENDBRANCH   5   7
BRANCH   4  24
HETATM   24  O   UNL     1      -4.084  -0.838 -33.602  1.00  0.00    -0.355 OA
HETATM   25  H   UNL     1      -4.460  -1.713 -33.823  1.00  0.00     0.218 HD
ENDBRANCH   4  24
BRANCH   6  26
HETATM   26  C   UNL     1      -6.829   2.751 -32.190  1.00  0.00    -0.030 A 
HETATM   27  C   UNL     1      -6.732   3.171 -33.530  1.00  0.00     0.012 A 
HETATM   28  C   UNL     1      -7.177   4.440 -33.914  1.00  0.00     0.037 A 
HETATM   29  C   UNL     1      -7.724   5.292 -32.961  1.00  0.00     0.065 A 
HETATM   30  C   UNL     1      -7.828   4.900 -31.635  1.00  0.00     0.037 A 
HETATM   31  C   UNL     1      -7.377   3.637 -31.248  1.00  0.00     0.012 A 
BRANCH  29  32
HETATM   32  O   UNL     1      -8.174   6.535 -33.289  1.00  0.00    -0.361 OA
HETATM   33  H   UNL     1      -7.769   6.812 -34.126  1.00  0.00     0.217 HD
ENDBRANCH  29  32
ENDBRANCH   6  26
BRANCH   1  34
HETATM   34  C   UNL     1      -8.650   0.291 -32.004  1.00  0.00     0.129 C 
BRANCH  34  35
HETATM   35  C   UNL     1      -9.504   0.554 -33.249  1.00  0.00     0.048 C 
BRANCH  35  36
HETATM   36  C   UNL     1     -10.172   1.927 -33.207  1.00  0.00     0.236 C 
BRANCH  36  37
HETATM   37  N   UNL     1     -11.653   1.811 -32.849  1.00  0.00    -0.072 N 
HETATM   38  H   UNL     1     -11.717   1.472 -31.880  1.00  0.00     0.279 HD
BRANCH  37  39
HETATM   39  C   UNL     1     -12.365   0.808 -33.743  1.00  0.00     0.230 C 
HETATM   40  C   UNL     1     -12.791   1.451 -35.051  1.00  0.00     0.034 C 
ENDBRANCH  37  39
BRANCH  37  41
HETATM   41  C   UNL     1     -12.326   3.183 -32.893  1.00  0.00     0.230 C 
HETATM   42  C   UNL     1     -11.303   4.286 -33.104  1.00  0.00     0.034 C 
ENDBRANCH  37  41
ENDBRANCH  36  37
ENDBRANCH  35  36
ENDBRANCH  34  35
ENDBRANCH   1  34
TORSDOF 14
ENDMDL
MODEL 6
REMARK VINA RESULT:      -8.2      3.266      9.513
REMARK  14 active torsions:
REMARK  status: ('A' for Active; 'I' for Inactive)
REMARK    1  A    between atoms: C_2  and  N_3 
REMARK    2  A    between atoms: N_3  and  C_5 
REMARK    3  A    between atoms: N_3  and  C_39 
REMARK    4  A    between atoms: C_5  and  C_6 
REMARK    5  A    between atoms: C_6  and  C_7 
REMARK    6  A    between atoms: C_7  and  N_8 
REMARK    7  A    between atoms: C_11  and  O_12 
REMARK    8  A    between atoms: C_13  and  C_14 
REMARK    9  A    between atoms: C_14  and  C_15 
REMARK   10  A    between atoms: C_18  and  O_19 
REMARK   11  A    between atoms: O_19  and  C_20 
REMARK   12  A    between atoms: C_20  and  C_21 
REMARK   13  A    between atoms: C_31  and  C_32 
REMARK   14  A    between atoms: C_35  and  O_36 
ROOT
HETATM    1  N   UNL     1      -2.264   7.729 -29.849  1.00  0.00    -0.333 N 
HETATM    2  C   UNL     1      -2.954   8.912 -29.712  1.00  0.00     0.278 A 
HETATM    3  O   UNL     1      -2.578   9.961 -29.216  1.00  0.00    -0.265 OA
HETATM    4  C   UNL     1      -4.343   8.674 -30.158  1.00  0.00     0.146 A 
HETATM    5  C   UNL     1      -4.406   7.414 -30.599  1.00  0.00     0.059 A 
HETATM    6  C   UNL     1      -3.083   6.715 -30.511  1.00  0.00     0.161 A 
ENDROOT
BRANCH   5   7
HETATM    7  C   UNL     1      -5.593   6.618 -30.970  1.00  0.00     0.193 C 
HETATM    8  O   UNL     1      -6.636   7.213 -31.240  1.00  0.00    -0.287 OA
BRANCH   7   9
HETATM    9  C   UNL     1      -5.538   5.140 -31.073  1.00  0.00     0.015 A 
HETATM   10  C   UNL     1      -5.406   4.309 -29.954  1.00  0.00     0.018 A 
HETATM   11  C   UNL     1      -5.328   2.919 -30.112  1.00  0.00     0.038 A 
HETATM   12  C   UNL     1      -5.410   2.350 -31.384  1.00  0.00     0.069 A 
HETATM   13  C   UNL     1      -5.603   3.177 -32.492  1.00  0.00     0.038 A 
HETATM   14  C   UNL     1      -5.667   4.564 -32.341  1.00  0.00     0.018 A 
BRANCH  12  15
HETATM   15  O   UNL     1      -5.346   1.017 -31.671  1.00  0.00    -0.347 OA
BRANCH  15  16
HETATM   16  C   UNL     1      -4.532   0.633 -32.779  1.00  0.00     0.214 C 
BRANCH  16  17
HETATM   17  C   UNL     1      -5.090  -0.637 -33.378  1.00  0.00    -0.034 A 
HETATM   18  C   UNL     1      -6.454  -0.756 -33.673  1.00  0.00     0.010 A 
HETATM   19  C   UNL     1      -6.955  -1.921 -34.261  1.00  0.00     0.007 A 
HETATM   20  C   UNL     1      -6.100  -2.988 -34.562  1.00  0.00    -0.062 A 
HETATM   21  C   UNL     1      -6.621  -4.237 -35.210  1.00  0.00     0.048 C 
HETATM   22  C   UNL     1      -4.737  -2.870 -34.271  1.00  0.00     0.007 A 
HETATM   23  C   UNL     1      -4.237  -1.706 -33.685  1.00  0.00     0.010 A 
ENDBRANCH  16  17
ENDBRANCH  15  16
ENDBRANCH  12  15
ENDBRANCH   7   9
ENDBRANCH   5   7
BRANCH   4  24
HETATM   24  O   UNL     1      -5.341   9.585 -29.984  1.00  0.00    -0.355 OA
HETATM   25  H   UNL     1      -6.114   9.095 -29.644  1.00  0.00     0.218 HD
ENDBRANCH   4  24
BRANCH   6  26
HETATM   26  C   UNL     1      -2.516   6.276 -31.849  1.00  0.00    -0.030 A 
HETATM   27  C   UNL     1      -2.120   4.949 -32.101  1.00  0.00     0.012 A 
HETATM   28  C   UNL     1      -1.605   4.583 -33.348  1.00  0.00     0.037 A 
HETATM   29  C   UNL     1      -1.487   5.540 -34.349  1.00  0.00     0.065 A 
HETATM   30  C   UNL     1      -1.868   6.855 -34.123  1.00  0.00     0.037 A 
HETATM   31  C   UNL     1      -2.376   7.224 -32.876  1.00  0.00     0.012 A 
BRANCH  29  32
HETATM   32  O   UNL     1      -0.994   5.229 -35.580  1.00  0.00    -0.361 OA
HETATM   33  H   UNL     1      -1.598   5.565 -36.262  1.00  0.00     0.217 HD
ENDBRANCH  29  32
ENDBRANCH   6  26
BRANCH   1  34
HETATM   34  C   UNL     1      -0.841   7.516 -29.599  1.00  0.00     0.129 C 
BRANCH  34  35
HETATM   35  C   UNL     1      -0.500   6.258 -28.792  1.00  0.00     0.048 C 
BRANCH  35  36
HETATM   36  C   UNL     1      -0.562   6.509 -27.286  1.00  0.00     0.236 C 
BRANCH  36  37
HETATM   37  N   UNL     1      -0.573   8.004 -26.974  1.00  0.00    -0.072 N 
HETATM   38  H   UNL     1      -0.667   8.511 -27.864  1.00  0.00     0.279 HD
BRANCH  37  39
HETATM   39  C   UNL     1       0.726   8.447 -26.319  1.00  0.00     0.230 C 
HETATM   40  C   UNL     1       1.771   8.795 -27.365  1.00  0.00     0.034 C 
ENDBRANCH  37  39
BRANCH  37  41
HETATM   41  C   UNL     1      -1.787   8.367 -26.118  1.00  0.00     0.230 C 
HETATM   42  C   UNL     1      -2.831   7.264 -26.158  1.00  0.00     0.034 C 
ENDBRANCH  37  41
ENDBRANCH  36  37
ENDBRANCH  35  36
ENDBRANCH  34  35
ENDBRANCH   1  34
TORSDOF 14
ENDMDL
MODEL 7
REMARK VINA RESULT:      -8.2      3.846     10.498
REMARK  14 active torsions:
REMARK  status: ('A' for Active; 'I' for Inactive)
REMARK    1  A    between atoms: C_2  and  N_3 
REMARK    2  A    between atoms: N_3  and  C_5 
REMARK    3  A    between atoms: N_3  and  C_39 
REMARK    4  A    between atoms: C_5  and  C_6 
REMARK    5  A    between atoms: C_6  and  C_7 
REMARK    6  A    between atoms: C_7  and  N_8 
REMARK    7  A    between atoms: C_11  and  O_12 
REMARK    8  A    between atoms: C_13  and  C_14 
REMARK    9  A    between atoms: C_14  and  C_15 
REMARK   10  A    between atoms: C_18  and  O_19 
REMARK   11  A    between atoms: O_19  and  C_20 
REMARK   12  A    between atoms: C_20  and  C_21 
REMARK   13  A    between atoms: C_31  and  C_32 
REMARK   14  A    between atoms: C_35  and  O_36 
ROOT
HETATM    1  N   UNL     1       0.055   7.042 -29.099  1.00  0.00    -0.333 N 
HETATM    2  C   UNL     1       0.233   5.776 -29.609  1.00  0.00     0.278 A 
HETATM    3  O   UNL     1       0.956   4.883 -29.199  1.00  0.00    -0.265 OA
HETATM    4  C   UNL     1      -0.521   5.694 -30.878  1.00  0.00     0.146 A 
HETATM    5  C   UNL     1      -1.160   6.857 -31.034  1.00  0.00     0.059 A 
HETATM    6  C   UNL     1      -0.914   7.797 -29.892  1.00  0.00     0.161 A 
ENDROOT
BRANCH   5   7
HETATM    7  C   UNL     1      -1.889   7.366 -32.212  1.00  0.00     0.193 C 
HETATM    8  O   UNL     1      -1.596   8.478 -32.648  1.00  0.00    -0.287 OA
BRANCH   7   9
HETATM    9  C   UNL     1      -2.918   6.550 -32.904  1.00  0.00     0.015 A 
HETATM   10  C   UNL     1      -2.729   6.027 -34.187  1.00  0.00     0.018 A 
HETATM   11  C   UNL     1      -3.747   5.288 -34.805  1.00  0.00     0.038 A 
HETATM   12  C   UNL     1      -4.947   5.046 -34.134  1.00  0.00     0.069 A 
HETATM   13  C   UNL     1      -5.108   5.517 -32.830  1.00  0.00     0.038 A 
HETATM   14  C   UNL     1      -4.102   6.266 -32.215  1.00  0.00     0.018 A 
BRANCH  12  15
HETATM   15  O   UNL     1      -6.012   4.346 -34.624  1.00  0.00    -0.347 OA
BRANCH  15  16
HETATM   16  C   UNL     1      -6.785   3.602 -33.683  1.00  0.00     0.214 C 
BRANCH  16  17
HETATM   17  C   UNL     1      -6.585   2.128 -33.944  1.00  0.00    -0.034 A 
HETATM   18  C   UNL     1      -5.652   1.385 -33.209  1.00  0.00     0.010 A 
HETATM   19  C   UNL     1      -5.501   0.014 -33.432  1.00  0.00     0.007 A 
HETATM   20  C   UNL     1      -6.278  -0.639 -34.395  1.00  0.00    -0.062 A 
HETATM   21  C   UNL     1      -6.139  -2.114 -34.633  1.00  0.00     0.048 C 
HETATM   22  C   UNL     1      -7.213   0.100 -35.129  1.00  0.00     0.007 A 
HETATM   23  C   UNL     1      -7.365   1.470 -34.905  1.00  0.00     0.010 A 
ENDBRANCH  16  17
ENDBRANCH  15  16
ENDBRANCH  12  15
ENDBRANCH   7   9
ENDBRANCH   5   7
BRANCH   4  24
HETATM   24  O   UNL     1      -0.414   4.639 -31.734  1.00  0.00    -0.355 OA
HETATM   25  H   UNL     1       0.527   4.376 -31.740  1.00  0.00     0.218 HD
ENDBRANCH   4  24
BRANCH   6  26
HETATM   26  C   UNL     1      -2.159   8.170 -29.108  1.00  0.00    -0.030 A 
HETATM   27  C   UNL     1      -3.071   7.208 -28.637  1.00  0.00     0.012 A 
HETATM   28  C   UNL     1      -4.204   7.591 -27.914  1.00  0.00     0.037 A 
HETATM   29  C   UNL     1      -4.429   8.939 -27.655  1.00  0.00     0.065 A 
HETATM   30  C   UNL     1      -3.545   9.906 -28.112  1.00  0.00     0.037 A 
HETATM   31  C   UNL     1      -2.416   9.525 -28.839  1.00  0.00     0.012 A 
BRANCH  29  32
HETATM   32  O   UNL     1      -5.517   9.359 -26.953  1.00  0.00    -0.361 OA
HETATM   33  H   UNL     1      -5.319  10.213 -26.535  1.00  0.00     0.217 HD
ENDBRANCH  29  32
ENDBRANCH   6  26
BRANCH   1  34
HETATM   34  C   UNL     1       0.555   7.546 -27.824  1.00  0.00     0.129 C 
BRANCH  34  35
HETATM   35  C   UNL     1       1.458   8.782 -27.918  1.00  0.00     0.048 C 
BRANCH  35  36
HETATM   36  C   UNL     1       1.018   9.887 -26.961  1.00  0.00     0.236 C 
BRANCH  36  37
HETATM   37  N   UNL     1       0.494   9.308 -25.648  1.00  0.00    -0.072 N 
HETATM   38  H   UNL     1       0.481   8.283 -25.739  1.00  0.00     0.279 HD
BRANCH  37  39
HETATM   39  C   UNL     1      -0.928   9.769 -25.364  1.00  0.00     0.230 C 
HETATM   40  C   UNL     1      -1.842   8.585 -25.105  1.00  0.00     0.034 C 
ENDBRANCH  37  39
BRANCH  37  41
HETATM   41  C   UNL     1       1.438   9.648 -24.494  1.00  0.00     0.230 C 
HETATM   42  C   UNL     1       2.709   8.819 -24.568  1.00  0.00     0.034 C 
ENDBRANCH  37  41
ENDBRANCH  36  37
ENDBRANCH  35  36
ENDBRANCH  34  35
ENDBRANCH   1  34
TORSDOF 14
ENDMDL
MODEL 8
REMARK VINA RESULT:      -8.1      2.816      8.849
REMARK  14 active torsions:
REMARK  status: ('A' for Active; 'I' for Inactive)
REMARK    1  A    between atoms: C_2  and  N_3 
REMARK    2  A    between atoms: N_3  and  C_5 
REMARK    3  A    between atoms: N_3  and  C_39 
REMARK    4  A    between atoms: C_5  and  C_6 
REMARK    5  A    between atoms: C_6  and  C_7 
REMARK    6  A    between atoms: C_7  and  N_8 
REMARK    7  A    between atoms: C_11  and  O_12 
REMARK    8  A    between atoms: C_13  and  C_14 
REMARK    9  A    between atoms: C_14  and  C_15 
REMARK   10  A    between atoms: C_18  and  O_19 
REMARK   11  A    between atoms: O_19  and  C_20 
REMARK   12  A    between atoms: C_20  and  C_21 
REMARK   13  A    between atoms: C_31  and  C_32 
REMARK   14  A    between atoms: C_35  and  O_36 
ROOT
HETATM    1  N   UNL     1      -5.042   7.305 -31.079  1.00  0.00    -0.333 N 
HETATM    2  C   UNL     1      -6.417   7.282 -31.135  1.00  0.00     0.278 A 
HETATM    3  O   UNL     1      -7.196   8.221 -31.144  1.00  0.00    -0.265 OA
HETATM    4  C   UNL     1      -6.846   5.870 -31.043  1.00  0.00     0.146 A 
HETATM    5  C   UNL     1      -5.738   5.122 -31.010  1.00  0.00     0.059 A 
HETATM    6  C   UNL     1      -4.492   5.950 -31.098  1.00  0.00     0.161 A 
ENDROOT
BRANCH   5   7
HETATM    7  C   UNL     1      -5.600   3.679 -30.730  1.00  0.00     0.193 C 
HETATM    8  O   UNL     1      -5.010   3.335 -29.707  1.00  0.00    -0.287 OA
BRANCH   7   9
HETATM    9  C   UNL     1      -6.197   2.653 -31.619  1.00  0.00     0.015 A 
HETATM   10  C   UNL     1      -6.201   2.772 -33.013  1.00  0.00     0.018 A 
HETATM   11  C   UNL     1      -6.806   1.786 -33.804  1.00  0.00     0.038 A 
HETATM   12  C   UNL     1      -7.385   0.664 -33.209  1.00  0.00     0.069 A 
HETATM   13  C   UNL     1      -7.325   0.519 -31.821  1.00  0.00     0.038 A 
HETATM   14  C   UNL     1      -6.736   1.506 -31.028  1.00  0.00     0.018 A 
BRANCH  12  15
HETATM   15  O   UNL     1      -8.005  -0.361 -33.864  1.00  0.00    -0.347 OA
BRANCH  15  16
HETATM   16  C   UNL     1      -7.401  -0.812 -35.076  1.00  0.00     0.214 C 
BRANCH  16  17
HETATM   17  C   UNL     1      -6.387  -1.882 -34.748  1.00  0.00    -0.034 A 
HETATM   18  C   UNL     1      -5.162  -1.557 -34.153  1.00  0.00     0.010 A 
HETATM   19  C   UNL     1      -4.246  -2.559 -33.820  1.00  0.00     0.007 A 
HETATM   20  C   UNL     1      -4.538  -3.903 -34.077  1.00  0.00    -0.062 A 
HETATM   21  C   UNL     1      -3.572  -4.989 -33.707  1.00  0.00     0.048 C 
HETATM   22  C   UNL     1      -5.763  -4.231 -34.668  1.00  0.00     0.007 A 
HETATM   23  C   UNL     1      -6.679  -3.230 -35.000  1.00  0.00     0.010 A 
ENDBRANCH  16  17
ENDBRANCH  15  16
ENDBRANCH  12  15
ENDBRANCH   7   9
ENDBRANCH   5   7
BRANCH   4  24
HETATM   24  O   UNL     1      -8.148   5.502 -30.888  1.00  0.00    -0.355 OA
HETATM   25  H   UNL     1      -8.144   4.634 -30.439  1.00  0.00     0.218 HD
ENDBRANCH   4  24
BRANCH   6  26
HETATM   26  C   UNL     1      -3.641   5.675 -32.324  1.00  0.00    -0.030 A 
HETATM   27  C   UNL     1      -4.159   5.733 -33.631  1.00  0.00     0.012 A 
HETATM   28  C   UNL     1      -3.342   5.476 -34.735  1.00  0.00     0.037 A 
HETATM   29  C   UNL     1      -2.001   5.163 -34.538  1.00  0.00     0.065 A 
HETATM   30  C   UNL     1      -1.469   5.097 -33.259  1.00  0.00     0.037 A 
HETATM   31  C   UNL     1      -2.285   5.346 -32.155  1.00  0.00     0.012 A 
BRANCH  29  32
HETATM   32  O   UNL     1      -1.166   4.908 -35.583  1.00  0.00    -0.361 OA
HETATM   33  H   UNL     1      -1.562   5.250 -36.401  1.00  0.00     0.217 HD
ENDBRANCH  29  32
ENDBRANCH   6  26
BRANCH   1  34
HETATM   34  C   UNL     1      -4.184   8.478 -31.209  1.00  0.00     0.129 C 
BRANCH  34  35
HETATM   35  C   UNL     1      -3.391   8.852 -29.951  1.00  0.00     0.048 C 
BRANCH  35  36
HETATM   36  C   UNL     1      -1.905   8.532 -30.094  1.00  0.00     0.236 C 
BRANCH  36  37
HETATM   37  N   UNL     1      -1.370   7.819 -28.853  1.00  0.00    -0.072 N 
HETATM   38  H   UNL     1      -0.793   8.490 -28.328  1.00  0.00     0.279 HD
BRANCH  37  39
HETATM   39  C   UNL     1      -0.487   6.638 -29.227  1.00  0.00     0.230 C 
HETATM   40  C   UNL     1       0.445   6.995 -30.371  1.00  0.00     0.034 C 
ENDBRANCH  37  39
BRANCH  37  41
HETATM   41  C   UNL     1      -2.519   7.396 -27.937  1.00  0.00     0.230 C 
HETATM   42  C   UNL     1      -2.315   7.926 -26.528  1.00  0.00     0.034 C 
ENDBRANCH  37  41
ENDBRANCH  36  37
ENDBRANCH  35  36
ENDBRANCH  34  35
ENDBRANCH   1  34
TORSDOF 14
ENDMDL
MODEL 9
REMARK VINA RESULT:      -8.0      3.692      7.703
REMARK  14 active torsions:
REMARK  status: ('A' for Active; 'I' for Inactive)
REMARK    1  A    between atoms: C_2  and  N_3 
REMARK    2  A    between atoms: N_3  and  C_5 
REMARK    3  A    between atoms: N_3  and  C_39 
REMARK    4  A    between atoms: C_5  and  C_6 
REMARK    5  A    between atoms: C_6  and  C_7 
REMARK    6  A    between atoms: C_7  and  N_8 
REMARK    7  A    between atoms: C_11  and  O_12 
REMARK    8  A    between atoms: C_13  and  C_14 
REMARK    9  A    between atoms: C_14  and  C_15 
REMARK   10  A    between atoms: C_18  and  O_19 
REMARK   11  A    between atoms: O_19  and  C_20 
REMARK   12  A    between atoms: C_20  and  C_21 
REMARK   13  A    between atoms: C_31  and  C_32 
REMARK   14  A    between atoms: C_35  and  O_36 
ROOT
HETATM    1  N   UNL     1      -9.345   5.343 -31.821  1.00  0.00    -0.333 N 
HETATM    2  C   UNL     1      -9.561   5.728 -30.517  1.00  0.00     0.278 A 
HETATM    3  O   UNL     1     -10.514   6.328 -30.046  1.00  0.00    -0.265 OA
HETATM    4  C   UNL     1      -8.340   5.410 -29.747  1.00  0.00     0.146 A 
HETATM    5  C   UNL     1      -7.495   4.799 -30.583  1.00  0.00     0.059 A 
HETATM    6  C   UNL     1      -8.073   4.635 -31.956  1.00  0.00     0.161 A 
ENDROOT
BRANCH   5   7
HETATM    7  C   UNL     1      -6.075   4.450 -30.377  1.00  0.00     0.193 C 
HETATM    8  O   UNL     1      -5.300   5.336 -30.017  1.00  0.00    -0.287 OA
BRANCH   7   9
HETATM    9  C   UNL     1      -5.582   3.061 -30.542  1.00  0.00     0.015 A 
HETATM   10  C   UNL     1      -6.091   1.986 -29.804  1.00  0.00     0.018 A 
HETATM   11  C   UNL     1      -5.567   0.699 -29.980  1.00  0.00     0.038 A 
HETATM   12  C   UNL     1      -4.553   0.473 -30.911  1.00  0.00     0.069 A 
HETATM   13  C   UNL     1      -4.090   1.536 -31.689  1.00  0.00     0.038 A 
HETATM   14  C   UNL     1      -4.599   2.823 -31.508  1.00  0.00     0.018 A 
BRANCH  12  15
HETATM   15  O   UNL     1      -3.959  -0.729 -31.174  1.00  0.00    -0.347 OA
BRANCH  15  16
HETATM   16  C   UNL     1      -3.329  -0.873 -32.447  1.00  0.00     0.214 C 
BRANCH  16  17
HETATM   17  C   UNL     1      -4.132  -1.843 -33.281  1.00  0.00    -0.034 A 
HETATM   18  C   UNL     1      -3.742  -3.183 -33.403  1.00  0.00     0.010 A 
HETATM   19  C   UNL     1      -4.512  -4.082 -34.148  1.00  0.00     0.007 A 
HETATM   20  C   UNL     1      -5.683  -3.656 -34.784  1.00  0.00    -0.062 A 
HETATM   21  C   UNL     1      -6.528  -4.615 -35.571  1.00  0.00     0.048 C 
HETATM   22  C   UNL     1      -6.077  -2.319 -34.661  1.00  0.00     0.007 A 
HETATM   23  C   UNL     1      -5.308  -1.422 -33.917  1.00  0.00     0.010 A 
ENDBRANCH  16  17
ENDBRANCH  15  16
ENDBRANCH  12  15
ENDBRANCH   7   9
ENDBRANCH   5   7
BRANCH   4  24
HETATM   24  O   UNL     1      -8.146   5.825 -28.464  1.00  0.00    -0.355 OA
HETATM   25  H   UNL     1      -8.294   5.047 -27.891  1.00  0.00     0.218 HD
ENDBRANCH   4  24
BRANCH   6  26
HETATM   26  C   UNL     1      -8.242   3.193 -32.398  1.00  0.00    -0.030 A 
HETATM   27  C   UNL     1      -7.680   2.699 -33.589  1.00  0.00     0.012 A 
HETATM   28  C   UNL     1      -7.855   1.362 -33.960  1.00  0.00     0.037 A 
HETATM   29  C   UNL     1      -8.590   0.513 -33.139  1.00  0.00     0.065 A 
HETATM   30  C   UNL     1      -9.155   0.979 -31.962  1.00  0.00     0.037 A 
HETATM   31  C   UNL     1      -8.987   2.315 -31.593  1.00  0.00     0.012 A 
BRANCH  29  32
HETATM   32  O   UNL     1      -8.784  -0.797 -33.458  1.00  0.00    -0.361 OA
HETATM   33  H   UNL     1      -9.729  -1.007 -33.387  1.00  0.00     0.217 HD
ENDBRANCH  29  32
ENDBRANCH   6  26
BRANCH   1  34
HETATM   34  C   UNL     1     -10.307   5.399 -32.917  1.00  0.00     0.129 C 
BRANCH  34  35
HETATM   35  C   UNL     1     -11.551   4.519 -32.741  1.00  0.00     0.048 C 
BRANCH  35  36
HETATM   36  C   UNL     1     -12.186   4.150 -34.080  1.00  0.00     0.236 C 
BRANCH  36  37
HETATM   37  N   UNL     1     -13.508   3.412 -33.882  1.00  0.00    -0.072 N 
HETATM   38  H   UNL     1     -14.157   3.726 -34.616  1.00  0.00     0.279 HD
BRANCH  37  39
HETATM   39  C   UNL     1     -14.133   3.741 -32.535  1.00  0.00     0.230 C 
HETATM   40  C   UNL     1     -14.914   2.556 -31.994  1.00  0.00     0.034 C 
ENDBRANCH  37  39
BRANCH  37  41
HETATM   41  C   UNL     1     -13.316   1.906 -34.062  1.00  0.00     0.230 C 
HETATM   42  C   UNL     1     -12.325   1.611 -35.174  1.00  0.00     0.034 C 
ENDBRANCH  37  41
ENDBRANCH  36  37
ENDBRANCH  35  36
ENDBRANCH  34  35
ENDBRANCH   1  34
TORSDOF 14
ENDMDL
MODEL 10
REMARK VINA RESULT:      -7.9      2.423      3.782
REMARK  14 active torsions:
REMARK  status: ('A' for Active; 'I' for Inactive)
REMARK    1  A    between atoms: C_2  and  N_3 
REMARK    2  A    between atoms: N_3  and  C_5 
REMARK    3  A    between atoms: N_3  and  C_39 
REMARK    4  A    between atoms: C_5  and  C_6 
REMARK    5  A    between atoms: C_6  and  C_7 
REMARK    6  A    between atoms: C_7  and  N_8 
REMARK    7  A    between atoms: C_11  and  O_12 
REMARK    8  A    between atoms: C_13  and  C_14 
REMARK    9  A    between atoms: C_14  and  C_15 
REMARK   10  A    between atoms: C_18  and  O_19 
REMARK   11  A    between atoms: O_19  and  C_20 
REMARK   12  A    between atoms: C_20  and  C_21 
REMARK   13  A    between atoms: C_31  and  C_32 
REMARK   14  A    between atoms: C_35  and  O_36 
ROOT
HETATM    1  N   UNL     1      -6.226   1.102 -32.708  1.00  0.00    -0.333 N 
HETATM    2  C   UNL     1      -6.075   0.396 -31.537  1.00  0.00     0.278 A 
HETATM    3  O   UNL     1      -5.917  -0.804 -31.383  1.00  0.00    -0.265 OA
HETATM    4  C   UNL     1      -6.278   1.339 -30.416  1.00  0.00     0.146 A 
HETATM    5  C   UNL     1      -6.464   2.550 -30.949  1.00  0.00     0.059 A 
HETATM    6  C   UNL     1      -6.382   2.531 -32.445  1.00  0.00     0.161 A 
ENDROOT
BRANCH   5   7
HETATM    7  C   UNL     1      -6.897   3.798 -30.289  1.00  0.00     0.193 C 
HETATM    8  O   UNL     1      -7.854   3.751 -29.517  1.00  0.00    -0.287 OA
BRANCH   7   9
HETATM    9  C   UNL     1      -6.178   5.079 -30.496  1.00  0.00     0.015 A 
HETATM   10  C   UNL     1      -6.712   6.133 -31.244  1.00  0.00     0.018 A 
HETATM   11  C   UNL     1      -5.975   7.309 -31.433  1.00  0.00     0.038 A 
HETATM   12  C   UNL     1      -4.713   7.449 -30.853  1.00  0.00     0.069 A 
HETATM   13  C   UNL     1      -4.209   6.420 -30.056  1.00  0.00     0.038 A 
HETATM   14  C   UNL     1      -4.934   5.240 -29.877  1.00  0.00     0.018 A 
BRANCH  12  15
HETATM   15  O   UNL     1      -3.897   8.539 -30.962  1.00  0.00    -0.347 OA
BRANCH  15  16
HETATM   16  C   UNL     1      -2.616   8.330 -31.555  1.00  0.00     0.214 C 
BRANCH  16  17
HETATM   17  C   UNL     1      -1.583   8.215 -30.459  1.00  0.00    -0.034 A 
HETATM   18  C   UNL     1      -0.514   7.316 -30.567  1.00  0.00     0.010 A 
HETATM   19  C   UNL     1       0.457   7.243 -29.564  1.00  0.00     0.007 A 
HETATM   20  C   UNL     1       0.374   8.066 -28.435  1.00  0.00    -0.062 A 
HETATM   21  C   UNL     1       1.419   8.011 -27.359  1.00  0.00     0.048 C 
HETATM   22  C   UNL     1      -0.691   8.966 -28.326  1.00  0.00     0.007 A 
HETATM   23  C   UNL     1      -1.660   9.040 -29.328  1.00  0.00     0.010 A 
ENDBRANCH  16  17
ENDBRANCH  15  16
ENDBRANCH  12  15
ENDBRANCH   7   9
ENDBRANCH   5   7
BRANCH   4  24
HETATM   24  O   UNL     1      -6.377   0.935 -29.119  1.00  0.00    -0.355 OA
HETATM   25  H   UNL     1      -6.487  -0.036 -29.134  1.00  0.00     0.218 HD
ENDBRANCH   4  24
BRANCH   6  26
HETATM   26  C   UNL     1      -5.254   3.366 -33.022  1.00  0.00    -0.030 A 
HETATM   27  C   UNL     1      -3.927   3.259 -32.566  1.00  0.00     0.012 A 
HETATM   28  C   UNL     1      -2.914   4.043 -33.126  1.00  0.00     0.037 A 
HETATM   29  C   UNL     1      -3.222   4.935 -34.147  1.00  0.00     0.065 A 
HETATM   30  C   UNL     1      -4.524   5.060 -34.611  1.00  0.00     0.037 A 
HETATM   31  C   UNL     1      -5.538   4.283 -34.048  1.00  0.00     0.012 A 
BRANCH  29  32
HETATM   32  O   UNL     1      -2.269   5.717 -34.724  1.00  0.00    -0.361 OA
HETATM   33  H   UNL     1      -2.021   5.339 -35.583  1.00  0.00     0.217 HD
ENDBRANCH  29  32
ENDBRANCH   6  26
BRANCH   1  34
HETATM   34  C   UNL     1      -6.040   0.591 -34.063  1.00  0.00     0.129 C 
BRANCH  34  35
HETATM   35  C   UNL     1      -7.108   1.020 -35.076  1.00  0.00     0.048 C 
BRANCH  35  36
HETATM   36  C   UNL     1      -8.465   0.383 -34.783  1.00  0.00     0.236 C 
BRANCH  36  37
HETATM   37  N   UNL     1      -9.497   1.436 -34.385  1.00  0.00    -0.072 N 
HETATM   38  H   UNL     1     -10.328   1.302 -34.976  1.00  0.00     0.279 HD
BRANCH  37  39
HETATM   39  C   UNL     1      -8.976   2.845 -34.625  1.00  0.00     0.230 C 
HETATM   40  C   UNL     1      -9.511   3.808 -33.581  1.00  0.00     0.034 C 
ENDBRANCH  37  39
BRANCH  37  41
HETATM   41  C   UNL     1      -9.938   1.238 -32.934  1.00  0.00     0.230 C 
HETATM   42  C   UNL     1      -9.716  -0.197 -32.489  1.00  0.00     0.034 C 
ENDBRANCH  37  41
ENDBRANCH  36  37
ENDBRANCH  35  36
ENDBRANCH  34  35
ENDBRANCH   1  34
TORSDOF 14
ENDMDL
