MODEL 1
REMARK VINA RESULT:      -9.6      0.000      0.000
REMARK  3 active torsions:
REMARK  status: ('A' for Active; 'I' for Inactive)
REMARK    1  A    between atoms: C_9  and  C_10 
REMARK       I    between atoms: C_10  and  N_11 
REMARK    2  A    between atoms: N_11  and  C_12 
REMARK    3  A    between atoms: C_12  and  C_13 
ROOT
HETATM    1  C   UNL     1      -4.947   0.305 -32.838  1.00  0.00     0.273 C 
HETATM    2  N   UNL     1      -4.768   1.204 -31.809  1.00  0.00    -0.347 N 
HETATM    3  O   UNL     1      -5.658   0.529 -33.814  1.00  0.00    -0.266 OA
HETATM    4  H   UNL     1      -4.198   0.863 -31.040  1.00  0.00     0.163 HD
ENDROOT
BRANCH   2   5
HETATM    5  C   UNL     1      -5.529   2.429 -31.694  1.00  0.00     0.114 C 
HETATM    6  C   UNL     1      -5.819   2.767 -30.228  1.00  0.00     0.037 C 
BRANCH   5   7
HETATM    7  C   UNL     1      -4.816   3.584 -32.377  1.00  0.00    -0.034 A 
HETATM    8  C   UNL     1      -3.648   4.118 -31.806  1.00  0.00     0.041 A 
HETATM    9  C   UNL     1      -2.959   5.154 -32.443  1.00  0.00     0.069 A 
HETATM   10  C   UNL     1      -3.426   5.675 -33.649  1.00  0.00     0.096 A 
HETATM   11  N   UNL     1      -1.781   5.640 -31.877  1.00  0.00    -0.323 N 
HETATM   12  O   UNL     1      -2.793   6.660 -34.353  1.00  0.00    -0.340 OA
HETATM   13  C   UNL     1      -4.579   5.150 -34.227  1.00  0.00     0.040 A 
HETATM   14  C   UNL     1      -1.745   7.319 -33.658  1.00  0.00     0.278 C 
HETATM   15  C   UNL     1      -1.086   6.672 -32.440  1.00  0.00     0.246 C 
HETATM   16  O   UNL     1      -0.031   7.073 -31.956  1.00  0.00    -0.271 OA
HETATM   17  C   UNL     1      -5.268   4.111 -33.599  1.00  0.00     0.012 A 
HETATM   18  H   UNL     1      -1.392   5.228 -31.040  1.00  0.00     0.169 HD
ENDBRANCH   5   7
ENDBRANCH   2   5
BRANCH   1  19
HETATM   19  C   UNL     1      -4.222  -0.958 -32.629  1.00  0.00     0.157 A 
HETATM   20  C   UNL     1      -4.463  -2.213 -33.264  1.00  0.00     0.029 A 
HETATM   21  C   UNL     1      -5.356  -2.704 -34.236  1.00  0.00     0.023 A 
HETATM   22  C   UNL     1      -3.535  -3.083 -32.706  1.00  0.00     0.063 A 
HETATM   23  C   UNL     1      -5.292  -4.057 -34.614  1.00  0.00    -0.061 A 
HETATM   24  C   UNL     1      -6.235  -4.604 -35.647  1.00  0.00     0.048 C 
HETATM   25  C   UNL     1      -4.343  -4.900 -34.025  1.00  0.00     0.009 A 
HETATM   26  C   UNL     1      -3.445  -4.432 -33.059  1.00  0.00     0.032 A 
HETATM   27  N   UNL     1      -2.824  -2.330 -31.814  1.00  0.00    -0.277 N 
HETATM   28  H   UNL     1      -2.060  -2.640 -31.224  1.00  0.00     0.189 HD
HETATM   29  N   UNL     1      -3.214  -1.046 -31.731  1.00  0.00    -0.168 NA
ENDBRANCH   1  19
TORSDOF 3
ENDMDL
MODEL 2
REMARK VINA RESULT:      -9.3      2.217      8.499
REMARK  3 active torsions:
REMARK  status: ('A' for Active; 'I' for Inactive)
REMARK    1  A    between atoms: C_9  and  C_10 
REMARK       I    between atoms: C_10  and  N_11 
REMARK    2  A    between atoms: N_11  and  C_12 
REMARK    3  A    between atoms: C_12  and  C_13 
ROOT
HETATM    1  C   UNL     1      -3.803   2.928 -32.327  1.00  0.00     0.273 C 
HETATM    2  N   UNL     1      -5.117   2.539 -32.467  1.00  0.00    -0.347 N 
HETATM    3  O   UNL     1      -2.986   2.315 -31.644  1.00  0.00    -0.266 OA
HETATM    4  H   UNL     1      -5.692   3.171 -33.016  1.00  0.00     0.163 HD
ENDROOT
BRANCH   2   5
HETATM    5  C   UNL     1      -5.708   1.470 -31.692  1.00  0.00     0.114 C 
HETATM    6  C   UNL     1      -7.031   1.908 -31.057  1.00  0.00     0.037 C 
BRANCH   5   7
HETATM    7  C   UNL     1      -5.910   0.225 -32.540  1.00  0.00    -0.034 A 
HETATM    8  C   UNL     1      -4.878  -0.724 -32.643  1.00  0.00     0.041 A 
HETATM    9  C   UNL     1      -5.063  -1.892 -33.387  1.00  0.00     0.069 A 
HETATM   10  C   UNL     1      -6.271  -2.128 -34.043  1.00  0.00     0.096 A 
HETATM   11  N   UNL     1      -4.038  -2.837 -33.441  1.00  0.00    -0.323 N 
HETATM   12  O   UNL     1      -6.545  -3.258 -34.759  1.00  0.00    -0.340 OA
HETATM   13  C   UNL     1      -7.302  -1.197 -33.943  1.00  0.00     0.040 A 
HETATM   14  C   UNL     1      -5.427  -4.093 -35.019  1.00  0.00     0.278 C 
HETATM   15  C   UNL     1      -4.154  -3.980 -34.180  1.00  0.00     0.246 C 
HETATM   16  O   UNL     1      -3.262  -4.824 -34.196  1.00  0.00    -0.271 OA
HETATM   17  C   UNL     1      -7.126  -0.031 -33.196  1.00  0.00     0.012 A 
HETATM   18  H   UNL     1      -3.183  -2.713 -32.918  1.00  0.00     0.169 HD
ENDBRANCH   5   7
ENDBRANCH   2   5
BRANCH   1  19
HETATM   19  C   UNL     1      -3.491   4.166 -33.057  1.00  0.00     0.157 A 
HETATM   20  C   UNL     1      -2.445   5.097 -32.780  1.00  0.00     0.029 A 
HETATM   21  C   UNL     1      -1.403   5.204 -31.837  1.00  0.00     0.023 A 
HETATM   22  C   UNL     1      -2.593   6.099 -33.731  1.00  0.00     0.063 A 
HETATM   23  C   UNL     1      -0.545   6.316 -31.877  1.00  0.00    -0.061 A 
HETATM   24  C   UNL     1       0.571   6.452 -30.882  1.00  0.00     0.048 C 
HETATM   25  C   UNL     1      -0.730   7.304 -32.852  1.00  0.00     0.009 A 
HETATM   26  C   UNL     1      -1.757   7.217 -33.798  1.00  0.00     0.032 A 
HETATM   27  N   UNL     1      -3.666   5.723 -34.489  1.00  0.00    -0.277 N 
HETATM   28  H   UNL     1      -4.060   6.218 -35.279  1.00  0.00     0.189 HD
HETATM   29  N   UNL     1      -4.241   4.568 -34.108  1.00  0.00    -0.168 NA
ENDBRANCH   1  19
TORSDOF 3
ENDMDL
MODEL 3
REMARK VINA RESULT:      -9.3      2.481      8.725
REMARK  3 active torsions:
REMARK  status: ('A' for Active; 'I' for Inactive)
REMARK    1  A    between atoms: C_9  and  C_10 
REMARK       I    between atoms: C_10  and  N_11 
REMARK    2  A    between atoms: N_11  and  C_12 
REMARK    3  A    between atoms: C_12  and  C_13 
ROOT
HETATM    1  C   UNL     1      -4.755   3.453 -32.720  1.00  0.00     0.273 C 
HETATM    2  N   UNL     1      -5.173   2.466 -33.586  1.00  0.00    -0.347 N 
HETATM    3  O   UNL     1      -5.050   3.475 -31.528  1.00  0.00    -0.266 OA
HETATM    4  H   UNL     1      -4.900   2.606 -34.555  1.00  0.00     0.163 HD
ENDROOT
BRANCH   2   5
HETATM    5  C   UNL     1      -6.138   1.454 -33.218  1.00  0.00     0.114 C 
HETATM    6  C   UNL     1      -7.399   1.546 -34.082  1.00  0.00     0.037 C 
BRANCH   5   7
HETATM    7  C   UNL     1      -5.532   0.063 -33.305  1.00  0.00    -0.034 A 
HETATM    8  C   UNL     1      -6.196  -0.944 -34.026  1.00  0.00     0.041 A 
HETATM    9  C   UNL     1      -5.633  -2.217 -34.148  1.00  0.00     0.069 A 
HETATM   10  C   UNL     1      -4.407  -2.506 -33.550  1.00  0.00     0.096 A 
HETATM   11  N   UNL     1      -6.292  -3.187 -34.902  1.00  0.00    -0.323 N 
HETATM   12  O   UNL     1      -3.771  -3.711 -33.651  1.00  0.00    -0.340 OA
HETATM   13  C   UNL     1      -3.736  -1.515 -32.837  1.00  0.00     0.040 A 
HETATM   14  C   UNL     1      -4.553  -4.760 -34.200  1.00  0.00     0.278 C 
HETATM   15  C   UNL     1      -5.802  -4.455 -35.027  1.00  0.00     0.246 C 
HETATM   16  O   UNL     1      -6.370  -5.295 -35.721  1.00  0.00    -0.271 OA
HETATM   17  C   UNL     1      -4.292  -0.239 -32.717  1.00  0.00     0.012 A 
HETATM   18  H   UNL     1      -7.146  -2.974 -35.398  1.00  0.00     0.169 HD
ENDBRANCH   5   7
ENDBRANCH   2   5
BRANCH   1  19
HETATM   19  C   UNL     1      -3.944   4.489 -33.379  1.00  0.00     0.157 A 
HETATM   20  C   UNL     1      -2.719   5.056 -32.918  1.00  0.00     0.029 A 
HETATM   21  C   UNL     1      -1.874   4.881 -31.804  1.00  0.00     0.023 A 
HETATM   22  C   UNL     1      -2.374   6.000 -33.877  1.00  0.00     0.063 A 
HETATM   23  C   UNL     1      -0.711   5.662 -31.686  1.00  0.00    -0.061 A 
HETATM   24  C   UNL     1       0.204   5.493 -30.508  1.00  0.00     0.048 C 
HETATM   25  C   UNL     1      -0.402   6.603 -32.676  1.00  0.00     0.009 A 
HETATM   26  C   UNL     1      -1.226   6.793 -33.791  1.00  0.00     0.032 A 
HETATM   27  N   UNL     1      -3.366   5.941 -34.815  1.00  0.00    -0.277 N 
HETATM   28  H   UNL     1      -3.441   6.491 -35.662  1.00  0.00     0.189 HD
HETATM   29  N   UNL     1      -4.336   5.048 -34.547  1.00  0.00    -0.168 NA
ENDBRANCH   1  19
TORSDOF 3
ENDMDL
MODEL 4
REMARK VINA RESULT:      -8.9      2.689      8.352
REMARK  3 active torsions:
REMARK  status: ('A' for Active; 'I' for Inactive)
REMARK    1  A    between atoms: C_9  and  C_10 
REMARK       I    between atoms: C_10  and  N_11 
REMARK    2  A    between atoms: N_11  and  C_12 
REMARK    3  A    between atoms: C_12  and  C_13 
ROOT
HETATM    1  C   UNL     1      -5.848   3.761 -31.652  1.00  0.00     0.273 C 
HETATM    2  N   UNL     1      -5.389   2.626 -32.285  1.00  0.00    -0.347 N 
HETATM    3  O   UNL     1      -7.040   4.017 -31.507  1.00  0.00    -0.266 OA
HETATM    4  H   UNL     1      -4.379   2.572 -32.382  1.00  0.00     0.163 HD
ENDROOT
BRANCH   2   5
HETATM    5  C   UNL     1      -6.260   1.712 -32.990  1.00  0.00     0.114 C 
HETATM    6  C   UNL     1      -6.679   2.278 -34.349  1.00  0.00     0.037 C 
BRANCH   5   7
HETATM    7  C   UNL     1      -5.606   0.351 -33.157  1.00  0.00    -0.034 A 
HETATM    8  C   UNL     1      -6.302  -0.685 -33.803  1.00  0.00     0.041 A 
HETATM    9  C   UNL     1      -5.699  -1.930 -33.999  1.00  0.00     0.069 A 
HETATM   10  C   UNL     1      -4.399  -2.162 -33.550  1.00  0.00     0.096 A 
HETATM   11  N   UNL     1      -6.397  -2.928 -34.677  1.00  0.00    -0.323 N 
HETATM   12  O   UNL     1      -3.725  -3.336 -33.734  1.00  0.00    -0.340 OA
HETATM   13  C   UNL     1      -3.697  -1.142 -32.914  1.00  0.00     0.040 A 
HETATM   14  C   UNL     1      -4.517  -4.420 -34.195  1.00  0.00     0.278 C 
HETATM   15  C   UNL     1      -5.867  -4.172 -34.868  1.00  0.00     0.246 C 
HETATM   16  O   UNL     1      -6.473  -5.036 -35.496  1.00  0.00    -0.271 OA
HETATM   17  C   UNL     1      -4.292   0.106 -32.720  1.00  0.00     0.012 A 
HETATM   18  H   UNL     1      -7.312  -2.755 -35.068  1.00  0.00     0.169 HD
ENDBRANCH   5   7
ENDBRANCH   2   5
BRANCH   1  19
HETATM   19  C   UNL     1      -4.762   4.642 -31.195  1.00  0.00     0.157 A 
HETATM   20  C   UNL     1      -3.604   5.044 -31.926  1.00  0.00     0.029 A 
HETATM   21  C   UNL     1      -3.089   4.818 -33.217  1.00  0.00     0.023 A 
HETATM   22  C   UNL     1      -2.885   5.846 -31.049  1.00  0.00     0.063 A 
HETATM   23  C   UNL     1      -1.865   5.401 -33.586  1.00  0.00    -0.061 A 
HETATM   24  C   UNL     1      -1.295   5.173 -34.957  1.00  0.00     0.048 C 
HETATM   25  C   UNL     1      -1.171   6.201 -32.671  1.00  0.00     0.009 A 
HETATM   26  C   UNL     1      -1.665   6.441 -31.383  1.00  0.00     0.032 A 
HETATM   27  N   UNL     1      -3.623   5.878 -29.899  1.00  0.00    -0.277 N 
HETATM   28  H   UNL     1      -3.401   6.372 -29.043  1.00  0.00     0.189 HD
HETATM   29  N   UNL     1      -4.758   5.157 -29.944  1.00  0.00    -0.168 NA
ENDBRANCH   1  19
TORSDOF 3
ENDMDL
MODEL 5
REMARK VINA RESULT:      -8.8      4.160      6.549
REMARK  3 active torsions:
REMARK  status: ('A' for Active; 'I' for Inactive)
REMARK    1  A    between atoms: C_9  and  C_10 
REMARK       I    between atoms: C_10  and  N_11 
REMARK    2  A    between atoms: N_11  and  C_12 
REMARK    3  A    between atoms: C_12  and  C_13 
ROOT
HETATM    1  C   UNL     1      -6.139   0.510 -31.640  1.00  0.00     0.273 C 
HETATM    2  N   UNL     1      -6.347   1.489 -32.586  1.00  0.00    -0.347 N 
HETATM    3  O   UNL     1      -6.753   0.456 -30.578  1.00  0.00    -0.266 OA
HETATM    4  H   UNL     1      -5.729   1.442 -33.391  1.00  0.00     0.163 HD
ENDROOT
BRANCH   2   5
HETATM    5  C   UNL     1      -7.186   2.644 -32.352  1.00  0.00     0.114 C 
HETATM    6  C   UNL     1      -6.484   3.937 -32.777  1.00  0.00     0.037 C 
BRANCH   5   7
HETATM    7  C   UNL     1      -8.522   2.504 -33.062  1.00  0.00    -0.034 A 
HETATM    8  C   UNL     1      -9.350   1.403 -32.783  1.00  0.00     0.041 A 
HETATM    9  C   UNL     1     -10.598   1.280 -33.399  1.00  0.00     0.069 A 
HETATM   10  C   UNL     1     -11.035   2.246 -34.304  1.00  0.00     0.096 A 
HETATM   11  N   UNL     1     -11.416   0.199 -33.075  1.00  0.00    -0.323 N 
HETATM   12  O   UNL     1     -12.254   2.221 -34.921  1.00  0.00    -0.340 OA
HETATM   13  C   UNL     1     -10.227   3.345 -34.585  1.00  0.00     0.040 A 
HETATM   14  C   UNL     1     -12.973   1.005 -34.784  1.00  0.00     0.278 C 
HETATM   15  C   UNL     1     -12.631   0.015 -33.671  1.00  0.00     0.246 C 
HETATM   16  O   UNL     1     -13.362  -0.921 -33.356  1.00  0.00    -0.271 OA
HETATM   17  C   UNL     1      -8.981   3.476 -33.968  1.00  0.00     0.012 A 
HETATM   18  H   UNL     1     -11.144  -0.473 -32.371  1.00  0.00     0.169 HD
ENDBRANCH   5   7
ENDBRANCH   2   5
BRANCH   1  19
HETATM   19  C   UNL     1      -5.086  -0.444 -32.023  1.00  0.00     0.157 A 
HETATM   20  C   UNL     1      -5.200  -1.549 -32.918  1.00  0.00     0.029 A 
HETATM   21  C   UNL     1      -6.217  -2.109 -33.716  1.00  0.00     0.023 A 
HETATM   22  C   UNL     1      -3.945  -2.144 -32.918  1.00  0.00     0.063 A 
HETATM   23  C   UNL     1      -5.942  -3.252 -34.487  1.00  0.00    -0.061 A 
HETATM   24  C   UNL     1      -7.010  -3.867 -35.344  1.00  0.00     0.048 C 
HETATM   25  C   UNL     1      -4.663  -3.821 -34.456  1.00  0.00     0.009 A 
HETATM   26  C   UNL     1      -3.638  -3.280 -33.672  1.00  0.00     0.032 A 
HETATM   27  N   UNL     1      -3.187  -1.390 -32.065  1.00  0.00    -0.277 N 
HETATM   28  H   UNL     1      -2.214  -1.533 -31.823  1.00  0.00     0.189 HD
HETATM   29  N   UNL     1      -3.841  -0.361 -31.498  1.00  0.00    -0.168 NA
ENDBRANCH   1  19
TORSDOF 3
ENDMDL
MODEL 6
REMARK VINA RESULT:      -8.8      2.721      4.294
REMARK  3 active torsions:
REMARK  status: ('A' for Active; 'I' for Inactive)
REMARK    1  A    between atoms: C_9  and  C_10 
REMARK       I    between atoms: C_10  and  N_11 
REMARK    2  A    between atoms: N_11  and  C_12 
REMARK    3  A    between atoms: C_12  and  C_13 
ROOT
HETATM    1  C   UNL     1      -3.803   2.670 -32.351  1.00  0.00     0.273 C 
HETATM    2  N   UNL     1      -3.571   3.809 -33.090  1.00  0.00    -0.347 N 
HETATM    3  O   UNL     1      -2.949   2.136 -31.648  1.00  0.00    -0.266 OA
HETATM    4  H   UNL     1      -4.351   4.108 -33.669  1.00  0.00     0.163 HD
ENDROOT
BRANCH   2   5
HETATM    5  C   UNL     1      -2.256   4.393 -33.246  1.00  0.00     0.114 C 
HETATM    6  C   UNL     1      -2.042   4.910 -34.671  1.00  0.00     0.037 C 
BRANCH   5   7
HETATM    7  C   UNL     1      -2.028   5.504 -32.235  1.00  0.00    -0.034 A 
HETATM    8  C   UNL     1      -1.382   5.220 -31.019  1.00  0.00     0.041 A 
HETATM    9  C   UNL     1      -1.129   6.238 -30.096  1.00  0.00     0.069 A 
HETATM   10  C   UNL     1      -1.521   7.549 -30.368  1.00  0.00     0.096 A 
HETATM   11  N   UNL     1      -0.451   5.938 -28.916  1.00  0.00    -0.323 N 
HETATM   12  O   UNL     1      -1.280   8.607 -29.537  1.00  0.00    -0.340 OA
HETATM   13  C   UNL     1      -2.157   7.844 -31.571  1.00  0.00     0.040 A 
HETATM   14  C   UNL     1      -0.821   8.261 -28.240  1.00  0.00     0.278 C 
HETATM   15  C   UNL     1      -0.207   6.888 -27.966  1.00  0.00     0.246 C 
HETATM   16  O   UNL     1       0.420   6.625 -26.944  1.00  0.00    -0.271 OA
HETATM   17  C   UNL     1      -2.407   6.831 -32.499  1.00  0.00     0.012 A 
HETATM   18  H   UNL     1      -0.100   5.008 -28.735  1.00  0.00     0.169 HD
ENDBRANCH   5   7
ENDBRANCH   2   5
BRANCH   1  19
HETATM   19  C   UNL     1      -5.168   2.147 -32.516  1.00  0.00     0.157 A 
HETATM   20  C   UNL     1      -5.554   0.868 -33.017  1.00  0.00     0.029 A 
HETATM   21  C   UNL     1      -4.888  -0.282 -33.485  1.00  0.00     0.023 A 
HETATM   22  C   UNL     1      -6.942   0.877 -32.998  1.00  0.00     0.063 A 
HETATM   23  C   UNL     1      -5.639  -1.387 -33.922  1.00  0.00    -0.061 A 
HETATM   24  C   UNL     1      -4.952  -2.624 -34.425  1.00  0.00     0.048 C 
HETATM   25  C   UNL     1      -7.038  -1.336 -33.886  1.00  0.00     0.009 A 
HETATM   26  C   UNL     1      -7.719  -0.204 -33.424  1.00  0.00     0.032 A 
HETATM   27  N   UNL     1      -7.290   2.103 -32.503  1.00  0.00    -0.277 N 
HETATM   28  H   UNL     1      -8.226   2.457 -32.349  1.00  0.00     0.189 HD
HETATM   29  N   UNL     1      -6.249   2.902 -32.210  1.00  0.00    -0.168 NA
ENDBRANCH   1  19
TORSDOF 3
ENDMDL
MODEL 7
REMARK VINA RESULT:      -8.7      7.584      9.713
REMARK  3 active torsions:
REMARK  status: ('A' for Active; 'I' for Inactive)
REMARK    1  A    between atoms: C_9  and  C_10 
REMARK       I    between atoms: C_10  and  N_11 
REMARK    2  A    between atoms: N_11  and  C_12 
REMARK    3  A    between atoms: C_12  and  C_13 
ROOT
HETATM    1  C   UNL     1      -9.861   1.318 -33.508  1.00  0.00     0.273 C 
HETATM    2  N   UNL     1     -11.073   0.996 -32.936  1.00  0.00    -0.347 N 
HETATM    3  O   UNL     1      -9.745   1.719 -34.663  1.00  0.00    -0.266 OA
HETATM    4  H   UNL     1     -11.012   0.625 -31.992  1.00  0.00     0.163 HD
ENDROOT
BRANCH   2   5
HETATM    5  C   UNL     1     -12.307   0.936 -33.688  1.00  0.00     0.114 C 
HETATM    6  C   UNL     1     -12.898  -0.477 -33.674  1.00  0.00     0.037 C 
BRANCH   5   7
HETATM    7  C   UNL     1     -13.317   1.943 -33.164  1.00  0.00    -0.034 A 
HETATM    8  C   UNL     1     -14.693   1.684 -33.294  1.00  0.00     0.041 A 
HETATM    9  C   UNL     1     -15.633   2.581 -32.783  1.00  0.00     0.069 A 
HETATM   10  C   UNL     1     -15.219   3.749 -32.143  1.00  0.00     0.096 A 
HETATM   11  N   UNL     1     -16.991   2.283 -32.890  1.00  0.00    -0.323 N 
HETATM   12  O   UNL     1     -16.071   4.659 -31.584  1.00  0.00    -0.340 OA
HETATM   13  C   UNL     1     -13.859   4.014 -32.003  1.00  0.00     0.040 A 
HETATM   14  C   UNL     1     -17.441   4.481 -31.911  1.00  0.00     0.278 C 
HETATM   15  C   UNL     1     -17.952   3.140 -32.436  1.00  0.00     0.246 C 
HETATM   16  O   UNL     1     -19.145   2.855 -32.502  1.00  0.00    -0.271 OA
HETATM   17  C   UNL     1     -12.914   3.118 -32.506  1.00  0.00     0.012 A 
HETATM   18  H   UNL     1     -17.306   1.410 -33.290  1.00  0.00     0.169 HD
ENDBRANCH   5   7
ENDBRANCH   2   5
BRANCH   1  19
HETATM   19  C   UNL     1      -8.723   1.104 -32.600  1.00  0.00     0.157 A 
HETATM   20  C   UNL     1      -7.612   0.229 -32.791  1.00  0.00     0.029 A 
HETATM   21  C   UNL     1      -7.182  -0.662 -33.794  1.00  0.00     0.023 A 
HETATM   22  C   UNL     1      -6.839   0.373 -31.646  1.00  0.00     0.063 A 
HETATM   23  C   UNL     1      -5.990  -1.385 -33.613  1.00  0.00    -0.061 A 
HETATM   24  C   UNL     1      -5.512  -2.341 -34.668  1.00  0.00     0.048 C 
HETATM   25  C   UNL     1      -5.242  -1.211 -32.443  1.00  0.00     0.009 A 
HETATM   26  C   UNL     1      -5.650  -0.330 -31.435  1.00  0.00     0.032 A 
HETATM   27  N   UNL     1      -7.501   1.287 -30.875  1.00  0.00    -0.277 N 
HETATM   28  H   UNL     1      -7.222   1.636 -29.966  1.00  0.00     0.189 HD
HETATM   29  N   UNL     1      -8.646   1.745 -31.411  1.00  0.00    -0.168 NA
ENDBRANCH   1  19
TORSDOF 3
ENDMDL
MODEL 8
REMARK VINA RESULT:      -8.7      4.636      8.504
REMARK  3 active torsions:
REMARK  status: ('A' for Active; 'I' for Inactive)
REMARK    1  A    between atoms: C_9  and  C_10 
REMARK       I    between atoms: C_10  and  N_11 
REMARK    2  A    between atoms: N_11  and  C_12 
REMARK    3  A    between atoms: C_12  and  C_13 
ROOT
HETATM    1  C   UNL     1      -8.414   1.357 -32.661  1.00  0.00     0.273 C 
HETATM    2  N   UNL     1      -7.576   1.479 -33.747  1.00  0.00    -0.347 N 
HETATM    3  O   UNL     1      -8.033   1.466 -31.499  1.00  0.00    -0.266 OA
HETATM    4  H   UNL     1      -8.018   1.309 -34.647  1.00  0.00     0.163 HD
ENDROOT
BRANCH   2   5
HETATM    5  C   UNL     1      -6.138   1.577 -33.624  1.00  0.00     0.114 C 
HETATM    6  C   UNL     1      -5.740   2.444 -32.426  1.00  0.00     0.037 C 
BRANCH   5   7
HETATM    7  C   UNL     1      -5.502   0.201 -33.522  1.00  0.00    -0.034 A 
HETATM    8  C   UNL     1      -6.072  -0.885 -34.210  1.00  0.00     0.041 A 
HETATM    9  C   UNL     1      -5.476  -2.148 -34.157  1.00  0.00     0.069 A 
HETATM   10  C   UNL     1      -4.313  -2.349 -33.415  1.00  0.00     0.096 A 
HETATM   11  N   UNL     1      -6.038  -3.199 -34.881  1.00  0.00    -0.323 N 
HETATM   12  O   UNL     1      -3.649  -3.541 -33.341  1.00  0.00    -0.340 OA
HETATM   13  C   UNL     1      -3.736  -1.280 -32.734  1.00  0.00     0.040 A 
HETATM   14  C   UNL     1      -4.352  -4.656 -33.867  1.00  0.00     0.278 C 
HETATM   15  C   UNL     1      -5.516  -4.460 -34.839  1.00  0.00     0.246 C 
HETATM   16  O   UNL     1      -5.995  -5.373 -35.505  1.00  0.00    -0.271 OA
HETATM   17  C   UNL     1      -4.323  -0.014 -32.788  1.00  0.00     0.012 A 
HETATM   18  H   UNL     1      -6.841  -3.055 -35.477  1.00  0.00     0.169 HD
ENDBRANCH   5   7
ENDBRANCH   2   5
BRANCH   1  19
HETATM   19  C   UNL     1      -9.804   1.057 -33.039  1.00  0.00     0.157 A 
HETATM   20  C   UNL     1     -10.718   1.905 -33.732  1.00  0.00     0.029 A 
HETATM   21  C   UNL     1     -10.681   3.200 -34.287  1.00  0.00     0.023 A 
HETATM   22  C   UNL     1     -11.896   1.174 -33.818  1.00  0.00     0.063 A 
HETATM   23  C   UNL     1     -11.830   3.721 -34.908  1.00  0.00    -0.061 A 
HETATM   24  C   UNL     1     -11.815   5.098 -35.505  1.00  0.00     0.048 C 
HETATM   25  C   UNL     1     -12.997   2.950 -34.971  1.00  0.00     0.009 A 
HETATM   26  C   UNL     1     -13.055   1.661 -34.428  1.00  0.00     0.032 A 
HETATM   27  N   UNL     1     -11.627  -0.017 -33.203  1.00  0.00    -0.277 N 
HETATM   28  H   UNL     1     -12.260  -0.799 -33.081  1.00  0.00     0.189 HD
HETATM   29  N   UNL     1     -10.380  -0.123 -32.712  1.00  0.00    -0.168 NA
ENDBRANCH   1  19
TORSDOF 3
ENDMDL
MODEL 9
REMARK VINA RESULT:      -8.6      2.611      8.865
REMARK  3 active torsions:
REMARK  status: ('A' for Active; 'I' for Inactive)
REMARK    1  A    between atoms: C_9  and  C_10 
REMARK       I    between atoms: C_10  and  N_11 
REMARK    2  A    between atoms: N_11  and  C_12 
REMARK    3  A    between atoms: C_12  and  C_13 
ROOT
HETATM    1  C   UNL     1      -4.348   3.120 -31.465  1.00  0.00     0.273 C 
HETATM    2  N   UNL     1      -4.584   2.510 -32.677  1.00  0.00    -0.347 N 
HETATM    3  O   UNL     1      -4.956   2.834 -30.436  1.00  0.00    -0.266 OA
HETATM    4  H   UNL     1      -4.047   2.885 -33.454  1.00  0.00     0.163 HD
ENDROOT
BRANCH   2   5
HETATM    5  C   UNL     1      -5.683   1.596 -32.898  1.00  0.00     0.114 C 
HETATM    6  C   UNL     1      -6.512   2.007 -34.118  1.00  0.00     0.037 C 
BRANCH   5   7
HETATM    7  C   UNL     1      -5.187   0.167 -33.047  1.00  0.00    -0.034 A 
HETATM    8  C   UNL     1      -5.924  -0.753 -33.811  1.00  0.00     0.041 A 
HETATM    9  C   UNL     1      -5.461  -2.058 -33.990  1.00  0.00     0.069 A 
HETATM   10  C   UNL     1      -4.262  -2.467 -33.406  1.00  0.00     0.096 A 
HETATM   11  N   UNL     1      -6.191  -2.940 -34.786  1.00  0.00    -0.323 N 
HETATM   12  O   UNL     1      -3.721  -3.712 -33.561  1.00  0.00    -0.340 OA
HETATM   13  C   UNL     1      -3.520  -1.563 -32.650  1.00  0.00     0.040 A 
HETATM   14  C   UNL     1      -4.580  -4.673 -34.156  1.00  0.00     0.278 C 
HETATM   15  C   UNL     1      -5.800  -4.235 -34.967  1.00  0.00     0.246 C 
HETATM   16  O   UNL     1      -6.429  -4.997 -35.697  1.00  0.00    -0.271 OA
HETATM   17  C   UNL     1      -3.975  -0.256 -32.473  1.00  0.00     0.012 A 
HETATM   18  H   UNL     1      -7.025  -2.640 -35.271  1.00  0.00     0.169 HD
ENDBRANCH   5   7
ENDBRANCH   2   5
BRANCH   1  19
HETATM   19  C   UNL     1      -3.315   4.164 -31.539  1.00  0.00     0.157 A 
HETATM   20  C   UNL     1      -3.500   5.577 -31.452  1.00  0.00     0.029 A 
HETATM   21  C   UNL     1      -4.591   6.448 -31.266  1.00  0.00     0.023 A 
HETATM   22  C   UNL     1      -2.230   6.117 -31.607  1.00  0.00     0.063 A 
HETATM   23  C   UNL     1      -4.372   7.837 -31.245  1.00  0.00    -0.061 A 
HETATM   24  C   UNL     1      -5.520   8.785 -31.049  1.00  0.00     0.048 C 
HETATM   25  C   UNL     1      -3.076   8.339 -31.406  1.00  0.00     0.009 A 
HETATM   26  C   UNL     1      -1.977   7.492 -31.591  1.00  0.00     0.032 A 
HETATM   27  N   UNL     1      -1.397   5.045 -31.765  1.00  0.00    -0.277 N 
HETATM   28  H   UNL     1      -0.394   5.065 -31.901  1.00  0.00     0.189 HD
HETATM   29  N   UNL     1      -2.014   3.850 -31.740  1.00  0.00    -0.168 NA
ENDBRANCH   1  19
TORSDOF 3
ENDMDL
MODEL 10
REMARK VINA RESULT:      -8.5      2.512      8.392
REMARK  3 active torsions:
REMARK  status: ('A' for Active; 'I' for Inactive)
REMARK    1  A    between atoms: C_9  and  C_10 
REMARK       I    between atoms: C_10  and  N_11 
REMARK    2  A    between atoms: N_11  and  C_12 
REMARK    3  A    between atoms: C_12  and  C_13 
ROOT
HETATM    1  C   UNL     1      -5.921   3.950 -33.603  1.00  0.00     0.273 C 
HETATM    2  N   UNL     1      -5.681   2.596 -33.688  1.00  0.00    -0.347 N 
HETATM    3  O   UNL     1      -6.992   4.424 -33.233  1.00  0.00    -0.266 OA
HETATM    4  H   UNL     1      -4.769   2.348 -34.061  1.00  0.00     0.163 HD
ENDROOT
BRANCH   2   5
HETATM    5  C   UNL     1      -6.716   1.601 -33.514  1.00  0.00     0.114 C 
HETATM    6  C   UNL     1      -7.891   1.851 -34.464  1.00  0.00     0.037 C 
BRANCH   5   7
HETATM    7  C   UNL     1      -6.165   0.198 -33.705  1.00  0.00    -0.034 A 
HETATM    8  C   UNL     1      -5.165  -0.283 -32.842  1.00  0.00     0.041 A 
HETATM    9  C   UNL     1      -4.676  -1.584 -32.980  1.00  0.00     0.069 A 
HETATM   10  C   UNL     1      -5.169  -2.421 -33.981  1.00  0.00     0.096 A 
HETATM   11  N   UNL     1      -3.713  -2.051 -32.086  1.00  0.00    -0.323 N 
HETATM   12  O   UNL     1      -4.772  -3.715 -34.160  1.00  0.00    -0.340 OA
HETATM   13  C   UNL     1      -6.164  -1.958 -34.839  1.00  0.00     0.040 A 
HETATM   14  C   UNL     1      -3.625  -4.102 -33.419  1.00  0.00     0.278 C 
HETATM   15  C   UNL     1      -3.178  -3.302 -32.196  1.00  0.00     0.246 C 
HETATM   16  O   UNL     1      -2.355  -3.719 -31.385  1.00  0.00    -0.271 OA
HETATM   17  C   UNL     1      -6.661  -0.660 -34.702  1.00  0.00     0.012 A 
HETATM   18  H   UNL     1      -3.394  -1.482 -31.314  1.00  0.00     0.169 HD
ENDBRANCH   5   7
ENDBRANCH   2   5
BRANCH   1  19
HETATM   19  C   UNL     1      -4.771   4.764 -34.026  1.00  0.00     0.157 A 
HETATM   20  C   UNL     1      -3.918   5.558 -33.202  1.00  0.00     0.029 A 
HETATM   21  C   UNL     1      -3.815   5.846 -31.827  1.00  0.00     0.023 A 
HETATM   22  C   UNL     1      -3.013   6.144 -34.078  1.00  0.00     0.063 A 
HETATM   23  C   UNL     1      -2.809   6.717 -31.375  1.00  0.00    -0.061 A 
HETATM   24  C   UNL     1      -2.681   7.039 -29.914  1.00  0.00     0.048 C 
HETATM   25  C   UNL     1      -1.918   7.287 -32.292  1.00  0.00     0.009 A 
HETATM   26  C   UNL     1      -2.001   7.014 -33.662  1.00  0.00     0.032 A 
HETATM   27  N   UNL     1      -3.359   5.683 -35.318  1.00  0.00    -0.277 N 
HETATM   28  H   UNL     1      -2.912   5.904 -36.199  1.00  0.00     0.189 HD
HETATM   29  N   UNL     1      -4.420   4.856 -35.330  1.00  0.00    -0.168 NA
ENDBRANCH   1  19
TORSDOF 3
ENDMDL
