MODEL 1
REMARK VINA RESULT:      -8.6      0.000      0.000
REMARK  7 active torsions:
REMARK  status: ('A' for Active; 'I' for Inactive)
REMARK    1  A    between atoms: C_2  and  C_3 
REMARK    2  A    between atoms: C_3  and  C_4 
REMARK    3  A    between atoms: C_3  and  C_12 
REMARK    4  A    between atoms: C_7  and  O_8 
REMARK    5  A    between atoms: C_12  and  C_13 
REMARK       I    between atoms: C_13  and  N_14 
REMARK    6  A    between atoms: N_14  and  C_15 
REMARK    7  A    between atoms: C_22  and  C_23 
REMARK       I    between atoms: C_23  and  N_24 
ROOT
HETATM    1  C   UNL     1      -9.142   0.763 -34.242  1.00  0.00     0.222 C 
HETATM    2  N   UNL     1     -10.039   1.708 -34.724  1.00  0.00    -0.327 N 
HETATM    3  O   UNL     1      -9.335   0.034 -33.280  1.00  0.00    -0.273 OA
HETATM    4  H   UNL     1      -9.682   2.371 -35.400  1.00  0.00     0.169 HD
ENDROOT
BRANCH   2   5
HETATM    5  C   UNL     1     -11.356   1.931 -34.266  1.00  0.00     0.035 A 
HETATM    6  C   UNL     1     -11.659   2.736 -33.158  1.00  0.00     0.046 A 
HETATM    7  C   UNL     1     -13.004   2.901 -32.763  1.00  0.00     0.030 A 
HETATM    8  C   UNL     1     -14.000   2.268 -33.494  1.00  0.00     0.063 A 
HETATM    9  C   UNL     1     -13.690   3.591 -31.719  1.00  0.00     0.156 A 
HETATM   10  N   UNL     1     -15.173   2.630 -32.894  1.00  0.00    -0.277 N 
HETATM   11  C   UNL     1     -13.735   1.452 -34.596  1.00  0.00     0.034 A 
HETATM   12  H   UNL     1     -16.112   2.361 -33.168  1.00  0.00     0.189 HD
HETATM   13  N   UNL     1     -15.029   3.420 -31.818  1.00  0.00    -0.168 NA
HETATM   14  C   UNL     1     -12.391   1.287 -34.957  1.00  0.00     0.032 A 
BRANCH   9  15
HETATM   15  C   UNL     1     -13.102   4.392 -30.636  1.00  0.00     0.270 C 
HETATM   16  N   UNL     1     -12.354   3.668 -29.748  1.00  0.00    -0.365 N 
HETATM   17  H   UNL     1     -12.242   2.673 -29.905  1.00  0.00     0.159 HD
HETATM   18  H   UNL     1     -11.887   4.140 -28.991  1.00  0.00     0.159 HD
HETATM   19  O   UNL     1     -13.235   5.604 -30.510  1.00  0.00    -0.266 OA
ENDBRANCH   9  15
ENDBRANCH   2   5
BRANCH   1  20
HETATM   20  C   UNL     1      -7.837   0.781 -35.033  1.00  0.00     0.112 C 
BRANCH  20  21
HETATM   21  C   UNL     1      -6.513   0.608 -34.259  1.00  0.00     0.027 C 
BRANCH  21  22
HETATM   22  C   UNL     1      -6.515   1.282 -32.870  1.00  0.00     0.005 C 
HETATM   23  C   UNL     1      -5.534   2.446 -32.777  1.00  0.00     0.006 C 
ENDBRANCH  21  22
BRANCH  21  24
HETATM   24  C   UNL     1      -6.008  -0.829 -34.243  1.00  0.00    -0.053 A 
HETATM   25  C   UNL     1      -4.764  -1.182 -33.708  1.00  0.00     0.010 A 
HETATM   26  C   UNL     1      -4.321  -2.508 -33.739  1.00  0.00     0.037 A 
HETATM   27  C   UNL     1      -5.099  -3.508 -34.320  1.00  0.00     0.068 A 
HETATM   28  C   UNL     1      -6.344  -3.174 -34.847  1.00  0.00     0.037 A 
HETATM   29  C   UNL     1      -6.794  -1.847 -34.806  1.00  0.00     0.010 A 
BRANCH  27  30
HETATM   30  O   UNL     1      -4.540  -4.755 -34.304  1.00  0.00    -0.356 OA
HETATM   31  C   UNL     1      -3.356  -4.912 -33.534  1.00  0.00     0.210 C 
ENDBRANCH  27  30
ENDBRANCH  21  24
ENDBRANCH  20  21
ENDBRANCH   1  20
TORSDOF 7
ENDMDL
MODEL 2
REMARK VINA RESULT:      -8.6      5.706      8.906
REMARK  7 active torsions:
REMARK  status: ('A' for Active; 'I' for Inactive)
REMARK    1  A    between atoms: C_2  and  C_3 
REMARK    2  A    between atoms: C_3  and  C_4 
REMARK    3  A    between atoms: C_3  and  C_12 
REMARK    4  A    between atoms: C_7  and  O_8 
REMARK    5  A    between atoms: C_12  and  C_13 
REMARK       I    between atoms: C_13  and  N_14 
REMARK    6  A    between atoms: N_14  and  C_15 
REMARK    7  A    between atoms: C_22  and  C_23 
REMARK       I    between atoms: C_23  and  N_24 
ROOT
HETATM    1  C   UNL     1      -5.402   3.271 -32.607  1.00  0.00     0.222 C 
HETATM    2  N   UNL     1      -4.079   3.230 -33.033  1.00  0.00    -0.327 N 
HETATM    3  O   UNL     1      -5.915   4.192 -31.988  1.00  0.00    -0.273 OA
HETATM    4  H   UNL     1      -3.735   2.338 -33.361  1.00  0.00     0.169 HD
ENDROOT
BRANCH   2   5
HETATM    5  C   UNL     1      -3.126   4.267 -32.922  1.00  0.00     0.035 A 
HETATM    6  C   UNL     1      -2.164   4.321 -31.903  1.00  0.00     0.046 A 
HETATM    7  C   UNL     1      -1.251   5.397 -31.864  1.00  0.00     0.030 A 
HETATM    8  C   UNL     1      -1.322   6.374 -32.848  1.00  0.00     0.063 A 
HETATM    9  C   UNL     1      -0.183   5.806 -31.010  1.00  0.00     0.156 A 
HETATM   10  N   UNL     1      -0.315   7.251 -32.559  1.00  0.00    -0.277 N 
HETATM   11  C   UNL     1      -2.273   6.357 -33.871  1.00  0.00     0.034 A 
HETATM   12  H   UNL     1      -0.061   8.086 -33.075  1.00  0.00     0.189 HD
HETATM   13  N   UNL     1       0.390   6.948 -31.456  1.00  0.00    -0.168 NA
HETATM   14  C   UNL     1      -3.181   5.290 -33.878  1.00  0.00     0.032 A 
BRANCH   9  15
HETATM   15  C   UNL     1       0.290   5.144 -29.785  1.00  0.00     0.270 C 
HETATM   16  N   UNL     1      -0.197   5.692 -28.630  1.00  0.00    -0.365 N 
HETATM   17  H   UNL     1      -0.842   6.470 -28.695  1.00  0.00     0.159 HD
HETATM   18  H   UNL     1       0.050   5.282 -27.744  1.00  0.00     0.159 HD
HETATM   19  O   UNL     1       1.044   4.178 -29.759  1.00  0.00    -0.266 OA
ENDBRANCH   9  15
ENDBRANCH   2   5
BRANCH   1  20
HETATM   20  C   UNL     1      -6.137   1.981 -32.956  1.00  0.00     0.112 C 
BRANCH  20  21
HETATM   21  C   UNL     1      -5.795   0.706 -32.155  1.00  0.00     0.027 C 
BRANCH  21  22
HETATM   22  C   UNL     1      -6.660   0.520 -30.890  1.00  0.00     0.005 C 
HETATM   23  C   UNL     1      -5.837   0.520 -29.606  1.00  0.00     0.006 C 
ENDBRANCH  21  22
BRANCH  21  24
HETATM   24  C   UNL     1      -5.698  -0.542 -33.022  1.00  0.00    -0.053 A 
HETATM   25  C   UNL     1      -6.819  -1.130 -33.620  1.00  0.00     0.010 A 
HETATM   26  C   UNL     1      -6.694  -2.294 -34.385  1.00  0.00     0.037 A 
HETATM   27  C   UNL     1      -5.455  -2.908 -34.556  1.00  0.00     0.068 A 
HETATM   28  C   UNL     1      -4.329  -2.328 -33.976  1.00  0.00     0.037 A 
HETATM   29  C   UNL     1      -4.450  -1.155 -33.219  1.00  0.00     0.010 A 
BRANCH  27  30
HETATM   30  O   UNL     1      -5.476  -4.050 -35.306  1.00  0.00    -0.356 OA
HETATM   31  C   UNL     1      -6.744  -4.663 -35.498  1.00  0.00     0.210 C 
ENDBRANCH  27  30
ENDBRANCH  21  24
ENDBRANCH  20  21
ENDBRANCH   1  20
TORSDOF 7
ENDMDL
MODEL 3
REMARK VINA RESULT:      -8.4      5.206      8.352
REMARK  7 active torsions:
REMARK  status: ('A' for Active; 'I' for Inactive)
REMARK    1  A    between atoms: C_2  and  C_3 
REMARK    2  A    between atoms: C_3  and  C_4 
REMARK    3  A    between atoms: C_3  and  C_12 
REMARK    4  A    between atoms: C_7  and  O_8 
REMARK    5  A    between atoms: C_12  and  C_13 
REMARK       I    between atoms: C_13  and  N_14 
REMARK    6  A    between atoms: N_14  and  C_15 
REMARK    7  A    between atoms: C_22  and  C_23 
REMARK       I    between atoms: C_23  and  N_24 
ROOT
HETATM    1  C   UNL     1      -5.943   2.472 -31.730  1.00  0.00     0.222 C 
HETATM    2  N   UNL     1      -4.628   2.432 -32.179  1.00  0.00    -0.327 N 
HETATM    3  O   UNL     1      -6.542   3.482 -31.390  1.00  0.00    -0.273 OA
HETATM    4  H   UNL     1      -4.198   1.519 -32.244  1.00  0.00     0.169 HD
ENDROOT
BRANCH   2   5
HETATM    5  C   UNL     1      -3.785   3.540 -32.416  1.00  0.00     0.035 A 
HETATM    6  C   UNL     1      -2.645   3.818 -31.648  1.00  0.00     0.046 A 
HETATM    7  C   UNL     1      -1.859   4.950 -31.950  1.00  0.00     0.030 A 
HETATM    8  C   UNL     1      -2.231   5.759 -33.016  1.00  0.00     0.063 A 
HETATM    9  C   UNL     1      -0.687   5.561 -31.411  1.00  0.00     0.156 A 
HETATM   10  N   UNL     1      -1.282   6.741 -33.072  1.00  0.00    -0.277 N 
HETATM   11  C   UNL     1      -3.364   5.519 -33.797  1.00  0.00     0.034 A 
HETATM   12  H   UNL     1      -1.227   7.505 -33.737  1.00  0.00     0.189 HD
HETATM   13  N   UNL     1      -0.339   6.661 -32.119  1.00  0.00    -0.168 NA
HETATM   14  C   UNL     1      -4.139   4.400 -33.464  1.00  0.00     0.032 A 
BRANCH   9  15
HETATM   15  C   UNL     1       0.092   5.129 -30.242  1.00  0.00     0.270 C 
HETATM   16  N   UNL     1      -0.381   5.601 -29.049  1.00  0.00    -0.365 N 
HETATM   17  H   UNL     1      -1.216   6.175 -29.050  1.00  0.00     0.159 HD
HETATM   18  H   UNL     1       0.073   5.330 -28.192  1.00  0.00     0.159 HD
HETATM   19  O   UNL     1       1.076   4.400 -30.289  1.00  0.00    -0.266 OA
ENDBRANCH   9  15
ENDBRANCH   2   5
BRANCH   1  20
HETATM   20  C   UNL     1      -6.547   1.073 -31.655  1.00  0.00     0.112 C 
BRANCH  20  21
HETATM   21  C   UNL     1      -7.061   0.429 -32.960  1.00  0.00     0.027 C 
BRANCH  21  22
HETATM   22  C   UNL     1      -7.299   1.444 -34.099  1.00  0.00     0.005 C 
HETATM   23  C   UNL     1      -8.766   1.833 -34.247  1.00  0.00     0.006 C 
ENDBRANCH  21  22
BRANCH  21  24
HETATM   24  C   UNL     1      -6.261  -0.794 -33.385  1.00  0.00    -0.053 A 
HETATM   25  C   UNL     1      -4.956  -1.031 -32.937  1.00  0.00     0.010 A 
HETATM   26  C   UNL     1      -4.240  -2.150 -33.374  1.00  0.00     0.037 A 
HETATM   27  C   UNL     1      -4.802  -3.049 -34.279  1.00  0.00     0.068 A 
HETATM   28  C   UNL     1      -6.104  -2.832 -34.725  1.00  0.00     0.037 A 
HETATM   29  C   UNL     1      -6.826  -1.717 -34.280  1.00  0.00     0.010 A 
BRANCH  27  30
HETATM   30  O   UNL     1      -3.989  -4.086 -34.641  1.00  0.00    -0.356 OA
HETATM   31  C   UNL     1      -3.446  -4.867 -33.585  1.00  0.00     0.210 C 
ENDBRANCH  27  30
ENDBRANCH  21  24
ENDBRANCH  20  21
ENDBRANCH   1  20
TORSDOF 7
ENDMDL
MODEL 4
REMARK VINA RESULT:      -8.3      1.783      3.408
REMARK  7 active torsions:
REMARK  status: ('A' for Active; 'I' for Inactive)
REMARK    1  A    between atoms: C_2  and  C_3 
REMARK    2  A    between atoms: C_3  and  C_4 
REMARK    3  A    between atoms: C_3  and  C_12 
REMARK    4  A    between atoms: C_7  and  O_8 
REMARK    5  A    between atoms: C_12  and  C_13 
REMARK       I    between atoms: C_13  and  N_14 
REMARK    6  A    between atoms: N_14  and  C_15 
REMARK    7  A    between atoms: C_22  and  C_23 
REMARK       I    between atoms: C_23  and  N_24 
ROOT
HETATM    1  C   UNL     1      -9.110   0.421 -33.925  1.00  0.00     0.222 C 
HETATM    2  N   UNL     1      -9.869   1.417 -34.528  1.00  0.00    -0.327 N 
HETATM    3  O   UNL     1      -9.436  -0.207 -32.928  1.00  0.00    -0.273 OA
HETATM    4  H   UNL     1      -9.404   1.984 -35.224  1.00  0.00     0.169 HD
ENDROOT
BRANCH   2   5
HETATM    5  C   UNL     1     -11.177   1.814 -34.171  1.00  0.00     0.035 A 
HETATM    6  C   UNL     1     -11.456   2.648 -33.079  1.00  0.00     0.046 A 
HETATM    7  C   UNL     1     -12.794   2.992 -32.788  1.00  0.00     0.030 A 
HETATM    8  C   UNL     1     -13.805   2.501 -33.604  1.00  0.00     0.063 A 
HETATM    9  C   UNL     1     -13.463   3.765 -31.792  1.00  0.00     0.156 A 
HETATM   10  N   UNL     1     -14.963   3.015 -33.092  1.00  0.00    -0.277 N 
HETATM   11  C   UNL     1     -13.564   1.660 -34.693  1.00  0.00     0.034 A 
HETATM   12  H   UNL     1     -15.904   2.876 -33.443  1.00  0.00     0.189 HD
HETATM   13  N   UNL     1     -14.800   3.776 -31.998  1.00  0.00    -0.168 NA
HETATM   14  C   UNL     1     -12.230   1.317 -34.949  1.00  0.00     0.032 A 
BRANCH   9  15
HETATM   15  C   UNL     1     -12.860   4.476 -30.655  1.00  0.00     0.270 C 
HETATM   16  N   UNL     1     -12.301   3.655 -29.715  1.00  0.00    -0.365 N 
HETATM   17  H   UNL     1     -12.319   2.654 -29.871  1.00  0.00     0.159 HD
HETATM   18  H   UNL     1     -11.838   4.057 -28.917  1.00  0.00     0.159 HD
HETATM   19  O   UNL     1     -12.830   5.695 -30.530  1.00  0.00    -0.266 OA
ENDBRANCH   9  15
ENDBRANCH   2   5
BRANCH   1  20
HETATM   20  C   UNL     1      -7.770   0.240 -34.630  1.00  0.00     0.112 C 
BRANCH  20  21
HETATM   21  C   UNL     1      -6.684  -0.602 -33.927  1.00  0.00     0.027 C 
BRANCH  21  22
HETATM   22  C   UNL     1      -6.085  -1.709 -34.821  1.00  0.00     0.005 C 
HETATM   23  C   UNL     1      -6.805  -3.045 -34.669  1.00  0.00     0.006 C 
ENDBRANCH  21  22
BRANCH  21  24
HETATM   24  C   UNL     1      -5.638   0.241 -33.211  1.00  0.00    -0.053 A 
HETATM   25  C   UNL     1      -5.741   1.633 -33.101  1.00  0.00     0.010 A 
HETATM   26  C   UNL     1      -4.744   2.376 -32.461  1.00  0.00     0.037 A 
HETATM   27  C   UNL     1      -3.614   1.753 -31.934  1.00  0.00     0.068 A 
HETATM   28  C   UNL     1      -3.503   0.368 -32.026  1.00  0.00     0.037 A 
HETATM   29  C   UNL     1      -4.507  -0.380 -32.656  1.00  0.00     0.010 A 
BRANCH  27  30
HETATM   30  O   UNL     1      -2.707   2.597 -31.356  1.00  0.00    -0.356 OA
HETATM   31  C   UNL     1      -2.728   3.949 -31.793  1.00  0.00     0.210 C 
ENDBRANCH  27  30
ENDBRANCH  21  24
ENDBRANCH  20  21
ENDBRANCH   1  20
TORSDOF 7
ENDMDL
MODEL 5
REMARK VINA RESULT:      -8.2      2.591      4.654
REMARK  7 active torsions:
REMARK  status: ('A' for Active; 'I' for Inactive)
REMARK    1  A    between atoms: C_2  and  C_3 
REMARK    2  A    between atoms: C_3  and  C_4 
REMARK    3  A    between atoms: C_3  and  C_12 
REMARK    4  A    between atoms: C_7  and  O_8 
REMARK    5  A    between atoms: C_12  and  C_13 
REMARK       I    between atoms: C_13  and  N_14 
REMARK    6  A    between atoms: N_14  and  C_15 
REMARK    7  A    between atoms: C_22  and  C_23 
REMARK       I    between atoms: C_23  and  N_24 
ROOT
HETATM    1  C   UNL     1      -6.978  -0.735 -34.726  1.00  0.00     0.222 C 
HETATM    2  N   UNL     1      -7.955  -0.814 -33.741  1.00  0.00    -0.327 N 
HETATM    3  O   UNL     1      -6.743   0.251 -35.409  1.00  0.00    -0.273 OA
HETATM    4  H   UNL     1      -8.171  -1.737 -33.388  1.00  0.00     0.169 HD
ENDROOT
BRANCH   2   5
HETATM    5  C   UNL     1      -8.776   0.239 -33.282  1.00  0.00     0.035 A 
HETATM    6  C   UNL     1      -9.917   0.680 -33.968  1.00  0.00     0.046 A 
HETATM    7  C   UNL     1     -10.680   1.744 -33.442  1.00  0.00     0.030 A 
HETATM    8  C   UNL     1     -10.285   2.324 -32.243  1.00  0.00     0.063 A 
HETATM    9  C   UNL     1     -11.846   2.466 -33.837  1.00  0.00     0.156 A 
HETATM   10  N   UNL     1     -11.215   3.291 -31.987  1.00  0.00    -0.277 N 
HETATM   11  C   UNL     1      -9.149   1.919 -31.539  1.00  0.00     0.034 A 
HETATM   12  H   UNL     1     -11.251   3.912 -31.186  1.00  0.00     0.189 HD
HETATM   13  N   UNL     1     -12.168   3.413 -32.925  1.00  0.00    -0.168 NA
HETATM   14  C   UNL     1      -8.397   0.874 -32.091  1.00  0.00     0.032 A 
BRANCH   9  15
HETATM   15  C   UNL     1     -12.643   2.282 -35.059  1.00  0.00     0.270 C 
HETATM   16  N   UNL     1     -12.116   2.885 -36.167  1.00  0.00    -0.365 N 
HETATM   17  H   UNL     1     -11.236   3.379 -36.079  1.00  0.00     0.159 HD
HETATM   18  H   UNL     1     -12.580   2.785 -37.055  1.00  0.00     0.159 HD
HETATM   19  O   UNL     1     -13.686   1.641 -35.122  1.00  0.00    -0.266 OA
ENDBRANCH   9  15
ENDBRANCH   2   5
BRANCH   1  20
HETATM   20  C   UNL     1      -6.257  -2.068 -34.901  1.00  0.00     0.112 C 
BRANCH  20  21
HETATM   21  C   UNL     1      -5.291  -2.527 -33.788  1.00  0.00     0.027 C 
BRANCH  21  22
HETATM   22  C   UNL     1      -4.297  -3.617 -34.242  1.00  0.00     0.005 C 
HETATM   23  C   UNL     1      -3.546  -4.254 -33.078  1.00  0.00     0.006 C 
ENDBRANCH  21  22
BRANCH  21  24
HETATM   24  C   UNL     1      -4.637  -1.371 -33.043  1.00  0.00    -0.053 A 
HETATM   25  C   UNL     1      -5.122  -0.895 -31.819  1.00  0.00     0.010 A 
HETATM   26  C   UNL     1      -4.513   0.189 -31.180  1.00  0.00     0.037 A 
HETATM   27  C   UNL     1      -3.418   0.834 -31.753  1.00  0.00     0.068 A 
HETATM   28  C   UNL     1      -2.918   0.365 -32.965  1.00  0.00     0.037 A 
HETATM   29  C   UNL     1      -3.520  -0.729 -33.602  1.00  0.00     0.010 A 
BRANCH  27  30
HETATM   30  O   UNL     1      -2.932   1.891 -31.037  1.00  0.00    -0.356 OA
HETATM   31  C   UNL     1      -3.311   3.188 -31.479  1.00  0.00     0.210 C 
ENDBRANCH  27  30
ENDBRANCH  21  24
ENDBRANCH  20  21
ENDBRANCH   1  20
TORSDOF 7
ENDMDL
MODEL 6
REMARK VINA RESULT:      -8.2      2.641      3.381
REMARK  7 active torsions:
REMARK  status: ('A' for Active; 'I' for Inactive)
REMARK    1  A    between atoms: C_2  and  C_3 
REMARK    2  A    between atoms: C_3  and  C_4 
REMARK    3  A    between atoms: C_3  and  C_12 
REMARK    4  A    between atoms: C_7  and  O_8 
REMARK    5  A    between atoms: C_12  and  C_13 
REMARK       I    between atoms: C_13  and  N_14 
REMARK    6  A    between atoms: N_14  and  C_15 
REMARK    7  A    between atoms: C_22  and  C_23 
REMARK       I    between atoms: C_23  and  N_24 
ROOT
HETATM    1  C   UNL     1      -7.657   1.197 -31.921  1.00  0.00     0.222 C 
HETATM    2  N   UNL     1      -7.931   2.161 -32.883  1.00  0.00    -0.327 N 
HETATM    3  O   UNL     1      -8.483   0.452 -31.413  1.00  0.00    -0.273 OA
HETATM    4  H   UNL     1      -7.200   2.832 -33.076  1.00  0.00     0.169 HD
ENDROOT
BRANCH   2   5
HETATM    5  C   UNL     1      -9.173   2.391 -33.516  1.00  0.00     0.035 A 
HETATM    6  C   UNL     1     -10.256   1.504 -33.429  1.00  0.00     0.046 A 
HETATM    7  C   UNL     1     -11.461   1.808 -34.098  1.00  0.00     0.030 A 
HETATM    8  C   UNL     1     -11.548   2.991 -34.820  1.00  0.00     0.063 A 
HETATM    9  C   UNL     1     -12.730   1.176 -34.265  1.00  0.00     0.156 A 
HETATM   10  N   UNL     1     -12.818   3.013 -35.324  1.00  0.00    -0.277 N 
HETATM   11  C   UNL     1     -10.487   3.891 -34.937  1.00  0.00     0.034 A 
HETATM   12  H   UNL     1     -13.239   3.737 -35.895  1.00  0.00     0.189 HD
HETATM   13  N   UNL     1     -13.559   1.936 -35.018  1.00  0.00    -0.168 NA
HETATM   14  C   UNL     1      -9.295   3.559 -34.281  1.00  0.00     0.032 A 
BRANCH   9  15
HETATM   15  C   UNL     1     -13.160  -0.127 -33.737  1.00  0.00     0.270 C 
HETATM   16  N   UNL     1     -14.484  -0.404 -33.942  1.00  0.00    -0.365 N 
HETATM   17  H   UNL     1     -15.050   0.270 -34.443  1.00  0.00     0.159 HD
HETATM   18  H   UNL     1     -14.858  -1.289 -33.640  1.00  0.00     0.159 HD
HETATM   19  O   UNL     1     -12.426  -0.927 -33.169  1.00  0.00    -0.266 OA
ENDBRANCH   9  15
ENDBRANCH   2   5
BRANCH   1  20
HETATM   20  C   UNL     1      -6.185   1.215 -31.521  1.00  0.00     0.112 C 
BRANCH  20  21
HETATM   21  C   UNL     1      -5.125   1.047 -32.630  1.00  0.00     0.027 C 
BRANCH  21  22
HETATM   22  C   UNL     1      -3.717   1.529 -32.218  1.00  0.00     0.005 C 
HETATM   23  C   UNL     1      -3.494   3.011 -32.504  1.00  0.00     0.006 C 
ENDBRANCH  21  22
BRANCH  21  24
HETATM   24  C   UNL     1      -5.138  -0.334 -33.272  1.00  0.00    -0.053 A 
HETATM   25  C   UNL     1      -6.122  -0.729 -34.185  1.00  0.00     0.010 A 
HETATM   26  C   UNL     1      -6.118  -2.017 -34.730  1.00  0.00     0.037 A 
HETATM   27  C   UNL     1      -5.144  -2.945 -34.364  1.00  0.00     0.068 A 
HETATM   28  C   UNL     1      -4.151  -2.562 -33.465  1.00  0.00     0.037 A 
HETATM   29  C   UNL     1      -4.148  -1.269 -32.927  1.00  0.00     0.010 A 
BRANCH  27  30
HETATM   30  O   UNL     1      -5.267  -4.172 -34.953  1.00  0.00    -0.356 OA
HETATM   31  C   UNL     1      -6.554  -4.512 -35.451  1.00  0.00     0.210 C 
ENDBRANCH  27  30
ENDBRANCH  21  24
ENDBRANCH  20  21
ENDBRANCH   1  20
TORSDOF 7
ENDMDL
MODEL 7
REMARK VINA RESULT:      -8.1      1.697      2.491
REMARK  7 active torsions:
REMARK  status: ('A' for Active; 'I' for Inactive)
REMARK    1  A    between atoms: C_2  and  C_3 
REMARK    2  A    between atoms: C_3  and  C_4 
REMARK    3  A    between atoms: C_3  and  C_12 
REMARK    4  A    between atoms: C_7  and  O_8 
REMARK    5  A    between atoms: C_12  and  C_13 
REMARK       I    between atoms: C_13  and  N_14 
REMARK    6  A    between atoms: N_14  and  C_15 
REMARK    7  A    between atoms: C_22  and  C_23 
REMARK       I    between atoms: C_23  and  N_24 
ROOT
HETATM    1  C   UNL     1      -8.633   1.204 -34.063  1.00  0.00     0.222 C 
HETATM    2  N   UNL     1      -9.205   2.465 -33.944  1.00  0.00    -0.327 N 
HETATM    3  O   UNL     1      -9.142   0.159 -33.682  1.00  0.00    -0.273 OA
HETATM    4  H   UNL     1      -8.601   3.256 -34.123  1.00  0.00     0.169 HD
ENDROOT
BRANCH   2   5
HETATM    5  C   UNL     1     -10.499   2.761 -33.462  1.00  0.00     0.035 A 
HETATM    6  C   UNL     1     -11.612   1.940 -33.694  1.00  0.00     0.046 A 
HETATM    7  C   UNL     1     -12.873   2.313 -33.180  1.00  0.00     0.030 A 
HETATM    8  C   UNL     1     -12.976   3.485 -32.443  1.00  0.00     0.063 A 
HETATM    9  C   UNL     1     -14.196   1.780 -33.218  1.00  0.00     0.156 A 
HETATM   10  N   UNL     1     -14.289   3.563 -32.071  1.00  0.00    -0.277 N 
HETATM   11  C   UNL     1     -11.892   4.332 -32.202  1.00  0.00     0.034 A 
HETATM   12  H   UNL     1     -14.726   4.286 -31.511  1.00  0.00     0.189 HD
HETATM   13  N   UNL     1     -15.058   2.558 -32.523  1.00  0.00    -0.168 NA
HETATM   14  C   UNL     1     -10.655   3.951 -32.739  1.00  0.00     0.032 A 
BRANCH   9  15
HETATM   15  C   UNL     1     -14.653   0.563 -33.905  1.00  0.00     0.270 C 
HETATM   16  N   UNL     1     -14.071  -0.588 -33.450  1.00  0.00    -0.365 N 
HETATM   17  H   UNL     1     -13.408  -0.528 -32.686  1.00  0.00     0.159 HD
HETATM   18  H   UNL     1     -14.348  -1.473 -33.842  1.00  0.00     0.159 HD
HETATM   19  O   UNL     1     -15.488   0.538 -34.802  1.00  0.00    -0.266 OA
ENDBRANCH   9  15
ENDBRANCH   2   5
BRANCH   1  20
HETATM   20  C   UNL     1      -7.241   1.282 -34.683  1.00  0.00     0.112 C 
BRANCH  20  21
HETATM   21  C   UNL     1      -6.029   0.902 -33.806  1.00  0.00     0.027 C 
BRANCH  21  22
HETATM   22  C   UNL     1      -6.150   1.381 -32.343  1.00  0.00     0.005 C 
HETATM   23  C   UNL     1      -5.025   2.325 -31.935  1.00  0.00     0.006 C 
ENDBRANCH  21  22
BRANCH  21  24
HETATM   24  C   UNL     1      -5.620  -0.558 -33.942  1.00  0.00    -0.053 A 
HETATM   25  C   UNL     1      -4.515  -1.095 -33.271  1.00  0.00     0.010 A 
HETATM   26  C   UNL     1      -4.152  -2.434 -33.445  1.00  0.00     0.037 A 
HETATM   27  C   UNL     1      -4.870  -3.263 -34.305  1.00  0.00     0.068 A 
HETATM   28  C   UNL     1      -5.979  -2.746 -34.971  1.00  0.00     0.037 A 
HETATM   29  C   UNL     1      -6.351  -1.408 -34.789  1.00  0.00     0.010 A 
BRANCH  27  30
HETATM   30  O   UNL     1      -4.397  -4.542 -34.401  1.00  0.00    -0.356 OA
HETATM   31  C   UNL     1      -3.307  -4.882 -33.555  1.00  0.00     0.210 C 
ENDBRANCH  27  30
ENDBRANCH  21  24
ENDBRANCH  20  21
ENDBRANCH   1  20
TORSDOF 7
ENDMDL
MODEL 8
REMARK VINA RESULT:      -8.1      5.394      8.269
REMARK  7 active torsions:
REMARK  status: ('A' for Active; 'I' for Inactive)
REMARK    1  A    between atoms: C_2  and  C_3 
REMARK    2  A    between atoms: C_3  and  C_4 
REMARK    3  A    between atoms: C_3  and  C_12 
REMARK    4  A    between atoms: C_7  and  O_8 
REMARK    5  A    between atoms: C_12  and  C_13 
REMARK       I    between atoms: C_13  and  N_14 
REMARK    6  A    between atoms: N_14  and  C_15 
REMARK    7  A    between atoms: C_22  and  C_23 
REMARK       I    between atoms: C_23  and  N_24 
ROOT
HETATM    1  C   UNL     1      -5.562   3.667 -33.832  1.00  0.00     0.222 C 
HETATM    2  N   UNL     1      -4.603   3.466 -32.846  1.00  0.00    -0.327 N 
HETATM    3  O   UNL     1      -5.647   4.659 -34.541  1.00  0.00    -0.273 OA
HETATM    4  H   UNL     1      -4.761   2.697 -32.209  1.00  0.00     0.169 HD
ENDROOT
BRANCH   2   5
HETATM    5  C   UNL     1      -3.507   4.307 -32.553  1.00  0.00     0.035 A 
HETATM    6  C   UNL     1      -3.417   5.073 -31.382  1.00  0.00     0.046 A 
HETATM    7  C   UNL     1      -2.288   5.892 -31.169  1.00  0.00     0.030 A 
HETATM    8  C   UNL     1      -1.281   5.908 -32.126  1.00  0.00     0.063 A 
HETATM    9  C   UNL     1      -1.854   6.801 -30.158  1.00  0.00     0.156 A 
HETATM   10  N   UNL     1      -0.332   6.760 -31.637  1.00  0.00    -0.277 N 
HETATM   11  C   UNL     1      -1.342   5.167 -33.308  1.00  0.00     0.034 A 
HETATM   12  H   UNL     1       0.552   7.007 -32.067  1.00  0.00     0.189 HD
HETATM   13  N   UNL     1      -0.641   7.323 -30.457  1.00  0.00    -0.168 NA
HETATM   14  C   UNL     1      -2.482   4.377 -33.506  1.00  0.00     0.032 A 
BRANCH   9  15
HETATM   15  C   UNL     1      -2.568   7.186 -28.933  1.00  0.00     0.270 C 
HETATM   16  N   UNL     1      -1.906   6.872 -27.777  1.00  0.00    -0.365 N 
HETATM   17  H   UNL     1      -0.995   6.434 -27.843  1.00  0.00     0.159 HD
HETATM   18  H   UNL     1      -2.307   7.127 -26.890  1.00  0.00     0.159 HD
HETATM   19  O   UNL     1      -3.655   7.751 -28.905  1.00  0.00    -0.266 OA
ENDBRANCH   9  15
ENDBRANCH   2   5
BRANCH   1  20
HETATM   20  C   UNL     1      -6.554   2.509 -33.887  1.00  0.00     0.112 C 
BRANCH  20  21
HETATM   21  C   UNL     1      -6.422   1.386 -32.837  1.00  0.00     0.027 C 
BRANCH  21  22
HETATM   22  C   UNL     1      -7.574   1.361 -31.809  1.00  0.00     0.005 C 
HETATM   23  C   UNL     1      -7.414   2.412 -30.716  1.00  0.00     0.006 C 
ENDBRANCH  21  22
BRANCH  21  24
HETATM   24  C   UNL     1      -6.113   0.025 -33.446  1.00  0.00    -0.053 A 
HETATM   25  C   UNL     1      -7.081  -0.737 -34.111  1.00  0.00     0.010 A 
HETATM   26  C   UNL     1      -6.767  -1.997 -34.631  1.00  0.00     0.037 A 
HETATM   27  C   UNL     1      -5.489  -2.533 -34.484  1.00  0.00     0.068 A 
HETATM   28  C   UNL     1      -4.513  -1.782 -33.834  1.00  0.00     0.037 A 
HETATM   29  C   UNL     1      -4.822  -0.514 -33.323  1.00  0.00     0.010 A 
BRANCH  27  30
HETATM   30  O   UNL     1      -5.323  -3.780 -35.018  1.00  0.00    -0.356 OA
HETATM   31  C   UNL     1      -6.506  -4.495 -35.347  1.00  0.00     0.210 C 
ENDBRANCH  27  30
ENDBRANCH  21  24
ENDBRANCH  20  21
ENDBRANCH   1  20
TORSDOF 7
ENDMDL
MODEL 9
REMARK VINA RESULT:      -7.9      4.678      7.587
REMARK  7 active torsions:
REMARK  status: ('A' for Active; 'I' for Inactive)
REMARK    1  A    between atoms: C_2  and  C_3 
REMARK    2  A    between atoms: C_3  and  C_4 
REMARK    3  A    between atoms: C_3  and  C_12 
REMARK    4  A    between atoms: C_7  and  O_8 
REMARK    5  A    between atoms: C_12  and  C_13 
REMARK       I    between atoms: C_13  and  N_14 
REMARK    6  A    between atoms: N_14  and  C_15 
REMARK    7  A    between atoms: C_22  and  C_23 
REMARK       I    between atoms: C_23  and  N_24 
ROOT
HETATM    1  C   UNL     1      -6.466   2.669 -33.866  1.00  0.00     0.222 C 
HETATM    2  N   UNL     1      -5.688   2.477 -32.730  1.00  0.00    -0.327 N 
HETATM    3  O   UNL     1      -6.837   3.753 -34.293  1.00  0.00    -0.273 OA
HETATM    4  H   UNL     1      -5.615   1.530 -32.384  1.00  0.00     0.169 HD
ENDROOT
BRANCH   2   5
HETATM    5  C   UNL     1      -5.107   3.484 -31.928  1.00  0.00     0.035 A 
HETATM    6  C   UNL     1      -3.794   3.945 -32.104  1.00  0.00     0.046 A 
HETATM    7  C   UNL     1      -3.289   4.951 -31.254  1.00  0.00     0.030 A 
HETATM    8  C   UNL     1      -4.114   5.471 -30.266  1.00  0.00     0.063 A 
HETATM    9  C   UNL     1      -2.048   5.641 -31.103  1.00  0.00     0.156 A 
HETATM   10  N   UNL     1      -3.365   6.423 -29.633  1.00  0.00    -0.277 N 
HETATM   11  C   UNL     1      -5.422   5.029 -30.055  1.00  0.00     0.034 A 
HETATM   12  H   UNL     1      -3.650   7.018 -28.864  1.00  0.00     0.189 HD
HETATM   13  N   UNL     1      -2.113   6.552 -30.104  1.00  0.00    -0.168 NA
HETATM   14  C   UNL     1      -5.895   4.016 -30.899  1.00  0.00     0.032 A 
BRANCH   9  15
HETATM   15  C   UNL     1      -0.813   5.444 -31.875  1.00  0.00     0.270 C 
HETATM   16  N   UNL     1      -0.845   5.991 -33.129  1.00  0.00    -0.365 N 
HETATM   17  H   UNL     1      -1.675   6.494 -33.419  1.00  0.00     0.159 HD
HETATM   18  H   UNL     1      -0.030   5.932 -33.717  1.00  0.00     0.159 HD
HETATM   19  O   UNL     1       0.183   4.859 -31.465  1.00  0.00    -0.266 OA
ENDBRANCH   9  15
ENDBRANCH   2   5
BRANCH   1  20
HETATM   20  C   UNL     1      -6.862   1.338 -34.499  1.00  0.00     0.112 C 
BRANCH  20  21
HETATM   21  C   UNL     1      -7.283   0.183 -33.565  1.00  0.00     0.027 C 
BRANCH  21  22
HETATM   22  C   UNL     1      -8.812  -0.016 -33.479  1.00  0.00     0.005 C 
HETATM   23  C   UNL     1      -9.392   0.436 -32.143  1.00  0.00     0.006 C 
ENDBRANCH  21  22
BRANCH  21  24
HETATM   24  C   UNL     1      -6.510  -1.105 -33.813  1.00  0.00    -0.053 A 
HETATM   25  C   UNL     1      -5.166  -1.256 -33.450  1.00  0.00     0.010 A 
HETATM   26  C   UNL     1      -4.480  -2.444 -33.722  1.00  0.00     0.037 A 
HETATM   27  C   UNL     1      -5.111  -3.500 -34.376  1.00  0.00     0.068 A 
HETATM   28  C   UNL     1      -6.451  -3.369 -34.733  1.00  0.00     0.037 A 
HETATM   29  C   UNL     1      -7.143  -2.183 -34.452  1.00  0.00     0.010 A 
BRANCH  27  30
HETATM   30  O   UNL     1      -4.322  -4.594 -34.600  1.00  0.00    -0.356 OA
HETATM   31  C   UNL     1      -3.275  -4.824 -33.667  1.00  0.00     0.210 C 
ENDBRANCH  27  30
ENDBRANCH  21  24
ENDBRANCH  20  21
ENDBRANCH   1  20
TORSDOF 7
ENDMDL
MODEL 10
REMARK VINA RESULT:      -7.7      2.089      3.325
REMARK  7 active torsions:
REMARK  status: ('A' for Active; 'I' for Inactive)
REMARK    1  A    between atoms: C_2  and  C_3 
REMARK    2  A    between atoms: C_3  and  C_4 
REMARK    3  A    between atoms: C_3  and  C_12 
REMARK    4  A    between atoms: C_7  and  O_8 
REMARK    5  A    between atoms: C_12  and  C_13 
REMARK       I    between atoms: C_13  and  N_14 
REMARK    6  A    between atoms: N_14  and  C_15 
REMARK    7  A    between atoms: C_22  and  C_23 
REMARK       I    between atoms: C_23  and  N_24 
ROOT
HETATM    1  C   UNL     1      -7.745   1.257 -31.334  1.00  0.00     0.222 C 
HETATM    2  N   UNL     1      -8.179   2.575 -31.393  1.00  0.00    -0.327 N 
HETATM    3  O   UNL     1      -8.469   0.273 -31.369  1.00  0.00    -0.273 OA
HETATM    4  H   UNL     1      -7.500   3.289 -31.163  1.00  0.00     0.169 HD
ENDROOT
BRANCH   2   5
HETATM    5  C   UNL     1      -9.504   3.018 -31.602  1.00  0.00     0.035 A 
HETATM    6  C   UNL     1     -10.222   2.767 -32.780  1.00  0.00     0.046 A 
HETATM    7  C   UNL     1     -11.542   3.250 -32.908  1.00  0.00     0.030 A 
HETATM    8  C   UNL     1     -12.104   3.956 -31.852  1.00  0.00     0.063 A 
HETATM    9  C   UNL     1     -12.552   3.224 -33.917  1.00  0.00     0.156 A 
HETATM   10  N   UNL     1     -13.371   4.266 -32.259  1.00  0.00    -0.277 N 
HETATM   11  C   UNL     1     -11.415   4.233 -30.669  1.00  0.00     0.034 A 
HETATM   12  H   UNL     1     -14.077   4.771 -31.736  1.00  0.00     0.189 HD
HETATM   13  N   UNL     1     -13.677   3.848 -33.498  1.00  0.00    -0.168 NA
HETATM   14  C   UNL     1     -10.099   3.760 -30.573  1.00  0.00     0.032 A 
BRANCH   9  15
HETATM   15  C   UNL     1     -12.463   2.632 -35.259  1.00  0.00     0.270 C 
HETATM   16  N   UNL     1     -11.669   3.331 -36.127  1.00  0.00    -0.365 N 
HETATM   17  H   UNL     1     -11.197   4.163 -35.791  1.00  0.00     0.159 HD
HETATM   18  H   UNL     1     -11.525   2.982 -37.060  1.00  0.00     0.159 HD
HETATM   19  O   UNL     1     -13.024   1.600 -35.607  1.00  0.00    -0.266 OA
ENDBRANCH   9  15
ENDBRANCH   2   5
BRANCH   1  20
HETATM   20  C   UNL     1      -6.231   1.178 -31.158  1.00  0.00     0.112 C 
BRANCH  20  21
HETATM   21  C   UNL     1      -5.349   1.163 -32.424  1.00  0.00     0.027 C 
BRANCH  21  22
HETATM   22  C   UNL     1      -3.936   1.744 -32.200  1.00  0.00     0.005 C 
HETATM   23  C   UNL     1      -3.790   3.165 -32.735  1.00  0.00     0.006 C 
ENDBRANCH  21  22
BRANCH  21  24
HETATM   24  C   UNL     1      -5.354  -0.177 -33.147  1.00  0.00    -0.053 A 
HETATM   25  C   UNL     1      -4.334  -1.121 -32.986  1.00  0.00     0.010 A 
HETATM   26  C   UNL     1      -4.358  -2.329 -33.691  1.00  0.00     0.037 A 
HETATM   27  C   UNL     1      -5.389  -2.615 -34.584  1.00  0.00     0.068 A 
HETATM   28  C   UNL     1      -6.417  -1.690 -34.746  1.00  0.00     0.037 A 
HETATM   29  C   UNL     1      -6.400  -0.484 -34.032  1.00  0.00     0.010 A 
BRANCH  27  30
HETATM   30  O   UNL     1      -5.280  -3.818 -35.223  1.00  0.00    -0.356 OA
HETATM   31  C   UNL     1      -6.483  -4.552 -35.407  1.00  0.00     0.210 C 
ENDBRANCH  27  30
ENDBRANCH  21  24
ENDBRANCH  20  21
ENDBRANCH   1  20
TORSDOF 7
ENDMDL
