MODEL 1
REMARK VINA RESULT:      -9.2      0.000      0.000
REMARK  4 active torsions:
REMARK  status: ('A' for Active; 'I' for Inactive)
REMARK    1  A    between atoms: C_2  and  C_3 
REMARK    2  A    between atoms: C_6  and  C_7 
REMARK    3  A    between atoms: C_11  and  C_12 
REMARK       I    between atoms: C_12  and  N_13 
REMARK    4  A    between atoms: N_13  and  N_14 
ROOT
HETATM    1  C   UNL     1      -4.715   4.660 -30.779  1.00  0.00     0.289 C 
HETATM    2  N   UNL     1      -3.605   5.401 -31.149  1.00  0.00    -0.241 N 
HETATM    3  O   UNL     1      -5.369   4.860 -29.759  1.00  0.00    -0.264 OA
HETATM    4  H   UNL     1      -3.085   5.172 -31.995  1.00  0.00     0.192 HD
ENDROOT
BRANCH   1   5
HETATM    5  C   UNL     1      -5.065   3.597 -31.688  1.00  0.00     0.121 A 
HETATM    6  N   UNL     1      -5.861   3.833 -32.772  1.00  0.00    -0.272 N 
HETATM    7  N   UNL     1      -6.114   2.749 -33.517  1.00  0.00    -0.174 NA
HETATM    8  H   UNL     1      -6.265   4.724 -33.043  1.00  0.00     0.189 HD
HETATM    9  C   UNL     1      -5.438   1.756 -32.917  1.00  0.00     0.089 A 
HETATM   10  C   UNL     1      -4.769   2.249 -31.758  1.00  0.00     0.071 A 
BRANCH   9  11
HETATM   11  C   UNL     1      -5.450   0.389 -33.450  1.00  0.00    -0.006 A 
HETATM   12  C   UNL     1      -6.505  -0.072 -34.250  1.00  0.00     0.014 A 
HETATM   13  C   UNL     1      -6.506  -1.381 -34.747  1.00  0.00     0.008 A 
HETATM   14  C   UNL     1      -5.454  -2.256 -34.451  1.00  0.00    -0.059 A 
HETATM   15  C   UNL     1      -4.396  -1.798 -33.660  1.00  0.00     0.008 A 
HETATM   16  C   UNL     1      -4.398  -0.491 -33.162  1.00  0.00     0.014 A 
BRANCH  14  17
HETATM   17  C   UNL     1      -5.449  -3.661 -34.995  1.00  0.00     0.034 C 
HETATM   18  C   UNL     1      -6.839  -4.277 -34.987  1.00  0.00     0.010 C 
ENDBRANCH  14  17
ENDBRANCH   9  11
ENDBRANCH   1   5
BRANCH   2  19
HETATM   19  N   UNL     1      -3.169   6.433 -30.364  1.00  0.00    -0.165 NA
HETATM   20  C   UNL     1      -1.909   6.446 -30.067  1.00  0.00     0.157 A 
HETATM   21  C   UNL     1      -0.824   5.446 -30.478  1.00  0.00     0.277 A 
HETATM   22  C   UNL     1      -1.240   7.446 -29.247  1.00  0.00     0.027 A 
HETATM   23  O   UNL     1      -1.012   4.472 -31.176  1.00  0.00    -0.266 OA
HETATM   24  N   UNL     1       0.339   5.902 -29.896  1.00  0.00    -0.321 N 
HETATM   25  C   UNL     1       0.101   7.071 -29.176  1.00  0.00     0.048 A 
HETATM   26  H   UNL     1       1.230   5.438 -29.992  1.00  0.00     0.169 HD
HETATM   27  C   UNL     1       1.015   7.818 -28.464  1.00  0.00     0.030 A 
HETATM   28  C   UNL     1       0.541   8.967 -27.817  1.00  0.00     0.002 A 
HETATM   29  C   UNL     1      -0.817   9.341 -27.895  1.00  0.00     0.001 A 
HETATM   30  C   UNL     1      -1.732   8.573 -28.619  1.00  0.00     0.016 A 
ENDBRANCH   2  19
TORSDOF 4
ENDMDL
MODEL 2
REMARK VINA RESULT:      -9.1      1.853      9.786
REMARK  4 active torsions:
REMARK  status: ('A' for Active; 'I' for Inactive)
REMARK    1  A    between atoms: C_2  and  C_3 
REMARK    2  A    between atoms: C_6  and  C_7 
REMARK    3  A    between atoms: C_11  and  C_12 
REMARK       I    between atoms: C_12  and  N_13 
REMARK    4  A    between atoms: N_13  and  N_14 
ROOT
HETATM    1  C   UNL     1      -4.823   3.819 -32.893  1.00  0.00     0.289 C 
HETATM    2  N   UNL     1      -4.927   2.574 -32.294  1.00  0.00    -0.241 N 
HETATM    3  O   UNL     1      -5.265   4.086 -34.008  1.00  0.00    -0.264 OA
HETATM    4  H   UNL     1      -4.518   2.403 -31.376  1.00  0.00     0.192 HD
ENDROOT
BRANCH   1   5
HETATM    5  C   UNL     1      -4.135   4.814 -32.109  1.00  0.00     0.121 A 
HETATM    6  N   UNL     1      -4.737   5.998 -31.792  1.00  0.00    -0.272 N 
HETATM    7  N   UNL     1      -3.972   6.831 -31.073  1.00  0.00    -0.174 NA
HETATM    8  H   UNL     1      -5.675   6.289 -32.052  1.00  0.00     0.189 HD
HETATM    9  C   UNL     1      -2.824   6.162 -30.885  1.00  0.00     0.089 A 
HETATM   10  C   UNL     1      -2.885   4.891 -31.527  1.00  0.00     0.071 A 
BRANCH   9  11
HETATM   11  C   UNL     1      -1.717   6.743 -30.115  1.00  0.00    -0.006 A 
HETATM   12  C   UNL     1      -0.462   6.121 -30.061  1.00  0.00     0.014 A 
HETATM   13  C   UNL     1       0.583   6.685 -29.318  1.00  0.00     0.008 A 
HETATM   14  C   UNL     1       0.392   7.878 -28.612  1.00  0.00    -0.059 A 
HETATM   15  C   UNL     1      -0.856   8.506 -28.669  1.00  0.00     0.008 A 
HETATM   16  C   UNL     1      -1.899   7.940 -29.409  1.00  0.00     0.014 A 
BRANCH  14  17
HETATM   17  C   UNL     1       1.519   8.491 -27.821  1.00  0.00     0.034 C 
HETATM   18  C   UNL     1       1.679   7.834 -26.459  1.00  0.00     0.010 C 
ENDBRANCH  14  17
ENDBRANCH   9  11
ENDBRANCH   1   5
BRANCH   2  19
HETATM   19  N   UNL     1      -5.552   1.545 -32.942  1.00  0.00    -0.165 NA
HETATM   20  C   UNL     1      -4.918   0.418 -32.991  1.00  0.00     0.157 A 
HETATM   21  C   UNL     1      -3.538   0.076 -32.419  1.00  0.00     0.277 A 
HETATM   22  C   UNL     1      -5.397  -0.800 -33.630  1.00  0.00     0.027 A 
HETATM   23  O   UNL     1      -2.834   0.851 -31.807  1.00  0.00    -0.266 OA
HETATM   24  N   UNL     1      -3.317  -1.243 -32.750  1.00  0.00    -0.321 N 
HETATM   25  C   UNL     1      -4.400  -1.759 -33.458  1.00  0.00     0.048 A 
HETATM   26  H   UNL     1      -2.478  -1.747 -32.503  1.00  0.00     0.169 HD
HETATM   27  C   UNL     1      -4.546  -3.038 -33.953  1.00  0.00     0.030 A 
HETATM   28  C   UNL     1      -5.734  -3.331 -34.635  1.00  0.00     0.002 A 
HETATM   29  C   UNL     1      -6.739  -2.355 -34.804  1.00  0.00     0.001 A 
HETATM   30  C   UNL     1      -6.576  -1.064 -34.297  1.00  0.00     0.016 A 
ENDBRANCH   2  19
TORSDOF 4
ENDMDL
MODEL 3
REMARK VINA RESULT:      -9.1      7.310     10.341
REMARK  4 active torsions:
REMARK  status: ('A' for Active; 'I' for Inactive)
REMARK    1  A    between atoms: C_2  and  C_3 
REMARK    2  A    between atoms: C_6  and  C_7 
REMARK    3  A    between atoms: C_11  and  C_12 
REMARK       I    between atoms: C_12  and  N_13 
REMARK    4  A    between atoms: N_13  and  N_14 
ROOT
HETATM    1  C   UNL     1     -10.184   2.254 -32.702  1.00  0.00     0.289 C 
HETATM    2  N   UNL     1     -11.401   2.336 -33.358  1.00  0.00    -0.241 N 
HETATM    3  O   UNL     1      -9.911   2.869 -31.674  1.00  0.00    -0.264 OA
HETATM    4  H   UNL     1     -11.562   1.822 -34.223  1.00  0.00     0.192 HD
ENDROOT
BRANCH   1   5
HETATM    5  C   UNL     1      -9.218   1.381 -33.323  1.00  0.00     0.121 A 
HETATM    6  N   UNL     1      -9.028   1.392 -34.675  1.00  0.00    -0.272 N 
HETATM    7  N   UNL     1      -8.111   0.519 -35.111  1.00  0.00    -0.174 NA
HETATM    8  H   UNL     1      -9.512   1.979 -35.349  1.00  0.00     0.189 HD
HETATM    9  C   UNL     1      -7.656  -0.080 -33.999  1.00  0.00     0.089 A 
HETATM   10  C   UNL     1      -8.332   0.431 -32.853  1.00  0.00     0.071 A 
BRANCH   9  11
HETATM   11  C   UNL     1      -6.610  -1.109 -34.057  1.00  0.00    -0.006 A 
HETATM   12  C   UNL     1      -5.314  -0.858 -33.586  1.00  0.00     0.014 A 
HETATM   13  C   UNL     1      -4.325  -1.848 -33.653  1.00  0.00     0.008 A 
HETATM   14  C   UNL     1      -4.612  -3.105 -34.197  1.00  0.00    -0.059 A 
HETATM   15  C   UNL     1      -5.905  -3.362 -34.662  1.00  0.00     0.008 A 
HETATM   16  C   UNL     1      -6.891  -2.372 -34.596  1.00  0.00     0.014 A 
BRANCH  14  17
HETATM   17  C   UNL     1      -3.551  -4.174 -34.260  1.00  0.00     0.034 C 
HETATM   18  C   UNL     1      -3.871  -5.344 -33.343  1.00  0.00     0.010 C 
ENDBRANCH  14  17
ENDBRANCH   9  11
ENDBRANCH   1   5
BRANCH   2  19
HETATM   19  N   UNL     1     -12.397   3.138 -32.870  1.00  0.00    -0.165 NA
HETATM   20  C   UNL     1     -13.590   2.636 -32.849  1.00  0.00     0.157 A 
HETATM   21  C   UNL     1     -14.047   1.248 -33.308  1.00  0.00     0.277 A 
HETATM   22  C   UNL     1     -14.788   3.314 -32.375  1.00  0.00     0.027 A 
HETATM   23  O   UNL     1     -13.313   0.395 -33.762  1.00  0.00    -0.266 OA
HETATM   24  N   UNL     1     -15.407   1.215 -33.088  1.00  0.00    -0.321 N 
HETATM   25  C   UNL     1     -15.845   2.420 -32.543  1.00  0.00     0.048 A 
HETATM   26  H   UNL     1     -15.987   0.416 -33.299  1.00  0.00     0.169 HD
HETATM   27  C   UNL     1     -17.132   2.760 -32.186  1.00  0.00     0.030 A 
HETATM   28  C   UNL     1     -17.334   4.039 -31.650  1.00  0.00     0.002 A 
HETATM   29  C   UNL     1     -16.259   4.938 -31.482  1.00  0.00     0.001 A 
HETATM   30  C   UNL     1     -14.960   4.579 -31.849  1.00  0.00     0.016 A 
ENDBRANCH   2  19
TORSDOF 4
ENDMDL
MODEL 4
REMARK VINA RESULT:      -8.7      1.780     10.216
REMARK  4 active torsions:
REMARK  status: ('A' for Active; 'I' for Inactive)
REMARK    1  A    between atoms: C_2  and  C_3 
REMARK    2  A    between atoms: C_6  and  C_7 
REMARK    3  A    between atoms: C_11  and  C_12 
REMARK       I    between atoms: C_12  and  N_13 
REMARK    4  A    between atoms: N_13  and  N_14 
ROOT
HETATM    1  C   UNL     1      -2.558   3.877 -32.121  1.00  0.00     0.289 C 
HETATM    2  N   UNL     1      -3.142   2.774 -31.519  1.00  0.00    -0.241 N 
HETATM    3  O   UNL     1      -2.425   4.009 -33.335  1.00  0.00    -0.264 OA
HETATM    4  H   UNL     1      -3.202   2.707 -30.504  1.00  0.00     0.192 HD
ENDROOT
BRANCH   1   5
HETATM    5  C   UNL     1      -2.092   4.891 -31.209  1.00  0.00     0.121 A 
HETATM    6  N   UNL     1      -2.781   6.059 -31.045  1.00  0.00    -0.272 N 
HETATM    7  N   UNL     1      -2.221   6.913 -30.178  1.00  0.00    -0.174 NA
HETATM    8  H   UNL     1      -3.642   6.324 -31.515  1.00  0.00     0.189 HD
HETATM    9  C   UNL     1      -1.129   6.275 -29.728  1.00  0.00     0.089 A 
HETATM   10  C   UNL     1      -1.010   5.002 -30.358  1.00  0.00     0.071 A 
BRANCH   9  11
HETATM   11  C   UNL     1      -0.241   6.886 -28.732  1.00  0.00    -0.006 A 
HETATM   12  C   UNL     1       0.650   7.910 -29.080  1.00  0.00     0.014 A 
HETATM   13  C   UNL     1       1.495   8.479 -28.119  1.00  0.00     0.008 A 
HETATM   14  C   UNL     1       1.468   8.034 -26.793  1.00  0.00    -0.059 A 
HETATM   15  C   UNL     1       0.575   7.018 -26.439  1.00  0.00     0.008 A 
HETATM   16  C   UNL     1      -0.266   6.448 -27.400  1.00  0.00     0.014 A 
BRANCH  14  17
HETATM   17  C   UNL     1       2.369   8.654 -25.756  1.00  0.00     0.034 C 
HETATM   18  C   UNL     1       1.679   9.785 -25.010  1.00  0.00     0.010 C 
ENDBRANCH  14  17
ENDBRANCH   9  11
ENDBRANCH   1   5
BRANCH   2  19
HETATM   19  N   UNL     1      -3.616   1.741 -32.279  1.00  0.00    -0.165 NA
HETATM   20  C   UNL     1      -4.895   1.541 -32.256  1.00  0.00     0.157 A 
HETATM   21  C   UNL     1      -5.965   2.314 -31.478  1.00  0.00     0.277 A 
HETATM   22  C   UNL     1      -5.606   0.500 -32.985  1.00  0.00     0.027 A 
HETATM   23  O   UNL     1      -5.743   3.263 -30.756  1.00  0.00    -0.266 OA
HETATM   24  N   UNL     1      -7.160   1.700 -31.784  1.00  0.00    -0.321 N 
HETATM   25  C   UNL     1      -6.956   0.640 -32.665  1.00  0.00     0.048 A 
HETATM   26  H   UNL     1      -8.051   1.995 -31.411  1.00  0.00     0.169 HD
HETATM   27  C   UNL     1      -7.907  -0.203 -33.198  1.00  0.00     0.030 A 
HETATM   28  C   UNL     1      -7.462  -1.204 -34.072  1.00  0.00     0.002 A 
HETATM   29  C   UNL     1      -6.094  -1.338 -34.392  1.00  0.00     0.001 A 
HETATM   30  C   UNL     1      -5.142  -0.476 -33.843  1.00  0.00     0.016 A 
ENDBRANCH   2  19
TORSDOF 4
ENDMDL
MODEL 5
REMARK VINA RESULT:      -8.7      1.944      9.991
REMARK  4 active torsions:
REMARK  status: ('A' for Active; 'I' for Inactive)
REMARK    1  A    between atoms: C_2  and  C_3 
REMARK    2  A    between atoms: C_6  and  C_7 
REMARK    3  A    between atoms: C_11  and  C_12 
REMARK       I    between atoms: C_12  and  N_13 
REMARK    4  A    between atoms: N_13  and  N_14 
ROOT
HETATM    1  C   UNL     1      -3.764   5.390 -33.161  1.00  0.00     0.289 C 
HETATM    2  N   UNL     1      -4.202   4.209 -32.585  1.00  0.00    -0.241 N 
HETATM    3  O   UNL     1      -4.167   5.823 -34.238  1.00  0.00    -0.264 OA
HETATM    4  H   UNL     1      -3.813   3.886 -31.701  1.00  0.00     0.192 HD
ENDROOT
BRANCH   1   5
HETATM    5  C   UNL     1      -2.767   6.102 -32.402  1.00  0.00     0.121 A 
HETATM    6  N   UNL     1      -1.643   6.593 -33.004  1.00  0.00    -0.272 N 
HETATM    7  N   UNL     1      -0.800   7.218 -32.172  1.00  0.00    -0.174 NA
HETATM    8  H   UNL     1      -1.403   6.519 -33.988  1.00  0.00     0.189 HD
HETATM    9  C   UNL     1      -1.400   7.162 -30.972  1.00  0.00     0.089 A 
HETATM   10  C   UNL     1      -2.638   6.462 -31.075  1.00  0.00     0.071 A 
BRANCH   9  11
HETATM   11  C   UNL     1      -0.787   7.761 -29.781  1.00  0.00    -0.006 A 
HETATM   12  C   UNL     1      -1.483   8.684 -28.989  1.00  0.00     0.014 A 
HETATM   13  C   UNL     1      -0.883   9.252 -27.858  1.00  0.00     0.008 A 
HETATM   14  C   UNL     1       0.426   8.911 -27.500  1.00  0.00    -0.059 A 
HETATM   15  C   UNL     1       1.122   7.985 -28.283  1.00  0.00     0.008 A 
HETATM   16  C   UNL     1       0.523   7.421 -29.413  1.00  0.00     0.014 A 
BRANCH  14  17
HETATM   17  C   UNL     1       1.069   9.514 -26.277  1.00  0.00     0.034 C 
HETATM   18  C   UNL     1       2.177   8.630 -25.726  1.00  0.00     0.010 C 
ENDBRANCH  14  17
ENDBRANCH   9  11
ENDBRANCH   1   5
BRANCH   2  19
HETATM   19  N   UNL     1      -5.142   3.440 -33.214  1.00  0.00    -0.165 NA
HETATM   20  C   UNL     1      -5.036   2.158 -33.070  1.00  0.00     0.157 A 
HETATM   21  C   UNL     1      -3.981   1.372 -32.283  1.00  0.00     0.277 A 
HETATM   22  C   UNL     1      -5.923   1.161 -33.653  1.00  0.00     0.027 A 
HETATM   23  O   UNL     1      -3.073   1.875 -31.656  1.00  0.00    -0.266 OA
HETATM   24  N   UNL     1      -4.304   0.044 -32.457  1.00  0.00    -0.321 N 
HETATM   25  C   UNL     1      -5.438  -0.085 -33.255  1.00  0.00     0.048 A 
HETATM   26  H   UNL     1      -3.778  -0.716 -32.050  1.00  0.00     0.169 HD
HETATM   27  C   UNL     1      -6.062  -1.251 -33.644  1.00  0.00     0.030 A 
HETATM   28  C   UNL     1      -7.200  -1.133 -34.453  1.00  0.00     0.002 A 
HETATM   29  C   UNL     1      -7.685   0.132 -34.850  1.00  0.00     0.001 A 
HETATM   30  C   UNL     1      -7.041   1.305 -34.449  1.00  0.00     0.016 A 
ENDBRANCH   2  19
TORSDOF 4
ENDMDL
MODEL 6
REMARK VINA RESULT:      -8.6      1.396      1.747
REMARK  4 active torsions:
REMARK  status: ('A' for Active; 'I' for Inactive)
REMARK    1  A    between atoms: C_2  and  C_3 
REMARK    2  A    between atoms: C_6  and  C_7 
REMARK    3  A    between atoms: C_11  and  C_12 
REMARK       I    between atoms: C_12  and  N_13 
REMARK    4  A    between atoms: N_13  and  N_14 
ROOT
HETATM    1  C   UNL     1      -5.527   4.434 -32.665  1.00  0.00     0.289 C 
HETATM    2  N   UNL     1      -4.944   4.428 -31.408  1.00  0.00    -0.241 N 
HETATM    3  O   UNL     1      -5.750   5.452 -33.315  1.00  0.00    -0.264 OA
HETATM    4  H   UNL     1      -4.806   3.553 -30.903  1.00  0.00     0.192 HD
ENDROOT
BRANCH   1   5
HETATM    5  C   UNL     1      -5.875   3.133 -33.179  1.00  0.00     0.121 A 
HETATM    6  N   UNL     1      -7.003   2.953 -33.928  1.00  0.00    -0.272 N 
HETATM    7  N   UNL     1      -7.206   1.689 -34.324  1.00  0.00    -0.174 NA
HETATM    8  H   UNL     1      -7.674   3.668 -34.192  1.00  0.00     0.189 HD
HETATM    9  C   UNL     1      -6.157   1.007 -33.838  1.00  0.00     0.089 A 
HETATM   10  C   UNL     1      -5.300   1.879 -33.106  1.00  0.00     0.071 A 
BRANCH   9  11
HETATM   11  C   UNL     1      -6.005  -0.434 -34.075  1.00  0.00    -0.006 A 
HETATM   12  C   UNL     1      -7.056  -1.202 -34.594  1.00  0.00     0.014 A 
HETATM   13  C   UNL     1      -6.898  -2.577 -34.810  1.00  0.00     0.008 A 
HETATM   14  C   UNL     1      -5.687  -3.210 -34.507  1.00  0.00    -0.059 A 
HETATM   15  C   UNL     1      -4.633  -2.447 -33.996  1.00  0.00     0.008 A 
HETATM   16  C   UNL     1      -4.794  -1.074 -33.778  1.00  0.00     0.014 A 
BRANCH  14  17
HETATM   17  C   UNL     1      -5.512  -4.688 -34.749  1.00  0.00     0.034 C 
HETATM   18  C   UNL     1      -4.305  -5.244 -34.010  1.00  0.00     0.010 C 
ENDBRANCH  14  17
ENDBRANCH   9  11
ENDBRANCH   1   5
BRANCH   2  19
HETATM   19  N   UNL     1      -4.576   5.601 -30.810  1.00  0.00    -0.165 NA
HETATM   20  C   UNL     1      -3.310   5.777 -30.605  1.00  0.00     0.157 A 
HETATM   21  C   UNL     1      -2.150   4.833 -30.941  1.00  0.00     0.277 A 
HETATM   22  C   UNL     1      -2.704   6.947 -29.984  1.00  0.00     0.027 A 
HETATM   23  O   UNL     1      -2.275   3.753 -31.478  1.00  0.00    -0.266 OA
HETATM   24  N   UNL     1      -1.012   5.478 -30.511  1.00  0.00    -0.321 N 
HETATM   25  C   UNL     1      -1.330   6.714 -29.951  1.00  0.00     0.048 A 
HETATM   26  H   UNL     1      -0.084   5.092 -30.600  1.00  0.00     0.169 HD
HETATM   27  C   UNL     1      -0.461   7.642 -29.418  1.00  0.00     0.030 A 
HETATM   28  C   UNL     1      -1.015   8.825 -28.911  1.00  0.00     0.002 A 
HETATM   29  C   UNL     1      -2.407   9.053 -28.949  1.00  0.00     0.001 A 
HETATM   30  C   UNL     1      -3.275   8.103 -29.492  1.00  0.00     0.016 A 
ENDBRANCH   2  19
TORSDOF 4
ENDMDL
MODEL 7
REMARK VINA RESULT:      -8.4      1.658      2.660
REMARK  4 active torsions:
REMARK  status: ('A' for Active; 'I' for Inactive)
REMARK    1  A    between atoms: C_2  and  C_3 
REMARK    2  A    between atoms: C_6  and  C_7 
REMARK    3  A    between atoms: C_11  and  C_12 
REMARK       I    between atoms: C_12  and  N_13 
REMARK    4  A    between atoms: N_13  and  N_14 
ROOT
HETATM    1  C   UNL     1      -3.113   4.105 -31.381  1.00  0.00     0.289 C 
HETATM    2  N   UNL     1      -3.779   5.093 -30.675  1.00  0.00    -0.241 N 
HETATM    3  O   UNL     1      -1.894   4.065 -31.528  1.00  0.00    -0.264 OA
HETATM    4  H   UNL     1      -4.796   5.089 -30.608  1.00  0.00     0.192 HD
ENDROOT
BRANCH   1   5
HETATM    5  C   UNL     1      -3.963   3.095 -31.961  1.00  0.00     0.121 A 
HETATM    6  N   UNL     1      -5.292   3.331 -32.170  1.00  0.00    -0.272 N 
HETATM    7  N   UNL     1      -5.959   2.297 -32.701  1.00  0.00    -0.174 NA
HETATM    8  H   UNL     1      -5.795   4.187 -31.957  1.00  0.00     0.189 HD
HETATM    9  C   UNL     1      -5.030   1.344 -32.874  1.00  0.00     0.089 A 
HETATM   10  C   UNL     1      -3.762   1.806 -32.415  1.00  0.00     0.071 A 
BRANCH   9  11
HETATM   11  C   UNL     1      -5.369   0.041 -33.457  1.00  0.00    -0.006 A 
HETATM   12  C   UNL     1      -6.548  -0.144 -34.193  1.00  0.00     0.014 A 
HETATM   13  C   UNL     1      -6.861  -1.395 -34.739  1.00  0.00     0.008 A 
HETATM   14  C   UNL     1      -6.004  -2.486 -34.556  1.00  0.00    -0.059 A 
HETATM   15  C   UNL     1      -4.824  -2.305 -33.829  1.00  0.00     0.008 A 
HETATM   16  C   UNL     1      -4.514  -1.056 -33.282  1.00  0.00     0.014 A 
BRANCH  14  17
HETATM   17  C   UNL     1      -6.336  -3.830 -35.153  1.00  0.00     0.034 C 
HETATM   18  C   UNL     1      -5.371  -4.910 -34.686  1.00  0.00     0.010 C 
ENDBRANCH  14  17
ENDBRANCH   9  11
ENDBRANCH   1   5
BRANCH   2  19
HETATM   19  N   UNL     1      -3.082   6.111 -30.085  1.00  0.00    -0.165 NA
HETATM   20  C   UNL     1      -3.508   7.313 -30.306  1.00  0.00     0.157 A 
HETATM   21  C   UNL     1      -4.704   7.758 -31.156  1.00  0.00     0.277 A 
HETATM   22  C   UNL     1      -2.916   8.535 -29.780  1.00  0.00     0.027 A 
HETATM   23  O   UNL     1      -5.445   7.005 -31.751  1.00  0.00    -0.266 OA
HETATM   24  N   UNL     1      -4.721   9.134 -31.077  1.00  0.00    -0.321 N 
HETATM   25  C   UNL     1      -3.679   9.592 -30.274  1.00  0.00     0.048 A 
HETATM   26  H   UNL     1      -5.405   9.710 -31.544  1.00  0.00     0.169 HD
HETATM   27  C   UNL     1      -3.377  10.900 -29.958  1.00  0.00     0.030 A 
HETATM   28  C   UNL     1      -2.274  11.121 -29.123  1.00  0.00     0.002 A 
HETATM   29  C   UNL     1      -1.507  10.045 -28.626  1.00  0.00     0.001 A 
HETATM   30  C   UNL     1      -1.825   8.725 -28.956  1.00  0.00     0.016 A 
ENDBRANCH   2  19
TORSDOF 4
ENDMDL
MODEL 8
REMARK VINA RESULT:      -8.2      4.594     10.249
REMARK  4 active torsions:
REMARK  status: ('A' for Active; 'I' for Inactive)
REMARK    1  A    between atoms: C_2  and  C_3 
REMARK    2  A    between atoms: C_6  and  C_7 
REMARK    3  A    between atoms: C_11  and  C_12 
REMARK       I    between atoms: C_12  and  N_13 
REMARK    4  A    between atoms: N_13  and  N_14 
ROOT
HETATM    1  C   UNL     1      -7.739   1.037 -33.065  1.00  0.00     0.289 C 
HETATM    2  N   UNL     1      -8.607   1.799 -33.830  1.00  0.00    -0.241 N 
HETATM    3  O   UNL     1      -8.023  -0.059 -32.588  1.00  0.00    -0.264 OA
HETATM    4  H   UNL     1      -8.326   2.715 -34.178  1.00  0.00     0.192 HD
ENDROOT
BRANCH   1   5
HETATM    5  C   UNL     1      -6.443   1.629 -32.847  1.00  0.00     0.121 A 
HETATM    6  N   UNL     1      -5.340   0.850 -32.641  1.00  0.00    -0.272 N 
HETATM    7  N   UNL     1      -4.209   1.537 -32.437  1.00  0.00    -0.174 NA
HETATM    8  H   UNL     1      -5.313  -0.166 -32.623  1.00  0.00     0.189 HD
HETATM    9  C   UNL     1      -4.571   2.826 -32.537  1.00  0.00     0.089 A 
HETATM   10  C   UNL     1      -5.970   2.926 -32.788  1.00  0.00     0.071 A 
BRANCH   9  11
HETATM   11  C   UNL     1      -3.592   3.910 -32.388  1.00  0.00    -0.006 A 
HETATM   12  C   UNL     1      -3.706   4.859 -31.363  1.00  0.00     0.014 A 
HETATM   13  C   UNL     1      -2.767   5.891 -31.237  1.00  0.00     0.008 A 
HETATM   14  C   UNL     1      -1.699   5.995 -32.135  1.00  0.00    -0.059 A 
HETATM   15  C   UNL     1      -1.577   5.046 -33.155  1.00  0.00     0.008 A 
HETATM   16  C   UNL     1      -2.517   4.018 -33.281  1.00  0.00     0.014 A 
BRANCH  14  17
HETATM   17  C   UNL     1      -0.682   7.099 -31.994  1.00  0.00     0.034 C 
HETATM   18  C   UNL     1       0.492   6.678 -31.123  1.00  0.00     0.010 C 
ENDBRANCH  14  17
ENDBRANCH   9  11
ENDBRANCH   1   5
BRANCH   2  19
HETATM   19  N   UNL     1      -9.870   1.348 -34.100  1.00  0.00    -0.165 NA
HETATM   20  C   UNL     1     -10.843   1.935 -33.480  1.00  0.00     0.157 A 
HETATM   21  C   UNL     1     -10.771   3.081 -32.465  1.00  0.00     0.277 A 
HETATM   22  C   UNL     1     -12.256   1.612 -33.617  1.00  0.00     0.027 A 
HETATM   23  O   UNL     1      -9.746   3.618 -32.103  1.00  0.00    -0.266 OA
HETATM   24  N   UNL     1     -12.075   3.330 -32.096  1.00  0.00    -0.321 N 
HETATM   25  C   UNL     1     -12.946   2.475 -32.767  1.00  0.00     0.048 A 
HETATM   26  H   UNL     1     -12.341   4.041 -31.430  1.00  0.00     0.169 HD
HETATM   27  C   UNL     1     -14.320   2.426 -32.662  1.00  0.00     0.030 A 
HETATM   28  C   UNL     1     -14.991   1.476 -33.444  1.00  0.00     0.002 A 
HETATM   29  C   UNL     1     -14.285   0.607 -34.303  1.00  0.00     0.001 A 
HETATM   30  C   UNL     1     -12.893   0.668 -34.398  1.00  0.00     0.016 A 
ENDBRANCH   2  19
TORSDOF 4
ENDMDL
MODEL 9
REMARK VINA RESULT:      -8.1      6.798     10.492
REMARK  4 active torsions:
REMARK  status: ('A' for Active; 'I' for Inactive)
REMARK    1  A    between atoms: C_2  and  C_3 
REMARK    2  A    between atoms: C_6  and  C_7 
REMARK    3  A    between atoms: C_11  and  C_12 
REMARK       I    between atoms: C_12  and  N_13 
REMARK    4  A    between atoms: N_13  and  N_14 
ROOT
HETATM    1  C   UNL     1      -9.448   1.057 -34.172  1.00  0.00     0.289 C 
HETATM    2  N   UNL     1      -8.453   0.673 -35.056  1.00  0.00    -0.241 N 
HETATM    3  O   UNL     1      -9.997   0.295 -33.379  1.00  0.00    -0.264 OA
HETATM    4  H   UNL     1      -8.051   1.344 -35.710  1.00  0.00     0.192 HD
ENDROOT
BRANCH   1   5
HETATM    5  C   UNL     1      -9.822   2.447 -34.245  1.00  0.00     0.121 A 
HETATM    6  N   UNL     1      -9.440   3.329 -33.274  1.00  0.00    -0.272 N 
HETATM    7  N   UNL     1      -9.873   4.582 -33.466  1.00  0.00    -0.174 NA
HETATM    8  H   UNL     1      -8.886   3.118 -32.450  1.00  0.00     0.189 HD
HETATM    9  C   UNL     1     -10.549   4.536 -34.626  1.00  0.00     0.089 A 
HETATM   10  C   UNL     1     -10.544   3.208 -35.144  1.00  0.00     0.071 A 
BRANCH   9  11
HETATM   11  C   UNL     1     -11.173   5.735 -35.196  1.00  0.00    -0.006 A 
HETATM   12  C   UNL     1     -10.408   6.851 -35.562  1.00  0.00     0.014 A 
HETATM   13  C   UNL     1     -11.019   7.991 -36.100  1.00  0.00     0.008 A 
HETATM   14  C   UNL     1     -12.407   8.038 -36.278  1.00  0.00    -0.059 A 
HETATM   15  C   UNL     1     -13.173   6.924 -35.922  1.00  0.00     0.008 A 
HETATM   16  C   UNL     1     -12.562   5.788 -35.382  1.00  0.00     0.014 A 
BRANCH  14  17
HETATM   17  C   UNL     1     -13.064   9.260 -36.867  1.00  0.00     0.034 C 
HETATM   18  C   UNL     1     -13.087   9.214 -38.387  1.00  0.00     0.010 C 
ENDBRANCH  14  17
ENDBRANCH   9  11
ENDBRANCH   1   5
BRANCH   2  19
HETATM   19  N   UNL     1      -8.017  -0.623 -35.087  1.00  0.00    -0.165 NA
HETATM   20  C   UNL     1      -6.841  -0.853 -34.599  1.00  0.00     0.157 A 
HETATM   21  C   UNL     1      -5.853   0.144 -33.985  1.00  0.00     0.277 A 
HETATM   22  C   UNL     1      -6.187  -2.153 -34.535  1.00  0.00     0.027 A 
HETATM   23  O   UNL     1      -6.059   1.333 -33.863  1.00  0.00    -0.266 OA
HETATM   24  N   UNL     1      -4.748  -0.600 -33.632  1.00  0.00    -0.321 N 
HETATM   25  C   UNL     1      -4.939  -1.943 -33.950  1.00  0.00     0.048 A 
HETATM   26  H   UNL     1      -3.925  -0.206 -33.200  1.00  0.00     0.169 HD
HETATM   27  C   UNL     1      -4.061  -2.986 -33.744  1.00  0.00     0.030 A 
HETATM   28  C   UNL     1      -4.475  -4.263 -34.147  1.00  0.00     0.002 A 
HETATM   29  C   UNL     1      -5.741  -4.467 -34.737  1.00  0.00     0.001 A 
HETATM   30  C   UNL     1      -6.619  -3.400 -34.940  1.00  0.00     0.016 A 
ENDBRANCH   2  19
TORSDOF 4
ENDMDL
MODEL 10
REMARK VINA RESULT:      -8.1      3.944     10.300
REMARK  4 active torsions:
REMARK  status: ('A' for Active; 'I' for Inactive)
REMARK    1  A    between atoms: C_2  and  C_3 
REMARK    2  A    between atoms: C_6  and  C_7 
REMARK    3  A    between atoms: C_11  and  C_12 
REMARK       I    between atoms: C_12  and  N_13 
REMARK    4  A    between atoms: N_13  and  N_14 
ROOT
HETATM    1  C   UNL     1      -7.511   4.349 -33.496  1.00  0.00     0.289 C 
HETATM    2  N   UNL     1      -8.321   3.365 -32.953  1.00  0.00    -0.241 N 
HETATM    3  O   UNL     1      -7.871   5.136 -34.368  1.00  0.00    -0.264 OA
HETATM    4  H   UNL     1      -7.959   2.723 -32.249  1.00  0.00     0.192 HD
ENDROOT
BRANCH   1   5
HETATM    5  C   UNL     1      -6.171   4.392 -32.966  1.00  0.00     0.121 A 
HETATM    6  N   UNL     1      -5.384   3.275 -32.952  1.00  0.00    -0.272 N 
HETATM    7  N   UNL     1      -4.171   3.461 -32.417  1.00  0.00    -0.174 NA
HETATM    8  H   UNL     1      -5.639   2.353 -33.293  1.00  0.00     0.189 HD
HETATM    9  C   UNL     1      -4.140   4.762 -32.084  1.00  0.00     0.089 A 
HETATM   10  C   UNL     1      -5.383   5.380 -32.409  1.00  0.00     0.071 A 
BRANCH   9  11
HETATM   11  C   UNL     1      -2.952   5.368 -31.473  1.00  0.00    -0.006 A 
HETATM   12  C   UNL     1      -3.048   6.513 -30.671  1.00  0.00     0.014 A 
HETATM   13  C   UNL     1      -1.904   7.084 -30.099  1.00  0.00     0.008 A 
HETATM   14  C   UNL     1      -0.641   6.523 -30.321  1.00  0.00    -0.059 A 
HETATM   15  C   UNL     1      -0.541   5.376 -31.115  1.00  0.00     0.008 A 
HETATM   16  C   UNL     1      -1.684   4.809 -31.688  1.00  0.00     0.014 A 
BRANCH  14  17
HETATM   17  C   UNL     1       0.589   7.130 -29.697  1.00  0.00     0.034 C 
HETATM   18  C   UNL     1       0.642   6.885 -28.197  1.00  0.00     0.010 C 
ENDBRANCH  14  17
ENDBRANCH   9  11
ENDBRANCH   1   5
BRANCH   2  19
HETATM   19  N   UNL     1      -9.612   3.220 -33.380  1.00  0.00    -0.165 NA
HETATM   20  C   UNL     1     -10.140   2.045 -33.247  1.00  0.00     0.157 A 
HETATM   21  C   UNL     1      -9.504   0.775 -32.671  1.00  0.00     0.277 A 
HETATM   22  C   UNL     1     -11.493   1.673 -33.636  1.00  0.00     0.027 A 
HETATM   23  O   UNL     1      -8.374   0.706 -32.237  1.00  0.00    -0.266 OA
HETATM   24  N   UNL     1     -10.474  -0.199 -32.765  1.00  0.00    -0.321 N 
HETATM   25  C   UNL     1     -11.638   0.321 -33.327  1.00  0.00     0.048 A 
HETATM   26  H   UNL     1     -10.339  -1.152 -32.461  1.00  0.00     0.169 HD
HETATM   27  C   UNL     1     -12.819  -0.346 -33.576  1.00  0.00     0.030 A 
HETATM   28  C   UNL     1     -13.864   0.390 -34.150  1.00  0.00     0.002 A 
HETATM   29  C   UNL     1     -13.709   1.759 -34.458  1.00  0.00     0.001 A 
HETATM   30  C   UNL     1     -12.506   2.420 -34.201  1.00  0.00     0.016 A 
ENDBRANCH   2  19
TORSDOF 4
ENDMDL
