MODEL 1
REMARK VINA RESULT:      -8.8      0.000      0.000
REMARK  9 active torsions:
REMARK  status: ('A' for Active; 'I' for Inactive)
REMARK    1  A    between atoms: O_2  and  C_3 
REMARK    2  A    between atoms: C_4  and  C_5 
REMARK    3  A    between atoms: C_9  and  C_10 
REMARK       I    between atoms: C_10  and  N_11 
REMARK    4  A    between atoms: N_11  and  C_12 
REMARK    5  A    between atoms: C_12  and  C_13 
REMARK    6  A    between atoms: C_13  and  C_14 
REMARK    7  A    between atoms: C_14  and  C_15 
REMARK    8  A    between atoms: C_15  and  O_16 
REMARK    9  A    between atoms: O_16  and  C_17 
ROOT
HETATM    1  C   UNL     1      -6.662   2.719 -33.540  1.00  0.00     0.270 C 
HETATM    2  N   UNL     1      -5.823   3.581 -34.198  1.00  0.00    -0.345 N 
HETATM    3  O   UNL     1      -7.392   3.078 -32.623  1.00  0.00    -0.266 OA
HETATM    4  H   UNL     1      -5.298   3.262 -34.997  1.00  0.00     0.163 HD
ENDROOT
BRANCH   1   5
HETATM    5  C   UNL     1      -6.613   1.357 -33.998  1.00  0.00     0.120 A 
HETATM    6  N   UNL     1      -7.439   0.897 -34.985  1.00  0.00    -0.272 N 
HETATM    7  N   UNL     1      -7.287  -0.404 -35.271  1.00  0.00    -0.174 NA
HETATM    8  H   UNL     1      -8.141   1.431 -35.490  1.00  0.00     0.189 HD
HETATM    9  C   UNL     1      -6.310  -0.820 -34.452  1.00  0.00     0.092 A 
HETATM   10  C   UNL     1      -5.858   0.258 -33.638  1.00  0.00     0.071 A 
BRANCH   9  11
HETATM   11  C   UNL     1      -5.844  -2.207 -34.413  1.00  0.00     0.028 A 
HETATM   12  C   UNL     1      -4.582  -2.595 -33.930  1.00  0.00     0.080 A 
HETATM   13  C   UNL     1      -4.185  -3.938 -33.984  1.00  0.00     0.037 A 
HETATM   14  C   UNL     1      -5.050  -4.914 -34.473  1.00  0.00     0.003 A 
HETATM   15  C   UNL     1      -6.313  -4.552 -34.928  1.00  0.00     0.001 A 
HETATM   16  C   UNL     1      -6.705  -3.210 -34.903  1.00  0.00     0.017 A 
BRANCH  12  17
HETATM   17  O   UNL     1      -3.638  -1.739 -33.423  1.00  0.00    -0.355 OA
HETATM   18  C   UNL     1      -3.312  -2.024 -32.065  1.00  0.00     0.210 C 
ENDBRANCH  12  17
ENDBRANCH   9  11
ENDBRANCH   1   5
BRANCH   2  19
HETATM   19  C   UNL     1      -5.756   4.978 -33.857  1.00  0.00     0.217 C 
BRANCH  19  20
HETATM   20  C   UNL     1      -4.322   5.444 -34.047  1.00  0.00    -0.085 C 
BRANCH  20  21
HETATM   21  C   UNL     1      -3.092   5.845 -34.210  1.00  0.00    -0.078 C 
BRANCH  21  22
HETATM   22  C   UNL     1      -1.658   6.311 -34.402  1.00  0.00     0.269 C 
BRANCH  22  23
HETATM   23  O   UNL     1      -1.490   7.587 -33.794  1.00  0.00    -0.339 OA
BRANCH  23  24
HETATM   24  C   UNL     1      -1.273   7.591 -32.441  1.00  0.00     0.072 A 
HETATM   25  C   UNL     1      -0.365   6.777 -31.756  1.00  0.00     0.076 A 
HETATM   26  C   UNL     1      -0.280   6.920 -30.385  1.00  0.00     0.107 A 
HETATM   27  C   UNL     1      -1.050   7.824 -29.694  1.00  0.00     0.105 A 
HETATM   28  O   UNL     1       0.547   6.212 -29.568  1.00  0.00    -0.323 OA
HETATM   29  O   UNL     1      -0.807   7.800 -28.358  1.00  0.00    -0.323 OA
HETATM   30  C   UNL     1      -1.953   8.641 -30.337  1.00  0.00     0.042 A 
HETATM   31  C   UNL     1       0.206   6.776 -28.283  1.00  0.00     0.352 A 
HETATM   32  C   UNL     1      -2.060   8.517 -31.727  1.00  0.00     0.040 A 
ENDBRANCH  23  24
ENDBRANCH  22  23
ENDBRANCH  21  22
ENDBRANCH  20  21
ENDBRANCH  19  20
ENDBRANCH   2  19
TORSDOF 9
ENDMDL
MODEL 2
REMARK VINA RESULT:      -8.3      3.583     11.843
REMARK  9 active torsions:
REMARK  status: ('A' for Active; 'I' for Inactive)
REMARK    1  A    between atoms: O_2  and  C_3 
REMARK    2  A    between atoms: C_4  and  C_5 
REMARK    3  A    between atoms: C_9  and  C_10 
REMARK       I    between atoms: C_10  and  N_11 
REMARK    4  A    between atoms: N_11  and  C_12 
REMARK    5  A    between atoms: C_12  and  C_13 
REMARK    6  A    between atoms: C_13  and  C_14 
REMARK    7  A    between atoms: C_14  and  C_15 
REMARK    8  A    between atoms: C_15  and  O_16 
REMARK    9  A    between atoms: O_16  and  C_17 
ROOT
HETATM    1  C   UNL     1       0.161   5.469 -30.755  1.00  0.00     0.270 C 
HETATM    2  N   UNL     1      -0.937   5.859 -31.478  1.00  0.00    -0.345 N 
HETATM    3  O   UNL     1       0.957   4.630 -31.162  1.00  0.00    -0.266 OA
HETATM    4  H   UNL     1      -1.522   6.608 -31.141  1.00  0.00     0.163 HD
ENDROOT
BRANCH   1   5
HETATM    5  C   UNL     1       0.303   6.109 -29.475  1.00  0.00     0.120 A 
HETATM    6  N   UNL     1      -0.141   5.523 -28.321  1.00  0.00    -0.272 N 
HETATM    7  N   UNL     1       0.040   6.265 -27.220  1.00  0.00    -0.174 NA
HETATM    8  H   UNL     1      -0.592   4.617 -28.234  1.00  0.00     0.189 HD
HETATM    9  C   UNL     1       0.643   7.380 -27.657  1.00  0.00     0.092 A 
HETATM   10  C   UNL     1       0.829   7.319 -29.067  1.00  0.00     0.071 A 
BRANCH   9  11
HETATM   11  C   UNL     1       0.998   8.490 -26.770  1.00  0.00     0.028 A 
HETATM   12  C   UNL     1       0.344   9.734 -26.775  1.00  0.00     0.080 A 
HETATM   13  C   UNL     1       0.784  10.768 -25.937  1.00  0.00     0.037 A 
HETATM   14  C   UNL     1       1.844  10.566 -25.057  1.00  0.00     0.003 A 
HETATM   15  C   UNL     1       2.484   9.331 -25.020  1.00  0.00     0.001 A 
HETATM   16  C   UNL     1       2.069   8.305 -25.872  1.00  0.00     0.017 A 
BRANCH  12  17
HETATM   17  O   UNL     1      -0.710  10.065 -27.587  1.00  0.00    -0.355 OA
HETATM   18  C   UNL     1      -1.973   9.777 -26.992  1.00  0.00     0.210 C 
ENDBRANCH  12  17
ENDBRANCH   9  11
ENDBRANCH   1   5
BRANCH   2  19
HETATM   19  C   UNL     1      -1.219   5.311 -32.778  1.00  0.00     0.217 C 
BRANCH  19  20
HETATM   20  C   UNL     1      -2.280   4.234 -32.619  1.00  0.00    -0.085 C 
BRANCH  20  21
HETATM   21  C   UNL     1      -3.189   3.310 -32.483  1.00  0.00    -0.078 C 
BRANCH  21  22
HETATM   22  C   UNL     1      -4.248   2.231 -32.327  1.00  0.00     0.269 C 
BRANCH  22  23
HETATM   23  O   UNL     1      -3.634   0.949 -32.400  1.00  0.00    -0.339 OA
BRANCH  23  24
HETATM   24  C   UNL     1      -4.366  -0.042 -32.999  1.00  0.00     0.072 A 
HETATM   25  C   UNL     1      -3.894  -1.313 -33.343  1.00  0.00     0.076 A 
HETATM   26  C   UNL     1      -4.779  -2.188 -33.942  1.00  0.00     0.107 A 
HETATM   27  C   UNL     1      -6.084  -1.845 -34.202  1.00  0.00     0.105 A 
HETATM   28  O   UNL     1      -4.487  -3.456 -34.339  1.00  0.00    -0.323 OA
HETATM   29  O   UNL     1      -6.778  -2.852 -34.794  1.00  0.00    -0.323 OA
HETATM   30  C   UNL     1      -6.581  -0.603 -33.876  1.00  0.00     0.042 A 
HETATM   31  C   UNL     1      -5.760  -3.871 -34.879  1.00  0.00     0.352 A 
HETATM   32  C   UNL     1      -5.706   0.304 -33.268  1.00  0.00     0.040 A 
ENDBRANCH  23  24
ENDBRANCH  22  23
ENDBRANCH  21  22
ENDBRANCH  20  21
ENDBRANCH  19  20
ENDBRANCH   2  19
TORSDOF 9
ENDMDL
MODEL 3
REMARK VINA RESULT:      -8.3      2.729     10.979
REMARK  9 active torsions:
REMARK  status: ('A' for Active; 'I' for Inactive)
REMARK    1  A    between atoms: O_2  and  C_3 
REMARK    2  A    between atoms: C_4  and  C_5 
REMARK    3  A    between atoms: C_9  and  C_10 
REMARK       I    between atoms: C_10  and  N_11 
REMARK    4  A    between atoms: N_11  and  C_12 
REMARK    5  A    between atoms: C_12  and  C_13 
REMARK    6  A    between atoms: C_13  and  C_14 
REMARK    7  A    between atoms: C_14  and  C_15 
REMARK    8  A    between atoms: C_15  and  O_16 
REMARK    9  A    between atoms: O_16  and  C_17 
ROOT
HETATM    1  C   UNL     1      -3.638   5.906 -31.375  1.00  0.00     0.270 C 
HETATM    2  N   UNL     1      -3.516   5.139 -32.504  1.00  0.00    -0.345 N 
HETATM    3  O   UNL     1      -4.695   6.431 -31.042  1.00  0.00    -0.266 OA
HETATM    4  H   UNL     1      -2.649   4.663 -32.698  1.00  0.00     0.163 HD
ENDROOT
BRANCH   1   5
HETATM    5  C   UNL     1      -2.428   6.062 -30.612  1.00  0.00     0.120 A 
HETATM    6  N   UNL     1      -1.348   5.244 -30.797  1.00  0.00    -0.272 N 
HETATM    7  N   UNL     1      -0.314   5.503 -29.984  1.00  0.00    -0.174 NA
HETATM    8  H   UNL     1      -1.272   4.478 -31.459  1.00  0.00     0.189 HD
HETATM    9  C   UNL     1      -0.717   6.545 -29.243  1.00  0.00     0.092 A 
HETATM   10  C   UNL     1      -2.039   6.928 -29.609  1.00  0.00     0.071 A 
BRANCH   9  11
HETATM   11  C   UNL     1       0.110   7.137 -28.190  1.00  0.00     0.028 A 
HETATM   12  C   UNL     1       0.007   6.796 -26.830  1.00  0.00     0.080 A 
HETATM   13  C   UNL     1       0.793   7.454 -25.874  1.00  0.00     0.037 A 
HETATM   14  C   UNL     1       1.718   8.421 -26.259  1.00  0.00     0.003 A 
HETATM   15  C   UNL     1       1.853   8.750 -27.604  1.00  0.00     0.001 A 
HETATM   16  C   UNL     1       1.052   8.118 -28.560  1.00  0.00     0.017 A 
BRANCH  12  17
HETATM   17  O   UNL     1      -0.858   5.864 -26.317  1.00  0.00    -0.355 OA
HETATM   18  C   UNL     1      -1.965   6.455 -25.641  1.00  0.00     0.210 C 
ENDBRANCH  12  17
ENDBRANCH   9  11
ENDBRANCH   1   5
BRANCH   2  19
HETATM   19  C   UNL     1      -4.636   4.889 -33.373  1.00  0.00     0.217 C 
BRANCH  19  20
HETATM   20  C   UNL     1      -5.080   3.450 -33.170  1.00  0.00    -0.085 C 
BRANCH  20  21
HETATM   21  C   UNL     1      -5.463   2.216 -32.995  1.00  0.00    -0.078 C 
BRANCH  21  22
HETATM   22  C   UNL     1      -5.909   0.777 -32.793  1.00  0.00     0.269 C 
BRANCH  22  23
HETATM   23  O   UNL     1      -6.135   0.169 -34.060  1.00  0.00    -0.339 OA
BRANCH  23  24
HETATM   24  C   UNL     1      -5.851  -1.168 -34.151  1.00  0.00     0.072 A 
HETATM   25  C   UNL     1      -4.650  -1.777 -33.770  1.00  0.00     0.076 A 
HETATM   26  C   UNL     1      -4.541  -3.144 -33.933  1.00  0.00     0.107 A 
HETATM   27  C   UNL     1      -5.563  -3.903 -34.451  1.00  0.00     0.105 A 
HETATM   28  O   UNL     1      -3.450  -3.892 -33.615  1.00  0.00    -0.323 OA
HETATM   29  O   UNL     1      -5.245  -5.222 -34.525  1.00  0.00    -0.323 OA
HETATM   30  C   UNL     1      -6.757  -3.336 -34.836  1.00  0.00     0.042 A 
HETATM   31  C   UNL     1      -3.904  -5.209 -33.994  1.00  0.00     0.352 A 
HETATM   32  C   UNL     1      -6.895  -1.952 -34.682  1.00  0.00     0.040 A 
ENDBRANCH  23  24
ENDBRANCH  22  23
ENDBRANCH  21  22
ENDBRANCH  20  21
ENDBRANCH  19  20
ENDBRANCH   2  19
TORSDOF 9
ENDMDL
MODEL 4
REMARK VINA RESULT:      -8.3      2.240     10.352
REMARK  9 active torsions:
REMARK  status: ('A' for Active; 'I' for Inactive)
REMARK    1  A    between atoms: O_2  and  C_3 
REMARK    2  A    between atoms: C_4  and  C_5 
REMARK    3  A    between atoms: C_9  and  C_10 
REMARK       I    between atoms: C_10  and  N_11 
REMARK    4  A    between atoms: N_11  and  C_12 
REMARK    5  A    between atoms: C_12  and  C_13 
REMARK    6  A    between atoms: C_13  and  C_14 
REMARK    7  A    between atoms: C_14  and  C_15 
REMARK    8  A    between atoms: C_15  and  O_16 
REMARK    9  A    between atoms: O_16  and  C_17 
ROOT
HETATM    1  C   UNL     1      -3.959   5.791 -33.815  1.00  0.00     0.270 C 
HETATM    2  N   UNL     1      -5.130   5.438 -33.197  1.00  0.00    -0.345 N 
HETATM    3  O   UNL     1      -3.777   5.647 -35.019  1.00  0.00    -0.266 OA
HETATM    4  H   UNL     1      -5.267   5.645 -32.220  1.00  0.00     0.163 HD
ENDROOT
BRANCH   1   5
HETATM    5  C   UNL     1      -2.951   6.332 -32.943  1.00  0.00     0.120 A 
HETATM    6  N   UNL     1      -2.060   7.279 -33.369  1.00  0.00    -0.272 N 
HETATM    7  N   UNL     1      -1.168   7.652 -32.442  1.00  0.00    -0.174 NA
HETATM    8  H   UNL     1      -2.011   7.694 -34.294  1.00  0.00     0.189 HD
HETATM    9  C   UNL     1      -1.487   6.938 -31.353  1.00  0.00     0.092 A 
HETATM   10  C   UNL     1      -2.605   6.099 -31.626  1.00  0.00     0.071 A 
BRANCH   9  11
HETATM   11  C   UNL     1      -0.733   7.019 -30.101  1.00  0.00     0.028 A 
HETATM   12  C   UNL     1       0.025   5.958 -29.575  1.00  0.00     0.080 A 
HETATM   13  C   UNL     1       0.669   6.093 -28.338  1.00  0.00     0.037 A 
HETATM   14  C   UNL     1       0.606   7.292 -27.632  1.00  0.00     0.003 A 
HETATM   15  C   UNL     1      -0.117   8.361 -28.152  1.00  0.00     0.001 A 
HETATM   16  C   UNL     1      -0.785   8.224 -29.372  1.00  0.00     0.017 A 
BRANCH  12  17
HETATM   17  O   UNL     1       0.171   4.729 -30.166  1.00  0.00    -0.355 OA
HETATM   18  C   UNL     1       1.410   4.596 -30.859  1.00  0.00     0.210 C 
ENDBRANCH  12  17
ENDBRANCH   9  11
ENDBRANCH   1   5
BRANCH   2  19
HETATM   19  C   UNL     1      -6.236   4.883 -33.932  1.00  0.00     0.217 C 
BRANCH  19  20
HETATM   20  C   UNL     1      -6.269   3.385 -33.679  1.00  0.00    -0.085 C 
BRANCH  20  21
HETATM   21  C   UNL     1      -6.296   2.100 -33.462  1.00  0.00    -0.078 C 
BRANCH  21  22
HETATM   22  C   UNL     1      -6.327   0.602 -33.207  1.00  0.00     0.269 C 
BRANCH  22  23
HETATM   23  O   UNL     1      -6.325  -0.091 -34.451  1.00  0.00    -0.339 OA
BRANCH  23  24
HETATM   24  C   UNL     1      -5.940  -1.406 -34.413  1.00  0.00     0.072 A 
HETATM   25  C   UNL     1      -4.729  -1.889 -33.909  1.00  0.00     0.076 A 
HETATM   26  C   UNL     1      -4.512  -3.253 -33.952  1.00  0.00     0.107 A 
HETATM   27  C   UNL     1      -5.439  -4.125 -34.468  1.00  0.00     0.105 A 
HETATM   28  O   UNL     1      -3.394  -3.888 -33.507  1.00  0.00    -0.323 OA
HETATM   29  O   UNL     1      -5.024  -5.418 -34.412  1.00  0.00    -0.323 OA
HETATM   30  C   UNL     1      -6.642  -3.683 -34.971  1.00  0.00     0.042 A 
HETATM   31  C   UNL     1      -3.726  -5.262 -33.803  1.00  0.00     0.352 A 
HETATM   32  C   UNL     1      -6.888  -2.306 -34.941  1.00  0.00     0.040 A 
ENDBRANCH  23  24
ENDBRANCH  22  23
ENDBRANCH  21  22
ENDBRANCH  20  21
ENDBRANCH  19  20
ENDBRANCH   2  19
TORSDOF 9
ENDMDL
MODEL 5
REMARK VINA RESULT:      -8.3      1.909      2.332
REMARK  9 active torsions:
REMARK  status: ('A' for Active; 'I' for Inactive)
REMARK    1  A    between atoms: O_2  and  C_3 
REMARK    2  A    between atoms: C_4  and  C_5 
REMARK    3  A    between atoms: C_9  and  C_10 
REMARK       I    between atoms: C_10  and  N_11 
REMARK    4  A    between atoms: N_11  and  C_12 
REMARK    5  A    between atoms: C_12  and  C_13 
REMARK    6  A    between atoms: C_13  and  C_14 
REMARK    7  A    between atoms: C_14  and  C_15 
REMARK    8  A    between atoms: C_15  and  O_16 
REMARK    9  A    between atoms: O_16  and  C_17 
ROOT
HETATM    1  C   UNL     1      -5.803   3.276 -30.837  1.00  0.00     0.270 C 
HETATM    2  N   UNL     1      -5.827   4.192 -31.856  1.00  0.00    -0.345 N 
HETATM    3  O   UNL     1      -5.680   3.598 -29.660  1.00  0.00    -0.266 OA
HETATM    4  H   UNL     1      -6.008   3.891 -32.800  1.00  0.00     0.163 HD
ENDROOT
BRANCH   1   5
HETATM    5  C   UNL     1      -5.921   1.904 -31.251  1.00  0.00     0.120 A 
HETATM    6  N   UNL     1      -6.391   0.933 -30.409  1.00  0.00    -0.272 N 
HETATM    7  N   UNL     1      -6.407  -0.297 -30.940  1.00  0.00    -0.174 NA
HETATM    8  H   UNL     1      -6.701   1.058 -29.450  1.00  0.00     0.189 HD
HETATM    9  C   UNL     1      -5.945  -0.135 -32.189  1.00  0.00     0.092 A 
HETATM   10  C   UNL     1      -5.632   1.234 -32.424  1.00  0.00     0.071 A 
BRANCH   9  11
HETATM   11  C   UNL     1      -5.769  -1.250 -33.121  1.00  0.00     0.028 A 
HETATM   12  C   UNL     1      -4.581  -1.993 -33.235  1.00  0.00     0.080 A 
HETATM   13  C   UNL     1      -4.470  -3.007 -34.196  1.00  0.00     0.037 A 
HETATM   14  C   UNL     1      -5.547  -3.325 -35.020  1.00  0.00     0.003 A 
HETATM   15  C   UNL     1      -6.739  -2.619 -34.901  1.00  0.00     0.001 A 
HETATM   16  C   UNL     1      -6.847  -1.587 -33.963  1.00  0.00     0.017 A 
BRANCH  12  17
HETATM   17  O   UNL     1      -3.450  -1.786 -32.488  1.00  0.00    -0.355 OA
HETATM   18  C   UNL     1      -2.973  -2.979 -31.871  1.00  0.00     0.210 C 
ENDBRANCH  12  17
ENDBRANCH   9  11
ENDBRANCH   1   5
BRANCH   2  19
HETATM   19  C   UNL     1      -5.720   5.605 -31.605  1.00  0.00     0.217 C 
BRANCH  19  20
HETATM   20  C   UNL     1      -4.487   6.123 -32.327  1.00  0.00    -0.085 C 
BRANCH  20  21
HETATM   21  C   UNL     1      -3.429   6.568 -32.944  1.00  0.00    -0.078 C 
BRANCH  21  22
HETATM   22  C   UNL     1      -2.196   7.087 -33.666  1.00  0.00     0.269 C 
BRANCH  22  23
HETATM   23  O   UNL     1      -1.478   7.965 -32.806  1.00  0.00    -0.339 OA
BRANCH  23  24
HETATM   24  C   UNL     1      -0.992   7.417 -31.648  1.00  0.00     0.072 A 
HETATM   25  C   UNL     1      -1.364   7.785 -30.350  1.00  0.00     0.076 A 
HETATM   26  C   UNL     1      -0.767   7.119 -29.296  1.00  0.00     0.107 A 
HETATM   27  C   UNL     1       0.162   6.127 -29.491  1.00  0.00     0.105 A 
HETATM   28  O   UNL     1      -1.012   7.350 -27.978  1.00  0.00    -0.323 OA
HETATM   29  O   UNL     1       0.619   5.607 -28.321  1.00  0.00    -0.323 OA
HETATM   30  C   UNL     1       0.550   5.740 -30.754  1.00  0.00     0.042 A 
HETATM   31  C   UNL     1      -0.128   6.387 -27.366  1.00  0.00     0.352 A 
HETATM   32  C   UNL     1      -0.038   6.398 -31.840  1.00  0.00     0.040 A 
ENDBRANCH  23  24
ENDBRANCH  22  23
ENDBRANCH  21  22
ENDBRANCH  20  21
ENDBRANCH  19  20
ENDBRANCH   2  19
TORSDOF 9
ENDMDL
MODEL 6
REMARK VINA RESULT:      -8.3      2.132      3.349
REMARK  9 active torsions:
REMARK  status: ('A' for Active; 'I' for Inactive)
REMARK    1  A    between atoms: O_2  and  C_3 
REMARK    2  A    between atoms: C_4  and  C_5 
REMARK    3  A    between atoms: C_9  and  C_10 
REMARK       I    between atoms: C_10  and  N_11 
REMARK    4  A    between atoms: N_11  and  C_12 
REMARK    5  A    between atoms: C_12  and  C_13 
REMARK    6  A    between atoms: C_13  and  C_14 
REMARK    7  A    between atoms: C_14  and  C_15 
REMARK    8  A    between atoms: C_15  and  O_16 
REMARK    9  A    between atoms: O_16  and  C_17 
ROOT
HETATM    1  C   UNL     1      -8.174   2.120 -32.531  1.00  0.00     0.270 C 
HETATM    2  N   UNL     1      -7.955   2.111 -31.178  1.00  0.00    -0.345 N 
HETATM    3  O   UNL     1      -8.854   2.977 -33.086  1.00  0.00    -0.266 OA
HETATM    4  H   UNL     1      -7.327   1.434 -30.774  1.00  0.00     0.163 HD
ENDROOT
BRANCH   1   5
HETATM    5  C   UNL     1      -7.558   1.040 -33.254  1.00  0.00     0.120 A 
HETATM    6  N   UNL     1      -7.396   1.079 -34.611  1.00  0.00    -0.272 N 
HETATM    7  N   UNL     1      -6.833  -0.020 -35.131  1.00  0.00    -0.174 NA
HETATM    8  H   UNL     1      -7.669   1.833 -35.235  1.00  0.00     0.189 HD
HETATM    9  C   UNL     1      -6.596  -0.814 -34.077  1.00  0.00     0.092 A 
HETATM   10  C   UNL     1      -7.035  -0.182 -32.878  1.00  0.00     0.071 A 
BRANCH   9  11
HETATM   11  C   UNL     1      -6.008  -2.148 -34.203  1.00  0.00     0.028 A 
HETATM   12  C   UNL     1      -4.674  -2.449 -33.875  1.00  0.00     0.080 A 
HETATM   13  C   UNL     1      -4.168  -3.739 -34.083  1.00  0.00     0.037 A 
HETATM   14  C   UNL     1      -4.988  -4.753 -34.574  1.00  0.00     0.003 A 
HETATM   15  C   UNL     1      -6.317  -4.479 -34.876  1.00  0.00     0.001 A 
HETATM   16  C   UNL     1      -6.821  -3.188 -34.698  1.00  0.00     0.017 A 
BRANCH  12  17
HETATM   17  O   UNL     1      -3.764  -1.549 -33.385  1.00  0.00    -0.355 OA
HETATM   18  C   UNL     1      -3.314  -1.882 -32.074  1.00  0.00     0.210 C 
ENDBRANCH  12  17
ENDBRANCH   9  11
ENDBRANCH   1   5
BRANCH   2  19
HETATM   19  C   UNL     1      -8.505   3.125 -30.317  1.00  0.00     0.217 C 
BRANCH  19  20
HETATM   20  C   UNL     1      -7.521   4.281 -30.258  1.00  0.00    -0.085 C 
BRANCH  20  21
HETATM   21  C   UNL     1      -6.677   5.274 -30.205  1.00  0.00    -0.078 C 
BRANCH  21  22
HETATM   22  C   UNL     1      -5.695   6.432 -30.143  1.00  0.00     0.269 C 
BRANCH  22  23
HETATM   23  O   UNL     1      -4.370   5.924 -30.029  1.00  0.00    -0.339 OA
BRANCH  23  24
HETATM   24  C   UNL     1      -3.567   6.072 -31.130  1.00  0.00     0.072 A 
HETATM   25  C   UNL     1      -3.244   5.067 -32.048  1.00  0.00     0.076 A 
HETATM   26  C   UNL     1      -2.417   5.401 -33.103  1.00  0.00     0.107 A 
HETATM   27  C   UNL     1      -1.915   6.669 -33.266  1.00  0.00     0.105 A 
HETATM   28  O   UNL     1      -2.006   4.550 -34.082  1.00  0.00    -0.323 OA
HETATM   29  O   UNL     1      -1.125   6.777 -34.367  1.00  0.00    -0.323 OA
HETATM   30  C   UNL     1      -2.213   7.681 -32.381  1.00  0.00     0.042 A 
HETATM   31  C   UNL     1      -1.186   5.431 -34.880  1.00  0.00     0.352 A 
HETATM   32  C   UNL     1      -3.049   7.372 -31.303  1.00  0.00     0.040 A 
ENDBRANCH  23  24
ENDBRANCH  22  23
ENDBRANCH  21  22
ENDBRANCH  20  21
ENDBRANCH  19  20
ENDBRANCH   2  19
TORSDOF 9
ENDMDL
MODEL 7
REMARK VINA RESULT:      -8.2      4.552      5.309
REMARK  9 active torsions:
REMARK  status: ('A' for Active; 'I' for Inactive)
REMARK    1  A    between atoms: O_2  and  C_3 
REMARK    2  A    between atoms: C_4  and  C_5 
REMARK    3  A    between atoms: C_9  and  C_10 
REMARK       I    between atoms: C_10  and  N_11 
REMARK    4  A    between atoms: N_11  and  C_12 
REMARK    5  A    between atoms: C_12  and  C_13 
REMARK    6  A    between atoms: C_13  and  C_14 
REMARK    7  A    between atoms: C_14  and  C_15 
REMARK    8  A    between atoms: C_15  and  O_16 
REMARK    9  A    between atoms: O_16  and  C_17 
ROOT
HETATM    1  C   UNL     1      -9.587   1.329 -33.690  1.00  0.00     0.270 C 
HETATM    2  N   UNL     1     -10.199   2.016 -34.707  1.00  0.00    -0.345 N 
HETATM    3  O   UNL     1      -9.912   1.459 -32.515  1.00  0.00    -0.266 OA
HETATM    4  H   UNL     1      -9.954   1.821 -35.665  1.00  0.00     0.163 HD
ENDROOT
BRANCH   1   5
HETATM    5  C   UNL     1      -8.524   0.453 -34.102  1.00  0.00     0.120 A 
HETATM    6  N   UNL     1      -7.743   0.728 -35.191  1.00  0.00    -0.272 N 
HETATM    7  N   UNL     1      -6.820  -0.206 -35.457  1.00  0.00    -0.174 NA
HETATM    8  H   UNL     1      -7.812   1.538 -35.799  1.00  0.00     0.189 HD
HETATM    9  C   UNL     1      -6.982  -1.129 -34.498  1.00  0.00     0.092 A 
HETATM   10  C   UNL     1      -8.041  -0.749 -33.625  1.00  0.00     0.071 A 
BRANCH   9  11
HETATM   11  C   UNL     1      -6.183  -2.354 -34.432  1.00  0.00     0.028 A 
HETATM   12  C   UNL     1      -4.855  -2.397 -33.973  1.00  0.00     0.080 A 
HETATM   13  C   UNL     1      -4.137  -3.600 -33.998  1.00  0.00     0.037 A 
HETATM   14  C   UNL     1      -4.739  -4.778 -34.436  1.00  0.00     0.003 A 
HETATM   15  C   UNL     1      -6.061  -4.757 -34.867  1.00  0.00     0.001 A 
HETATM   16  C   UNL     1      -6.775  -3.555 -34.871  1.00  0.00     0.017 A 
BRANCH  12  17
HETATM   17  O   UNL     1      -4.146  -1.317 -33.515  1.00  0.00    -0.355 OA
HETATM   18  C   UNL     1      -3.528  -1.559 -32.254  1.00  0.00     0.210 C 
ENDBRANCH  12  17
ENDBRANCH   9  11
ENDBRANCH   1   5
BRANCH   2  19
HETATM   19  C   UNL     1     -11.281   2.931 -34.457  1.00  0.00     0.217 C 
BRANCH  19  20
HETATM   20  C   UNL     1     -10.686   4.263 -34.029  1.00  0.00    -0.085 C 
BRANCH  20  21
HETATM   21  C   UNL     1     -10.174   5.404 -33.663  1.00  0.00    -0.078 C 
BRANCH  21  22
HETATM   22  C   UNL     1      -9.578   6.736 -33.238  1.00  0.00     0.269 C 
BRANCH  22  23
HETATM   23  O   UNL     1      -8.563   6.513 -32.265  1.00  0.00    -0.339 OA
BRANCH  23  24
HETATM   24  C   UNL     1      -7.816   5.374 -32.418  1.00  0.00     0.072 A 
HETATM   25  C   UNL     1      -7.751   4.310 -31.512  1.00  0.00     0.076 A 
HETATM   26  C   UNL     1      -6.942   3.238 -31.834  1.00  0.00     0.107 A 
HETATM   27  C   UNL     1      -6.216   3.194 -32.999  1.00  0.00     0.105 A 
HETATM   28  O   UNL     1      -6.765   2.126 -31.070  1.00  0.00    -0.323 OA
HETATM   29  O   UNL     1      -5.490   2.051 -33.116  1.00  0.00    -0.323 OA
HETATM   30  C   UNL     1      -6.256   4.223 -33.913  1.00  0.00     0.042 A 
HETATM   31  C   UNL     1      -5.841   1.378 -31.890  1.00  0.00     0.352 A 
HETATM   32  C   UNL     1      -7.068   5.323 -33.612  1.00  0.00     0.040 A 
ENDBRANCH  23  24
ENDBRANCH  22  23
ENDBRANCH  21  22
ENDBRANCH  20  21
ENDBRANCH  19  20
ENDBRANCH   2  19
TORSDOF 9
ENDMDL
MODEL 8
REMARK VINA RESULT:      -8.1      4.953      8.796
REMARK  9 active torsions:
REMARK  status: ('A' for Active; 'I' for Inactive)
REMARK    1  A    between atoms: O_2  and  C_3 
REMARK    2  A    between atoms: C_4  and  C_5 
REMARK    3  A    between atoms: C_9  and  C_10 
REMARK       I    between atoms: C_10  and  N_11 
REMARK    4  A    between atoms: N_11  and  C_12 
REMARK    5  A    between atoms: C_12  and  C_13 
REMARK    6  A    between atoms: C_13  and  C_14 
REMARK    7  A    between atoms: C_14  and  C_15 
REMARK    8  A    between atoms: C_15  and  O_16 
REMARK    9  A    between atoms: O_16  and  C_17 
ROOT
HETATM    1  C   UNL     1      -6.370   2.051 -31.780  1.00  0.00     0.270 C 
HETATM    2  N   UNL     1      -7.308   1.936 -30.787  1.00  0.00    -0.345 N 
HETATM    3  O   UNL     1      -5.670   3.049 -31.917  1.00  0.00    -0.266 OA
HETATM    4  H   UNL     1      -7.806   1.069 -30.663  1.00  0.00     0.163 HD
ENDROOT
BRANCH   1   5
HETATM    5  C   UNL     1      -6.274   0.918 -32.660  1.00  0.00     0.120 A 
HETATM    6  N   UNL     1      -6.693   0.976 -33.961  1.00  0.00    -0.272 N 
HETATM    7  N   UNL     1      -6.564  -0.176 -34.634  1.00  0.00    -0.174 NA
HETATM    8  H   UNL     1      -7.091   1.781 -34.436  1.00  0.00     0.189 HD
HETATM    9  C   UNL     1      -6.024  -1.028 -33.751  1.00  0.00     0.092 A 
HETATM   10  C   UNL     1      -5.823  -0.378 -32.500  1.00  0.00     0.071 A 
BRANCH   9  11
HETATM   11  C   UNL     1      -5.740  -2.428 -34.071  1.00  0.00     0.028 A 
HETATM   12  C   UNL     1      -4.550  -3.086 -33.714  1.00  0.00     0.080 A 
HETATM   13  C   UNL     1      -4.328  -4.412 -34.111  1.00  0.00     0.037 A 
HETATM   14  C   UNL     1      -5.299  -5.111 -34.824  1.00  0.00     0.003 A 
HETATM   15  C   UNL     1      -6.494  -4.484 -35.160  1.00  0.00     0.001 A 
HETATM   16  C   UNL     1      -6.710  -3.153 -34.792  1.00  0.00     0.017 A 
BRANCH  12  17
HETATM   17  O   UNL     1      -3.517  -2.517 -33.015  1.00  0.00    -0.355 OA
HETATM   18  C   UNL     1      -3.033  -3.356 -31.969  1.00  0.00     0.210 C 
ENDBRANCH  12  17
ENDBRANCH   9  11
ENDBRANCH   1   5
BRANCH   2  19
HETATM   19  C   UNL     1      -7.524   2.985 -29.826  1.00  0.00     0.217 C 
BRANCH  19  20
HETATM   20  C   UNL     1      -8.829   3.683 -30.172  1.00  0.00    -0.085 C 
BRANCH  20  21
HETATM   21  C   UNL     1      -9.948   4.283 -30.468  1.00  0.00    -0.078 C 
BRANCH  21  22
HETATM   22  C   UNL     1     -11.251   4.985 -30.812  1.00  0.00     0.269 C 
BRANCH  22  23
HETATM   23  O   UNL     1     -11.535   4.805 -32.195  1.00  0.00    -0.339 OA
BRANCH  23  24
HETATM   24  C   UNL     1     -12.520   3.903 -32.501  1.00  0.00     0.072 A 
HETATM   25  C   UNL     1     -12.549   3.073 -33.626  1.00  0.00     0.076 A 
HETATM   26  C   UNL     1     -13.627   2.221 -33.771  1.00  0.00     0.107 A 
HETATM   27  C   UNL     1     -14.649   2.172 -32.854  1.00  0.00     0.105 A 
HETATM   28  O   UNL     1     -13.812   1.352 -34.801  1.00  0.00    -0.323 OA
HETATM   29  O   UNL     1     -15.605   1.267 -33.189  1.00  0.00    -0.323 OA
HETATM   30  C   UNL     1     -14.651   2.975 -31.735  1.00  0.00     0.042 A 
HETATM   31  C   UNL     1     -15.070   0.750 -34.425  1.00  0.00     0.352 A 
HETATM   32  C   UNL     1     -13.572   3.848 -31.563  1.00  0.00     0.040 A 
ENDBRANCH  23  24
ENDBRANCH  22  23
ENDBRANCH  21  22
ENDBRANCH  20  21
ENDBRANCH  19  20
ENDBRANCH   2  19
TORSDOF 9
ENDMDL
MODEL 9
REMARK VINA RESULT:      -8.0      3.381     11.224
REMARK  9 active torsions:
REMARK  status: ('A' for Active; 'I' for Inactive)
REMARK    1  A    between atoms: O_2  and  C_3 
REMARK    2  A    between atoms: C_4  and  C_5 
REMARK    3  A    between atoms: C_9  and  C_10 
REMARK       I    between atoms: C_10  and  N_11 
REMARK    4  A    between atoms: N_11  and  C_12 
REMARK    5  A    between atoms: C_12  and  C_13 
REMARK    6  A    between atoms: C_13  and  C_14 
REMARK    7  A    between atoms: C_14  and  C_15 
REMARK    8  A    between atoms: C_15  and  O_16 
REMARK    9  A    between atoms: O_16  and  C_17 
ROOT
HETATM    1  C   UNL     1      -1.176   5.057 -31.468  1.00  0.00     0.270 C 
HETATM    2  N   UNL     1      -2.285   4.277 -31.266  1.00  0.00    -0.345 N 
HETATM    3  O   UNL     1      -0.718   5.281 -32.584  1.00  0.00    -0.266 OA
HETATM    4  H   UNL     1      -2.673   4.183 -30.341  1.00  0.00     0.163 HD
ENDROOT
BRANCH   1   5
HETATM    5  C   UNL     1      -0.579   5.585 -30.271  1.00  0.00     0.120 A 
HETATM    6  N   UNL     1       0.277   4.843 -29.504  1.00  0.00    -0.272 N 
HETATM    7  N   UNL     1       0.720   5.473 -28.406  1.00  0.00    -0.174 NA
HETATM    8  H   UNL     1       0.582   3.891 -29.680  1.00  0.00     0.189 HD
HETATM    9  C   UNL     1       0.148   6.685 -28.454  1.00  0.00     0.092 A 
HETATM   10  C   UNL     1      -0.672   6.796 -29.613  1.00  0.00     0.071 A 
BRANCH   9  11
HETATM   11  C   UNL     1       0.343   7.696 -27.414  1.00  0.00     0.028 A 
HETATM   12  C   UNL     1      -0.594   7.963 -26.400  1.00  0.00     0.080 A 
HETATM   13  C   UNL     1      -0.362   8.991 -25.475  1.00  0.00     0.037 A 
HETATM   14  C   UNL     1       0.817   9.732 -25.519  1.00  0.00     0.003 A 
HETATM   15  C   UNL     1       1.766   9.462 -26.499  1.00  0.00     0.001 A 
HETATM   16  C   UNL     1       1.529   8.456 -27.441  1.00  0.00     0.017 A 
BRANCH  12  17
HETATM   17  O   UNL     1      -1.789   7.310 -26.241  1.00  0.00    -0.355 OA
HETATM   18  C   UNL     1      -2.504   7.745 -25.087  1.00  0.00     0.210 C 
ENDBRANCH  12  17
ENDBRANCH   9  11
ENDBRANCH   1   5
BRANCH   2  19
HETATM   19  C   UNL     1      -2.996   3.676 -32.364  1.00  0.00     0.217 C 
BRANCH  19  20
HETATM   20  C   UNL     1      -3.362   2.255 -31.969  1.00  0.00    -0.085 C 
BRANCH  20  21
HETATM   21  C   UNL     1      -3.676   1.036 -31.630  1.00  0.00    -0.078 C 
BRANCH  21  22
HETATM   22  C   UNL     1      -4.044  -0.384 -31.233  1.00  0.00     0.269 C 
BRANCH  22  23
HETATM   23  O   UNL     1      -4.588  -1.065 -32.359  1.00  0.00    -0.339 OA
BRANCH  23  24
HETATM   24  C   UNL     1      -5.804  -0.621 -32.807  1.00  0.00     0.072 A 
HETATM   25  C   UNL     1      -6.882  -0.238 -32.003  1.00  0.00     0.076 A 
HETATM   26  C   UNL     1      -8.036   0.187 -32.633  1.00  0.00     0.107 A 
HETATM   27  C   UNL     1      -8.145   0.241 -34.001  1.00  0.00     0.105 A 
HETATM   28  O   UNL     1      -9.173   0.594 -32.005  1.00  0.00    -0.323 OA
HETATM   29  O   UNL     1      -9.363   0.686 -34.408  1.00  0.00    -0.323 OA
HETATM   30  C   UNL     1      -7.104  -0.129 -34.822  1.00  0.00     0.042 A 
HETATM   31  C   UNL     1     -10.010   0.908 -33.139  1.00  0.00     0.352 A 
HETATM   32  C   UNL     1      -5.922  -0.564 -34.211  1.00  0.00     0.040 A 
ENDBRANCH  23  24
ENDBRANCH  22  23
ENDBRANCH  21  22
ENDBRANCH  20  21
ENDBRANCH  19  20
ENDBRANCH   2  19
TORSDOF 9
ENDMDL
MODEL 10
REMARK VINA RESULT:      -8.0      3.177     11.109
REMARK  9 active torsions:
REMARK  status: ('A' for Active; 'I' for Inactive)
REMARK    1  A    between atoms: O_2  and  C_3 
REMARK    2  A    between atoms: C_4  and  C_5 
REMARK    3  A    between atoms: C_9  and  C_10 
REMARK       I    between atoms: C_10  and  N_11 
REMARK    4  A    between atoms: N_11  and  C_12 
REMARK    5  A    between atoms: C_12  and  C_13 
REMARK    6  A    between atoms: C_13  and  C_14 
REMARK    7  A    between atoms: C_14  and  C_15 
REMARK    8  A    between atoms: C_15  and  O_16 
REMARK    9  A    between atoms: O_16  and  C_17 
ROOT
HETATM    1  C   UNL     1      -1.276   5.075 -31.631  1.00  0.00     0.270 C 
HETATM    2  N   UNL     1      -2.264   4.144 -31.441  1.00  0.00    -0.345 N 
HETATM    3  O   UNL     1      -0.926   5.451 -32.745  1.00  0.00    -0.266 OA
HETATM    4  H   UNL     1      -2.573   3.921 -30.507  1.00  0.00     0.163 HD
ENDROOT
BRANCH   1   5
HETATM    5  C   UNL     1      -0.668   5.571 -30.426  1.00  0.00     0.120 A 
HETATM    6  N   UNL     1       0.175   4.801 -29.672  1.00  0.00    -0.272 N 
HETATM    7  N   UNL     1       0.630   5.402 -28.565  1.00  0.00    -0.174 NA
HETATM    8  H   UNL     1       0.462   3.846 -29.866  1.00  0.00     0.189 HD
HETATM    9  C   UNL     1       0.081   6.625 -28.591  1.00  0.00     0.092 A 
HETATM   10  C   UNL     1      -0.739   6.771 -29.746  1.00  0.00     0.071 A 
BRANCH   9  11
HETATM   11  C   UNL     1       0.294   7.614 -27.532  1.00  0.00     0.028 A 
HETATM   12  C   UNL     1      -0.624   7.860 -26.497  1.00  0.00     0.080 A 
HETATM   13  C   UNL     1      -0.375   8.869 -25.555  1.00  0.00     0.037 A 
HETATM   14  C   UNL     1       0.803   9.610 -25.604  1.00  0.00     0.003 A 
HETATM   15  C   UNL     1       1.735   9.359 -26.606  1.00  0.00     0.001 A 
HETATM   16  C   UNL     1       1.480   8.374 -27.565  1.00  0.00     0.017 A 
BRANCH  12  17
HETATM   17  O   UNL     1      -1.817   7.205 -26.331  1.00  0.00    -0.355 OA
HETATM   18  C   UNL     1      -2.553   7.679 -25.206  1.00  0.00     0.210 C 
ENDBRANCH  12  17
ENDBRANCH   9  11
ENDBRANCH   1   5
BRANCH   2  19
HETATM   19  C   UNL     1      -2.968   3.553 -32.547  1.00  0.00     0.217 C 
BRANCH  19  20
HETATM   20  C   UNL     1      -4.310   3.049 -32.040  1.00  0.00    -0.085 C 
BRANCH  20  21
HETATM   21  C   UNL     1      -5.461   2.619 -31.605  1.00  0.00    -0.078 C 
BRANCH  21  22
HETATM   22  C   UNL     1      -6.803   2.118 -31.099  1.00  0.00     0.269 C 
BRANCH  22  23
HETATM   23  O   UNL     1      -6.706   0.732 -30.790  1.00  0.00    -0.339 OA
BRANCH  23  24
HETATM   24  C   UNL     1      -6.429  -0.105 -31.839  1.00  0.00     0.072 A 
HETATM   25  C   UNL     1      -5.256  -0.850 -32.003  1.00  0.00     0.076 A 
HETATM   26  C   UNL     1      -5.150  -1.645 -33.128  1.00  0.00     0.107 A 
HETATM   27  C   UNL     1      -6.149  -1.719 -34.068  1.00  0.00     0.105 A 
HETATM   28  O   UNL     1      -4.084  -2.430 -33.441  1.00  0.00    -0.323 OA
HETATM   29  O   UNL     1      -5.839  -2.558 -35.091  1.00  0.00    -0.323 OA
HETATM   30  C   UNL     1      -7.316  -1.000 -33.938  1.00  0.00     0.042 A 
HETATM   31  C   UNL     1      -4.528  -3.006 -34.688  1.00  0.00     0.352 A 
HETATM   32  C   UNL     1      -7.450  -0.185 -32.808  1.00  0.00     0.040 A 
ENDBRANCH  23  24
ENDBRANCH  22  23
ENDBRANCH  21  22
ENDBRANCH  20  21
ENDBRANCH  19  20
ENDBRANCH   2  19
TORSDOF 9
ENDMDL
