MODEL 1
REMARK VINA RESULT:      -9.6      0.000      0.000
REMARK  6 active torsions:
REMARK  status: ('A' for Active; 'I' for Inactive)
REMARK    1  A    between atoms: C_4  and  C_5 
REMARK    2  A    between atoms: C_5  and  N_6 
REMARK    3  A    between atoms: C_7  and  N_8 
REMARK    4  A    between atoms: N_8  and  N_9 
REMARK       I    between atoms: N_9  and  C_10 
REMARK    5  A    between atoms: C_10  and  C_11 
REMARK    6  A    between atoms: C_19  and  C_20 
ROOT
HETATM    1  N   UNL     1      -8.236   2.975 -33.423  1.00  0.00    -0.168 NA
HETATM    2  C   UNL     1      -7.480   3.077 -32.265  1.00  0.00     0.250 C 
HETATM    3  O   UNL     1      -8.036   3.353 -31.204  1.00  0.00    -0.272 OA
HETATM    4  H   UNL     1      -9.204   3.239 -33.249  1.00  0.00     0.156 HD
ENDROOT
BRANCH   2   5
HETATM    5  C   UNL     1      -5.994   2.976 -32.338  1.00  0.00     0.042 A 
HETATM    6  C   UNL     1      -5.345   1.781 -31.931  1.00  0.00     0.008 A 
HETATM    7  C   UNL     1      -3.943   1.755 -32.060  1.00  0.00     0.068 A 
HETATM    8  C   UNL     1      -5.990   0.629 -31.405  1.00  0.00     0.015 A 
HETATM    9  C   UNL     1      -3.247   0.612 -31.693  1.00  0.00     0.032 A 
HETATM   10  N   UNL     1      -3.230   2.795 -32.519  1.00  0.00    -0.248 NA
HETATM   11  C   UNL     1      -3.892  -0.519 -31.189  1.00  0.00     0.002 A 
HETATM   12  C   UNL     1      -5.269  -0.509 -31.041  1.00  0.00     0.001 A 
HETATM   13  C   UNL     1      -3.864   3.933 -32.879  1.00  0.00     0.069 A 
HETATM   14  C   UNL     1      -5.244   4.043 -32.837  1.00  0.00     0.050 A 
BRANCH  13  15
HETATM   15  C   UNL     1      -2.987   5.037 -33.305  1.00  0.00    -0.005 A 
HETATM   16  C   UNL     1      -1.987   4.830 -34.266  1.00  0.00     0.033 A 
HETATM   17  C   UNL     1      -1.169   5.886 -34.632  1.00  0.00     0.117 A 
HETATM   18  N   UNL     1      -1.266   7.127 -34.114  1.00  0.00    -0.273 NA
HETATM   19  C   UNL     1      -2.215   7.312 -33.175  1.00  0.00     0.117 A 
HETATM   20  C   UNL     1      -3.085   6.319 -32.748  1.00  0.00     0.033 A 
ENDBRANCH  13  15
ENDBRANCH   2   5
BRANCH   1  21
HETATM   21  N   UNL     1      -8.129   1.821 -34.225  1.00  0.00    -0.291 N 
HETATM   22  H   UNL     1      -7.401   1.866 -34.927  1.00  0.00     0.183 HD
BRANCH  21  23
HETATM   23  C   UNL     1      -8.633   0.609 -33.824  1.00  0.00     0.182 C 
HETATM   24  N   UNL     1      -7.889  -0.492 -34.118  1.00  0.00    -0.362 N 
HETATM   25  H   UNL     1      -8.319  -1.357 -33.807  1.00  0.00     0.162 HD
HETATM   26  S   UNL     1     -10.108   0.363 -33.079  1.00  0.00    -0.040 SA
BRANCH  24  27
HETATM   27  C   UNL     1      -6.551  -0.615 -34.675  1.00  0.00     0.160 C 
BRANCH  27  28
HETATM   28  C   UNL     1      -6.057  -2.035 -34.606  1.00  0.00    -0.041 A 
HETATM   29  C   UNL     1      -4.713  -2.309 -34.310  1.00  0.00     0.009 A 
HETATM   30  C   UNL     1      -4.257  -3.626 -34.236  1.00  0.00     0.001 A 
HETATM   31  C   UNL     1      -5.136  -4.683 -34.465  1.00  0.00     0.000 A 
HETATM   32  C   UNL     1      -6.471  -4.425 -34.768  1.00  0.00     0.001 A 
HETATM   33  C   UNL     1      -6.931  -3.108 -34.837  1.00  0.00     0.009 A 
ENDBRANCH  27  28
ENDBRANCH  24  27
ENDBRANCH  21  23
ENDBRANCH   1  21
TORSDOF 6
ENDMDL
MODEL 2
REMARK VINA RESULT:      -8.7      2.317      4.154
REMARK  6 active torsions:
REMARK  status: ('A' for Active; 'I' for Inactive)
REMARK    1  A    between atoms: C_4  and  C_5 
REMARK    2  A    between atoms: C_5  and  N_6 
REMARK    3  A    between atoms: C_7  and  N_8 
REMARK    4  A    between atoms: N_8  and  N_9 
REMARK       I    between atoms: N_9  and  C_10 
REMARK    5  A    between atoms: C_10  and  C_11 
REMARK    6  A    between atoms: C_19  and  C_20 
ROOT
HETATM    1  N   UNL     1      -4.131  -0.685 -32.248  1.00  0.00    -0.168 NA
HETATM    2  C   UNL     1      -3.466   0.363 -31.632  1.00  0.00     0.250 C 
HETATM    3  O   UNL     1      -2.533   0.121 -30.870  1.00  0.00    -0.272 OA
HETATM    4  H   UNL     1      -3.792  -1.582 -31.904  1.00  0.00     0.156 HD
ENDROOT
BRANCH   2   5
HETATM    5  C   UNL     1      -3.966   1.759 -31.800  1.00  0.00     0.042 A 
HETATM    6  C   UNL     1      -5.306   2.076 -31.451  1.00  0.00     0.008 A 
HETATM    7  C   UNL     1      -5.691   3.421 -31.610  1.00  0.00     0.068 A 
HETATM    8  C   UNL     1      -6.275   1.155 -30.969  1.00  0.00     0.015 A 
HETATM    9  C   UNL     1      -6.983   3.803 -31.275  1.00  0.00     0.032 A 
HETATM   10  N   UNL     1      -4.867   4.369 -32.083  1.00  0.00    -0.248 NA
HETATM   11  C   UNL     1      -7.922   2.892 -30.789  1.00  0.00     0.002 A 
HETATM   12  C   UNL     1      -7.567   1.562 -30.639  1.00  0.00     0.001 A 
HETATM   13  C   UNL     1      -3.602   4.041 -32.432  1.00  0.00     0.069 A 
HETATM   14  C   UNL     1      -3.110   2.757 -32.267  1.00  0.00     0.050 A 
BRANCH  13  15
HETATM   15  C   UNL     1      -2.801   5.138 -33.002  1.00  0.00    -0.005 A 
HETATM   16  C   UNL     1      -2.913   6.443 -32.504  1.00  0.00     0.033 A 
HETATM   17  C   UNL     1      -2.157   7.455 -33.074  1.00  0.00     0.117 A 
HETATM   18  N   UNL     1      -1.303   7.267 -34.100  1.00  0.00    -0.273 NA
HETATM   19  C   UNL     1      -1.218   6.013 -34.588  1.00  0.00     0.117 A 
HETATM   20  C   UNL     1      -1.929   4.936 -34.080  1.00  0.00     0.033 A 
ENDBRANCH  13  15
ENDBRANCH   2   5
BRANCH   1  21
HETATM   21  N   UNL     1      -4.303  -0.676 -33.648  1.00  0.00    -0.291 N 
HETATM   22  H   UNL     1      -3.508  -0.320 -34.164  1.00  0.00     0.183 HD
BRANCH  21  23
HETATM   23  C   UNL     1      -5.236  -1.466 -34.269  1.00  0.00     0.182 C 
HETATM   24  N   UNL     1      -6.373  -0.851 -34.697  1.00  0.00    -0.362 N 
HETATM   25  H   UNL     1      -7.028  -1.489 -35.136  1.00  0.00     0.162 HD
HETATM   26  S   UNL     1      -5.134  -3.121 -34.476  1.00  0.00    -0.040 SA
BRANCH  24  27
HETATM   27  C   UNL     1      -6.733   0.557 -34.742  1.00  0.00     0.160 C 
BRANCH  27  28
HETATM   28  C   UNL     1      -8.106   0.789 -34.170  1.00  0.00    -0.041 A 
HETATM   29  C   UNL     1      -8.747   2.026 -34.337  1.00  0.00     0.009 A 
HETATM   30  C   UNL     1     -10.025   2.238 -33.815  1.00  0.00     0.001 A 
HETATM   31  C   UNL     1     -10.670   1.223 -33.113  1.00  0.00     0.000 A 
HETATM   32  C   UNL     1     -10.040  -0.007 -32.932  1.00  0.00     0.001 A 
HETATM   33  C   UNL     1      -8.765  -0.224 -33.458  1.00  0.00     0.009 A 
ENDBRANCH  27  28
ENDBRANCH  24  27
ENDBRANCH  21  23
ENDBRANCH   1  21
TORSDOF 6
ENDMDL
MODEL 3
REMARK VINA RESULT:      -8.7      2.916      7.068
REMARK  6 active torsions:
REMARK  status: ('A' for Active; 'I' for Inactive)
REMARK    1  A    between atoms: C_4  and  C_5 
REMARK    2  A    between atoms: C_5  and  N_6 
REMARK    3  A    between atoms: C_7  and  N_8 
REMARK    4  A    between atoms: N_8  and  N_9 
REMARK       I    between atoms: N_9  and  C_10 
REMARK    5  A    between atoms: C_10  and  C_11 
REMARK    6  A    between atoms: C_19  and  C_20 
ROOT
HETATM    1  N   UNL     1      -3.340   1.133 -32.287  1.00  0.00    -0.168 NA
HETATM    2  C   UNL     1      -4.168   0.119 -31.832  1.00  0.00     0.250 C 
HETATM    3  O   UNL     1      -3.863  -0.498 -30.815  1.00  0.00    -0.272 OA
HETATM    4  H   UNL     1      -2.488   1.184 -31.730  1.00  0.00     0.156 HD
ENDROOT
BRANCH   2   5
HETATM    5  C   UNL     1      -5.348  -0.295 -32.646  1.00  0.00     0.042 A 
HETATM    6  C   UNL     1      -5.311  -1.511 -33.377  1.00  0.00     0.008 A 
HETATM    7  C   UNL     1      -6.476  -1.845 -34.095  1.00  0.00     0.068 A 
HETATM    8  C   UNL     1      -4.204  -2.400 -33.447  1.00  0.00     0.015 A 
HETATM    9  C   UNL     1      -6.512  -3.027 -34.822  1.00  0.00     0.032 A 
HETATM   10  N   UNL     1      -7.568  -1.066 -34.122  1.00  0.00    -0.248 NA
HETATM   11  C   UNL     1      -5.423  -3.900 -34.872  1.00  0.00     0.002 A 
HETATM   12  C   UNL     1      -4.263  -3.582 -34.184  1.00  0.00     0.001 A 
HETATM   13  C   UNL     1      -7.575   0.100 -33.438  1.00  0.00     0.069 A 
HETATM   14  C   UNL     1      -6.499   0.495 -32.662  1.00  0.00     0.050 A 
BRANCH  13  15
HETATM   15  C   UNL     1      -8.795   0.912 -33.588  1.00  0.00    -0.005 A 
HETATM   16  C   UNL     1     -10.032   0.440 -33.127  1.00  0.00     0.033 A 
HETATM   17  C   UNL     1     -11.163   1.222 -33.297  1.00  0.00     0.117 A 
HETATM   18  N   UNL     1     -11.157   2.432 -33.892  1.00  0.00    -0.273 NA
HETATM   19  C   UNL     1      -9.967   2.868 -34.353  1.00  0.00     0.117 A 
HETATM   20  C   UNL     1      -8.781   2.160 -34.223  1.00  0.00     0.033 A 
ENDBRANCH  13  15
ENDBRANCH   2   5
BRANCH   1  21
HETATM   21  N   UNL     1      -3.881   2.406 -32.560  1.00  0.00    -0.291 N 
HETATM   22  H   UNL     1      -4.740   2.389 -33.096  1.00  0.00     0.183 HD
BRANCH  21  23
HETATM   23  C   UNL     1      -3.548   3.510 -31.817  1.00  0.00     0.182 C 
HETATM   24  N   UNL     1      -4.324   3.776 -30.731  1.00  0.00    -0.362 N 
HETATM   25  H   UNL     1      -4.036   4.610 -30.231  1.00  0.00     0.162 HD
HETATM   26  S   UNL     1      -2.326   4.594 -32.172  1.00  0.00    -0.040 SA
BRANCH  24  27
HETATM   27  C   UNL     1      -5.392   3.005 -30.114  1.00  0.00     0.160 C 
BRANCH  27  28
HETATM   28  C   UNL     1      -6.745   3.520 -30.523  1.00  0.00    -0.041 A 
HETATM   29  C   UNL     1      -6.863   4.704 -31.265  1.00  0.00     0.009 A 
HETATM   30  C   UNL     1      -8.118   5.177 -31.654  1.00  0.00     0.001 A 
HETATM   31  C   UNL     1      -9.268   4.477 -31.296  1.00  0.00     0.000 A 
HETATM   32  C   UNL     1      -9.166   3.304 -30.551  1.00  0.00     0.001 A 
HETATM   33  C   UNL     1      -7.912   2.826 -30.167  1.00  0.00     0.009 A 
ENDBRANCH  27  28
ENDBRANCH  24  27
ENDBRANCH  21  23
ENDBRANCH   1  21
TORSDOF 6
ENDMDL
MODEL 4
REMARK VINA RESULT:      -8.6      3.735      7.469
REMARK  6 active torsions:
REMARK  status: ('A' for Active; 'I' for Inactive)
REMARK    1  A    between atoms: C_4  and  C_5 
REMARK    2  A    between atoms: C_5  and  N_6 
REMARK    3  A    between atoms: C_7  and  N_8 
REMARK    4  A    between atoms: N_8  and  N_9 
REMARK       I    between atoms: N_9  and  C_10 
REMARK    5  A    between atoms: C_10  and  C_11 
REMARK    6  A    between atoms: C_19  and  C_20 
ROOT
HETATM    1  N   UNL     1      -8.777   4.089 -30.309  1.00  0.00    -0.168 NA
HETATM    2  C   UNL     1      -9.037   4.344 -31.646  1.00  0.00     0.250 C 
HETATM    3  O   UNL     1      -8.891   5.483 -32.083  1.00  0.00    -0.272 OA
HETATM    4  H   UNL     1      -8.564   4.951 -29.810  1.00  0.00     0.156 HD
ENDROOT
BRANCH   2   5
HETATM    5  C   UNL     1      -9.610   3.269 -32.508  1.00  0.00     0.042 A 
HETATM    6  C   UNL     1      -8.751   2.478 -33.316  1.00  0.00     0.008 A 
HETATM    7  C   UNL     1      -9.367   1.465 -34.077  1.00  0.00     0.068 A 
HETATM    8  C   UNL     1      -7.342   2.632 -33.421  1.00  0.00     0.015 A 
HETATM    9  C   UNL     1      -8.583   0.646 -34.879  1.00  0.00     0.032 A 
HETATM   10  N   UNL     1     -10.690   1.249 -34.075  1.00  0.00    -0.248 NA
HETATM   11  C   UNL     1      -7.198   0.798 -34.964  1.00  0.00     0.002 A 
HETATM   12  C   UNL     1      -6.576   1.797 -34.234  1.00  0.00     0.001 A 
HETATM   13  C   UNL     1     -11.494   2.029 -33.317  1.00  0.00     0.069 A 
HETATM   14  C   UNL     1     -10.983   3.020 -32.495  1.00  0.00     0.050 A 
BRANCH  13  15
HETATM   15  C   UNL     1     -12.937   1.754 -33.438  1.00  0.00    -0.005 A 
HETATM   16  C   UNL     1     -13.863   2.410 -32.614  1.00  0.00     0.033 A 
HETATM   17  C   UNL     1     -15.211   2.117 -32.742  1.00  0.00     0.117 A 
HETATM   18  N   UNL     1     -15.705   1.222 -33.621  1.00  0.00    -0.273 NA
HETATM   19  C   UNL     1     -14.806   0.580 -34.393  1.00  0.00     0.117 A 
HETATM   20  C   UNL     1     -13.439   0.810 -34.342  1.00  0.00     0.033 A 
ENDBRANCH  13  15
ENDBRANCH   2   5
BRANCH   1  21
HETATM   21  N   UNL     1      -7.912   3.034 -29.955  1.00  0.00    -0.291 N 
HETATM   22  H   UNL     1      -8.256   2.113 -30.195  1.00  0.00     0.183 HD
BRANCH  21  23
HETATM   23  C   UNL     1      -6.574   3.238 -29.730  1.00  0.00     0.182 C 
HETATM   24  N   UNL     1      -5.789   2.129 -29.650  1.00  0.00    -0.362 N 
HETATM   25  H   UNL     1      -4.814   2.344 -29.469  1.00  0.00     0.162 HD
HETATM   26  S   UNL     1      -5.842   4.718 -29.470  1.00  0.00    -0.040 SA
BRANCH  24  27
HETATM   27  C   UNL     1      -6.092   0.729 -29.903  1.00  0.00     0.160 C 
BRANCH  27  28
HETATM   28  C   UNL     1      -5.329   0.210 -31.091  1.00  0.00    -0.041 A 
HETATM   29  C   UNL     1      -5.830  -0.860 -31.848  1.00  0.00     0.009 A 
HETATM   30  C   UNL     1      -5.127  -1.335 -32.957  1.00  0.00     0.001 A 
HETATM   31  C   UNL     1      -3.912  -0.755 -33.315  1.00  0.00     0.000 A 
HETATM   32  C   UNL     1      -3.399   0.302 -32.566  1.00  0.00     0.001 A 
HETATM   33  C   UNL     1      -4.103   0.784 -31.461  1.00  0.00     0.009 A 
ENDBRANCH  27  28
ENDBRANCH  24  27
ENDBRANCH  21  23
ENDBRANCH   1  21
TORSDOF 6
ENDMDL
MODEL 5
REMARK VINA RESULT:      -8.6      2.761      6.597
REMARK  6 active torsions:
REMARK  status: ('A' for Active; 'I' for Inactive)
REMARK    1  A    between atoms: C_4  and  C_5 
REMARK    2  A    between atoms: C_5  and  N_6 
REMARK    3  A    between atoms: C_7  and  N_8 
REMARK    4  A    between atoms: N_8  and  N_9 
REMARK       I    between atoms: N_9  and  C_10 
REMARK    5  A    between atoms: C_10  and  C_11 
REMARK    6  A    between atoms: C_19  and  C_20 
ROOT
HETATM    1  N   UNL     1     -10.310   1.459 -31.839  1.00  0.00    -0.168 NA
HETATM    2  C   UNL     1      -9.836   1.897 -33.065  1.00  0.00     0.250 C 
HETATM    3  O   UNL     1     -10.610   2.432 -33.856  1.00  0.00    -0.272 OA
HETATM    4  H   UNL     1     -11.321   1.570 -31.780  1.00  0.00     0.156 HD
ENDROOT
BRANCH   2   5
HETATM    5  C   UNL     1      -8.428   1.604 -33.463  1.00  0.00     0.042 A 
HETATM    6  C   UNL     1      -7.527   2.673 -33.710  1.00  0.00     0.008 A 
HETATM    7  C   UNL     1      -6.209   2.312 -34.052  1.00  0.00     0.068 A 
HETATM    8  C   UNL     1      -7.847   4.056 -33.649  1.00  0.00     0.015 A 
HETATM    9  C   UNL     1      -5.272   3.308 -34.293  1.00  0.00     0.032 A 
HETATM   10  N   UNL     1      -5.803   1.039 -34.165  1.00  0.00    -0.248 NA
HETATM   11  C   UNL     1      -5.595   4.664 -34.217  1.00  0.00     0.002 A 
HETATM   12  C   UNL     1      -6.889   5.039 -33.897  1.00  0.00     0.001 A 
HETATM   13  C   UNL     1      -6.683   0.035 -33.949  1.00  0.00     0.069 A 
HETATM   14  C   UNL     1      -7.990   0.283 -33.560  1.00  0.00     0.050 A 
BRANCH  13  15
HETATM   15  C   UNL     1      -6.157  -1.324 -34.165  1.00  0.00    -0.005 A 
HETATM   16  C   UNL     1      -4.797  -1.605 -33.975  1.00  0.00     0.033 A 
HETATM   17  C   UNL     1      -4.332  -2.890 -34.202  1.00  0.00     0.117 A 
HETATM   18  N   UNL     1      -5.114  -3.912 -34.606  1.00  0.00    -0.273 NA
HETATM   19  C   UNL     1      -6.416  -3.627 -34.808  1.00  0.00     0.117 A 
HETATM   20  C   UNL     1      -6.975  -2.375 -34.602  1.00  0.00     0.033 A 
ENDBRANCH  13  15
ENDBRANCH   2   5
BRANCH   1  21
HETATM   21  N   UNL     1      -9.656   1.858 -30.655  1.00  0.00    -0.291 N 
HETATM   22  H   UNL     1      -9.251   1.096 -30.125  1.00  0.00     0.183 HD
BRANCH  21  23
HETATM   23  C   UNL     1      -9.220   3.144 -30.465  1.00  0.00     0.182 C 
HETATM   24  N   UNL     1      -7.919   3.304 -30.101  1.00  0.00    -0.362 N 
HETATM   25  H   UNL     1      -7.660   4.275 -29.963  1.00  0.00     0.162 HD
HETATM   26  S   UNL     1     -10.164   4.520 -30.567  1.00  0.00    -0.040 SA
BRANCH  24  27
HETATM   27  C   UNL     1      -6.833   2.341 -30.005  1.00  0.00     0.160 C 
BRANCH  27  28
HETATM   28  C   UNL     1      -5.535   2.929 -30.490  1.00  0.00    -0.041 A 
HETATM   29  C   UNL     1      -4.495   2.095 -30.926  1.00  0.00     0.009 A 
HETATM   30  C   UNL     1      -3.294   2.641 -31.386  1.00  0.00     0.001 A 
HETATM   31  C   UNL     1      -3.117   4.023 -31.404  1.00  0.00     0.000 A 
HETATM   32  C   UNL     1      -4.139   4.861 -30.965  1.00  0.00     0.001 A 
HETATM   33  C   UNL     1      -5.343   4.319 -30.511  1.00  0.00     0.009 A 
ENDBRANCH  27  28
ENDBRANCH  24  27
ENDBRANCH  21  23
ENDBRANCH   1  21
TORSDOF 6
ENDMDL
MODEL 6
REMARK VINA RESULT:      -8.5      2.212      2.988
REMARK  6 active torsions:
REMARK  status: ('A' for Active; 'I' for Inactive)
REMARK    1  A    between atoms: C_4  and  C_5 
REMARK    2  A    between atoms: C_5  and  N_6 
REMARK    3  A    between atoms: C_7  and  N_8 
REMARK    4  A    between atoms: N_8  and  N_9 
REMARK       I    between atoms: N_9  and  C_10 
REMARK    5  A    between atoms: C_10  and  C_11 
REMARK    6  A    between atoms: C_19  and  C_20 
ROOT
HETATM    1  N   UNL     1      -8.039   4.990 -30.254  1.00  0.00    -0.168 NA
HETATM    2  C   UNL     1      -6.802   4.609 -29.757  1.00  0.00     0.250 C 
HETATM    3  O   UNL     1      -6.534   4.825 -28.577  1.00  0.00    -0.272 OA
HETATM    4  H   UNL     1      -8.568   5.507 -29.554  1.00  0.00     0.156 HD
ENDROOT
BRANCH   2   5
HETATM    5  C   UNL     1      -5.769   4.059 -30.681  1.00  0.00     0.042 A 
HETATM    6  C   UNL     1      -5.641   2.654 -30.843  1.00  0.00     0.008 A 
HETATM    7  C   UNL     1      -4.662   2.217 -31.757  1.00  0.00     0.068 A 
HETATM    8  C   UNL     1      -6.405   1.670 -30.160  1.00  0.00     0.015 A 
HETATM    9  C   UNL     1      -4.493   0.857 -31.973  1.00  0.00     0.032 A 
HETATM   10  N   UNL     1      -3.865   3.057 -32.435  1.00  0.00    -0.248 NA
HETATM   11  C   UNL     1      -5.259  -0.101 -31.306  1.00  0.00     0.002 A 
HETATM   12  C   UNL     1      -6.217   0.308 -30.394  1.00  0.00     0.001 A 
HETATM   13  C   UNL     1      -3.986   4.390 -32.249  1.00  0.00     0.069 A 
HETATM   14  C   UNL     1      -4.951   4.924 -31.410  1.00  0.00     0.050 A 
BRANCH  13  15
HETATM   15  C   UNL     1      -3.021   5.222 -32.988  1.00  0.00    -0.005 A 
HETATM   16  C   UNL     1      -2.204   4.662 -33.980  1.00  0.00     0.033 A 
HETATM   17  C   UNL     1      -1.295   5.469 -34.645  1.00  0.00     0.117 A 
HETATM   18  N   UNL     1      -1.135   6.784 -34.397  1.00  0.00    -0.273 NA
HETATM   19  C   UNL     1      -1.910   7.310 -33.426  1.00  0.00     0.117 A 
HETATM   20  C   UNL     1      -2.851   6.585 -32.711  1.00  0.00     0.033 A 
ENDBRANCH  13  15
ENDBRANCH   2   5
BRANCH   1  21
HETATM   21  N   UNL     1      -8.832   4.051 -30.944  1.00  0.00    -0.291 N 
HETATM   22  H   UNL     1      -9.304   3.384 -30.347  1.00  0.00     0.183 HD
BRANCH  21  23
HETATM   23  C   UNL     1      -9.282   4.279 -32.220  1.00  0.00     0.182 C 
HETATM   24  N   UNL     1      -9.576   3.184 -32.971  1.00  0.00    -0.362 N 
HETATM   25  H   UNL     1      -9.891   3.417 -33.908  1.00  0.00     0.162 HD
HETATM   26  S   UNL     1      -9.424   5.775 -32.952  1.00  0.00    -0.040 SA
BRANCH  24  27
HETATM   27  C   UNL     1      -9.636   1.774 -32.616  1.00  0.00     0.160 C 
BRANCH  27  28
HETATM   28  C   UNL     1      -8.602   0.977 -33.365  1.00  0.00    -0.041 A 
HETATM   29  C   UNL     1      -7.708   1.613 -34.240  1.00  0.00     0.009 A 
HETATM   30  C   UNL     1      -6.742   0.876 -34.926  1.00  0.00     0.001 A 
HETATM   31  C   UNL     1      -6.665  -0.505 -34.755  1.00  0.00     0.000 A 
HETATM   32  C   UNL     1      -7.552  -1.150 -33.896  1.00  0.00     0.001 A 
HETATM   33  C   UNL     1      -8.515  -0.414 -33.203  1.00  0.00     0.009 A 
ENDBRANCH  27  28
ENDBRANCH  24  27
ENDBRANCH  21  23
ENDBRANCH   1  21
TORSDOF 6
ENDMDL
MODEL 7
REMARK VINA RESULT:      -8.5      2.740      6.779
REMARK  6 active torsions:
REMARK  status: ('A' for Active; 'I' for Inactive)
REMARK    1  A    between atoms: C_4  and  C_5 
REMARK    2  A    between atoms: C_5  and  N_6 
REMARK    3  A    between atoms: C_7  and  N_8 
REMARK    4  A    between atoms: N_8  and  N_9 
REMARK       I    between atoms: N_9  and  C_10 
REMARK    5  A    between atoms: C_10  and  C_11 
REMARK    6  A    between atoms: C_19  and  C_20 
ROOT
HETATM    1  N   UNL     1      -8.587   1.464 -34.845  1.00  0.00    -0.168 NA
HETATM    2  C   UNL     1      -7.371   1.940 -34.379  1.00  0.00     0.250 C 
HETATM    3  O   UNL     1      -7.109   3.135 -34.490  1.00  0.00    -0.272 OA
HETATM    4  H   UNL     1      -9.105   2.199 -35.323  1.00  0.00     0.156 HD
ENDROOT
BRANCH   2   5
HETATM    5  C   UNL     1      -6.347   0.983 -33.868  1.00  0.00     0.042 A 
HETATM    6  C   UNL     1      -5.330   1.439 -32.989  1.00  0.00     0.008 A 
HETATM    7  C   UNL     1      -4.421   0.468 -32.527  1.00  0.00     0.068 A 
HETATM    8  C   UNL     1      -5.156   2.780 -32.551  1.00  0.00     0.015 A 
HETATM    9  C   UNL     1      -3.409   0.843 -31.654  1.00  0.00     0.032 A 
HETATM   10  N   UNL     1      -4.475  -0.821 -32.897  1.00  0.00    -0.248 NA
HETATM   11  C   UNL     1      -3.256   2.162 -31.221  1.00  0.00     0.002 A 
HETATM   12  C   UNL     1      -4.131   3.134 -31.674  1.00  0.00     0.001 A 
HETATM   13  C   UNL     1      -5.437  -1.231 -33.753  1.00  0.00     0.069 A 
HETATM   14  C   UNL     1      -6.409  -0.364 -34.226  1.00  0.00     0.050 A 
BRANCH  13  15
HETATM   15  C   UNL     1      -5.368  -2.648 -34.148  1.00  0.00    -0.005 A 
HETATM   16  C   UNL     1      -6.448  -3.266 -34.794  1.00  0.00     0.033 A 
HETATM   17  C   UNL     1      -6.358  -4.605 -35.138  1.00  0.00     0.117 A 
HETATM   18  N   UNL     1      -5.280  -5.374 -34.886  1.00  0.00    -0.273 NA
HETATM   19  C   UNL     1      -4.255  -4.778 -34.244  1.00  0.00     0.117 A 
HETATM   20  C   UNL     1      -4.250  -3.444 -33.866  1.00  0.00     0.033 A 
ENDBRANCH  13  15
ENDBRANCH   2   5
BRANCH   1  21
HETATM   21  N   UNL     1      -9.406   0.694 -33.994  1.00  0.00    -0.291 N 
HETATM   22  H   UNL     1      -9.009  -0.197 -33.726  1.00  0.00     0.183 HD
BRANCH  21  23
HETATM   23  C   UNL     1     -10.412   1.257 -33.251  1.00  0.00     0.182 C 
HETATM   24  N   UNL     1     -10.130   1.538 -31.950  1.00  0.00    -0.362 N 
HETATM   25  H   UNL     1     -10.917   1.941 -31.450  1.00  0.00     0.162 HD
HETATM   26  S   UNL     1     -11.969   1.556 -33.782  1.00  0.00    -0.040 SA
BRANCH  24  27
HETATM   27  C   UNL     1      -8.878   1.476 -31.213  1.00  0.00     0.160 C 
BRANCH  27  28
HETATM   28  C   UNL     1      -8.379   2.852 -30.865  1.00  0.00    -0.041 A 
HETATM   29  C   UNL     1      -7.473   3.035 -29.809  1.00  0.00     0.009 A 
HETATM   30  C   UNL     1      -7.001   4.311 -29.492  1.00  0.00     0.001 A 
HETATM   31  C   UNL     1      -7.438   5.417 -30.218  1.00  0.00     0.000 A 
HETATM   32  C   UNL     1      -8.344   5.250 -31.263  1.00  0.00     0.001 A 
HETATM   33  C   UNL     1      -8.812   3.975 -31.587  1.00  0.00     0.009 A 
ENDBRANCH  27  28
ENDBRANCH  24  27
ENDBRANCH  21  23
ENDBRANCH   1  21
TORSDOF 6
ENDMDL
MODEL 8
REMARK VINA RESULT:      -8.4      2.667      7.996
REMARK  6 active torsions:
REMARK  status: ('A' for Active; 'I' for Inactive)
REMARK    1  A    between atoms: C_4  and  C_5 
REMARK    2  A    between atoms: C_5  and  N_6 
REMARK    3  A    between atoms: C_7  and  N_8 
REMARK    4  A    between atoms: N_8  and  N_9 
REMARK       I    between atoms: N_9  and  C_10 
REMARK    5  A    between atoms: C_10  and  C_11 
REMARK    6  A    between atoms: C_19  and  C_20 
ROOT
HETATM    1  N   UNL     1      -3.626   1.499 -32.058  1.00  0.00    -0.168 NA
HETATM    2  C   UNL     1      -4.387   0.427 -31.619  1.00  0.00     0.250 C 
HETATM    3  O   UNL     1      -4.000  -0.234 -30.658  1.00  0.00    -0.272 OA
HETATM    4  H   UNL     1      -2.747   1.554 -31.546  1.00  0.00     0.156 HD
ENDROOT
BRANCH   2   5
HETATM    5  C   UNL     1      -5.594   0.010 -32.389  1.00  0.00     0.042 A 
HETATM    6  C   UNL     1      -5.537  -1.134 -33.229  1.00  0.00     0.008 A 
HETATM    7  C   UNL     1      -6.727  -1.478 -33.898  1.00  0.00     0.068 A 
HETATM    8  C   UNL     1      -4.388  -1.940 -33.450  1.00  0.00     0.015 A 
HETATM    9  C   UNL     1      -6.744  -2.593 -34.726  1.00  0.00     0.032 A 
HETATM   10  N   UNL     1      -7.862  -0.772 -33.785  1.00  0.00    -0.248 NA
HETATM   11  C   UNL     1      -5.613  -3.386 -34.925  1.00  0.00     0.002 A 
HETATM   12  C   UNL     1      -4.429  -3.055 -34.286  1.00  0.00     0.001 A 
HETATM   13  C   UNL     1      -7.890   0.327 -32.999  1.00  0.00     0.069 A 
HETATM   14  C   UNL     1      -6.787   0.722 -32.260  1.00  0.00     0.050 A 
BRANCH  13  15
HETATM   15  C   UNL     1      -9.163   1.069 -32.995  1.00  0.00    -0.005 A 
HETATM   16  C   UNL     1     -10.347   0.466 -33.442  1.00  0.00     0.033 A 
HETATM   17  C   UNL     1     -11.524   1.197 -33.441  1.00  0.00     0.117 A 
HETATM   18  N   UNL     1     -11.611   2.479 -33.034  1.00  0.00    -0.273 NA
HETATM   19  C   UNL     1     -10.464   3.059 -32.627  1.00  0.00     0.117 A 
HETATM   20  C   UNL     1      -9.240   2.407 -32.587  1.00  0.00     0.033 A 
ENDBRANCH  13  15
ENDBRANCH   2   5
BRANCH   1  21
HETATM   21  N   UNL     1      -4.231   2.761 -32.225  1.00  0.00    -0.291 N 
HETATM   22  H   UNL     1      -4.790   2.849 -33.065  1.00  0.00     0.183 HD
BRANCH  21  23
HETATM   23  C   UNL     1      -4.421   3.620 -31.173  1.00  0.00     0.182 C 
HETATM   24  N   UNL     1      -3.459   4.560 -30.967  1.00  0.00    -0.362 N 
HETATM   25  H   UNL     1      -3.649   5.156 -30.168  1.00  0.00     0.162 HD
HETATM   26  S   UNL     1      -5.685   3.563 -30.081  1.00  0.00    -0.040 SA
BRANCH  24  27
HETATM   27  C   UNL     1      -2.297   4.923 -31.764  1.00  0.00     0.160 C 
BRANCH  27  28
HETATM   28  C   UNL     1      -1.364   5.820 -30.996  1.00  0.00    -0.041 A 
HETATM   29  C   UNL     1      -0.016   5.932 -31.369  1.00  0.00     0.009 A 
HETATM   30  C   UNL     1       0.847   6.772 -30.662  1.00  0.00     0.001 A 
HETATM   31  C   UNL     1       0.376   7.499 -29.571  1.00  0.00     0.000 A 
HETATM   32  C   UNL     1      -0.958   7.390 -29.185  1.00  0.00     0.001 A 
HETATM   33  C   UNL     1      -1.825   6.556 -29.894  1.00  0.00     0.009 A 
ENDBRANCH  27  28
ENDBRANCH  24  27
ENDBRANCH  21  23
ENDBRANCH   1  21
TORSDOF 6
ENDMDL
MODEL 9
REMARK VINA RESULT:      -8.4      2.545      7.281
REMARK  6 active torsions:
REMARK  status: ('A' for Active; 'I' for Inactive)
REMARK    1  A    between atoms: C_4  and  C_5 
REMARK    2  A    between atoms: C_5  and  N_6 
REMARK    3  A    between atoms: C_7  and  N_8 
REMARK    4  A    between atoms: N_8  and  N_9 
REMARK       I    between atoms: N_9  and  C_10 
REMARK    5  A    between atoms: C_10  and  C_11 
REMARK    6  A    between atoms: C_19  and  C_20 
ROOT
HETATM    1  N   UNL     1      -7.033   4.653 -31.995  1.00  0.00    -0.168 NA
HETATM    2  C   UNL     1      -6.993   4.100 -33.265  1.00  0.00     0.250 C 
HETATM    3  O   UNL     1      -6.628   4.792 -34.213  1.00  0.00    -0.272 OA
HETATM    4  H   UNL     1      -6.820   5.649 -32.026  1.00  0.00     0.156 HD
ENDROOT
BRANCH   2   5
HETATM    5  C   UNL     1      -7.510   2.719 -33.489  1.00  0.00     0.042 A 
HETATM    6  C   UNL     1      -8.910   2.484 -33.517  1.00  0.00     0.008 A 
HETATM    7  C   UNL     1      -9.317   1.158 -33.763  1.00  0.00     0.068 A 
HETATM    8  C   UNL     1      -9.917   3.465 -33.311  1.00  0.00     0.015 A 
HETATM    9  C   UNL     1     -10.672   0.861 -33.816  1.00  0.00     0.032 A 
HETATM   10  N   UNL     1      -8.453   0.148 -33.943  1.00  0.00    -0.248 NA
HETATM   11  C   UNL     1     -11.653   1.837 -33.626  1.00  0.00     0.002 A 
HETATM   12  C   UNL     1     -11.273   3.143 -33.369  1.00  0.00     0.001 A 
HETATM   13  C   UNL     1      -7.124   0.388 -33.890  1.00  0.00     0.069 A 
HETATM   14  C   UNL     1      -6.621   1.665 -33.702  1.00  0.00     0.050 A 
BRANCH  13  15
HETATM   15  C   UNL     1      -6.262  -0.798 -34.033  1.00  0.00    -0.005 A 
HETATM   16  C   UNL     1      -4.968  -0.815 -33.493  1.00  0.00     0.033 A 
HETATM   17  C   UNL     1      -4.177  -1.939 -33.660  1.00  0.00     0.117 A 
HETATM   18  N   UNL     1      -4.572  -3.044 -34.325  1.00  0.00    -0.273 NA
HETATM   19  C   UNL     1      -5.809  -3.011 -34.860  1.00  0.00     0.117 A 
HETATM   20  C   UNL     1      -6.675  -1.934 -34.741  1.00  0.00     0.033 A 
ENDBRANCH  13  15
ENDBRANCH   2   5
BRANCH   1  21
HETATM   21  N   UNL     1      -6.386   3.998 -30.928  1.00  0.00    -0.291 N 
HETATM   22  H   UNL     1      -6.465   2.988 -30.949  1.00  0.00     0.183 HD
BRANCH  21  23
HETATM   23  C   UNL     1      -5.392   4.602 -30.201  1.00  0.00     0.182 C 
HETATM   24  N   UNL     1      -4.112   4.261 -30.511  1.00  0.00    -0.362 N 
HETATM   25  H   UNL     1      -3.424   4.731 -29.931  1.00  0.00     0.162 HD
HETATM   26  S   UNL     1      -5.619   5.656 -28.924  1.00  0.00    -0.040 SA
BRANCH  24  27
HETATM   27  C   UNL     1      -3.579   3.452 -31.596  1.00  0.00     0.160 C 
BRANCH  27  28
HETATM   28  C   UNL     1      -2.792   4.289 -32.567  1.00  0.00    -0.041 A 
HETATM   29  C   UNL     1      -3.222   4.434 -33.895  1.00  0.00     0.009 A 
HETATM   30  C   UNL     1      -2.497   5.219 -34.794  1.00  0.00     0.001 A 
HETATM   31  C   UNL     1      -1.331   5.859 -34.379  1.00  0.00     0.000 A 
HETATM   32  C   UNL     1      -0.888   5.716 -33.066  1.00  0.00     0.001 A 
HETATM   33  C   UNL     1      -1.614   4.937 -32.164  1.00  0.00     0.009 A 
ENDBRANCH  27  28
ENDBRANCH  24  27
ENDBRANCH  21  23
ENDBRANCH   1  21
TORSDOF 6
ENDMDL
MODEL 10
REMARK VINA RESULT:      -8.3      2.392      7.424
REMARK  6 active torsions:
REMARK  status: ('A' for Active; 'I' for Inactive)
REMARK    1  A    between atoms: C_4  and  C_5 
REMARK    2  A    between atoms: C_5  and  N_6 
REMARK    3  A    between atoms: C_7  and  N_8 
REMARK    4  A    between atoms: N_8  and  N_9 
REMARK       I    between atoms: N_9  and  C_10 
REMARK    5  A    between atoms: C_10  and  C_11 
REMARK    6  A    between atoms: C_19  and  C_20 
ROOT
HETATM    1  N   UNL     1      -4.785   2.160 -30.947  1.00  0.00    -0.168 NA
HETATM    2  C   UNL     1      -5.789   1.242 -30.681  1.00  0.00     0.250 C 
HETATM    3  O   UNL     1      -5.951   0.841 -29.531  1.00  0.00    -0.272 OA
HETATM    4  H   UNL     1      -4.222   2.333 -30.115  1.00  0.00     0.156 HD
ENDROOT
BRANCH   2   5
HETATM    5  C   UNL     1      -6.576   0.658 -31.806  1.00  0.00     0.042 A 
HETATM    6  C   UNL     1      -6.023  -0.393 -32.584  1.00  0.00     0.008 A 
HETATM    7  C   UNL     1      -6.841  -0.910 -33.608  1.00  0.00     0.068 A 
HETATM    8  C   UNL     1      -4.726  -0.950 -32.419  1.00  0.00     0.015 A 
HETATM    9  C   UNL     1      -6.366  -1.948 -34.398  1.00  0.00     0.032 A 
HETATM   10  N   UNL     1      -8.070  -0.441 -33.871  1.00  0.00    -0.248 NA
HETATM   11  C   UNL     1      -5.095  -2.496 -34.217  1.00  0.00     0.002 A 
HETATM   12  C   UNL     1      -4.271  -1.993 -33.225  1.00  0.00     0.001 A 
HETATM   13  C   UNL     1      -8.569   0.576 -33.134  1.00  0.00     0.069 A 
HETATM   14  C   UNL     1      -7.865   1.121 -32.073  1.00  0.00     0.050 A 
BRANCH  13  15
HETATM   15  C   UNL     1      -9.898   1.061 -33.546  1.00  0.00    -0.005 A 
HETATM   16  C   UNL     1     -11.050   0.307 -33.284  1.00  0.00     0.033 A 
HETATM   17  C   UNL     1     -12.283   0.784 -33.699  1.00  0.00     0.117 A 
HETATM   18  N   UNL     1     -12.455   1.950 -34.355  1.00  0.00    -0.273 NA
HETATM   19  C   UNL     1     -11.339   2.658 -34.622  1.00  0.00     0.117 A 
HETATM   20  C   UNL     1     -10.064   2.266 -34.242  1.00  0.00     0.033 A 
ENDBRANCH  13  15
ENDBRANCH   2   5
BRANCH   1  21
HETATM   21  N   UNL     1      -5.090   3.346 -31.645  1.00  0.00    -0.291 N 
HETATM   22  H   UNL     1      -5.401   3.202 -32.598  1.00  0.00     0.183 HD
BRANCH  21  23
HETATM   23  C   UNL     1      -5.373   4.519 -30.993  1.00  0.00     0.182 C 
HETATM   24  N   UNL     1      -5.343   5.658 -31.739  1.00  0.00    -0.362 N 
HETATM   25  H   UNL     1      -5.547   6.492 -31.198  1.00  0.00     0.162 HD
HETATM   26  S   UNL     1      -5.673   4.680 -29.357  1.00  0.00    -0.040 SA
BRANCH  24  27
HETATM   27  C   UNL     1      -5.196   5.853 -33.173  1.00  0.00     0.160 C 
BRANCH  27  28
HETATM   28  C   UNL     1      -3.746   5.922 -33.570  1.00  0.00    -0.041 A 
HETATM   29  C   UNL     1      -2.875   6.820 -32.935  1.00  0.00     0.009 A 
HETATM   30  C   UNL     1      -1.528   6.877 -33.297  1.00  0.00     0.001 A 
HETATM   31  C   UNL     1      -1.039   6.046 -34.302  1.00  0.00     0.000 A 
HETATM   32  C   UNL     1      -1.895   5.156 -34.947  1.00  0.00     0.001 A 
HETATM   33  C   UNL     1      -3.242   5.092 -34.583  1.00  0.00     0.009 A 
ENDBRANCH  27  28
ENDBRANCH  24  27
ENDBRANCH  21  23
ENDBRANCH   1  21
TORSDOF 6
ENDMDL
