MODEL 1
REMARK VINA RESULT:      -9.9      0.000      0.000
REMARK  7 active torsions:
REMARK  status: ('A' for Active; 'I' for Inactive)
REMARK    1  A    between atoms: N_1  and  C_5 
REMARK    2  A    between atoms: C_11  and  N_12 
REMARK       I    between atoms: N_12  and  C_13 
REMARK    3  A    between atoms: C_13  and  C_15 
REMARK    4  A    between atoms: C_19  and  C_20 
REMARK    5  A    between atoms: C_20  and  N_21 
REMARK       I    between atoms: N_21  and  C_22 
REMARK    6  A    between atoms: C_22  and  C_24 
REMARK    7  A    between atoms: C_27  and  C_30 
ROOT
HETATM    1  C   UNL     1      -2.356   7.066 -32.756  1.00  0.00     0.033 A 
HETATM    2  C   UNL     1      -1.474   6.644 -33.757  1.00  0.00     0.017 A 
HETATM    3  C   UNL     1      -1.898   5.726 -34.718  1.00  0.00     0.002 A 
HETATM    4  C   UNL     1      -3.202   5.228 -34.686  1.00  0.00     0.009 A 
HETATM    5  C   UNL     1      -4.102   5.662 -33.706  1.00  0.00    -0.040 A 
HETATM    6  C   UNL     1      -3.672   6.591 -32.747  1.00  0.00     0.026 A 
ENDROOT
BRANCH   1   7
HETATM    7  C   UNL     1      -1.880   8.041 -31.746  1.00  0.00     0.257 C 
HETATM    8  N   UNL     1      -1.436   7.520 -30.492  1.00  0.00    -0.303 N 
HETATM    9  H   UNL     1      -1.290   6.529 -30.376  1.00  0.00     0.171 HD
HETATM   10  O   UNL     1      -1.860   9.239 -31.958  1.00  0.00    -0.267 OA
BRANCH   8  11
HETATM   11  C   UNL     1      -1.174   8.273 -29.429  1.00  0.00     0.152 A 
HETATM   12  N   UNL     1      -0.005   8.157 -28.764  1.00  0.00    -0.339 N 
HETATM   13  C   UNL     1       0.083   8.973 -27.656  1.00  0.00     0.024 A 
HETATM   14  H   UNL     1       0.719   7.521 -29.096  1.00  0.00     0.168 HD
HETATM   15  C   UNL     1       1.274   8.950 -26.771  1.00  0.00     0.060 C 
HETATM   16  C   UNL     1      -1.022   9.752 -27.451  1.00  0.00     0.011 A 
HETATM   17  C   UNL     1       1.287  10.183 -25.837  1.00  0.00     0.039 C 
HETATM   18  C   UNL     1      -0.094  10.597 -25.274  1.00  0.00     0.188 C 
HETATM   19  C   UNL     1      -1.173  10.779 -26.373  1.00  0.00     0.081 C 
HETATM   20  S   UNL     1      -2.202   9.447 -28.639  1.00  0.00    -0.056 SA
BRANCH  18  21
HETATM   21  N   UNL     1      -0.552   9.593 -24.260  1.00  0.00    -0.075 N 
HETATM   22  H   UNL     1       0.238   9.039 -23.890  1.00  0.00     0.274 HD
HETATM   23  H   UNL     1      -0.957  10.063 -23.432  1.00  0.00     0.274 HD
HETATM   24  H   UNL     1      -1.263   8.931 -24.597  1.00  0.00     0.274 HD
ENDBRANCH  18  21
ENDBRANCH   8  11
ENDBRANCH   1   7
BRANCH   5  25
HETATM   25  C   UNL     1      -5.497   5.093 -33.625  1.00  0.00     0.161 C 
BRANCH  25  26
HETATM   26  N   UNL     1      -5.484   3.654 -33.746  1.00  0.00    -0.353 N 
HETATM   27  C   UNL     1      -6.634   2.902 -33.873  1.00  0.00     0.251 C 
HETATM   28  O   UNL     1      -7.767   3.376 -33.847  1.00  0.00    -0.268 OA
HETATM   29  H   UNL     1      -4.591   3.222 -33.941  1.00  0.00     0.163 HD
BRANCH  27  30
HETATM   30  C   UNL     1      -6.418   1.440 -34.075  1.00  0.00     0.032 A 
HETATM   31  C   UNL     1      -7.173   0.705 -34.997  1.00  0.00     0.018 A 
HETATM   32  C   UNL     1      -6.972  -0.676 -35.137  1.00  0.00     0.015 A 
HETATM   33  C   UNL     1      -6.011  -1.342 -34.365  1.00  0.00    -0.005 A 
HETATM   34  C   UNL     1      -5.238  -0.587 -33.467  1.00  0.00     0.015 A 
HETATM   35  C   UNL     1      -5.435   0.792 -33.324  1.00  0.00     0.018 A 
BRANCH  33  36
HETATM   36  C   UNL     1      -5.786  -2.782 -34.472  1.00  0.00     0.091 A 
HETATM   37  C   UNL     1      -4.602  -3.430 -34.159  1.00  0.00     0.099 A 
HETATM   38  S   UNL     1      -4.831  -5.104 -34.471  1.00  0.00    -0.008 SA
HETATM   39  N   UNL     1      -6.407  -4.888 -34.981  1.00  0.00    -0.037 NA
HETATM   40  N   UNL     1      -6.792  -3.624 -34.940  1.00  0.00    -0.169 NA
ENDBRANCH  33  36
ENDBRANCH  27  30
ENDBRANCH  25  26
ENDBRANCH   5  25
TORSDOF 7
ENDMDL
MODEL 2
REMARK VINA RESULT:      -9.6      3.618     12.910
REMARK  7 active torsions:
REMARK  status: ('A' for Active; 'I' for Inactive)
REMARK    1  A    between atoms: N_1  and  C_5 
REMARK    2  A    between atoms: C_11  and  N_12 
REMARK       I    between atoms: N_12  and  C_13 
REMARK    3  A    between atoms: C_13  and  C_15 
REMARK    4  A    between atoms: C_19  and  C_20 
REMARK    5  A    between atoms: C_20  and  N_21 
REMARK       I    between atoms: N_21  and  C_22 
REMARK    6  A    between atoms: C_22  and  C_24 
REMARK    7  A    between atoms: C_27  and  C_30 
ROOT
HETATM    1  C   UNL     1      -1.489   5.297 -31.385  1.00  0.00     0.033 A 
HETATM    2  C   UNL     1      -0.151   5.307 -31.797  1.00  0.00     0.017 A 
HETATM    3  C   UNL     1       0.747   6.209 -31.226  1.00  0.00     0.002 A 
HETATM    4  C   UNL     1       0.316   7.101 -30.243  1.00  0.00     0.009 A 
HETATM    5  C   UNL     1      -1.012   7.084 -29.803  1.00  0.00    -0.040 A 
HETATM    6  C   UNL     1      -1.909   6.169 -30.374  1.00  0.00     0.026 A 
ENDROOT
BRANCH   1   7
HETATM    7  C   UNL     1      -2.423   4.330 -32.008  1.00  0.00     0.257 C 
HETATM    8  N   UNL     1      -3.245   3.555 -31.132  1.00  0.00    -0.303 N 
HETATM    9  H   UNL     1      -3.305   3.789 -30.153  1.00  0.00     0.171 HD
HETATM   10  O   UNL     1      -2.503   4.188 -33.214  1.00  0.00    -0.267 OA
BRANCH   8  11
HETATM   11  C   UNL     1      -3.976   2.520 -31.527  1.00  0.00     0.152 A 
HETATM   12  N   UNL     1      -3.416   1.485 -32.192  1.00  0.00    -0.339 N 
HETATM   13  C   UNL     1      -4.324   0.520 -32.575  1.00  0.00     0.024 A 
HETATM   14  H   UNL     1      -2.412   1.461 -32.361  1.00  0.00     0.168 HD
HETATM   15  C   UNL     1      -3.904  -0.669 -33.358  1.00  0.00     0.060 C 
HETATM   16  C   UNL     1      -5.611   0.786 -32.196  1.00  0.00     0.011 A 
HETATM   17  C   UNL     1      -5.008  -1.752 -33.343  1.00  0.00     0.039 C 
HETATM   18  C   UNL     1      -6.457  -1.218 -33.454  1.00  0.00     0.188 C 
HETATM   19  C   UNL     1      -6.784  -0.117 -32.412  1.00  0.00     0.081 C 
HETATM   20  S   UNL     1      -5.700   2.274 -31.374  1.00  0.00    -0.056 SA
BRANCH  18  21
HETATM   21  N   UNL     1      -6.706  -0.708 -34.841  1.00  0.00    -0.075 N 
HETATM   22  H   UNL     1      -6.450  -1.409 -35.555  1.00  0.00     0.274 HD
HETATM   23  H   UNL     1      -7.714  -0.531 -34.993  1.00  0.00     0.274 HD
HETATM   24  H   UNL     1      -6.218   0.165 -35.075  1.00  0.00     0.274 HD
ENDBRANCH  18  21
ENDBRANCH   8  11
ENDBRANCH   1   7
BRANCH   5  25
HETATM   25  C   UNL     1      -1.505   8.077 -28.780  1.00  0.00     0.161 C 
BRANCH  25  26
HETATM   26  N   UNL     1      -0.570   8.214 -27.689  1.00  0.00    -0.353 N 
HETATM   27  C   UNL     1      -0.358   9.407 -27.029  1.00  0.00     0.251 C 
HETATM   28  O   UNL     1      -0.904  10.465 -27.335  1.00  0.00    -0.268 OA
HETATM   29  H   UNL     1      -0.217   7.359 -27.281  1.00  0.00     0.163 HD
BRANCH  27  30
HETATM   30  C   UNL     1       0.580   9.334 -25.871  1.00  0.00     0.032 A 
HETATM   31  C   UNL     1       0.287   9.950 -24.647  1.00  0.00     0.018 A 
HETATM   32  C   UNL     1       1.206   9.896 -23.589  1.00  0.00     0.015 A 
HETATM   33  C   UNL     1       2.427   9.222 -23.734  1.00  0.00    -0.005 A 
HETATM   34  C   UNL     1       2.694   8.582 -24.956  1.00  0.00     0.015 A 
HETATM   35  C   UNL     1       1.779   8.634 -26.015  1.00  0.00     0.018 A 
BRANCH  33  36
HETATM   36  C   UNL     1       3.415   9.160 -22.660  1.00  0.00     0.091 A 
HETATM   37  C   UNL     1       4.406  10.101 -22.432  1.00  0.00     0.099 A 
HETATM   38  S   UNL     1       5.320   9.572 -21.076  1.00  0.00    -0.008 SA
HETATM   39  N   UNL     1       4.399   8.192 -20.878  1.00  0.00    -0.037 NA
HETATM   40  N   UNL     1       3.432   8.086 -21.773  1.00  0.00    -0.169 NA
ENDBRANCH  33  36
ENDBRANCH  27  30
ENDBRANCH  25  26
ENDBRANCH   5  25
TORSDOF 7
ENDMDL
MODEL 3
REMARK VINA RESULT:      -9.5      2.412      3.113
REMARK  7 active torsions:
REMARK  status: ('A' for Active; 'I' for Inactive)
REMARK    1  A    between atoms: N_1  and  C_5 
REMARK    2  A    between atoms: C_11  and  N_12 
REMARK       I    between atoms: N_12  and  C_13 
REMARK    3  A    between atoms: C_13  and  C_15 
REMARK    4  A    between atoms: C_19  and  C_20 
REMARK    5  A    between atoms: C_20  and  N_21 
REMARK       I    between atoms: N_21  and  C_22 
REMARK    6  A    between atoms: C_22  and  C_24 
REMARK    7  A    between atoms: C_27  and  C_30 
ROOT
HETATM    1  C   UNL     1      -5.773   5.978 -29.700  1.00  0.00     0.033 A 
HETATM    2  C   UNL     1      -6.588   5.718 -28.592  1.00  0.00     0.017 A 
HETATM    3  C   UNL     1      -7.843   5.135 -28.771  1.00  0.00     0.002 A 
HETATM    4  C   UNL     1      -8.287   4.807 -30.053  1.00  0.00     0.009 A 
HETATM    5  C   UNL     1      -7.472   5.037 -31.167  1.00  0.00    -0.040 A 
HETATM    6  C   UNL     1      -6.208   5.616 -30.980  1.00  0.00     0.026 A 
ENDROOT
BRANCH   1   7
HETATM    7  C   UNL     1      -4.445   6.600 -29.483  1.00  0.00     0.257 C 
HETATM    8  N   UNL     1      -3.844   6.429 -28.198  1.00  0.00    -0.303 N 
HETATM    9  H   UNL     1      -4.230   5.769 -27.540  1.00  0.00     0.171 HD
HETATM   10  O   UNL     1      -3.875   7.233 -30.351  1.00  0.00    -0.267 OA
BRANCH   8  11
HETATM   11  C   UNL     1      -2.765   7.088 -27.793  1.00  0.00     0.152 A 
HETATM   12  N   UNL     1      -1.579   6.935 -28.421  1.00  0.00    -0.339 N 
HETATM   13  C   UNL     1      -0.552   7.650 -27.841  1.00  0.00     0.024 A 
HETATM   14  H   UNL     1      -1.503   6.346 -29.248  1.00  0.00     0.168 HD
HETATM   15  C   UNL     1       0.836   7.570 -28.362  1.00  0.00     0.060 C 
HETATM   16  C   UNL     1      -0.932   8.387 -26.754  1.00  0.00     0.011 A 
HETATM   17  C   UNL     1       1.703   8.715 -27.787  1.00  0.00     0.039 C 
HETATM   18  C   UNL     1       1.449   9.050 -26.298  1.00  0.00     0.188 C 
HETATM   19  C   UNL     1      -0.046   9.309 -25.976  1.00  0.00     0.081 C 
HETATM   20  S   UNL     1      -2.588   8.167 -26.428  1.00  0.00    -0.056 SA
BRANCH  18  21
HETATM   21  N   UNL     1       1.982   7.950 -25.430  1.00  0.00    -0.075 N 
HETATM   22  H   UNL     1       1.804   7.021 -25.844  1.00  0.00     0.274 HD
HETATM   23  H   UNL     1       3.011   8.013 -25.347  1.00  0.00     0.274 HD
HETATM   24  H   UNL     1       1.612   7.938 -24.471  1.00  0.00     0.274 HD
ENDBRANCH  18  21
ENDBRANCH   8  11
ENDBRANCH   1   7
BRANCH   5  25
HETATM   25  C   UNL     1      -7.959   4.738 -32.562  1.00  0.00     0.161 C 
BRANCH  25  26
HETATM   26  N   UNL     1      -7.655   3.379 -32.945  1.00  0.00    -0.353 N 
HETATM   27  C   UNL     1      -6.626   3.054 -33.803  1.00  0.00     0.251 C 
HETATM   28  O   UNL     1      -5.908   3.884 -34.356  1.00  0.00    -0.268 OA
HETATM   29  H   UNL     1      -8.092   2.646 -32.403  1.00  0.00     0.163 HD
BRANCH  27  30
HETATM   30  C   UNL     1      -6.409   1.592 -34.010  1.00  0.00     0.032 A 
HETATM   31  C   UNL     1      -7.151   0.863 -34.948  1.00  0.00     0.018 A 
HETATM   32  C   UNL     1      -6.951  -0.517 -35.092  1.00  0.00     0.015 A 
HETATM   33  C   UNL     1      -6.002  -1.189 -34.309  1.00  0.00    -0.005 A 
HETATM   34  C   UNL     1      -5.242  -0.440 -33.395  1.00  0.00     0.015 A 
HETATM   35  C   UNL     1      -5.439   0.938 -33.247  1.00  0.00     0.018 A 
BRANCH  33  36
HETATM   36  C   UNL     1      -5.778  -2.629 -34.421  1.00  0.00     0.091 A 
HETATM   37  C   UNL     1      -4.583  -3.274 -34.147  1.00  0.00     0.099 A 
HETATM   38  S   UNL     1      -4.819  -4.949 -34.447  1.00  0.00    -0.008 SA
HETATM   39  N   UNL     1      -6.412  -4.737 -34.904  1.00  0.00    -0.037 NA
HETATM   40  N   UNL     1      -6.798  -3.474 -34.852  1.00  0.00    -0.169 NA
ENDBRANCH  33  36
ENDBRANCH  27  30
ENDBRANCH  25  26
ENDBRANCH   5  25
TORSDOF 7
ENDMDL
MODEL 4
REMARK VINA RESULT:      -9.4      5.229      7.316
REMARK  7 active torsions:
REMARK  status: ('A' for Active; 'I' for Inactive)
REMARK    1  A    between atoms: N_1  and  C_5 
REMARK    2  A    between atoms: C_11  and  N_12 
REMARK       I    between atoms: N_12  and  C_13 
REMARK    3  A    between atoms: C_13  and  C_15 
REMARK    4  A    between atoms: C_19  and  C_20 
REMARK    5  A    between atoms: C_20  and  N_21 
REMARK       I    between atoms: N_21  and  C_22 
REMARK    6  A    between atoms: C_22  and  C_24 
REMARK    7  A    between atoms: C_27  and  C_30 
ROOT
HETATM    1  C   UNL     1      -4.852   0.779 -32.510  1.00  0.00     0.033 A 
HETATM    2  C   UNL     1      -4.818  -0.555 -32.088  1.00  0.00     0.017 A 
HETATM    3  C   UNL     1      -5.627  -1.505 -32.713  1.00  0.00     0.002 A 
HETATM    4  C   UNL     1      -6.469  -1.128 -33.761  1.00  0.00     0.009 A 
HETATM    5  C   UNL     1      -6.493   0.196 -34.210  1.00  0.00    -0.040 A 
HETATM    6  C   UNL     1      -5.672   1.145 -33.583  1.00  0.00     0.026 A 
ENDROOT
BRANCH   1   7
HETATM    7  C   UNL     1      -3.985   1.769 -31.828  1.00  0.00     0.257 C 
HETATM    8  N   UNL     1      -4.325   3.149 -31.975  1.00  0.00    -0.303 N 
HETATM    9  H   UNL     1      -5.212   3.414 -32.375  1.00  0.00     0.171 HD
HETATM   10  O   UNL     1      -3.020   1.439 -31.164  1.00  0.00    -0.267 OA
BRANCH   8  11
HETATM   11  C   UNL     1      -3.538   4.149 -31.596  1.00  0.00     0.152 A 
HETATM   12  N   UNL     1      -2.200   4.087 -31.768  1.00  0.00    -0.339 N 
HETATM   13  C   UNL     1      -1.528   5.184 -31.272  1.00  0.00     0.024 A 
HETATM   14  H   UNL     1      -1.775   3.288 -32.237  1.00  0.00     0.168 HD
HETATM   15  C   UNL     1      -0.047   5.273 -31.326  1.00  0.00     0.060 C 
HETATM   16  C   UNL     1      -2.343   6.130 -30.716  1.00  0.00     0.011 A 
HETATM   17  C   UNL     1       0.425   6.720 -31.050  1.00  0.00     0.039 C 
HETATM   18  C   UNL     1      -0.361   7.470 -29.947  1.00  0.00     0.188 C 
HETATM   19  C   UNL     1      -1.896   7.449 -30.168  1.00  0.00     0.081 C 
HETATM   20  S   UNL     1      -3.971   5.637 -30.784  1.00  0.00    -0.056 SA
BRANCH  18  21
HETATM   21  N   UNL     1      -0.024   6.897 -28.603  1.00  0.00    -0.075 N 
HETATM   22  H   UNL     1       0.485   7.579 -28.017  1.00  0.00     0.274 HD
HETATM   23  H   UNL     1      -0.883   6.678 -28.070  1.00  0.00     0.274 HD
HETATM   24  H   UNL     1       0.533   6.033 -28.628  1.00  0.00     0.274 HD
ENDBRANCH  18  21
ENDBRANCH   8  11
ENDBRANCH   1   7
BRANCH   5  25
HETATM   25  C   UNL     1      -7.437   0.630 -35.304  1.00  0.00     0.161 C 
BRANCH  25  26
HETATM   26  N   UNL     1      -8.761   0.882 -34.785  1.00  0.00    -0.353 N 
HETATM   27  C   UNL     1      -9.138   2.096 -34.250  1.00  0.00     0.251 C 
HETATM   28  O   UNL     1      -8.377   3.052 -34.120  1.00  0.00    -0.268 OA
HETATM   29  H   UNL     1      -9.475   0.203 -35.011  1.00  0.00     0.163 HD
BRANCH  27  30
HETATM   30  C   UNL     1     -10.571   2.195 -33.847  1.00  0.00     0.032 A 
HETATM   31  C   UNL     1     -11.448   1.110 -33.972  1.00  0.00     0.018 A 
HETATM   32  C   UNL     1     -12.798   1.246 -33.620  1.00  0.00     0.015 A 
HETATM   33  C   UNL     1     -13.293   2.464 -33.132  1.00  0.00    -0.005 A 
HETATM   34  C   UNL     1     -12.396   3.535 -32.981  1.00  0.00     0.015 A 
HETATM   35  C   UNL     1     -11.046   3.403 -33.332  1.00  0.00     0.018 A 
BRANCH  33  36
HETATM   36  C   UNL     1     -14.697   2.647 -32.772  1.00  0.00     0.091 A 
HETATM   37  C   UNL     1     -15.199   3.703 -32.029  1.00  0.00     0.099 A 
HETATM   38  S   UNL     1     -16.890   3.457 -31.857  1.00  0.00    -0.008 SA
HETATM   39  N   UNL     1     -16.865   2.032 -32.731  1.00  0.00    -0.037 NA
HETATM   40  N   UNL     1     -15.655   1.711 -33.155  1.00  0.00    -0.169 NA
ENDBRANCH  33  36
ENDBRANCH  27  30
ENDBRANCH  25  26
ENDBRANCH   5  25
TORSDOF 7
ENDMDL
MODEL 5
REMARK VINA RESULT:      -9.1      3.588     12.442
REMARK  7 active torsions:
REMARK  status: ('A' for Active; 'I' for Inactive)
REMARK    1  A    between atoms: N_1  and  C_5 
REMARK    2  A    between atoms: C_11  and  N_12 
REMARK       I    between atoms: N_12  and  C_13 
REMARK    3  A    between atoms: C_13  and  C_15 
REMARK    4  A    between atoms: C_19  and  C_20 
REMARK    5  A    between atoms: C_20  and  N_21 
REMARK       I    between atoms: N_21  and  C_22 
REMARK    6  A    between atoms: C_22  and  C_24 
REMARK    7  A    between atoms: C_27  and  C_30 
ROOT
HETATM    1  C   UNL     1      -5.663   3.146 -32.373  1.00  0.00     0.033 A 
HETATM    2  C   UNL     1      -4.743   2.092 -32.335  1.00  0.00     0.017 A 
HETATM    3  C   UNL     1      -3.374   2.359 -32.388  1.00  0.00     0.002 A 
HETATM    4  C   UNL     1      -2.920   3.676 -32.479  1.00  0.00     0.009 A 
HETATM    5  C   UNL     1      -3.828   4.740 -32.492  1.00  0.00    -0.040 A 
HETATM    6  C   UNL     1      -5.202   4.466 -32.429  1.00  0.00     0.026 A 
ENDROOT
BRANCH   1   7
HETATM    7  C   UNL     1      -7.111   2.836 -32.316  1.00  0.00     0.257 C 
HETATM    8  N   UNL     1      -7.582   1.759 -33.129  1.00  0.00    -0.303 N 
HETATM    9  H   UNL     1      -6.928   1.136 -33.576  1.00  0.00     0.171 HD
HETATM   10  O   UNL     1      -7.882   3.460 -31.612  1.00  0.00    -0.267 OA
BRANCH   8  11
HETATM   11  C   UNL     1      -8.868   1.496 -33.335  1.00  0.00     0.152 A 
HETATM   12  N   UNL     1      -9.679   2.403 -33.922  1.00  0.00    -0.339 N 
HETATM   13  C   UNL     1     -10.992   1.991 -34.012  1.00  0.00     0.024 A 
HETATM   14  H   UNL     1      -9.306   3.288 -34.260  1.00  0.00     0.168 HD
HETATM   15  C   UNL     1     -12.041   2.872 -34.584  1.00  0.00     0.060 C 
HETATM   16  C   UNL     1     -11.218   0.741 -33.506  1.00  0.00     0.011 A 
HETATM   17  C   UNL     1     -13.321   2.064 -34.903  1.00  0.00     0.039 C 
HETATM   18  C   UNL     1     -13.695   0.984 -33.860  1.00  0.00     0.188 C 
HETATM   19  C   UNL     1     -12.527   0.015 -33.537  1.00  0.00     0.081 C 
HETATM   20  S   UNL     1      -9.782   0.075 -32.882  1.00  0.00    -0.056 SA
BRANCH  18  21
HETATM   21  N   UNL     1     -14.188   1.637 -32.604  1.00  0.00    -0.075 N 
HETATM   22  H   UNL     1     -15.097   1.248 -32.306  1.00  0.00     0.274 HD
HETATM   23  H   UNL     1     -13.546   1.448 -31.815  1.00  0.00     0.274 HD
HETATM   24  H   UNL     1     -14.291   2.658 -32.659  1.00  0.00     0.274 HD
ENDBRANCH  18  21
ENDBRANCH   8  11
ENDBRANCH   1   7
BRANCH   5  25
HETATM   25  C   UNL     1      -3.355   6.164 -32.644  1.00  0.00     0.161 C 
BRANCH  25  26
HETATM   26  N   UNL     1      -2.583   6.586 -31.498  1.00  0.00    -0.353 N 
HETATM   27  C   UNL     1      -1.863   7.762 -31.471  1.00  0.00     0.251 C 
HETATM   28  O   UNL     1      -1.771   8.531 -32.425  1.00  0.00    -0.268 OA
HETATM   29  H   UNL     1      -2.748   6.091 -30.632  1.00  0.00     0.163 HD
BRANCH  27  30
HETATM   30  C   UNL     1      -1.201   8.071 -30.170  1.00  0.00     0.032 A 
HETATM   31  C   UNL     1      -1.721   9.028 -29.289  1.00  0.00     0.018 A 
HETATM   32  C   UNL     1      -1.055   9.324 -28.091  1.00  0.00     0.015 A 
HETATM   33  C   UNL     1       0.134   8.665 -27.750  1.00  0.00    -0.005 A 
HETATM   34  C   UNL     1       0.627   7.684 -28.627  1.00  0.00     0.015 A 
HETATM   35  C   UNL     1      -0.034   7.386 -29.825  1.00  0.00     0.018 A 
BRANCH  33  36
HETATM   36  C   UNL     1       0.863   8.959 -26.519  1.00  0.00     0.091 A 
HETATM   37  C   UNL     1       2.131   8.493 -26.211  1.00  0.00     0.099 A 
HETATM   38  S   UNL     1       2.540   9.092 -24.654  1.00  0.00    -0.008 SA
HETATM   39  N   UNL     1       1.085   9.896 -24.480  1.00  0.00    -0.037 NA
HETATM   40  N   UNL     1       0.287   9.747 -25.524  1.00  0.00    -0.169 NA
ENDBRANCH  33  36
ENDBRANCH  27  30
ENDBRANCH  25  26
ENDBRANCH   5  25
TORSDOF 7
ENDMDL
MODEL 6
REMARK VINA RESULT:      -9.1      3.967      7.689
REMARK  7 active torsions:
REMARK  status: ('A' for Active; 'I' for Inactive)
REMARK    1  A    between atoms: N_1  and  C_5 
REMARK    2  A    between atoms: C_11  and  N_12 
REMARK       I    between atoms: N_12  and  C_13 
REMARK    3  A    between atoms: C_13  and  C_15 
REMARK    4  A    between atoms: C_19  and  C_20 
REMARK    5  A    between atoms: C_20  and  N_21 
REMARK       I    between atoms: N_21  and  C_22 
REMARK    6  A    between atoms: C_22  and  C_24 
REMARK    7  A    between atoms: C_27  and  C_30 
ROOT
HETATM    1  C   UNL     1      -4.564  -0.022 -33.010  1.00  0.00     0.033 A 
HETATM    2  C   UNL     1      -3.881  -1.238 -33.122  1.00  0.00     0.017 A 
HETATM    3  C   UNL     1      -4.437  -2.284 -33.859  1.00  0.00     0.002 A 
HETATM    4  C   UNL     1      -5.672  -2.121 -34.487  1.00  0.00     0.009 A 
HETATM    5  C   UNL     1      -6.354  -0.902 -34.405  1.00  0.00    -0.040 A 
HETATM    6  C   UNL     1      -5.786   0.150 -33.669  1.00  0.00     0.026 A 
ENDROOT
BRANCH   1   7
HETATM    7  C   UNL     1      -3.953   1.074 -32.220  1.00  0.00     0.257 C 
HETATM    8  N   UNL     1      -4.437   2.398 -32.452  1.00  0.00    -0.303 N 
HETATM    9  H   UNL     1      -5.273   2.545 -32.997  1.00  0.00     0.171 HD
HETATM   10  O   UNL     1      -3.076   0.873 -31.401  1.00  0.00    -0.267 OA
BRANCH   8  11
HETATM   11  C   UNL     1      -3.857   3.492 -31.974  1.00  0.00     0.152 A 
HETATM   12  N   UNL     1      -2.541   3.726 -32.172  1.00  0.00    -0.339 N 
HETATM   13  C   UNL     1      -2.088   4.878 -31.565  1.00  0.00     0.024 A 
HETATM   14  H   UNL     1      -1.981   3.087 -32.734  1.00  0.00     0.168 HD
HETATM   15  C   UNL     1      -0.660   5.276 -31.630  1.00  0.00     0.060 C 
HETATM   16  C   UNL     1      -3.058   5.571 -30.894  1.00  0.00     0.011 A 
HETATM   17  C   UNL     1      -0.482   6.751 -31.199  1.00  0.00     0.039 C 
HETATM   18  C   UNL     1      -1.362   7.200 -30.008  1.00  0.00     0.188 C 
HETATM   19  C   UNL     1      -2.868   6.887 -30.207  1.00  0.00     0.081 C 
HETATM   20  S   UNL     1      -4.552   4.763 -30.994  1.00  0.00    -0.056 SA
BRANCH  18  21
HETATM   21  N   UNL     1      -0.865   6.568 -28.742  1.00  0.00    -0.075 N 
HETATM   22  H   UNL     1      -1.583   5.961 -28.315  1.00  0.00     0.274 HD
HETATM   23  H   UNL     1      -0.065   5.941 -28.932  1.00  0.00     0.274 HD
HETATM   24  H   UNL     1      -0.552   7.231 -28.021  1.00  0.00     0.274 HD
ENDBRANCH  18  21
ENDBRANCH   8  11
ENDBRANCH   1   7
BRANCH   5  25
HETATM   25  C   UNL     1      -7.714  -0.727 -35.033  1.00  0.00     0.161 C 
BRANCH  25  26
HETATM   26  N   UNL     1      -8.129   0.656 -35.009  1.00  0.00    -0.353 N 
HETATM   27  C   UNL     1      -9.158   1.117 -34.214  1.00  0.00     0.251 C 
HETATM   28  O   UNL     1      -9.842   0.394 -33.494  1.00  0.00    -0.268 OA
HETATM   29  H   UNL     1      -7.508   1.325 -35.444  1.00  0.00     0.163 HD
BRANCH  27  30
HETATM   30  C   UNL     1      -9.383   2.591 -34.258  1.00  0.00     0.032 A 
HETATM   31  C   UNL     1      -8.406   3.498 -33.829  1.00  0.00     0.018 A 
HETATM   32  C   UNL     1      -8.663   4.877 -33.847  1.00  0.00     0.015 A 
HETATM   33  C   UNL     1      -9.894   5.371 -34.300  1.00  0.00    -0.005 A 
HETATM   34  C   UNL     1     -10.853   4.452 -34.757  1.00  0.00     0.015 A 
HETATM   35  C   UNL     1     -10.601   3.074 -34.741  1.00  0.00     0.018 A 
BRANCH  33  36
HETATM   36  C   UNL     1     -10.202   6.799 -34.317  1.00  0.00     0.091 A 
HETATM   37  C   UNL     1     -10.117   7.647 -33.225  1.00  0.00     0.099 A 
HETATM   38  S   UNL     1     -10.600   9.211 -33.745  1.00  0.00    -0.008 SA
HETATM   39  N   UNL     1     -10.884   8.704 -35.312  1.00  0.00    -0.037 NA
HETATM   40  N   UNL     1     -10.643   7.416 -35.486  1.00  0.00    -0.169 NA
ENDBRANCH  33  36
ENDBRANCH  27  30
ENDBRANCH  25  26
ENDBRANCH   5  25
TORSDOF 7
ENDMDL
MODEL 7
REMARK VINA RESULT:      -9.1      4.298      7.242
REMARK  7 active torsions:
REMARK  status: ('A' for Active; 'I' for Inactive)
REMARK    1  A    between atoms: N_1  and  C_5 
REMARK    2  A    between atoms: C_11  and  N_12 
REMARK       I    between atoms: N_12  and  C_13 
REMARK    3  A    between atoms: C_13  and  C_15 
REMARK    4  A    between atoms: C_19  and  C_20 
REMARK    5  A    between atoms: C_20  and  N_21 
REMARK       I    between atoms: N_21  and  C_22 
REMARK    6  A    between atoms: C_22  and  C_24 
REMARK    7  A    between atoms: C_27  and  C_30 
ROOT
HETATM    1  C   UNL     1      -3.785  -0.317 -32.321  1.00  0.00     0.033 A 
HETATM    2  C   UNL     1      -3.028  -1.442 -31.971  1.00  0.00     0.017 A 
HETATM    3  C   UNL     1      -3.366  -2.695 -32.482  1.00  0.00     0.002 A 
HETATM    4  C   UNL     1      -4.457  -2.832 -33.342  1.00  0.00     0.009 A 
HETATM    5  C   UNL     1      -5.205  -1.712 -33.720  1.00  0.00    -0.040 A 
HETATM    6  C   UNL     1      -4.856  -0.453 -33.211  1.00  0.00     0.026 A 
ENDROOT
BRANCH   1   7
HETATM    7  C   UNL     1      -3.406   1.003 -31.764  1.00  0.00     0.257 C 
HETATM    8  N   UNL     1      -4.010   2.159 -32.349  1.00  0.00    -0.303 N 
HETATM    9  H   UNL     1      -4.785   2.059 -32.986  1.00  0.00     0.171 HD
HETATM   10  O   UNL     1      -2.616   1.119 -30.846  1.00  0.00    -0.267 OA
BRANCH   8  11
HETATM   11  C   UNL     1      -3.623   3.403 -32.096  1.00  0.00     0.152 A 
HETATM   12  N   UNL     1      -2.390   3.834 -32.442  1.00  0.00    -0.339 N 
HETATM   13  C   UNL     1      -2.132   5.134 -32.060  1.00  0.00     0.024 A 
HETATM   14  H   UNL     1      -1.751   3.222 -32.946  1.00  0.00     0.168 HD
HETATM   15  C   UNL     1      -0.813   5.765 -32.310  1.00  0.00     0.060 C 
HETATM   16  C   UNL     1      -3.176   5.742 -31.420  1.00  0.00     0.011 A 
HETATM   17  C   UNL     1      -0.896   7.299 -32.126  1.00  0.00     0.039 C 
HETATM   18  C   UNL     1      -1.776   7.774 -30.945  1.00  0.00     0.188 C 
HETATM   19  C   UNL     1      -3.203   7.167 -30.962  1.00  0.00     0.081 C 
HETATM   20  S   UNL     1      -4.492   4.673 -31.265  1.00  0.00    -0.056 SA
BRANCH  18  21
HETATM   21  N   UNL     1      -1.096   7.462 -29.646  1.00  0.00    -0.075 N 
HETATM   22  H   UNL     1      -1.356   8.137 -28.909  1.00  0.00     0.274 HD
HETATM   23  H   UNL     1      -1.400   6.542 -29.283  1.00  0.00     0.274 HD
HETATM   24  H   UNL     1      -0.069   7.433 -29.691  1.00  0.00     0.274 HD
ENDBRANCH  18  21
ENDBRANCH   8  11
ENDBRANCH   1   7
BRANCH   5  25
HETATM   25  C   UNL     1      -6.419  -1.851 -34.606  1.00  0.00     0.161 C 
BRANCH  25  26
HETATM   26  N   UNL     1      -7.478  -0.963 -34.187  1.00  0.00    -0.353 N 
HETATM   27  C   UNL     1      -7.729   0.247 -34.801  1.00  0.00     0.251 C 
HETATM   28  O   UNL     1      -7.053   0.700 -35.721  1.00  0.00    -0.268 OA
HETATM   29  H   UNL     1      -8.168  -1.344 -33.554  1.00  0.00     0.163 HD
BRANCH  27  30
HETATM   30  C   UNL     1      -8.919   0.985 -34.287  1.00  0.00     0.032 A 
HETATM   31  C   UNL     1      -9.057   2.369 -34.455  1.00  0.00     0.018 A 
HETATM   32  C   UNL     1     -10.169   3.040 -33.927  1.00  0.00     0.015 A 
HETATM   33  C   UNL     1     -11.163   2.340 -33.229  1.00  0.00    -0.005 A 
HETATM   34  C   UNL     1     -11.029   0.948 -33.096  1.00  0.00     0.015 A 
HETATM   35  C   UNL     1      -9.920   0.274 -33.621  1.00  0.00     0.018 A 
BRANCH  33  36
HETATM   36  C   UNL     1     -12.327   3.009 -32.651  1.00  0.00     0.091 A 
HETATM   37  C   UNL     1     -12.278   4.091 -31.787  1.00  0.00     0.099 A 
HETATM   38  S   UNL     1     -13.895   4.497 -31.374  1.00  0.00    -0.008 SA
HETATM   39  N   UNL     1     -14.540   3.275 -32.314  1.00  0.00    -0.037 NA
HETATM   40  N   UNL     1     -13.615   2.560 -32.932  1.00  0.00    -0.169 NA
ENDBRANCH  33  36
ENDBRANCH  27  30
ENDBRANCH  25  26
ENDBRANCH   5  25
TORSDOF 7
ENDMDL
MODEL 8
REMARK VINA RESULT:      -9.0      4.473      7.626
REMARK  7 active torsions:
REMARK  status: ('A' for Active; 'I' for Inactive)
REMARK    1  A    between atoms: N_1  and  C_5 
REMARK    2  A    between atoms: C_11  and  N_12 
REMARK       I    between atoms: N_12  and  C_13 
REMARK    3  A    between atoms: C_13  and  C_15 
REMARK    4  A    between atoms: C_19  and  C_20 
REMARK    5  A    between atoms: C_20  and  N_21 
REMARK       I    between atoms: N_21  and  C_22 
REMARK    6  A    between atoms: C_22  and  C_24 
REMARK    7  A    between atoms: C_27  and  C_30 
ROOT
HETATM    1  C   UNL     1      -4.697   0.508 -32.959  1.00  0.00     0.033 A 
HETATM    2  C   UNL     1      -4.239  -0.815 -32.932  1.00  0.00     0.017 A 
HETATM    3  C   UNL     1      -4.914  -1.801 -33.650  1.00  0.00     0.002 A 
HETATM    4  C   UNL     1      -6.046  -1.474 -34.398  1.00  0.00     0.009 A 
HETATM    5  C   UNL     1      -6.500  -0.152 -34.455  1.00  0.00    -0.040 A 
HETATM    6  C   UNL     1      -5.812   0.838 -33.737  1.00  0.00     0.026 A 
ENDROOT
BRANCH   1   7
HETATM    7  C   UNL     1      -3.963   1.537 -32.185  1.00  0.00     0.257 C 
HETATM    8  N   UNL     1      -4.318   2.902 -32.411  1.00  0.00    -0.303 N 
HETATM    9  H   UNL     1      -5.147   3.132 -32.938  1.00  0.00     0.171 HD
HETATM   10  O   UNL     1      -3.092   1.251 -31.386  1.00  0.00    -0.267 OA
BRANCH   8  11
HETATM   11  C   UNL     1      -3.621   3.934 -31.949  1.00  0.00     0.152 A 
HETATM   12  N   UNL     1      -2.281   3.997 -32.109  1.00  0.00    -0.339 N 
HETATM   13  C   UNL     1      -1.707   5.106 -31.524  1.00  0.00     0.024 A 
HETATM   14  H   UNL     1      -1.787   3.274 -32.630  1.00  0.00     0.168 HD
HETATM   15  C   UNL     1      -0.239   5.323 -31.553  1.00  0.00     0.060 C 
HETATM   16  C   UNL     1      -2.603   5.937 -30.910  1.00  0.00     0.011 A 
HETATM   17  C   UNL     1       0.107   6.780 -31.165  1.00  0.00     0.039 C 
HETATM   18  C   UNL     1      -0.746   7.377 -30.019  1.00  0.00     0.188 C 
HETATM   19  C   UNL     1      -2.272   7.244 -30.261  1.00  0.00     0.081 C 
HETATM   20  S   UNL     1      -4.183   5.316 -31.036  1.00  0.00    -0.056 SA
BRANCH  18  21
HETATM   21  N   UNL     1      -0.370   6.735 -28.717  1.00  0.00    -0.075 N 
HETATM   22  H   UNL     1       0.616   6.429 -28.716  1.00  0.00     0.274 HD
HETATM   23  H   UNL     1      -0.439   7.413 -27.940  1.00  0.00     0.274 HD
HETATM   24  H   UNL     1      -0.946   5.926 -28.451  1.00  0.00     0.274 HD
ENDBRANCH  18  21
ENDBRANCH   8  11
ENDBRANCH   1   7
BRANCH   5  25
HETATM   25  C   UNL     1      -7.753   0.209 -35.214  1.00  0.00     0.161 C 
BRANCH  25  26
HETATM   26  N   UNL     1      -8.551   1.166 -34.485  1.00  0.00    -0.353 N 
HETATM   27  C   UNL     1      -9.395   0.808 -33.454  1.00  0.00     0.251 C 
HETATM   28  O   UNL     1      -9.581  -0.352 -33.093  1.00  0.00    -0.268 OA
HETATM   29  H   UNL     1      -8.323   2.142 -34.615  1.00  0.00     0.163 HD
BRANCH  27  30
HETATM   30  C   UNL     1     -10.070   1.945 -32.762  1.00  0.00     0.032 A 
HETATM   31  C   UNL     1      -9.494   2.577 -31.652  1.00  0.00     0.018 A 
HETATM   32  C   UNL     1     -10.171   3.618 -31.000  1.00  0.00     0.015 A 
HETATM   33  C   UNL     1     -11.428   4.047 -31.448  1.00  0.00    -0.005 A 
HETATM   34  C   UNL     1     -11.979   3.425 -32.582  1.00  0.00     0.015 A 
HETATM   35  C   UNL     1     -11.306   2.386 -33.236  1.00  0.00     0.018 A 
BRANCH  33  36
HETATM   36  C   UNL     1     -12.169   5.116 -30.784  1.00  0.00     0.091 A 
HETATM   37  C   UNL     1     -13.483   5.027 -30.351  1.00  0.00     0.099 A 
HETATM   38  S   UNL     1     -13.903   6.542 -29.658  1.00  0.00    -0.008 SA
HETATM   39  N   UNL     1     -12.397   7.201 -29.957  1.00  0.00    -0.037 NA
HETATM   40  N   UNL     1     -11.576   6.356 -30.556  1.00  0.00    -0.169 NA
ENDBRANCH  33  36
ENDBRANCH  27  30
ENDBRANCH  25  26
ENDBRANCH   5  25
TORSDOF 7
ENDMDL
MODEL 9
REMARK VINA RESULT:      -8.9      4.333     11.828
REMARK  7 active torsions:
REMARK  status: ('A' for Active; 'I' for Inactive)
REMARK    1  A    between atoms: N_1  and  C_5 
REMARK    2  A    between atoms: C_11  and  N_12 
REMARK       I    between atoms: N_12  and  C_13 
REMARK    3  A    between atoms: C_13  and  C_15 
REMARK    4  A    between atoms: C_19  and  C_20 
REMARK    5  A    between atoms: C_20  and  N_21 
REMARK       I    between atoms: N_21  and  C_22 
REMARK    6  A    between atoms: C_22  and  C_24 
REMARK    7  A    between atoms: C_27  and  C_30 
ROOT
HETATM    1  C   UNL     1      -6.041   1.186 -31.699  1.00  0.00     0.033 A 
HETATM    2  C   UNL     1      -5.446   0.066 -31.107  1.00  0.00     0.017 A 
HETATM    3  C   UNL     1      -4.060   0.008 -30.964  1.00  0.00     0.002 A 
HETATM    4  C   UNL     1      -3.263   1.064 -31.408  1.00  0.00     0.009 A 
HETATM    5  C   UNL     1      -3.847   2.201 -31.978  1.00  0.00    -0.040 A 
HETATM    6  C   UNL     1      -5.242   2.258 -32.112  1.00  0.00     0.026 A 
ENDROOT
BRANCH   1   7
HETATM    7  C   UNL     1      -7.516   1.223 -31.842  1.00  0.00     0.257 C 
HETATM    8  N   UNL     1      -8.065   2.206 -32.722  1.00  0.00    -0.303 N 
HETATM    9  H   UNL     1      -7.463   2.724 -33.344  1.00  0.00     0.171 HD
HETATM   10  O   UNL     1      -8.246   0.456 -31.243  1.00  0.00    -0.267 OA
BRANCH   8  11
HETATM   11  C   UNL     1      -9.360   2.491 -32.797  1.00  0.00     0.152 A 
HETATM   12  N   UNL     1      -9.966   3.237 -31.848  1.00  0.00    -0.339 N 
HETATM   13  C   UNL     1     -11.321   3.393 -32.051  1.00  0.00     0.024 A 
HETATM   14  H   UNL     1      -9.427   3.635 -31.080  1.00  0.00     0.168 HD
HETATM   15  C   UNL     1     -12.165   4.141 -31.086  1.00  0.00     0.060 C 
HETATM   16  C   UNL     1     -11.788   2.778 -33.179  1.00  0.00     0.011 A 
HETATM   17  C   UNL     1     -13.540   4.480 -31.710  1.00  0.00     0.039 C 
HETATM   18  C   UNL     1     -14.159   3.363 -32.585  1.00  0.00     0.188 C 
HETATM   19  C   UNL     1     -13.196   2.842 -33.683  1.00  0.00     0.081 C 
HETATM   20  S   UNL     1     -10.529   1.968 -33.988  1.00  0.00    -0.056 SA
BRANCH  18  21
HETATM   21  N   UNL     1     -14.615   2.229 -31.716  1.00  0.00    -0.075 N 
HETATM   22  H   UNL     1     -14.618   1.335 -32.231  1.00  0.00     0.274 HD
HETATM   23  H   UNL     1     -13.960   2.081 -30.930  1.00  0.00     0.274 HD
HETATM   24  H   UNL     1     -15.547   2.351 -31.300  1.00  0.00     0.274 HD
ENDBRANCH  18  21
ENDBRANCH   8  11
ENDBRANCH   1   7
BRANCH   5  25
HETATM   25  C   UNL     1      -2.997   3.327 -32.511  1.00  0.00     0.161 C 
BRANCH  25  26
HETATM   26  N   UNL     1      -2.399   4.086 -31.439  1.00  0.00    -0.353 N 
HETATM   27  C   UNL     1      -1.371   4.985 -31.638  1.00  0.00     0.251 C 
HETATM   28  O   UNL     1      -0.841   5.187 -32.728  1.00  0.00    -0.268 OA
HETATM   29  H   UNL     1      -2.892   4.093 -30.556  1.00  0.00     0.163 HD
BRANCH  27  30
HETATM   30  C   UNL     1      -0.943   5.740 -30.425  1.00  0.00     0.032 A 
HETATM   31  C   UNL     1      -1.602   6.905 -30.012  1.00  0.00     0.018 A 
HETATM   32  C   UNL     1      -1.151   7.614 -28.889  1.00  0.00     0.015 A 
HETATM   33  C   UNL     1      -0.043   7.167 -28.157  1.00  0.00    -0.005 A 
HETATM   34  C   UNL     1       0.589   5.979 -28.562  1.00  0.00     0.015 A 
HETATM   35  C   UNL     1       0.143   5.269 -29.684  1.00  0.00     0.018 A 
BRANCH  33  36
HETATM   36  C   UNL     1       0.464   7.889 -26.992  1.00  0.00     0.091 A 
HETATM   37  C   UNL     1       1.797   7.972 -26.623  1.00  0.00     0.099 A 
HETATM   38  S   UNL     1       1.877   8.905 -25.182  1.00  0.00    -0.008 SA
HETATM   39  N   UNL     1       0.223   9.133 -25.128  1.00  0.00    -0.037 NA
HETATM   40  N   UNL     1      -0.410   8.548 -26.130  1.00  0.00    -0.169 NA
ENDBRANCH  33  36
ENDBRANCH  27  30
ENDBRANCH  25  26
ENDBRANCH   5  25
TORSDOF 7
ENDMDL
MODEL 10
REMARK VINA RESULT:      -8.7      4.696     11.201
REMARK  7 active torsions:
REMARK  status: ('A' for Active; 'I' for Inactive)
REMARK    1  A    between atoms: N_1  and  C_5 
REMARK    2  A    between atoms: C_11  and  N_12 
REMARK       I    between atoms: N_12  and  C_13 
REMARK    3  A    between atoms: C_13  and  C_15 
REMARK    4  A    between atoms: C_19  and  C_20 
REMARK    5  A    between atoms: C_20  and  N_21 
REMARK       I    between atoms: N_21  and  C_22 
REMARK    6  A    between atoms: C_22  and  C_24 
REMARK    7  A    between atoms: C_27  and  C_30 
ROOT
HETATM    1  C   UNL     1      -7.849   0.013 -33.031  1.00  0.00     0.033 A 
HETATM    2  C   UNL     1      -7.501  -0.845 -34.081  1.00  0.00     0.017 A 
HETATM    3  C   UNL     1      -6.249  -1.458 -34.095  1.00  0.00     0.002 A 
HETATM    4  C   UNL     1      -5.340  -1.221 -33.062  1.00  0.00     0.009 A 
HETATM    5  C   UNL     1      -5.684  -0.387 -31.993  1.00  0.00    -0.040 A 
HETATM    6  C   UNL     1      -6.949   0.221 -31.980  1.00  0.00     0.026 A 
ENDROOT
BRANCH   1   7
HETATM    7  C   UNL     1      -9.185   0.654 -33.041  1.00  0.00     0.257 C 
HETATM    8  N   UNL     1      -9.245   2.038 -33.389  1.00  0.00    -0.303 N 
HETATM    9  H   UNL     1      -8.437   2.500 -33.778  1.00  0.00     0.171 HD
HETATM   10  O   UNL     1     -10.201   0.042 -32.768  1.00  0.00    -0.267 OA
BRANCH   8  11
HETATM   11  C   UNL     1     -10.330   2.790 -33.248  1.00  0.00     0.152 A 
HETATM   12  N   UNL     1     -10.897   2.975 -32.035  1.00  0.00    -0.339 N 
HETATM   13  C   UNL     1     -12.045   3.738 -32.074  1.00  0.00     0.024 A 
HETATM   14  H   UNL     1     -10.471   2.578 -31.199  1.00  0.00     0.168 HD
HETATM   15  C   UNL     1     -12.834   4.009 -30.846  1.00  0.00     0.060 C 
HETATM   16  C   UNL     1     -12.381   4.173 -33.326  1.00  0.00     0.011 A 
HETATM   17  C   UNL     1     -13.841   5.159 -31.085  1.00  0.00     0.039 C 
HETATM   18  C   UNL     1     -14.532   5.153 -32.470  1.00  0.00     0.188 C 
HETATM   19  C   UNL     1     -13.531   5.074 -33.652  1.00  0.00     0.081 C 
HETATM   20  S   UNL     1     -11.269   3.603 -34.480  1.00  0.00    -0.056 SA
BRANCH  18  21
HETATM   21  N   UNL     1     -15.512   4.021 -32.545  1.00  0.00    -0.075 N 
HETATM   22  H   UNL     1     -15.963   3.850 -31.632  1.00  0.00     0.274 HD
HETATM   23  H   UNL     1     -16.289   4.249 -33.188  1.00  0.00     0.274 HD
HETATM   24  H   UNL     1     -15.118   3.129 -32.868  1.00  0.00     0.274 HD
ENDBRANCH  18  21
ENDBRANCH   8  11
ENDBRANCH   1   7
BRANCH   5  25
HETATM   25  C   UNL     1      -4.694  -0.078 -30.897  1.00  0.00     0.161 C 
BRANCH  25  26
HETATM   26  N   UNL     1      -4.447   1.341 -30.799  1.00  0.00    -0.353 N 
HETATM   27  C   UNL     1      -3.613   2.019 -31.664  1.00  0.00     0.251 C 
HETATM   28  O   UNL     1      -2.971   1.478 -32.561  1.00  0.00    -0.268 OA
HETATM   29  H   UNL     1      -5.065   1.870 -30.198  1.00  0.00     0.163 HD
BRANCH  27  30
HETATM   30  C   UNL     1      -3.552   3.496 -31.460  1.00  0.00     0.032 A 
HETATM   31  C   UNL     1      -4.620   4.207 -30.899  1.00  0.00     0.018 A 
HETATM   32  C   UNL     1      -4.547   5.600 -30.756  1.00  0.00     0.015 A 
HETATM   33  C   UNL     1      -3.405   6.303 -31.164  1.00  0.00    -0.005 A 
HETATM   34  C   UNL     1      -2.328   5.574 -31.695  1.00  0.00     0.015 A 
HETATM   35  C   UNL     1      -2.397   4.183 -31.840  1.00  0.00     0.018 A 
BRANCH  33  36
HETATM   36  C   UNL     1      -3.300   7.756 -31.045  1.00  0.00     0.091 A 
HETATM   37  C   UNL     1      -4.165   8.562 -30.322  1.00  0.00     0.099 A 
HETATM   38  S   UNL     1      -3.638  10.186 -30.510  1.00  0.00    -0.008 SA
HETATM   39  N   UNL     1      -2.357   9.754 -31.492  1.00  0.00    -0.037 NA
HETATM   40  N   UNL     1      -2.288   8.450 -31.703  1.00  0.00    -0.169 NA
ENDBRANCH  33  36
ENDBRANCH  27  30
ENDBRANCH  25  26
ENDBRANCH   5  25
TORSDOF 7
ENDMDL
