MODEL 1
REMARK VINA RESULT:      -8.6      0.000      0.000
REMARK  6 active torsions:
REMARK  status: ('A' for Active; 'I' for Inactive)
REMARK    1  A    between atoms: C_2  and  C_3 
REMARK    2  A    between atoms: C_7  and  N_8 
REMARK       I    between atoms: N_8  and  C_9 
REMARK    3  A    between atoms: C_9  and  C_10 
REMARK    4  A    between atoms: C_11  and  C_12 
REMARK    5  A    between atoms: C_14  and  O_15 
REMARK    6  A    between atoms: C_17  and  O_18 
ROOT
HETATM    1  N   UNL     1      -7.684  -0.348 -33.648  1.00  0.00    -0.322 N 
HETATM    2  C   UNL     1      -7.909   0.459 -34.750  1.00  0.00     0.245 C 
HETATM    3  O   UNL     1      -7.142   0.657 -35.682  1.00  0.00    -0.268 OA
HETATM    4  H   UNL     1      -8.251  -0.130 -32.843  1.00  0.00     0.169 HD
ENDROOT
BRANCH   1   5
HETATM    5  C   UNL     1      -6.448  -1.019 -33.396  1.00  0.00     0.055 C 
HETATM    6  C   UNL     1      -6.128  -2.278 -33.983  1.00  0.00     0.020 A 
HETATM    7  C   UNL     1      -4.819  -2.751 -33.787  1.00  0.00     0.069 A 
HETATM    8  C   UNL     1      -7.029  -3.121 -34.690  1.00  0.00     0.016 A 
HETATM    9  N   UNL     1      -3.905  -2.090 -33.067  1.00  0.00    -0.252 NA
HETATM   10  C   UNL     1      -4.434  -3.965 -34.343  1.00  0.00     0.032 A 
HETATM   11  C   UNL     1      -4.237  -0.932 -32.455  1.00  0.00     0.043 C 
HETATM   12  C   UNL     1      -5.525  -0.385 -32.531  1.00  0.00    -0.010 C 
HETATM   13  C   UNL     1      -5.871   0.883 -31.796  1.00  0.00     0.052 C 
HETATM   14  C   UNL     1      -5.319  -4.760 -35.071  1.00  0.00     0.002 A 
HETATM   15  C   UNL     1      -6.629  -4.341 -35.235  1.00  0.00     0.001 A 
BRANCH  11  16
HETATM   16  C   UNL     1      -3.129  -0.263 -31.666  1.00  0.00     0.055 C 
HETATM   17  C   UNL     1      -1.851  -1.087 -31.539  1.00  0.00     0.011 C 
ENDBRANCH  11  16
ENDBRANCH   1   5
BRANCH   2  18
HETATM   18  C   UNL     1      -9.206   1.191 -34.656  1.00  0.00     0.075 C 
HETATM   19  C   UNL     1     -10.111   0.782 -33.752  1.00  0.00     0.017 C 
BRANCH  19  20
HETATM   20  C   UNL     1     -11.444   1.363 -33.540  1.00  0.00    -0.033 A 
HETATM   21  C   UNL     1     -11.526   2.661 -33.006  1.00  0.00     0.051 A 
HETATM   22  C   UNL     1     -12.762   3.245 -32.704  1.00  0.00     0.102 A 
HETATM   23  C   UNL     1     -13.936   2.510 -32.935  1.00  0.00     0.101 A 
HETATM   24  C   UNL     1     -13.867   1.227 -33.483  1.00  0.00     0.040 A 
HETATM   25  C   UNL     1     -12.626   0.652 -33.770  1.00  0.00     0.014 A 
BRANCH  22  26
HETATM   26  O   UNL     1     -12.927   4.498 -32.174  1.00  0.00    -0.353 OA
HETATM   27  C   UNL     1     -12.589   4.681 -30.806  1.00  0.00     0.210 C 
ENDBRANCH  22  26
BRANCH  23  28
HETATM   28  O   UNL     1     -15.137   3.112 -32.653  1.00  0.00    -0.353 OA
HETATM   29  C   UNL     1     -16.068   2.248 -32.008  1.00  0.00     0.210 C 
ENDBRANCH  23  28
ENDBRANCH  19  20
ENDBRANCH   2  18
TORSDOF 6
ENDMDL
MODEL 2
REMARK VINA RESULT:      -8.1      0.927      1.813
REMARK  6 active torsions:
REMARK  status: ('A' for Active; 'I' for Inactive)
REMARK    1  A    between atoms: C_2  and  C_3 
REMARK    2  A    between atoms: C_7  and  N_8 
REMARK       I    between atoms: N_8  and  C_9 
REMARK    3  A    between atoms: C_9  and  C_10 
REMARK    4  A    between atoms: C_11  and  C_12 
REMARK    5  A    between atoms: C_14  and  O_15 
REMARK    6  A    between atoms: C_17  and  O_18 
ROOT
HETATM    1  N   UNL     1      -7.540  -0.569 -33.657  1.00  0.00    -0.322 N 
HETATM    2  C   UNL     1      -7.712   0.267 -34.748  1.00  0.00     0.245 C 
HETATM    3  O   UNL     1      -6.898   0.492 -35.634  1.00  0.00    -0.268 OA
HETATM    4  H   UNL     1      -8.149  -0.374 -32.877  1.00  0.00     0.169 HD
ENDROOT
BRANCH   1   5
HETATM    5  C   UNL     1      -6.315  -1.241 -33.359  1.00  0.00     0.055 C 
HETATM    6  C   UNL     1      -5.964  -2.490 -33.950  1.00  0.00     0.020 A 
HETATM    7  C   UNL     1      -4.664  -2.963 -33.701  1.00  0.00     0.069 A 
HETATM    8  C   UNL     1      -6.829  -3.323 -34.712  1.00  0.00     0.016 A 
HETATM    9  N   UNL     1      -3.787  -2.311 -32.930  1.00  0.00    -0.252 NA
HETATM   10  C   UNL     1      -4.251  -4.167 -34.258  1.00  0.00     0.032 A 
HETATM   11  C   UNL     1      -4.149  -1.164 -32.315  1.00  0.00     0.043 C 
HETATM   12  C   UNL     1      -5.434  -0.619 -32.442  1.00  0.00    -0.010 C 
HETATM   13  C   UNL     1      -5.817   0.637 -31.704  1.00  0.00     0.052 C 
HETATM   14  C   UNL     1      -5.099  -4.953 -35.038  1.00  0.00     0.002 A 
HETATM   15  C   UNL     1      -6.400  -4.533 -35.256  1.00  0.00     0.001 A 
BRANCH  11  16
HETATM   16  C   UNL     1      -3.081  -0.505 -31.466  1.00  0.00     0.055 C 
HETATM   17  C   UNL     1      -1.707  -1.166 -31.544  1.00  0.00     0.011 C 
ENDBRANCH  11  16
ENDBRANCH   1   5
BRANCH   2  18
HETATM   18  C   UNL     1      -9.016   0.990 -34.703  1.00  0.00     0.075 C 
HETATM   19  C   UNL     1      -9.554   1.270 -33.504  1.00  0.00     0.017 C 
BRANCH  19  20
HETATM   20  C   UNL     1     -10.837   1.948 -33.270  1.00  0.00    -0.033 A 
HETATM   21  C   UNL     1     -11.956   1.523 -34.008  1.00  0.00     0.051 A 
HETATM   22  C   UNL     1     -13.190   2.175 -33.894  1.00  0.00     0.102 A 
HETATM   23  C   UNL     1     -13.300   3.277 -33.031  1.00  0.00     0.101 A 
HETATM   24  C   UNL     1     -12.199   3.696 -32.279  1.00  0.00     0.040 A 
HETATM   25  C   UNL     1     -10.971   3.042 -32.410  1.00  0.00     0.014 A 
BRANCH  22  26
HETATM   26  O   UNL     1     -14.324   1.831 -34.584  1.00  0.00    -0.353 OA
HETATM   27  C   UNL     1     -14.962   0.611 -34.229  1.00  0.00     0.210 C 
ENDBRANCH  22  26
BRANCH  23  28
HETATM   28  O   UNL     1     -14.526   3.886 -32.919  1.00  0.00    -0.353 OA
HETATM   29  C   UNL     1     -14.448   5.306 -32.834  1.00  0.00     0.210 C 
ENDBRANCH  23  28
ENDBRANCH  19  20
ENDBRANCH   2  18
TORSDOF 6
ENDMDL
MODEL 3
REMARK VINA RESULT:      -8.0      0.785      3.008
REMARK  6 active torsions:
REMARK  status: ('A' for Active; 'I' for Inactive)
REMARK    1  A    between atoms: C_2  and  C_3 
REMARK    2  A    between atoms: C_7  and  N_8 
REMARK       I    between atoms: N_8  and  C_9 
REMARK    3  A    between atoms: C_9  and  C_10 
REMARK    4  A    between atoms: C_11  and  C_12 
REMARK    5  A    between atoms: C_14  and  O_15 
REMARK    6  A    between atoms: C_17  and  O_18 
ROOT
HETATM    1  N   UNL     1      -7.524  -0.602 -33.880  1.00  0.00    -0.322 N 
HETATM    2  C   UNL     1      -7.840   0.297 -34.885  1.00  0.00     0.245 C 
HETATM    3  O   UNL     1      -7.074   0.769 -35.713  1.00  0.00    -0.268 OA
HETATM    4  H   UNL     1      -8.171  -0.614 -33.106  1.00  0.00     0.169 HD
ENDROOT
BRANCH   1   5
HETATM    5  C   UNL     1      -6.196  -1.052 -33.608  1.00  0.00     0.055 C 
HETATM    6  C   UNL     1      -5.279  -0.298 -32.819  1.00  0.00     0.020 A 
HETATM    7  C   UNL     1      -4.065  -0.924 -32.490  1.00  0.00     0.069 A 
HETATM    8  C   UNL     1      -5.458   1.047 -32.391  1.00  0.00     0.016 A 
HETATM    9  N   UNL     1      -3.744  -2.155 -32.906  1.00  0.00    -0.252 NA
HETATM   10  C   UNL     1      -3.130  -0.252 -31.712  1.00  0.00     0.032 A 
HETATM   11  C   UNL     1      -4.587  -2.836 -33.713  1.00  0.00     0.043 C 
HETATM   12  C   UNL     1      -5.803  -2.298 -34.153  1.00  0.00    -0.010 C 
HETATM   13  C   UNL     1      -6.695  -3.068 -35.090  1.00  0.00     0.052 C 
HETATM   14  C   UNL     1      -3.340   1.052 -31.264  1.00  0.00     0.002 A 
HETATM   15  C   UNL     1      -4.506   1.710 -31.617  1.00  0.00     0.001 A 
BRANCH  11  16
HETATM   16  C   UNL     1      -4.129  -4.221 -34.125  1.00  0.00     0.055 C 
HETATM   17  C   UNL     1      -3.178  -4.897 -33.142  1.00  0.00     0.011 C 
ENDBRANCH  11  16
ENDBRANCH   1   5
BRANCH   2  18
HETATM   18  C   UNL     1      -9.262   0.745 -34.812  1.00  0.00     0.075 C 
HETATM   19  C   UNL     1      -9.692   1.339 -33.686  1.00  0.00     0.017 C 
BRANCH  19  20
HETATM   20  C   UNL     1     -11.058   1.816 -33.428  1.00  0.00    -0.033 A 
HETATM   21  C   UNL     1     -11.217   3.034 -32.745  1.00  0.00     0.051 A 
HETATM   22  C   UNL     1     -12.487   3.509 -32.397  1.00  0.00     0.102 A 
HETATM   23  C   UNL     1     -13.615   2.744 -32.733  1.00  0.00     0.101 A 
HETATM   24  C   UNL     1     -13.469   1.542 -33.429  1.00  0.00     0.040 A 
HETATM   25  C   UNL     1     -12.195   1.074 -33.762  1.00  0.00     0.014 A 
BRANCH  22  26
HETATM   26  O   UNL     1     -12.728   4.679 -31.723  1.00  0.00    -0.353 OA
HETATM   27  C   UNL     1     -12.509   5.896 -32.424  1.00  0.00     0.210 C 
ENDBRANCH  22  26
BRANCH  23  28
HETATM   28  O   UNL     1     -14.852   3.242 -32.401  1.00  0.00    -0.353 OA
HETATM   29  C   UNL     1     -15.797   2.232 -32.060  1.00  0.00     0.210 C 
ENDBRANCH  23  28
ENDBRANCH  19  20
ENDBRANCH   2  18
TORSDOF 6
ENDMDL
MODEL 4
REMARK VINA RESULT:      -8.0      1.302      1.581
REMARK  6 active torsions:
REMARK  status: ('A' for Active; 'I' for Inactive)
REMARK    1  A    between atoms: C_2  and  C_3 
REMARK    2  A    between atoms: C_7  and  N_8 
REMARK       I    between atoms: N_8  and  C_9 
REMARK    3  A    between atoms: C_9  and  C_10 
REMARK    4  A    between atoms: C_11  and  C_12 
REMARK    5  A    between atoms: C_14  and  O_15 
REMARK    6  A    between atoms: C_17  and  O_18 
ROOT
HETATM    1  N   UNL     1      -8.371  -0.210 -32.715  1.00  0.00    -0.322 N 
HETATM    2  C   UNL     1      -9.079   0.503 -33.668  1.00  0.00     0.245 C 
HETATM    3  O   UNL     1      -8.636   0.987 -34.700  1.00  0.00    -0.268 OA
HETATM    4  H   UNL     1      -8.797  -0.229 -31.800  1.00  0.00     0.169 HD
ENDROOT
BRANCH   1   5
HETATM    5  C   UNL     1      -6.958  -0.413 -32.765  1.00  0.00     0.055 C 
HETATM    6  C   UNL     1      -6.361  -1.439 -33.555  1.00  0.00     0.020 A 
HETATM    7  C   UNL     1      -4.959  -1.429 -33.647  1.00  0.00     0.069 A 
HETATM    8  C   UNL     1      -7.052  -2.502 -34.200  1.00  0.00     0.016 A 
HETATM    9  N   UNL     1      -4.193  -0.532 -33.015  1.00  0.00    -0.252 NA
HETATM   10  C   UNL     1      -4.311  -2.392 -34.412  1.00  0.00     0.032 A 
HETATM   11  C   UNL     1      -4.761   0.394 -32.212  1.00  0.00     0.043 C 
HETATM   12  C   UNL     1      -6.145   0.453 -31.996  1.00  0.00    -0.010 C 
HETATM   13  C   UNL     1      -6.738   1.469 -31.057  1.00  0.00     0.052 C 
HETATM   14  C   UNL     1      -5.007  -3.403 -35.074  1.00  0.00     0.002 A 
HETATM   15  C   UNL     1      -6.385  -3.465 -34.957  1.00  0.00     0.001 A 
BRANCH  11  16
HETATM   16  C   UNL     1      -3.806   1.362 -31.544  1.00  0.00     0.055 C 
HETATM   17  C   UNL     1      -3.427   2.572 -32.394  1.00  0.00     0.011 C 
ENDBRANCH  11  16
ENDBRANCH   1   5
BRANCH   2  18
HETATM   18  C   UNL     1     -10.497   0.731 -33.261  1.00  0.00     0.075 C 
HETATM   19  C   UNL     1     -11.060   1.920 -33.535  1.00  0.00     0.017 C 
BRANCH  19  20
HETATM   20  C   UNL     1     -12.429   2.328 -33.185  1.00  0.00    -0.033 A 
HETATM   21  C   UNL     1     -12.611   3.575 -32.563  1.00  0.00     0.051 A 
HETATM   22  C   UNL     1     -13.876   3.992 -32.132  1.00  0.00     0.102 A 
HETATM   23  C   UNL     1     -14.975   3.138 -32.321  1.00  0.00     0.101 A 
HETATM   24  C   UNL     1     -14.808   1.905 -32.955  1.00  0.00     0.040 A 
HETATM   25  C   UNL     1     -13.538   1.497 -33.372  1.00  0.00     0.014 A 
BRANCH  22  26
HETATM   26  O   UNL     1     -14.137   5.186 -31.511  1.00  0.00    -0.353 OA
HETATM   27  C   UNL     1     -13.768   5.308 -30.144  1.00  0.00     0.210 C 
ENDBRANCH  22  26
BRANCH  23  28
HETATM   28  O   UNL     1     -16.209   3.579 -31.910  1.00  0.00    -0.353 OA
HETATM   29  C   UNL     1     -17.258   2.650 -32.169  1.00  0.00     0.210 C 
ENDBRANCH  23  28
ENDBRANCH  19  20
ENDBRANCH   2  18
TORSDOF 6
ENDMDL
MODEL 5
REMARK VINA RESULT:      -7.7      5.569      9.235
REMARK  6 active torsions:
REMARK  status: ('A' for Active; 'I' for Inactive)
REMARK    1  A    between atoms: C_2  and  C_3 
REMARK    2  A    between atoms: C_7  and  N_8 
REMARK       I    between atoms: N_8  and  C_9 
REMARK    3  A    between atoms: C_9  and  C_10 
REMARK    4  A    between atoms: C_11  and  C_12 
REMARK    5  A    between atoms: C_14  and  O_15 
REMARK    6  A    between atoms: C_17  and  O_18 
ROOT
HETATM    1  N   UNL     1      -4.648   1.372 -31.744  1.00  0.00    -0.322 N 
HETATM    2  C   UNL     1      -4.292   2.598 -32.283  1.00  0.00     0.245 C 
HETATM    3  O   UNL     1      -4.745   3.112 -33.296  1.00  0.00    -0.268 OA
HETATM    4  H   UNL     1      -3.957   0.964 -31.133  1.00  0.00     0.169 HD
ENDROOT
BRANCH   1   5
HETATM    5  C   UNL     1      -5.565   0.470 -32.365  1.00  0.00     0.055 C 
HETATM    6  C   UNL     1      -6.975   0.677 -32.342  1.00  0.00     0.020 A 
HETATM    7  C   UNL     1      -7.754  -0.190 -33.127  1.00  0.00     0.069 A 
HETATM    8  C   UNL     1      -7.664   1.638 -31.550  1.00  0.00     0.016 A 
HETATM    9  N   UNL     1      -7.230  -1.188 -33.848  1.00  0.00    -0.252 NA
HETATM   10  C   UNL     1      -9.135  -0.037 -33.162  1.00  0.00     0.032 A 
HETATM   11  C   UNL     1      -5.900  -1.423 -33.809  1.00  0.00     0.043 C 
HETATM   12  C   UNL     1      -5.026  -0.661 -33.022  1.00  0.00    -0.010 C 
HETATM   13  C   UNL     1      -3.556  -0.982 -32.968  1.00  0.00     0.052 C 
HETATM   14  C   UNL     1      -9.791   0.939 -32.412  1.00  0.00     0.002 A 
HETATM   15  C   UNL     1      -9.051   1.773 -31.591  1.00  0.00     0.001 A 
BRANCH  11  16
HETATM   16  C   UNL     1      -5.409  -2.575 -34.663  1.00  0.00     0.055 C 
HETATM   17  C   UNL     1      -6.443  -3.670 -34.911  1.00  0.00     0.011 C 
ENDBRANCH  11  16
ENDBRANCH   1   5
BRANCH   2  18
HETATM   18  C   UNL     1      -3.170   3.237 -31.534  1.00  0.00     0.075 C 
HETATM   19  C   UNL     1      -3.081   4.577 -31.531  1.00  0.00     0.017 C 
BRANCH  19  20
HETATM   20  C   UNL     1      -2.033   5.371 -30.874  1.00  0.00    -0.033 A 
HETATM   21  C   UNL     1      -2.378   6.639 -30.372  1.00  0.00     0.051 A 
HETATM   22  C   UNL     1      -1.413   7.481 -29.806  1.00  0.00     0.102 A 
HETATM   23  C   UNL     1      -0.079   7.047 -29.750  1.00  0.00     0.101 A 
HETATM   24  C   UNL     1       0.270   5.782 -30.229  1.00  0.00     0.040 A 
HETATM   25  C   UNL     1      -0.700   4.955 -30.800  1.00  0.00     0.014 A 
BRANCH  22  26
HETATM   26  O   UNL     1      -1.664   8.732 -29.303  1.00  0.00    -0.353 OA
HETATM   27  C   UNL     1      -2.545   8.827 -28.192  1.00  0.00     0.210 C 
ENDBRANCH  22  26
BRANCH  23  28
HETATM   28  O   UNL     1       0.844   7.881 -29.169  1.00  0.00    -0.353 OA
HETATM   29  C   UNL     1       1.087   7.590 -27.796  1.00  0.00     0.210 C 
ENDBRANCH  23  28
ENDBRANCH  19  20
ENDBRANCH   2  18
TORSDOF 6
ENDMDL
MODEL 6
REMARK VINA RESULT:      -7.7      4.984      8.954
REMARK  6 active torsions:
REMARK  status: ('A' for Active; 'I' for Inactive)
REMARK    1  A    between atoms: C_2  and  C_3 
REMARK    2  A    between atoms: C_7  and  N_8 
REMARK       I    between atoms: N_8  and  C_9 
REMARK    3  A    between atoms: C_9  and  C_10 
REMARK    4  A    between atoms: C_11  and  C_12 
REMARK    5  A    between atoms: C_14  and  O_15 
REMARK    6  A    between atoms: C_17  and  O_18 
ROOT
HETATM    1  N   UNL     1      -4.377   3.644 -32.385  1.00  0.00    -0.322 N 
HETATM    2  C   UNL     1      -5.518   3.621 -33.171  1.00  0.00     0.245 C 
HETATM    3  O   UNL     1      -6.241   4.570 -33.440  1.00  0.00    -0.268 OA
HETATM    4  H   UNL     1      -4.114   2.750 -31.998  1.00  0.00     0.169 HD
ENDROOT
BRANCH   1   5
HETATM    5  C   UNL     1      -3.919   4.803 -31.686  1.00  0.00     0.055 C 
HETATM    6  C   UNL     1      -4.521   5.253 -30.475  1.00  0.00     0.020 A 
HETATM    7  C   UNL     1      -3.876   6.304 -29.802  1.00  0.00     0.069 A 
HETATM    8  C   UNL     1      -5.744   4.777 -29.926  1.00  0.00     0.016 A 
HETATM    9  N   UNL     1      -2.767   6.893 -30.264  1.00  0.00    -0.252 NA
HETATM   10  C   UNL     1      -4.401   6.784 -28.608  1.00  0.00     0.032 A 
HETATM   11  C   UNL     1      -2.241   6.509 -31.448  1.00  0.00     0.043 C 
HETATM   12  C   UNL     1      -2.824   5.509 -32.238  1.00  0.00    -0.010 C 
HETATM   13  C   UNL     1      -2.236   5.140 -33.575  1.00  0.00     0.052 C 
HETATM   14  C   UNL     1      -5.579   6.276 -28.060  1.00  0.00     0.002 A 
HETATM   15  C   UNL     1      -6.261   5.275 -28.730  1.00  0.00     0.001 A 
BRANCH  11  16
HETATM   16  C   UNL     1      -0.985   7.238 -31.878  1.00  0.00     0.055 C 
HETATM   17  C   UNL     1       0.302   6.725 -31.237  1.00  0.00     0.011 C 
ENDBRANCH  11  16
ENDBRANCH   1   5
BRANCH   2  18
HETATM   18  C   UNL     1      -5.869   2.240 -33.612  1.00  0.00     0.075 C 
HETATM   19  C   UNL     1      -5.130   1.213 -33.161  1.00  0.00     0.017 C 
BRANCH  19  20
HETATM   20  C   UNL     1      -5.313  -0.203 -33.510  1.00  0.00    -0.033 A 
HETATM   21  C   UNL     1      -4.310  -1.114 -33.137  1.00  0.00     0.051 A 
HETATM   22  C   UNL     1      -4.381  -2.463 -33.506  1.00  0.00     0.102 A 
HETATM   23  C   UNL     1      -5.474  -2.902 -34.270  1.00  0.00     0.101 A 
HETATM   24  C   UNL     1      -6.486  -2.009 -34.631  1.00  0.00     0.040 A 
HETATM   25  C   UNL     1      -6.398  -0.663 -34.263  1.00  0.00     0.014 A 
BRANCH  22  26
HETATM   26  O   UNL     1      -3.443  -3.411 -33.191  1.00  0.00    -0.353 OA
HETATM   27  C   UNL     1      -3.019  -3.490 -31.837  1.00  0.00     0.210 C 
ENDBRANCH  22  26
BRANCH  23  28
HETATM   28  O   UNL     1      -5.534  -4.233 -34.600  1.00  0.00    -0.353 OA
HETATM   29  C   UNL     1      -6.603  -4.551 -35.487  1.00  0.00     0.210 C 
ENDBRANCH  23  28
ENDBRANCH  19  20
ENDBRANCH   2  18
TORSDOF 6
ENDMDL
MODEL 7
REMARK VINA RESULT:      -7.6      6.885     10.187
REMARK  6 active torsions:
REMARK  status: ('A' for Active; 'I' for Inactive)
REMARK    1  A    between atoms: C_2  and  C_3 
REMARK    2  A    between atoms: C_7  and  N_8 
REMARK       I    between atoms: N_8  and  C_9 
REMARK    3  A    between atoms: C_9  and  C_10 
REMARK    4  A    between atoms: C_11  and  C_12 
REMARK    5  A    between atoms: C_14  and  O_15 
REMARK    6  A    between atoms: C_17  and  O_18 
ROOT
HETATM    1  N   UNL     1      -2.062   5.450 -30.823  1.00  0.00    -0.322 N 
HETATM    2  C   UNL     1      -1.699   5.131 -32.121  1.00  0.00     0.245 C 
HETATM    3  O   UNL     1      -0.879   5.715 -32.817  1.00  0.00    -0.268 OA
HETATM    4  H   UNL     1      -2.963   5.097 -30.539  1.00  0.00     0.169 HD
ENDROOT
BRANCH   1   5
HETATM    5  C   UNL     1      -1.575   6.596 -30.123  1.00  0.00     0.055 C 
HETATM    6  C   UNL     1      -2.256   7.848 -30.139  1.00  0.00     0.020 A 
HETATM    7  C   UNL     1      -1.764   8.846 -29.280  1.00  0.00     0.069 A 
HETATM    8  C   UNL     1      -3.344   8.194 -30.989  1.00  0.00     0.016 A 
HETATM    9  N   UNL     1      -0.695   8.669 -28.496  1.00  0.00    -0.252 NA
HETATM   10  C   UNL     1      -2.389  10.087 -29.235  1.00  0.00     0.032 A 
HETATM   11  C   UNL     1      -0.012   7.504 -28.538  1.00  0.00     0.043 C 
HETATM   12  C   UNL     1      -0.372   6.454 -29.392  1.00  0.00    -0.010 C 
HETATM   13  C   UNL     1       0.442   5.188 -29.446  1.00  0.00     0.052 C 
HETATM   14  C   UNL     1      -3.482  10.396 -30.045  1.00  0.00     0.002 A 
HETATM   15  C   UNL     1      -3.954   9.447 -30.936  1.00  0.00     0.001 A 
BRANCH  11  16
HETATM   16  C   UNL     1       1.182   7.407 -27.609  1.00  0.00     0.055 C 
HETATM   17  C   UNL     1       1.785   8.749 -27.203  1.00  0.00     0.011 C 
ENDBRANCH  11  16
ENDBRANCH   1   5
BRANCH   2  18
HETATM   18  C   UNL     1      -2.508   4.005 -32.671  1.00  0.00     0.075 C 
HETATM   19  C   UNL     1      -3.075   3.141 -31.813  1.00  0.00     0.017 C 
BRANCH  19  20
HETATM   20  C   UNL     1      -3.878   1.965 -32.175  1.00  0.00    -0.033 A 
HETATM   21  C   UNL     1      -5.127   2.175 -32.785  1.00  0.00     0.051 A 
HETATM   22  C   UNL     1      -5.978   1.105 -33.084  1.00  0.00     0.102 A 
HETATM   23  C   UNL     1      -5.572  -0.199 -32.757  1.00  0.00     0.101 A 
HETATM   24  C   UNL     1      -4.325  -0.421 -32.168  1.00  0.00     0.040 A 
HETATM   25  C   UNL     1      -3.489   0.657 -31.866  1.00  0.00     0.014 A 
BRANCH  22  26
HETATM   26  O   UNL     1      -7.212   1.226 -33.668  1.00  0.00    -0.353 OA
HETATM   27  C   UNL     1      -8.247   1.821 -32.897  1.00  0.00     0.210 C 
ENDBRANCH  22  26
BRANCH  23  28
HETATM   28  O   UNL     1      -6.413  -1.234 -33.081  1.00  0.00    -0.353 OA
HETATM   29  C   UNL     1      -5.934  -2.041 -34.154  1.00  0.00     0.210 C 
ENDBRANCH  23  28
ENDBRANCH  19  20
ENDBRANCH   2  18
TORSDOF 6
ENDMDL
MODEL 8
REMARK VINA RESULT:      -7.6      2.468      9.015
REMARK  6 active torsions:
REMARK  status: ('A' for Active; 'I' for Inactive)
REMARK    1  A    between atoms: C_2  and  C_3 
REMARK    2  A    between atoms: C_7  and  N_8 
REMARK       I    between atoms: N_8  and  C_9 
REMARK    3  A    between atoms: C_9  and  C_10 
REMARK    4  A    between atoms: C_11  and  C_12 
REMARK    5  A    between atoms: C_14  and  O_15 
REMARK    6  A    between atoms: C_17  and  O_18 
ROOT
HETATM    1  N   UNL     1     -10.061   2.059 -32.655  1.00  0.00    -0.322 N 
HETATM    2  C   UNL     1      -9.237   2.216 -33.757  1.00  0.00     0.245 C 
HETATM    3  O   UNL     1      -9.454   2.908 -34.742  1.00  0.00    -0.268 OA
HETATM    4  H   UNL     1      -9.897   1.219 -32.122  1.00  0.00     0.169 HD
ENDROOT
BRANCH   1   5
HETATM    5  C   UNL     1     -11.363   2.637 -32.551  1.00  0.00     0.055 C 
HETATM    6  C   UNL     1     -12.529   1.990 -33.054  1.00  0.00     0.020 A 
HETATM    7  C   UNL     1     -13.765   2.584 -32.744  1.00  0.00     0.069 A 
HETATM    8  C   UNL     1     -12.548   0.840 -33.891  1.00  0.00     0.016 A 
HETATM    9  N   UNL     1     -13.872   3.715 -32.038  1.00  0.00    -0.252 NA
HETATM   10  C   UNL     1     -14.943   1.999 -33.191  1.00  0.00     0.032 A 
HETATM   11  C   UNL     1     -12.760   4.361 -31.624  1.00  0.00     0.043 C 
HETATM   12  C   UNL     1     -11.470   3.898 -31.917  1.00  0.00    -0.010 C 
HETATM   13  C   UNL     1     -10.254   4.670 -31.480  1.00  0.00     0.052 C 
HETATM   14  C   UNL     1     -14.946   0.846 -33.976  1.00  0.00     0.002 A 
HETATM   15  C   UNL     1     -13.740   0.270 -34.338  1.00  0.00     0.001 A 
BRANCH  11  16
HETATM   16  C   UNL     1     -12.993   5.631 -30.831  1.00  0.00     0.055 C 
HETATM   17  C   UNL     1     -14.156   5.564 -29.845  1.00  0.00     0.011 C 
ENDBRANCH  11  16
ENDBRANCH   1   5
BRANCH   2  18
HETATM   18  C   UNL     1      -8.029   1.343 -33.685  1.00  0.00     0.075 C 
HETATM   19  C   UNL     1      -8.141   0.058 -34.060  1.00  0.00     0.017 C 
BRANCH  19  20
HETATM   20  C   UNL     1      -7.070  -0.948 -34.029  1.00  0.00    -0.033 A 
HETATM   21  C   UNL     1      -5.896  -0.646 -33.317  1.00  0.00     0.051 A 
HETATM   22  C   UNL     1      -4.806  -1.524 -33.311  1.00  0.00     0.102 A 
HETATM   23  C   UNL     1      -4.892  -2.721 -34.039  1.00  0.00     0.101 A 
HETATM   24  C   UNL     1      -6.061  -3.040 -34.734  1.00  0.00     0.040 A 
HETATM   25  C   UNL     1      -7.139  -2.151 -34.740  1.00  0.00     0.014 A 
BRANCH  22  26
HETATM   26  O   UNL     1      -3.624  -1.300 -32.652  1.00  0.00    -0.353 OA
HETATM   27  C   UNL     1      -3.352   0.028 -32.227  1.00  0.00     0.210 C 
ENDBRANCH  22  26
BRANCH  23  28
HETATM   28  O   UNL     1      -3.819  -3.577 -34.000  1.00  0.00    -0.353 OA
HETATM   29  C   UNL     1      -4.188  -4.953 -34.025  1.00  0.00     0.210 C 
ENDBRANCH  23  28
ENDBRANCH  19  20
ENDBRANCH   2  18
TORSDOF 6
ENDMDL
MODEL 9
REMARK VINA RESULT:      -7.5      5.460      9.525
REMARK  6 active torsions:
REMARK  status: ('A' for Active; 'I' for Inactive)
REMARK    1  A    between atoms: C_2  and  C_3 
REMARK    2  A    between atoms: C_7  and  N_8 
REMARK       I    between atoms: N_8  and  C_9 
REMARK    3  A    between atoms: C_9  and  C_10 
REMARK    4  A    between atoms: C_11  and  C_12 
REMARK    5  A    between atoms: C_14  and  O_15 
REMARK    6  A    between atoms: C_17  and  O_18 
ROOT
HETATM    1  N   UNL     1      -3.931   4.327 -32.160  1.00  0.00    -0.322 N 
HETATM    2  C   UNL     1      -4.350   3.151 -31.561  1.00  0.00     0.245 C 
HETATM    3  O   UNL     1      -4.555   2.969 -30.369  1.00  0.00    -0.268 OA
HETATM    4  H   UNL     1      -3.493   4.208 -33.061  1.00  0.00     0.169 HD
ENDROOT
BRANCH   1   5
HETATM    5  C   UNL     1      -3.587   5.508 -31.433  1.00  0.00     0.055 C 
HETATM    6  C   UNL     1      -2.237   5.859 -31.140  1.00  0.00     0.020 A 
HETATM    7  C   UNL     1      -2.024   7.123 -30.565  1.00  0.00     0.069 A 
HETATM    8  C   UNL     1      -1.100   5.021 -31.317  1.00  0.00     0.016 A 
HETATM    9  N   UNL     1      -3.020   7.967 -30.270  1.00  0.00    -0.252 NA
HETATM   10  C   UNL     1      -0.731   7.536 -30.265  1.00  0.00     0.032 A 
HETATM   11  C   UNL     1      -4.302   7.599 -30.486  1.00  0.00     0.043 C 
HETATM   12  C   UNL     1      -4.645   6.343 -31.005  1.00  0.00    -0.010 C 
HETATM   13  C   UNL     1      -6.087   5.951 -31.187  1.00  0.00     0.052 C 
HETATM   14  C   UNL     1       0.377   6.718 -30.485  1.00  0.00     0.002 A 
HETATM   15  C   UNL     1       0.189   5.448 -31.004  1.00  0.00     0.001 A 
BRANCH  11  16
HETATM   16  C   UNL     1      -5.353   8.628 -30.119  1.00  0.00     0.055 C 
HETATM   17  C   UNL     1      -5.431   9.824 -31.063  1.00  0.00     0.011 C 
ENDBRANCH  11  16
ENDBRANCH   1   5
BRANCH   2  18
HETATM   18  C   UNL     1      -4.443   2.025 -32.536  1.00  0.00     0.075 C 
HETATM   19  C   UNL     1      -5.173   0.947 -32.205  1.00  0.00     0.017 C 
BRANCH  19  20
HETATM   20  C   UNL     1      -5.353  -0.260 -33.025  1.00  0.00    -0.033 A 
HETATM   21  C   UNL     1      -4.469  -1.335 -32.827  1.00  0.00     0.051 A 
HETATM   22  C   UNL     1      -4.533  -2.482 -33.626  1.00  0.00     0.102 A 
HETATM   23  C   UNL     1      -5.494  -2.548 -34.648  1.00  0.00     0.101 A 
HETATM   24  C   UNL     1      -6.389  -1.492 -34.841  1.00  0.00     0.040 A 
HETATM   25  C   UNL     1      -6.309  -0.349 -34.042  1.00  0.00     0.014 A 
BRANCH  22  26
HETATM   26  O   UNL     1      -3.705  -3.568 -33.504  1.00  0.00    -0.353 OA
HETATM   27  C   UNL     1      -3.118  -3.806 -32.232  1.00  0.00     0.210 C 
ENDBRANCH  22  26
BRANCH  23  28
HETATM   28  O   UNL     1      -5.552  -3.692 -35.404  1.00  0.00    -0.353 OA
HETATM   29  C   UNL     1      -6.726  -4.467 -35.172  1.00  0.00     0.210 C 
ENDBRANCH  23  28
ENDBRANCH  19  20
ENDBRANCH   2  18
TORSDOF 6
ENDMDL
MODEL 10
REMARK VINA RESULT:      -7.5      5.299      8.347
REMARK  6 active torsions:
REMARK  status: ('A' for Active; 'I' for Inactive)
REMARK    1  A    between atoms: C_2  and  C_3 
REMARK    2  A    between atoms: C_7  and  N_8 
REMARK       I    between atoms: N_8  and  C_9 
REMARK    3  A    between atoms: C_9  and  C_10 
REMARK    4  A    between atoms: C_11  and  C_12 
REMARK    5  A    between atoms: C_14  and  O_15 
REMARK    6  A    between atoms: C_17  and  O_18 
ROOT
HETATM    1  N   UNL     1      -5.062   1.886 -32.589  1.00  0.00    -0.322 N 
HETATM    2  C   UNL     1      -4.739   2.258 -31.294  1.00  0.00     0.245 C 
HETATM    3  O   UNL     1      -5.045   1.671 -30.266  1.00  0.00    -0.268 OA
HETATM    4  H   UNL     1      -5.032   2.636 -33.263  1.00  0.00     0.169 HD
ENDROOT
BRANCH   1   5
HETATM    5  C   UNL     1      -5.899   0.773 -32.908  1.00  0.00     0.055 C 
HETATM    6  C   UNL     1      -7.321   0.842 -32.838  1.00  0.00     0.020 A 
HETATM    7  C   UNL     1      -8.032  -0.264 -33.334  1.00  0.00     0.069 A 
HETATM    8  C   UNL     1      -8.077   1.897 -32.255  1.00  0.00     0.016 A 
HETATM    9  N   UNL     1      -7.432  -1.354 -33.828  1.00  0.00    -0.252 NA
HETATM   10  C   UNL     1      -9.421  -0.259 -33.309  1.00  0.00     0.032 A 
HETATM   11  C   UNL     1      -6.084  -1.442 -33.826  1.00  0.00     0.043 C 
HETATM   12  C   UNL     1      -5.266  -0.427 -33.310  1.00  0.00    -0.010 C 
HETATM   13  C   UNL     1      -3.769  -0.581 -33.282  1.00  0.00     0.052 C 
HETATM   14  C   UNL     1     -10.148   0.803 -32.773  1.00  0.00     0.002 A 
HETATM   15  C   UNL     1      -9.471   1.883 -32.231  1.00  0.00     0.001 A 
BRANCH  11  16
HETATM   16  C   UNL     1      -5.506  -2.716 -34.409  1.00  0.00     0.055 C 
HETATM   17  C   UNL     1      -6.545  -3.741 -34.855  1.00  0.00     0.011 C 
ENDBRANCH  11  16
ENDBRANCH   1   5
BRANCH   2  18
HETATM   18  C   UNL     1      -4.023   3.566 -31.247  1.00  0.00     0.075 C 
HETATM   19  C   UNL     1      -4.747   4.697 -31.291  1.00  0.00     0.017 C 
BRANCH  19  20
HETATM   20  C   UNL     1      -4.212   6.066 -31.283  1.00  0.00    -0.033 A 
HETATM   21  C   UNL     1      -3.188   6.384 -32.192  1.00  0.00     0.051 A 
HETATM   22  C   UNL     1      -2.579   7.644 -32.185  1.00  0.00     0.102 A 
HETATM   23  C   UNL     1      -2.999   8.598 -31.245  1.00  0.00     0.101 A 
HETATM   24  C   UNL     1      -4.029   8.299 -30.349  1.00  0.00     0.040 A 
HETATM   25  C   UNL     1      -4.622   7.034 -30.360  1.00  0.00     0.014 A 
BRANCH  22  26
HETATM   26  O   UNL     1      -1.569   8.030 -33.029  1.00  0.00    -0.353 OA
HETATM   27  C   UNL     1      -1.076   7.063 -33.946  1.00  0.00     0.210 C 
ENDBRANCH  22  26
BRANCH  23  28
HETATM   28  O   UNL     1      -2.402   9.835 -31.272  1.00  0.00    -0.353 OA
HETATM   29  C   UNL     1      -2.503  10.542 -30.040  1.00  0.00     0.210 C 
ENDBRANCH  23  28
ENDBRANCH  19  20
ENDBRANCH   2  18
TORSDOF 6
ENDMDL
