MODEL 1
REMARK VINA RESULT:      -8.3      0.000      0.000
REMARK  5 active torsions:
REMARK  status: ('A' for Active; 'I' for Inactive)
REMARK    1  A    between atoms: C_8  and  C_9 
REMARK    2  A    between atoms: N_10  and  N_11 
REMARK       I    between atoms: N_11  and  C_12 
REMARK    3  A    between atoms: C_12  and  C_13 
REMARK    4  A    between atoms: C_13  and  N_14 
REMARK    5  A    between atoms: N_14  and  C_15 
ROOT
HETATM    1  N   UNL     1      -9.384   1.124 -34.672  1.00  0.00    -0.246 N 
HETATM    2  C   UNL     1      -9.609   2.447 -34.291  1.00  0.00     0.255 C 
HETATM    3  O   UNL     1      -8.739   3.272 -34.019  1.00  0.00    -0.270 OA
HETATM    4  H   UNL     1     -10.155   0.467 -34.599  1.00  0.00     0.192 HD
ENDROOT
BRANCH   1   5
HETATM    5  N   UNL     1      -8.150   0.520 -34.768  1.00  0.00    -0.184 NA
HETATM    6  C   UNL     1      -7.720  -0.149 -33.743  1.00  0.00     0.152 C 
BRANCH   6   7
HETATM    7  C   UNL     1      -6.440  -0.825 -33.805  1.00  0.00     0.011 A 
HETATM    8  C   UNL     1      -6.212  -2.191 -34.173  1.00  0.00     0.004 A 
HETATM    9  C   UNL     1      -7.048  -3.255 -34.575  1.00  0.00     0.014 A 
HETATM   10  C   UNL     1      -4.838  -2.426 -34.085  1.00  0.00     0.043 A 
HETATM   11  C   UNL     1      -6.488  -4.504 -34.865  1.00  0.00     0.001 A 
HETATM   12  C   UNL     1      -5.114  -4.705 -34.763  1.00  0.00     0.002 A 
HETATM   13  C   UNL     1      -4.261  -3.669 -34.373  1.00  0.00     0.030 A 
HETATM   14  N   UNL     1      -4.252  -1.246 -33.687  1.00  0.00    -0.364 N 
HETATM   15  H   UNL     1      -3.259  -1.120 -33.546  1.00  0.00     0.165 HD
HETATM   16  C   UNL     1      -5.203  -0.278 -33.515  1.00  0.00     0.102 A 
ENDBRANCH   6   7
ENDBRANCH   1   5
BRANCH   2  17
HETATM   17  C   UNL     1     -11.097   2.803 -34.266  1.00  0.00     0.224 C 
BRANCH  17  18
HETATM   18  N   UNL     1     -11.808   2.065 -33.220  1.00  0.00    -0.381 N 
HETATM   19  H   UNL     1     -11.532   1.097 -33.091  1.00  0.00     0.160 HD
BRANCH  18  20
HETATM   20  C   UNL     1     -13.150   2.331 -32.958  1.00  0.00     0.028 A 
HETATM   21  C   UNL     1     -14.112   1.382 -33.334  1.00  0.00     0.030 A 
HETATM   22  C   UNL     1     -15.468   1.557 -33.036  1.00  0.00     0.021 A 
HETATM   23  C   UNL     1     -15.878   2.682 -32.329  1.00  0.00     0.011 A 
HETATM   24 BR   UNL     1     -17.704   2.922 -31.908  1.00  0.00    -0.051 Br
HETATM   25  C   UNL     1     -14.942   3.623 -31.915  1.00  0.00     0.021 A 
HETATM   26  C   UNL     1     -13.588   3.440 -32.221  1.00  0.00     0.030 A 
ENDBRANCH  18  20
ENDBRANCH  17  18
ENDBRANCH   2  17
TORSDOF 5
ENDMDL
MODEL 2
REMARK VINA RESULT:      -8.2      7.470     10.164
REMARK  5 active torsions:
REMARK  status: ('A' for Active; 'I' for Inactive)
REMARK    1  A    between atoms: C_8  and  C_9 
REMARK    2  A    between atoms: N_10  and  N_11 
REMARK       I    between atoms: N_11  and  C_12 
REMARK    3  A    between atoms: C_12  and  C_13 
REMARK    4  A    between atoms: C_13  and  N_14 
REMARK    5  A    between atoms: N_14  and  C_15 
ROOT
HETATM    1  N   UNL     1      -3.097   3.166 -31.100  1.00  0.00    -0.246 N 
HETATM    2  C   UNL     1      -2.678   4.227 -31.904  1.00  0.00     0.255 C 
HETATM    3  O   UNL     1      -2.226   4.125 -33.042  1.00  0.00    -0.270 OA
HETATM    4  H   UNL     1      -3.184   3.329 -30.100  1.00  0.00     0.192 HD
ENDROOT
BRANCH   1   5
HETATM    5  N   UNL     1      -3.036   1.833 -31.439  1.00  0.00    -0.184 NA
HETATM    6  C   UNL     1      -4.066   1.308 -32.025  1.00  0.00     0.152 C 
BRANCH   6   7
HETATM    7  C   UNL     1      -4.041  -0.085 -32.425  1.00  0.00     0.011 A 
HETATM    8  C   UNL     1      -4.940  -0.729 -33.336  1.00  0.00     0.004 A 
HETATM    9  C   UNL     1      -6.047  -0.296 -34.098  1.00  0.00     0.014 A 
HETATM   10  C   UNL     1      -4.560  -2.070 -33.424  1.00  0.00     0.043 A 
HETATM   11  C   UNL     1      -6.731  -1.210 -34.907  1.00  0.00     0.001 A 
HETATM   12  C   UNL     1      -6.328  -2.542 -34.968  1.00  0.00     0.002 A 
HETATM   13  C   UNL     1      -5.233  -2.998 -34.228  1.00  0.00     0.030 A 
HETATM   14  N   UNL     1      -3.467  -2.234 -32.604  1.00  0.00    -0.364 N 
HETATM   15  H   UNL     1      -2.975  -3.107 -32.474  1.00  0.00     0.165 HD
HETATM   16  C   UNL     1      -3.145  -1.049 -32.000  1.00  0.00     0.102 A 
ENDBRANCH   6   7
ENDBRANCH   1   5
BRANCH   2  17
HETATM   17  C   UNL     1      -2.863   5.584 -31.225  1.00  0.00     0.224 C 
BRANCH  17  18
HETATM   18  N   UNL     1      -1.676   6.427 -31.375  1.00  0.00    -0.381 N 
HETATM   19  H   UNL     1      -1.183   6.350 -32.259  1.00  0.00     0.160 HD
BRANCH  18  20
HETATM   20  C   UNL     1      -0.867   6.708 -30.277  1.00  0.00     0.028 A 
HETATM   21  C   UNL     1      -0.958   7.972 -29.677  1.00  0.00     0.030 A 
HETATM   22  C   UNL     1      -0.225   8.292 -28.528  1.00  0.00     0.021 A 
HETATM   23  C   UNL     1       0.597   7.333 -27.947  1.00  0.00     0.011 A 
HETATM   24 BR   UNL     1       1.581   7.749 -26.389  1.00  0.00    -0.051 Br
HETATM   25  C   UNL     1       0.682   6.061 -28.501  1.00  0.00     0.021 A 
HETATM   26  C   UNL     1      -0.053   5.752 -29.652  1.00  0.00     0.030 A 
ENDBRANCH  18  20
ENDBRANCH  17  18
ENDBRANCH   2  17
TORSDOF 5
ENDMDL
MODEL 3
REMARK VINA RESULT:      -7.7      1.638      2.470
REMARK  5 active torsions:
REMARK  status: ('A' for Active; 'I' for Inactive)
REMARK    1  A    between atoms: C_8  and  C_9 
REMARK    2  A    between atoms: N_10  and  N_11 
REMARK       I    between atoms: N_11  and  C_12 
REMARK    3  A    between atoms: C_12  and  C_13 
REMARK    4  A    between atoms: C_13  and  N_14 
REMARK    5  A    between atoms: N_14  and  C_15 
ROOT
HETATM    1  N   UNL     1      -8.524   0.360 -34.388  1.00  0.00    -0.246 N 
HETATM    2  C   UNL     1      -8.248   1.603 -33.818  1.00  0.00     0.255 C 
HETATM    3  O   UNL     1      -7.323   1.847 -33.047  1.00  0.00    -0.270 OA
HETATM    4  H   UNL     1      -9.451   0.206 -34.774  1.00  0.00     0.192 HD
ENDROOT
BRANCH   1   5
HETATM    5  N   UNL     1      -7.826  -0.803 -34.146  1.00  0.00    -0.184 NA
HETATM    6  C   UNL     1      -6.726  -0.998 -34.805  1.00  0.00     0.152 C 
BRANCH   6   7
HETATM    7  C   UNL     1      -5.942  -2.193 -34.567  1.00  0.00     0.011 A 
HETATM    8  C   UNL     1      -4.890  -2.348 -33.606  1.00  0.00     0.004 A 
HETATM    9  C   UNL     1      -4.304  -1.499 -32.642  1.00  0.00     0.014 A 
HETATM   10  C   UNL     1      -4.402  -3.651 -33.724  1.00  0.00     0.043 A 
HETATM   11  C   UNL     1      -3.259  -1.976 -31.844  1.00  0.00     0.001 A 
HETATM   12  C   UNL     1      -2.793  -3.280 -31.991  1.00  0.00     0.002 A 
HETATM   13  C   UNL     1      -3.357  -4.144 -32.933  1.00  0.00     0.030 A 
HETATM   14  N   UNL     1      -5.134  -4.268 -34.713  1.00  0.00    -0.364 N 
HETATM   15  H   UNL     1      -5.001  -5.225 -35.011  1.00  0.00     0.165 HD
HETATM   16  C   UNL     1      -6.061  -3.403 -35.227  1.00  0.00     0.102 A 
ENDBRANCH   6   7
ENDBRANCH   1   5
BRANCH   2  17
HETATM   17  C   UNL     1      -9.224   2.687 -34.279  1.00  0.00     0.224 C 
BRANCH  17  18
HETATM   18  N   UNL     1     -10.392   2.109 -34.946  1.00  0.00    -0.381 N 
HETATM   19  H   UNL     1     -10.386   2.137 -35.960  1.00  0.00     0.160 HD
BRANCH  18  20
HETATM   20  C   UNL     1     -11.655   2.207 -34.366  1.00  0.00     0.028 A 
HETATM   21  C   UNL     1     -12.681   1.376 -34.840  1.00  0.00     0.030 A 
HETATM   22  C   UNL     1     -13.951   1.375 -34.252  1.00  0.00     0.021 A 
HETATM   23  C   UNL     1     -14.204   2.195 -33.157  1.00  0.00     0.011 A 
HETATM   24 BR   UNL     1     -15.911   2.192 -32.348  1.00  0.00    -0.051 Br
HETATM   25  C   UNL     1     -13.196   3.004 -32.646  1.00  0.00     0.021 A 
HETATM   26  C   UNL     1     -11.930   2.999 -33.243  1.00  0.00     0.030 A 
ENDBRANCH  18  20
ENDBRANCH  17  18
ENDBRANCH   2  17
TORSDOF 5
ENDMDL
MODEL 4
REMARK VINA RESULT:      -7.7      7.359      8.892
REMARK  5 active torsions:
REMARK  status: ('A' for Active; 'I' for Inactive)
REMARK    1  A    between atoms: C_8  and  C_9 
REMARK    2  A    between atoms: N_10  and  N_11 
REMARK       I    between atoms: N_11  and  C_12 
REMARK    3  A    between atoms: C_12  and  C_13 
REMARK    4  A    between atoms: C_13  and  N_14 
REMARK    5  A    between atoms: N_14  and  C_15 
ROOT
HETATM    1  N   UNL     1      -3.770   2.170 -32.344  1.00  0.00    -0.246 N 
HETATM    2  C   UNL     1      -4.474   2.903 -31.388  1.00  0.00     0.255 C 
HETATM    3  O   UNL     1      -4.882   2.470 -30.313  1.00  0.00    -0.270 OA
HETATM    4  H   UNL     1      -3.730   2.534 -33.292  1.00  0.00     0.192 HD
ENDROOT
BRANCH   1   5
HETATM    5  N   UNL     1      -3.452   0.834 -32.252  1.00  0.00    -0.184 NA
HETATM    6  C   UNL     1      -4.241  -0.019 -32.828  1.00  0.00     0.152 C 
BRANCH   6   7
HETATM    7  C   UNL     1      -3.935  -1.435 -32.782  1.00  0.00     0.011 A 
HETATM    8  C   UNL     1      -4.519  -2.463 -33.592  1.00  0.00     0.004 A 
HETATM    9  C   UNL     1      -5.487  -2.475 -34.620  1.00  0.00     0.014 A 
HETATM   10  C   UNL     1      -3.946  -3.677 -33.208  1.00  0.00     0.043 A 
HETATM   11  C   UNL     1      -5.847  -3.688 -35.217  1.00  0.00     0.001 A 
HETATM   12  C   UNL     1      -5.258  -4.882 -34.807  1.00  0.00     0.002 A 
HETATM   13  C   UNL     1      -4.294  -4.899 -33.795  1.00  0.00     0.030 A 
HETATM   14  N   UNL     1      -3.041  -3.398 -32.209  1.00  0.00    -0.364 N 
HETATM   15  H   UNL     1      -2.471  -4.090 -31.744  1.00  0.00     0.165 HD
HETATM   16  C   UNL     1      -3.025  -2.055 -31.945  1.00  0.00     0.102 A 
ENDBRANCH   6   7
ENDBRANCH   1   5
BRANCH   2  17
HETATM   17  C   UNL     1      -4.679   4.361 -31.804  1.00  0.00     0.224 C 
BRANCH  17  18
HETATM   18  N   UNL     1      -3.435   4.962 -32.287  1.00  0.00    -0.381 N 
HETATM   19  H   UNL     1      -3.004   4.512 -33.088  1.00  0.00     0.160 HD
BRANCH  18  20
HETATM   20  C   UNL     1      -2.541   5.548 -31.394  1.00  0.00     0.028 A 
HETATM   21  C   UNL     1      -1.179   5.234 -31.499  1.00  0.00     0.030 A 
HETATM   22  C   UNL     1      -0.222   5.843 -30.678  1.00  0.00     0.021 A 
HETATM   23  C   UNL     1      -0.619   6.801 -29.751  1.00  0.00     0.011 A 
HETATM   24 BR   UNL     1       0.664   7.639 -28.648  1.00  0.00    -0.051 Br
HETATM   25  C   UNL     1      -1.960   7.156 -29.649  1.00  0.00     0.021 A 
HETATM   26  C   UNL     1      -2.908   6.538 -30.472  1.00  0.00     0.030 A 
ENDBRANCH  18  20
ENDBRANCH  17  18
ENDBRANCH   2  17
TORSDOF 5
ENDMDL
MODEL 5
REMARK VINA RESULT:      -7.7      2.825      3.497
REMARK  5 active torsions:
REMARK  status: ('A' for Active; 'I' for Inactive)
REMARK    1  A    between atoms: C_8  and  C_9 
REMARK    2  A    between atoms: N_10  and  N_11 
REMARK       I    between atoms: N_11  and  C_12 
REMARK    3  A    between atoms: C_12  and  C_13 
REMARK    4  A    between atoms: C_13  and  N_14 
REMARK    5  A    between atoms: N_14  and  C_15 
ROOT
HETATM    1  N   UNL     1      -9.362   1.323 -34.742  1.00  0.00    -0.246 N 
HETATM    2  C   UNL     1     -10.312   1.808 -33.843  1.00  0.00     0.255 C 
HETATM    3  O   UNL     1     -10.161   1.909 -32.627  1.00  0.00    -0.270 OA
HETATM    4  H   UNL     1      -9.681   1.023 -35.659  1.00  0.00     0.192 HD
ENDROOT
BRANCH   1   5
HETATM    5  N   UNL     1      -8.116   0.843 -34.406  1.00  0.00    -0.184 NA
HETATM    6  C   UNL     1      -7.864  -0.408 -34.638  1.00  0.00     0.152 C 
BRANCH   6   7
HETATM    7  C   UNL     1      -6.558  -0.954 -34.326  1.00  0.00     0.011 A 
HETATM    8  C   UNL     1      -6.154  -2.324 -34.446  1.00  0.00     0.004 A 
HETATM    9  C   UNL     1      -6.798  -3.507 -34.870  1.00  0.00     0.014 A 
HETATM   10  C   UNL     1      -4.824  -2.407 -34.030  1.00  0.00     0.043 A 
HETATM   11  C   UNL     1      -6.097  -4.718 -34.857  1.00  0.00     0.001 A 
HETATM   12  C   UNL     1      -4.772  -4.766 -34.433  1.00  0.00     0.002 A 
HETATM   13  C   UNL     1      -4.108  -3.610 -34.012  1.00  0.00     0.030 A 
HETATM   14  N   UNL     1      -4.430  -1.135 -33.679  1.00  0.00    -0.364 N 
HETATM   15  H   UNL     1      -3.508  -0.893 -33.345  1.00  0.00     0.165 HD
HETATM   16  C   UNL     1      -5.463  -0.254 -33.853  1.00  0.00     0.102 A 
ENDBRANCH   6   7
ENDBRANCH   1   5
BRANCH   2  17
HETATM   17  C   UNL     1     -11.603   2.247 -34.536  1.00  0.00     0.224 C 
BRANCH  17  18
HETATM   18  N   UNL     1     -11.327   3.091 -35.700  1.00  0.00    -0.381 N 
HETATM   19  H   UNL     1     -10.609   2.757 -36.334  1.00  0.00     0.160 HD
BRANCH  18  20
HETATM   20  C   UNL     1     -11.422   4.478 -35.604  1.00  0.00     0.028 A 
HETATM   21  C   UNL     1     -12.694   5.069 -35.626  1.00  0.00     0.030 A 
HETATM   22  C   UNL     1     -12.861   6.450 -35.462  1.00  0.00     0.021 A 
HETATM   23  C   UNL     1     -11.749   7.258 -35.248  1.00  0.00     0.011 A 
HETATM   24 BR   UNL     1     -11.964   9.119 -35.013  1.00  0.00    -0.051 Br
HETATM   25  C   UNL     1     -10.480   6.693 -35.190  1.00  0.00     0.021 A 
HETATM   26  C   UNL     1     -10.323   5.312 -35.358  1.00  0.00     0.030 A 
ENDBRANCH  18  20
ENDBRANCH  17  18
ENDBRANCH   2  17
TORSDOF 5
ENDMDL
MODEL 6
REMARK VINA RESULT:      -7.5      3.450      8.351
REMARK  5 active torsions:
REMARK  status: ('A' for Active; 'I' for Inactive)
REMARK    1  A    between atoms: C_8  and  C_9 
REMARK    2  A    between atoms: N_10  and  N_11 
REMARK       I    between atoms: N_11  and  C_12 
REMARK    3  A    between atoms: C_12  and  C_13 
REMARK    4  A    between atoms: C_13  and  N_14 
REMARK    5  A    between atoms: N_14  and  C_15 
ROOT
HETATM    1  N   UNL     1      -6.881   2.354 -33.871  1.00  0.00    -0.246 N 
HETATM    2  C   UNL     1      -6.293   2.116 -32.628  1.00  0.00     0.255 C 
HETATM    3  O   UNL     1      -6.857   2.211 -31.540  1.00  0.00    -0.270 OA
HETATM    4  H   UNL     1      -6.270   2.520 -34.666  1.00  0.00     0.192 HD
ENDROOT
BRANCH   1   5
HETATM    5  N   UNL     1      -8.178   2.771 -34.075  1.00  0.00    -0.184 NA
HETATM    6  C   UNL     1      -9.100   1.864 -34.166  1.00  0.00     0.152 C 
BRANCH   6   7
HETATM    7  C   UNL     1     -10.483   2.253 -34.354  1.00  0.00     0.011 A 
HETATM    8  C   UNL     1     -11.640   1.444 -34.106  1.00  0.00     0.004 A 
HETATM    9  C   UNL     1     -11.838   0.128 -33.635  1.00  0.00     0.014 A 
HETATM   10  C   UNL     1     -12.763   2.207 -34.431  1.00  0.00     0.043 A 
HETATM   11  C   UNL     1     -13.138  -0.375 -33.512  1.00  0.00     0.001 A 
HETATM   12  C   UNL     1     -14.237   0.412 -33.848  1.00  0.00     0.002 A 
HETATM   13  C   UNL     1     -14.071   1.720 -34.314  1.00  0.00     0.030 A 
HETATM   14  N   UNL     1     -12.308   3.436 -34.852  1.00  0.00    -0.364 N 
HETATM   15  H   UNL     1     -12.905   4.197 -35.146  1.00  0.00     0.165 HD
HETATM   16  C   UNL     1     -10.942   3.476 -34.810  1.00  0.00     0.102 A 
ENDBRANCH   6   7
ENDBRANCH   1   5
BRANCH   2  17
HETATM   17  C   UNL     1      -4.831   1.682 -32.747  1.00  0.00     0.224 C 
BRANCH  17  18
HETATM   18  N   UNL     1      -4.644   0.299 -32.307  1.00  0.00    -0.381 N 
HETATM   19  H   UNL     1      -3.803   0.111 -31.770  1.00  0.00     0.160 HD
BRANCH  18  20
HETATM   20  C   UNL     1      -5.078  -0.760 -33.101  1.00  0.00     0.028 A 
HETATM   21  C   UNL     1      -4.126  -1.650 -33.619  1.00  0.00     0.030 A 
HETATM   22  C   UNL     1      -4.504  -2.773 -34.365  1.00  0.00     0.021 A 
HETATM   23  C   UNL     1      -5.853  -3.033 -34.582  1.00  0.00     0.011 A 
HETATM   24 BR   UNL     1      -6.375  -4.552 -35.575  1.00  0.00    -0.051 Br
HETATM   25  C   UNL     1      -6.819  -2.185 -34.053  1.00  0.00     0.021 A 
HETATM   26  C   UNL     1      -6.430  -1.063 -33.311  1.00  0.00     0.030 A 
ENDBRANCH  18  20
ENDBRANCH  17  18
ENDBRANCH   2  17
TORSDOF 5
ENDMDL
MODEL 7
REMARK VINA RESULT:      -7.5      1.806      2.245
REMARK  5 active torsions:
REMARK  status: ('A' for Active; 'I' for Inactive)
REMARK    1  A    between atoms: C_8  and  C_9 
REMARK    2  A    between atoms: N_10  and  N_11 
REMARK       I    between atoms: N_11  and  C_12 
REMARK    3  A    between atoms: C_12  and  C_13 
REMARK    4  A    between atoms: C_13  and  N_14 
REMARK    5  A    between atoms: N_14  and  C_15 
ROOT
HETATM    1  N   UNL     1      -7.321   2.538 -33.766  1.00  0.00    -0.246 N 
HETATM    2  C   UNL     1      -7.970   2.968 -32.608  1.00  0.00     0.255 C 
HETATM    3  O   UNL     1      -7.720   2.590 -31.466  1.00  0.00    -0.270 OA
HETATM    4  H   UNL     1      -7.782   2.693 -34.658  1.00  0.00     0.192 HD
ENDROOT
BRANCH   1   5
HETATM    5  N   UNL     1      -6.321   1.593 -33.817  1.00  0.00    -0.184 NA
HETATM    6  C   UNL     1      -6.633   0.363 -33.549  1.00  0.00     0.152 C 
BRANCH   6   7
HETATM    7  C   UNL     1      -5.621  -0.673 -33.616  1.00  0.00     0.011 A 
HETATM    8  C   UNL     1      -5.806  -2.020 -34.067  1.00  0.00     0.004 A 
HETATM    9  C   UNL     1      -6.908  -2.749 -34.565  1.00  0.00     0.014 A 
HETATM   10  C   UNL     1      -4.577  -2.673 -33.952  1.00  0.00     0.043 A 
HETATM   11  C   UNL     1      -6.744  -4.093 -34.921  1.00  0.00     0.001 A 
HETATM   12  C   UNL     1      -5.506  -4.715 -34.790  1.00  0.00     0.002 A 
HETATM   13  C   UNL     1      -4.396  -4.016 -34.304  1.00  0.00     0.030 A 
HETATM   14  N   UNL     1      -3.678  -1.756 -33.458  1.00  0.00    -0.364 N 
HETATM   15  H   UNL     1      -2.702  -1.952 -33.277  1.00  0.00     0.165 HD
HETATM   16  C   UNL     1      -4.292  -0.552 -33.252  1.00  0.00     0.102 A 
ENDBRANCH   6   7
ENDBRANCH   1   5
BRANCH   2  17
HETATM   17  C   UNL     1      -9.048   4.014 -32.896  1.00  0.00     0.224 C 
BRANCH  17  18
HETATM   18  N   UNL     1      -9.723   3.753 -34.169  1.00  0.00    -0.381 N 
HETATM   19  H   UNL     1      -9.569   4.436 -34.904  1.00  0.00     0.160 HD
BRANCH  18  20
HETATM   20  C   UNL     1     -10.974   3.141 -34.192  1.00  0.00     0.028 A 
HETATM   21  C   UNL     1     -11.151   1.998 -34.985  1.00  0.00     0.030 A 
HETATM   22  C   UNL     1     -12.363   1.297 -34.997  1.00  0.00     0.021 A 
HETATM   23  C   UNL     1     -13.411   1.721 -34.187  1.00  0.00     0.011 A 
HETATM   24 BR   UNL     1     -15.046   0.773 -34.184  1.00  0.00    -0.051 Br
HETATM   25  C   UNL     1     -13.252   2.831 -33.366  1.00  0.00     0.021 A 
HETATM   26  C   UNL     1     -12.037   3.528 -33.365  1.00  0.00     0.030 A 
ENDBRANCH  18  20
ENDBRANCH  17  18
ENDBRANCH   2  17
TORSDOF 5
ENDMDL
MODEL 8
REMARK VINA RESULT:      -7.3      7.934     10.742
REMARK  5 active torsions:
REMARK  status: ('A' for Active; 'I' for Inactive)
REMARK    1  A    between atoms: C_8  and  C_9 
REMARK    2  A    between atoms: N_10  and  N_11 
REMARK       I    between atoms: N_11  and  C_12 
REMARK    3  A    between atoms: C_12  and  C_13 
REMARK    4  A    between atoms: C_13  and  N_14 
REMARK    5  A    between atoms: N_14  and  C_15 
ROOT
HETATM    1  N   UNL     1      -2.568   3.784 -31.270  1.00  0.00    -0.246 N 
HETATM    2  C   UNL     1      -1.943   4.859 -31.904  1.00  0.00     0.255 C 
HETATM    3  O   UNL     1      -2.417   5.519 -32.825  1.00  0.00    -0.270 OA
HETATM    4  H   UNL     1      -1.990   3.146 -30.729  1.00  0.00     0.192 HD
ENDROOT
BRANCH   1   5
HETATM    5  N   UNL     1      -3.800   3.268 -31.601  1.00  0.00    -0.184 NA
HETATM    6  C   UNL     1      -4.279   2.317 -30.860  1.00  0.00     0.152 C 
BRANCH   6   7
HETATM    7  C   UNL     1      -5.585   1.759 -31.152  1.00  0.00     0.011 A 
HETATM    8  C   UNL     1      -5.901   0.823 -32.190  1.00  0.00     0.004 A 
HETATM    9  C   UNL     1      -5.147   0.167 -33.187  1.00  0.00     0.014 A 
HETATM   10  C   UNL     1      -7.271   0.565 -32.119  1.00  0.00     0.043 A 
HETATM   11  C   UNL     1      -5.785  -0.709 -34.073  1.00  0.00     0.001 A 
HETATM   12  C   UNL     1      -7.155  -0.940 -33.977  1.00  0.00     0.002 A 
HETATM   13  C   UNL     1      -7.925  -0.309 -32.997  1.00  0.00     0.030 A 
HETATM   14  N   UNL     1      -7.769   1.309 -31.074  1.00  0.00    -0.364 N 
HETATM   15  H   UNL     1      -8.738   1.315 -30.786  1.00  0.00     0.165 HD
HETATM   16  C   UNL     1      -6.766   2.030 -30.485  1.00  0.00     0.102 A 
ENDBRANCH   6   7
ENDBRANCH   1   5
BRANCH   2  17
HETATM   17  C   UNL     1      -0.570   5.172 -31.307  1.00  0.00     0.224 C 
BRANCH  17  18
HETATM   18  N   UNL     1      -0.594   5.118 -29.845  1.00  0.00    -0.381 N 
HETATM   19  H   UNL     1      -1.265   4.477 -29.433  1.00  0.00     0.160 HD
BRANCH  18  20
HETATM   20  C   UNL     1      -0.341   6.262 -29.092  1.00  0.00     0.028 A 
HETATM   21  C   UNL     1       0.740   6.257 -28.199  1.00  0.00     0.030 A 
HETATM   22  C   UNL     1       1.090   7.398 -27.467  1.00  0.00     0.021 A 
HETATM   23  C   UNL     1       0.370   8.575 -27.641  1.00  0.00     0.011 A 
HETATM   24 BR   UNL     1       0.842  10.124 -26.669  1.00  0.00    -0.051 Br
HETATM   25  C   UNL     1      -0.686   8.618 -28.545  1.00  0.00     0.021 A 
HETATM   26  C   UNL     1      -1.029   7.470 -29.269  1.00  0.00     0.030 A 
ENDBRANCH  18  20
ENDBRANCH  17  18
ENDBRANCH   2  17
TORSDOF 5
ENDMDL
MODEL 9
REMARK VINA RESULT:      -7.3      7.136     10.057
REMARK  5 active torsions:
REMARK  status: ('A' for Active; 'I' for Inactive)
REMARK    1  A    between atoms: C_8  and  C_9 
REMARK    2  A    between atoms: N_10  and  N_11 
REMARK       I    between atoms: N_11  and  C_12 
REMARK    3  A    between atoms: C_12  and  C_13 
REMARK    4  A    between atoms: C_13  and  N_14 
REMARK    5  A    between atoms: N_14  and  C_15 
ROOT
HETATM    1  N   UNL     1      -3.366   3.125 -32.319  1.00  0.00    -0.246 N 
HETATM    2  C   UNL     1      -4.620   2.655 -31.928  1.00  0.00     0.255 C 
HETATM    3  O   UNL     1      -5.076   2.699 -30.787  1.00  0.00    -0.270 OA
HETATM    4  H   UNL     1      -2.984   2.792 -33.200  1.00  0.00     0.192 HD
ENDROOT
BRANCH   1   5
HETATM    5  N   UNL     1      -2.423   3.678 -31.483  1.00  0.00    -0.184 NA
HETATM    6  C   UNL     1      -1.822   4.758 -31.876  1.00  0.00     0.152 C 
BRANCH   6   7
HETATM    7  C   UNL     1      -0.840   5.394 -31.019  1.00  0.00     0.011 A 
HETATM    8  C   UNL     1      -1.041   6.557 -30.207  1.00  0.00     0.004 A 
HETATM    9  C   UNL     1      -2.140   7.409 -29.962  1.00  0.00     0.014 A 
HETATM   10  C   UNL     1       0.165   6.830 -29.559  1.00  0.00     0.043 A 
HETATM   11  C   UNL     1      -1.994   8.495 -29.091  1.00  0.00     0.001 A 
HETATM   12  C   UNL     1      -0.775   8.740 -28.464  1.00  0.00     0.002 A 
HETATM   13  C   UNL     1       0.329   7.911 -28.684  1.00  0.00     0.030 A 
HETATM   14  N   UNL     1       1.063   5.864 -29.954  1.00  0.00    -0.364 N 
HETATM   15  H   UNL     1       2.021   5.809 -29.636  1.00  0.00     0.165 HD
HETATM   16  C   UNL     1       0.471   4.996 -30.830  1.00  0.00     0.102 A 
ENDBRANCH   6   7
ENDBRANCH   1   5
BRANCH   2  17
HETATM   17  C   UNL     1      -5.421   2.081 -33.098  1.00  0.00     0.224 C 
BRANCH  17  18
HETATM   18  N   UNL     1      -6.330   1.020 -32.658  1.00  0.00    -0.381 N 
HETATM   19  H   UNL     1      -6.612   1.051 -31.684  1.00  0.00     0.160 HD
BRANCH  18  20
HETATM   20  C   UNL     1      -6.235  -0.259 -33.200  1.00  0.00     0.028 A 
HETATM   21  C   UNL     1      -7.396  -0.867 -33.701  1.00  0.00     0.030 A 
HETATM   22  C   UNL     1      -7.355  -2.121 -34.322  1.00  0.00     0.021 A 
HETATM   23  C   UNL     1      -6.137  -2.775 -34.473  1.00  0.00     0.011 A 
HETATM   24 BR   UNL     1      -6.069  -4.461 -35.322  1.00  0.00    -0.051 Br
HETATM   25  C   UNL     1      -4.967  -2.181 -34.015  1.00  0.00     0.021 A 
HETATM   26  C   UNL     1      -5.019  -0.928 -33.393  1.00  0.00     0.030 A 
ENDBRANCH  18  20
ENDBRANCH  17  18
ENDBRANCH   2  17
TORSDOF 5
ENDMDL
MODEL 10
REMARK VINA RESULT:      -7.2      7.098      9.568
REMARK  5 active torsions:
REMARK  status: ('A' for Active; 'I' for Inactive)
REMARK    1  A    between atoms: C_8  and  C_9 
REMARK    2  A    between atoms: N_10  and  N_11 
REMARK       I    between atoms: N_11  and  C_12 
REMARK    3  A    between atoms: C_12  and  C_13 
REMARK    4  A    between atoms: C_13  and  N_14 
REMARK    5  A    between atoms: N_14  and  C_15 
ROOT
HETATM    1  N   UNL     1      -5.353   3.860 -31.461  1.00  0.00    -0.246 N 
HETATM    2  C   UNL     1      -4.906   5.052 -32.030  1.00  0.00     0.255 C 
HETATM    3  O   UNL     1      -5.147   5.433 -33.174  1.00  0.00    -0.270 OA
HETATM    4  H   UNL     1      -4.876   3.517 -30.632  1.00  0.00     0.192 HD
ENDROOT
BRANCH   1   5
HETATM    5  N   UNL     1      -6.105   2.901 -32.102  1.00  0.00    -0.184 NA
HETATM    6  C   UNL     1      -5.587   1.721 -32.249  1.00  0.00     0.152 C 
BRANCH   6   7
HETATM    7  C   UNL     1      -6.349   0.670 -32.894  1.00  0.00     0.011 A 
HETATM    8  C   UNL     1      -5.833  -0.554 -33.431  1.00  0.00     0.004 A 
HETATM    9  C   UNL     1      -4.545  -1.127 -33.513  1.00  0.00     0.014 A 
HETATM   10  C   UNL     1      -6.908  -1.265 -33.967  1.00  0.00     0.043 A 
HETATM   11  C   UNL     1      -4.380  -2.374 -34.126  1.00  0.00     0.001 A 
HETATM   12  C   UNL     1      -5.474  -3.054 -34.654  1.00  0.00     0.002 A 
HETATM   13  C   UNL     1      -6.761  -2.513 -34.583  1.00  0.00     0.030 A 
HETATM   14  N   UNL     1      -8.038  -0.506 -33.756  1.00  0.00    -0.364 N 
HETATM   15  H   UNL     1      -8.970  -0.778 -34.037  1.00  0.00     0.165 HD
HETATM   16  C   UNL     1      -7.715   0.657 -33.113  1.00  0.00     0.102 A 
ENDBRANCH   6   7
ENDBRANCH   1   5
BRANCH   2  17
HETATM   17  C   UNL     1      -4.077   5.890 -31.056  1.00  0.00     0.224 C 
BRANCH  17  18
HETATM   18  N   UNL     1      -2.693   5.417 -30.983  1.00  0.00    -0.381 N 
HETATM   19  H   UNL     1      -2.568   4.413 -30.913  1.00  0.00     0.160 HD
BRANCH  18  20
HETATM   20  C   UNL     1      -1.722   6.175 -30.333  1.00  0.00     0.028 A 
HETATM   21  C   UNL     1      -2.122   7.053 -29.315  1.00  0.00     0.030 A 
HETATM   22  C   UNL     1      -1.188   7.789 -28.575  1.00  0.00     0.021 A 
HETATM   23  C   UNL     1       0.170   7.634 -28.833  1.00  0.00     0.011 A 
HETATM   24 BR   UNL     1       1.440   8.611 -27.832  1.00  0.00    -0.051 Br
HETATM   25  C   UNL     1       0.596   6.746 -29.814  1.00  0.00     0.021 A 
HETATM   26  C   UNL     1      -0.346   6.018 -30.550  1.00  0.00     0.030 A 
ENDBRANCH  18  20
ENDBRANCH  17  18
ENDBRANCH   2  17
TORSDOF 5
ENDMDL
