MODEL 1
REMARK VINA RESULT:      -9.5      0.000      0.000
REMARK  7 active torsions:
REMARK  status: ('A' for Active; 'I' for Inactive)
REMARK    1  A    between atoms: C_2  and  C_3 
REMARK    2  A    between atoms: C_3  and  N_4 
REMARK       I    between atoms: N_4  and  C_5 
REMARK    3  A    between atoms: C_5  and  C_6 
REMARK    4  A    between atoms: C_7  and  N_8 
REMARK    5  A    between atoms: N_9  and  N_10 
REMARK    6  A    between atoms: C_11  and  C_12 
REMARK    7  A    between atoms: C_13  and  O_14 
ROOT
HETATM    1  C   UNL     1      -4.870   1.342 -32.652  1.00  0.00     0.110 C 
HETATM    2  C   UNL     1      -6.073   2.026 -32.665  1.00  0.00     0.143 C 
HETATM    3  N   UNL     1      -7.002   1.287 -33.391  1.00  0.00    -0.197 N 
HETATM    4  C   UNL     1      -6.465   0.025 -33.605  1.00  0.00     0.183 A 
HETATM    5  C   UNL     1      -5.131   0.069 -33.207  1.00  0.00     0.125 A 
HETATM    6  N   UNL     1      -4.305  -0.998 -33.369  1.00  0.00    -0.242 NA
HETATM    7  C   UNL     1      -4.898  -2.100 -33.858  1.00  0.00     0.086 A 
HETATM    8  C   UNL     1      -6.268  -2.133 -34.231  1.00  0.00     0.088 A 
HETATM    9  N   UNL     1      -7.074  -1.063 -34.136  1.00  0.00    -0.225 NA
HETATM   10  C   UNL     1      -4.138  -3.255 -33.996  1.00  0.00     0.034 A 
HETATM   11  C   UNL     1      -4.691  -4.441 -34.480  1.00  0.00     0.002 A 
HETATM   12  C   UNL     1      -6.031  -4.475 -34.840  1.00  0.00     0.002 A 
HETATM   13  C   UNL     1      -6.804  -3.320 -34.713  1.00  0.00     0.034 A 
ENDROOT
BRANCH   3  14
HETATM   14  N   UNL     1      -8.153   1.895 -33.840  1.00  0.00    -0.176 NA
HETATM   15  C   UNL     1      -9.262   1.655 -33.223  1.00  0.00     0.153 C 
BRANCH  15  16
HETATM   16  C   UNL     1     -10.540   2.131 -33.805  1.00  0.00     0.017 A 
HETATM   17  C   UNL     1     -10.622   3.338 -34.516  1.00  0.00     0.077 A 
HETATM   18  C   UNL     1     -11.814   3.722 -35.123  1.00  0.00     0.039 A 
HETATM   19  C   UNL     1     -12.935   2.898 -35.028  1.00  0.00     0.022 A 
HETATM   20  C   UNL     1     -12.854   1.698 -34.319  1.00  0.00     0.012 A 
HETATM   21 BR   UNL     1     -14.374   0.579 -34.205  1.00  0.00    -0.051 Br
HETATM   22  C   UNL     1     -11.663   1.305 -33.707  1.00  0.00     0.034 A 
BRANCH  17  23
HETATM   23  O   UNL     1      -9.556   4.180 -34.681  1.00  0.00    -0.360 OA
HETATM   24  H   UNL     1      -9.773   4.774 -35.435  1.00  0.00     0.217 HD
ENDBRANCH  17  23
ENDBRANCH  15  16
ENDBRANCH   3  14
BRANCH   2  25
HETATM   25  N   UNL     1      -6.370   3.267 -32.191  1.00  0.00    -0.383 N 
HETATM   26  H   UNL     1      -5.617   3.815 -31.766  1.00  0.00     0.157 HD
HETATM   27  H   UNL     1      -7.270   3.422 -31.736  1.00  0.00     0.157 HD
ENDBRANCH   2  25
BRANCH   1  28
HETATM   28  C   UNL     1      -3.625   1.911 -32.182  1.00  0.00     0.258 C 
HETATM   29  N   UNL     1      -3.320   3.125 -32.765  1.00  0.00    -0.352 N 
HETATM   30  H   UNL     1      -3.973   3.478 -33.452  1.00  0.00     0.163 HD
HETATM   31  O   UNL     1      -2.995   1.432 -31.242  1.00  0.00    -0.267 OA
BRANCH  29  32
HETATM   32  C   UNL     1      -2.470   4.084 -32.074  1.00  0.00     0.080 C 
HETATM   33  C   UNL     1      -3.331   5.071 -31.276  1.00  0.00     0.032 C 
BRANCH  32  34
HETATM   34  C   UNL     1      -1.589   4.857 -33.067  1.00  0.00     0.020 C 
HETATM   35  C   UNL     1      -2.158   4.867 -34.477  1.00  0.00     0.007 C 
ENDBRANCH  32  34
ENDBRANCH  29  32
ENDBRANCH   1  28
TORSDOF 7
ENDMDL
MODEL 2
REMARK VINA RESULT:      -9.3      1.469      1.750
REMARK  7 active torsions:
REMARK  status: ('A' for Active; 'I' for Inactive)
REMARK    1  A    between atoms: C_2  and  C_3 
REMARK    2  A    between atoms: C_3  and  N_4 
REMARK       I    between atoms: N_4  and  C_5 
REMARK    3  A    between atoms: C_5  and  C_6 
REMARK    4  A    between atoms: C_7  and  N_8 
REMARK    5  A    between atoms: N_9  and  N_10 
REMARK    6  A    between atoms: C_11  and  C_12 
REMARK    7  A    between atoms: C_13  and  O_14 
ROOT
HETATM    1  C   UNL     1      -5.082   0.973 -32.642  1.00  0.00     0.110 C 
HETATM    2  C   UNL     1      -6.324   1.579 -32.583  1.00  0.00     0.143 C 
HETATM    3  N   UNL     1      -7.233   0.809 -33.301  1.00  0.00    -0.197 N 
HETATM    4  C   UNL     1      -6.628  -0.408 -33.583  1.00  0.00     0.183 A 
HETATM    5  C   UNL     1      -5.284  -0.294 -33.235  1.00  0.00     0.125 A 
HETATM    6  N   UNL     1      -4.401  -1.299 -33.469  1.00  0.00    -0.242 NA
HETATM    7  C   UNL     1      -4.943  -2.418 -33.977  1.00  0.00     0.086 A 
HETATM    8  C   UNL     1      -6.321  -2.525 -34.299  1.00  0.00     0.088 A 
HETATM    9  N   UNL     1      -7.189  -1.513 -34.132  1.00  0.00    -0.225 NA
HETATM   10  C   UNL     1      -4.118  -3.516 -34.188  1.00  0.00     0.034 A 
HETATM   11  C   UNL     1      -4.616  -4.718 -34.696  1.00  0.00     0.002 A 
HETATM   12  C   UNL     1      -5.964  -4.823 -35.006  1.00  0.00     0.002 A 
HETATM   13  C   UNL     1      -6.802  -3.726 -34.806  1.00  0.00     0.034 A 
ENDROOT
BRANCH   3  14
HETATM   14  N   UNL     1      -8.437   1.358 -33.683  1.00  0.00    -0.176 NA
HETATM   15  C   UNL     1      -9.522   0.908 -33.146  1.00  0.00     0.153 C 
BRANCH  15  16
HETATM   16  C   UNL     1     -10.836   1.336 -33.684  1.00  0.00     0.017 A 
HETATM   17  C   UNL     1     -11.977   0.527 -33.569  1.00  0.00     0.077 A 
HETATM   18  C   UNL     1     -13.216   0.987 -34.007  1.00  0.00     0.039 A 
HETATM   19  C   UNL     1     -13.324   2.263 -34.561  1.00  0.00     0.022 A 
HETATM   20  C   UNL     1     -12.188   3.066 -34.677  1.00  0.00     0.012 A 
HETATM   21 BR   UNL     1     -12.343   4.799 -35.417  1.00  0.00    -0.051 Br
HETATM   22  C   UNL     1     -10.942   2.613 -34.240  1.00  0.00     0.034 A 
BRANCH  17  23
HETATM   23  O   UNL     1     -11.956  -0.719 -33.006  1.00  0.00    -0.360 OA
HETATM   24  H   UNL     1     -11.344  -1.268 -33.546  1.00  0.00     0.217 HD
ENDBRANCH  17  23
ENDBRANCH  15  16
ENDBRANCH   3  14
BRANCH   2  25
HETATM   25  N   UNL     1      -6.678   2.781 -32.051  1.00  0.00    -0.383 N 
HETATM   26  H   UNL     1      -5.973   3.522 -32.019  1.00  0.00     0.157 HD
HETATM   27  H   UNL     1      -7.303   2.801 -31.245  1.00  0.00     0.157 HD
ENDBRANCH   2  25
BRANCH   1  28
HETATM   28  C   UNL     1      -3.856   1.603 -32.197  1.00  0.00     0.258 C 
HETATM   29  N   UNL     1      -3.649   2.852 -32.747  1.00  0.00    -0.352 N 
HETATM   30  H   UNL     1      -4.348   3.186 -33.398  1.00  0.00     0.163 HD
HETATM   31  O   UNL     1      -3.162   1.134 -31.299  1.00  0.00    -0.267 OA
BRANCH  29  32
HETATM   32  C   UNL     1      -2.833   3.840 -32.054  1.00  0.00     0.080 C 
HETATM   33  C   UNL     1      -3.730   4.801 -31.264  1.00  0.00     0.032 C 
BRANCH  32  34
HETATM   34  C   UNL     1      -1.972   4.637 -33.044  1.00  0.00     0.020 C 
HETATM   35  C   UNL     1      -0.849   5.406 -32.365  1.00  0.00     0.007 C 
ENDBRANCH  32  34
ENDBRANCH  29  32
ENDBRANCH   1  28
TORSDOF 7
ENDMDL
MODEL 3
REMARK VINA RESULT:      -9.3      4.150      7.252
REMARK  7 active torsions:
REMARK  status: ('A' for Active; 'I' for Inactive)
REMARK    1  A    between atoms: C_2  and  C_3 
REMARK    2  A    between atoms: C_3  and  N_4 
REMARK       I    between atoms: N_4  and  C_5 
REMARK    3  A    between atoms: C_5  and  C_6 
REMARK    4  A    between atoms: C_7  and  N_8 
REMARK    5  A    between atoms: N_9  and  N_10 
REMARK    6  A    between atoms: C_11  and  C_12 
REMARK    7  A    between atoms: C_13  and  O_14 
ROOT
HETATM    1  C   UNL     1      -5.350   4.152 -29.954  1.00  0.00     0.110 C 
HETATM    2  C   UNL     1      -5.598   2.808 -30.170  1.00  0.00     0.143 C 
HETATM    3  N   UNL     1      -5.088   2.451 -31.415  1.00  0.00    -0.197 N 
HETATM    4  C   UNL     1      -4.290   3.496 -31.860  1.00  0.00     0.183 A 
HETATM    5  C   UNL     1      -4.493   4.571 -30.998  1.00  0.00     0.125 A 
HETATM    6  N   UNL     1      -3.910   5.778 -31.216  1.00  0.00    -0.242 NA
HETATM    7  C   UNL     1      -3.074   5.818 -32.267  1.00  0.00     0.086 A 
HETATM    8  C   UNL     1      -2.858   4.702 -33.118  1.00  0.00     0.088 A 
HETATM    9  N   UNL     1      -3.481   3.525 -32.947  1.00  0.00    -0.225 NA
HETATM   10  C   UNL     1      -2.388   6.999 -32.523  1.00  0.00     0.034 A 
HETATM   11  C   UNL     1      -1.490   7.108 -33.585  1.00  0.00     0.002 A 
HETATM   12  C   UNL     1      -1.275   6.016 -34.414  1.00  0.00     0.002 A 
HETATM   13  C   UNL     1      -1.963   4.826 -34.173  1.00  0.00     0.034 A 
ENDROOT
BRANCH   3  14
HETATM   14  N   UNL     1      -5.500   1.279 -32.008  1.00  0.00    -0.176 NA
HETATM   15  C   UNL     1      -4.605   0.443 -32.417  1.00  0.00     0.153 C 
BRANCH  15  16
HETATM   16  C   UNL     1      -5.014  -0.723 -33.236  1.00  0.00     0.017 A 
HETATM   17  C   UNL     1      -6.049  -0.634 -34.180  1.00  0.00     0.077 A 
HETATM   18  C   UNL     1      -6.357  -1.719 -34.995  1.00  0.00     0.039 A 
HETATM   19  C   UNL     1      -5.630  -2.903 -34.876  1.00  0.00     0.022 A 
HETATM   20  C   UNL     1      -4.602  -2.993 -33.935  1.00  0.00     0.012 A 
HETATM   21 BR   UNL     1      -3.611  -4.596 -33.787  1.00  0.00    -0.051 Br
HETATM   22  C   UNL     1      -4.285  -1.909 -33.114  1.00  0.00     0.034 A 
BRANCH  17  23
HETATM   23  O   UNL     1      -6.782   0.503 -34.378  1.00  0.00    -0.360 OA
HETATM   24  H   UNL     1      -6.546   1.128 -33.656  1.00  0.00     0.217 HD
ENDBRANCH  17  23
ENDBRANCH  15  16
ENDBRANCH   3  14
BRANCH   2  25
HETATM   25  N   UNL     1      -6.317   1.928 -29.421  1.00  0.00    -0.383 N 
HETATM   26  H   UNL     1      -6.361   2.079 -28.409  1.00  0.00     0.157 HD
HETATM   27  H   UNL     1      -6.302   0.938 -29.668  1.00  0.00     0.157 HD
ENDBRANCH   2  25
BRANCH   1  28
HETATM   28  C   UNL     1      -5.930   4.914 -28.868  1.00  0.00     0.258 C 
HETATM   29  N   UNL     1      -5.030   5.757 -28.247  1.00  0.00    -0.352 N 
HETATM   30  H   UNL     1      -4.080   5.747 -28.594  1.00  0.00     0.163 HD
HETATM   31  O   UNL     1      -7.137   4.921 -28.640  1.00  0.00    -0.267 OA
BRANCH  29  32
HETATM   32  C   UNL     1      -5.493   6.953 -27.556  1.00  0.00     0.080 C 
HETATM   33  C   UNL     1      -5.600   8.121 -28.544  1.00  0.00     0.032 C 
BRANCH  32  34
HETATM   34  C   UNL     1      -4.543   7.332 -26.412  1.00  0.00     0.020 C 
HETATM   35  C   UNL     1      -3.080   7.096 -26.756  1.00  0.00     0.007 C 
ENDBRANCH  32  34
ENDBRANCH  29  32
ENDBRANCH   1  28
TORSDOF 7
ENDMDL
MODEL 4
REMARK VINA RESULT:      -9.2      3.886      7.748
REMARK  7 active torsions:
REMARK  status: ('A' for Active; 'I' for Inactive)
REMARK    1  A    between atoms: C_2  and  C_3 
REMARK    2  A    between atoms: C_3  and  N_4 
REMARK       I    between atoms: N_4  and  C_5 
REMARK    3  A    between atoms: C_5  and  C_6 
REMARK    4  A    between atoms: C_7  and  N_8 
REMARK    5  A    between atoms: N_9  and  N_10 
REMARK    6  A    between atoms: C_11  and  C_12 
REMARK    7  A    between atoms: C_13  and  O_14 
ROOT
HETATM    1  C   UNL     1      -6.158   2.960 -30.352  1.00  0.00     0.110 C 
HETATM    2  C   UNL     1      -5.803   1.626 -30.270  1.00  0.00     0.143 C 
HETATM    3  N   UNL     1      -4.634   1.427 -30.998  1.00  0.00    -0.197 N 
HETATM    4  C   UNL     1      -4.113   2.675 -31.313  1.00  0.00     0.183 A 
HETATM    5  C   UNL     1      -5.075   3.624 -30.972  1.00  0.00     0.125 A 
HETATM    6  N   UNL     1      -4.896   4.944 -31.235  1.00  0.00    -0.242 NA
HETATM    7  C   UNL     1      -3.701   5.256 -31.764  1.00  0.00     0.086 A 
HETATM    8  C   UNL     1      -2.722   4.277 -32.078  1.00  0.00     0.088 A 
HETATM    9  N   UNL     1      -2.918   2.962 -31.882  1.00  0.00    -0.225 NA
HETATM   10  C   UNL     1      -3.413   6.593 -32.006  1.00  0.00     0.034 A 
HETATM   11  C   UNL     1      -2.185   6.993 -32.537  1.00  0.00     0.002 A 
HETATM   12  C   UNL     1      -1.227   6.036 -32.840  1.00  0.00     0.002 A 
HETATM   13  C   UNL     1      -1.506   4.688 -32.609  1.00  0.00     0.034 A 
ENDROOT
BRANCH   3  14
HETATM   14  N   UNL     1      -4.266   0.150 -31.359  1.00  0.00    -0.176 NA
HETATM   15  C   UNL     1      -4.440  -0.223 -32.582  1.00  0.00     0.153 C 
BRANCH  15  16
HETATM   16  C   UNL     1      -4.244  -1.647 -32.947  1.00  0.00     0.017 A 
HETATM   17  C   UNL     1      -3.273  -2.442 -32.319  1.00  0.00     0.077 A 
HETATM   18  C   UNL     1      -3.166  -3.796 -32.620  1.00  0.00     0.039 A 
HETATM   19  C   UNL     1      -4.032  -4.369 -33.552  1.00  0.00     0.022 A 
HETATM   20  C   UNL     1      -4.996  -3.578 -34.178  1.00  0.00     0.012 A 
HETATM   21 BR   UNL     1      -6.176  -4.362 -35.430  1.00  0.00    -0.051 Br
HETATM   22  C   UNL     1      -5.111  -2.218 -33.882  1.00  0.00     0.034 A 
BRANCH  17  23
HETATM   23  O   UNL     1      -2.413  -1.960 -31.371  1.00  0.00    -0.360 OA
HETATM   24  H   UNL     1      -2.925  -1.872 -30.536  1.00  0.00     0.217 HD
ENDBRANCH  17  23
ENDBRANCH  15  16
ENDBRANCH   3  14
BRANCH   2  25
HETATM   25  N   UNL     1      -6.473   0.583 -29.708  1.00  0.00    -0.383 N 
HETATM   26  H   UNL     1      -7.311   0.236 -30.182  1.00  0.00     0.157 HD
HETATM   27  H   UNL     1      -6.549   0.532 -28.692  1.00  0.00     0.157 HD
ENDBRANCH   2  25
BRANCH   1  28
HETATM   28  C   UNL     1      -7.432   3.484 -29.903  1.00  0.00     0.258 C 
HETATM   29  N   UNL     1      -7.332   4.714 -29.283  1.00  0.00    -0.352 N 
HETATM   30  H   UNL     1      -6.404   5.107 -29.195  1.00  0.00     0.163 HD
HETATM   31  O   UNL     1      -8.501   2.955 -30.195  1.00  0.00    -0.267 OA
BRANCH  29  32
HETATM   32  C   UNL     1      -8.467   5.627 -29.266  1.00  0.00     0.080 C 
HETATM   33  C   UNL     1      -8.604   6.319 -30.627  1.00  0.00     0.032 C 
BRANCH  32  34
HETATM   34  C   UNL     1      -8.306   6.686 -28.165  1.00  0.00     0.020 C 
HETATM   35  C   UNL     1      -6.901   7.263 -28.100  1.00  0.00     0.007 C 
ENDBRANCH  32  34
ENDBRANCH  29  32
ENDBRANCH   1  28
TORSDOF 7
ENDMDL
MODEL 5
REMARK VINA RESULT:      -9.0      1.624      1.892
REMARK  7 active torsions:
REMARK  status: ('A' for Active; 'I' for Inactive)
REMARK    1  A    between atoms: C_2  and  C_3 
REMARK    2  A    between atoms: C_3  and  N_4 
REMARK       I    between atoms: N_4  and  C_5 
REMARK    3  A    between atoms: C_5  and  C_6 
REMARK    4  A    between atoms: C_7  and  N_8 
REMARK    5  A    between atoms: N_9  and  N_10 
REMARK    6  A    between atoms: C_11  and  C_12 
REMARK    7  A    between atoms: C_13  and  O_14 
ROOT
HETATM    1  C   UNL     1      -5.008   1.208 -32.359  1.00  0.00     0.110 C 
HETATM    2  C   UNL     1      -6.223   1.795 -32.056  1.00  0.00     0.143 C 
HETATM    3  N   UNL     1      -7.238   1.076 -32.680  1.00  0.00    -0.197 N 
HETATM    4  C   UNL     1      -6.688  -0.109 -33.152  1.00  0.00     0.183 A 
HETATM    5  C   UNL     1      -5.306  -0.009 -33.013  1.00  0.00     0.125 A 
HETATM    6  N   UNL     1      -4.474  -0.984 -33.463  1.00  0.00    -0.242 NA
HETATM    7  C   UNL     1      -5.093  -2.064 -33.967  1.00  0.00     0.086 A 
HETATM    8  C   UNL     1      -6.505  -2.158 -34.074  1.00  0.00     0.088 A 
HETATM    9  N   UNL     1      -7.332  -1.172 -33.692  1.00  0.00    -0.225 NA
HETATM   10  C   UNL     1      -4.315  -3.134 -34.394  1.00  0.00     0.034 A 
HETATM   11  C   UNL     1      -4.891  -4.296 -34.911  1.00  0.00     0.002 A 
HETATM   12  C   UNL     1      -6.271  -4.390 -35.011  1.00  0.00     0.002 A 
HETATM   13  C   UNL     1      -7.064  -3.320 -34.594  1.00  0.00     0.034 A 
ENDROOT
BRANCH   3  14
HETATM   14  N   UNL     1      -8.485   1.642 -32.821  1.00  0.00    -0.176 NA
HETATM   15  C   UNL     1      -8.843   2.071 -33.985  1.00  0.00     0.153 C 
BRANCH  15  16
HETATM   16  C   UNL     1     -10.089   2.863 -34.120  1.00  0.00     0.017 A 
HETATM   17  C   UNL     1     -11.326   2.373 -33.673  1.00  0.00     0.077 A 
HETATM   18  C   UNL     1     -12.466   3.169 -33.735  1.00  0.00     0.039 A 
HETATM   19  C   UNL     1     -12.377   4.465 -34.244  1.00  0.00     0.022 A 
HETATM   20  C   UNL     1     -11.148   4.951 -34.692  1.00  0.00     0.012 A 
HETATM   21 BR   UNL     1     -11.032   6.713 -35.368  1.00  0.00    -0.051 Br
HETATM   22  C   UNL     1      -9.999   4.160 -34.632  1.00  0.00     0.034 A 
BRANCH  17  23
HETATM   23  O   UNL     1     -11.483   1.127 -33.130  1.00  0.00    -0.360 OA
HETATM   24  H   UNL     1     -10.648   0.634 -33.297  1.00  0.00     0.217 HD
ENDBRANCH  17  23
ENDBRANCH  15  16
ENDBRANCH   3  14
BRANCH   2  25
HETATM   25  N   UNL     1      -6.485   2.947 -31.379  1.00  0.00    -0.383 N 
HETATM   26  H   UNL     1      -7.342   2.996 -30.822  1.00  0.00     0.157 HD
HETATM   27  H   UNL     1      -6.249   3.840 -31.810  1.00  0.00     0.157 HD
ENDBRANCH   2  25
BRANCH   1  28
HETATM   28  C   UNL     1      -3.725   1.813 -32.066  1.00  0.00     0.258 C 
HETATM   29  N   UNL     1      -3.520   3.011 -32.719  1.00  0.00    -0.352 N 
HETATM   30  H   UNL     1      -4.260   3.331 -33.331  1.00  0.00     0.163 HD
HETATM   31  O   UNL     1      -2.974   1.376 -31.197  1.00  0.00    -0.267 OA
BRANCH  29  32
HETATM   32  C   UNL     1      -2.610   4.007 -32.169  1.00  0.00     0.080 C 
HETATM   33  C   UNL     1      -3.390   5.022 -31.325  1.00  0.00     0.032 C 
BRANCH  32  34
HETATM   34  C   UNL     1      -1.855   4.741 -33.286  1.00  0.00     0.020 C 
HETATM   35  C   UNL     1      -1.077   5.946 -32.781  1.00  0.00     0.007 C 
ENDBRANCH  32  34
ENDBRANCH  29  32
ENDBRANCH   1  28
TORSDOF 7
ENDMDL
MODEL 6
REMARK VINA RESULT:      -8.9      3.436      7.893
REMARK  7 active torsions:
REMARK  status: ('A' for Active; 'I' for Inactive)
REMARK    1  A    between atoms: C_2  and  C_3 
REMARK    2  A    between atoms: C_3  and  N_4 
REMARK       I    between atoms: N_4  and  C_5 
REMARK    3  A    between atoms: C_5  and  C_6 
REMARK    4  A    between atoms: C_7  and  N_8 
REMARK    5  A    between atoms: N_9  and  N_10 
REMARK    6  A    between atoms: C_11  and  C_12 
REMARK    7  A    between atoms: C_13  and  O_14 
ROOT
HETATM    1  C   UNL     1      -5.502   0.412 -32.440  1.00  0.00     0.110 C 
HETATM    2  C   UNL     1      -4.624   1.329 -31.892  1.00  0.00     0.143 C 
HETATM    3  N   UNL     1      -5.081   2.613 -32.176  1.00  0.00    -0.197 N 
HETATM    4  C   UNL     1      -6.374   2.503 -32.667  1.00  0.00     0.183 A 
HETATM    5  C   UNL     1      -6.620   1.151 -32.890  1.00  0.00     0.125 A 
HETATM    6  N   UNL     1      -7.781   0.722 -33.450  1.00  0.00    -0.242 NA
HETATM    7  C   UNL     1      -8.683   1.689 -33.687  1.00  0.00     0.086 A 
HETATM    8  C   UNL     1      -8.424   3.060 -33.425  1.00  0.00     0.088 A 
HETATM    9  N   UNL     1      -7.254   3.499 -32.933  1.00  0.00    -0.225 NA
HETATM   10  C   UNL     1      -9.922   1.327 -34.201  1.00  0.00     0.034 A 
HETATM   11  C   UNL     1     -10.914   2.276 -34.455  1.00  0.00     0.002 A 
HETATM   12  C   UNL     1     -10.662   3.615 -34.195  1.00  0.00     0.002 A 
HETATM   13  C   UNL     1      -9.420   3.993 -33.685  1.00  0.00     0.034 A 
ENDROOT
BRANCH   3  14
HETATM   14  N   UNL     1      -4.224   3.683 -32.046  1.00  0.00    -0.176 NA
HETATM   15  C   UNL     1      -3.619   4.124 -33.098  1.00  0.00     0.153 C 
BRANCH  15  16
HETATM   16  C   UNL     1      -2.545   5.136 -32.953  1.00  0.00     0.017 A 
HETATM   17  C   UNL     1      -2.382   6.176 -33.882  1.00  0.00     0.077 A 
HETATM   18  C   UNL     1      -1.419   7.160 -33.679  1.00  0.00     0.039 A 
HETATM   19  C   UNL     1      -0.613   7.115 -32.542  1.00  0.00     0.022 A 
HETATM   20  C   UNL     1      -0.773   6.080 -31.620  1.00  0.00     0.012 A 
HETATM   21 BR   UNL     1       0.315   6.031 -30.074  1.00  0.00    -0.051 Br
HETATM   22  C   UNL     1      -1.736   5.088 -31.815  1.00  0.00     0.034 A 
BRANCH  17  23
HETATM   23  O   UNL     1      -3.158   6.305 -35.001  1.00  0.00    -0.360 OA
HETATM   24  H   UNL     1      -3.770   7.058 -34.841  1.00  0.00     0.217 HD
ENDBRANCH  17  23
ENDBRANCH  15  16
ENDBRANCH   3  14
BRANCH   2  25
HETATM   25  N   UNL     1      -3.429   1.123 -31.273  1.00  0.00    -0.383 N 
HETATM   26  H   UNL     1      -2.657   1.760 -31.489  1.00  0.00     0.157 HD
HETATM   27  H   UNL     1      -3.113   0.167 -31.111  1.00  0.00     0.157 HD
ENDBRANCH   2  25
BRANCH   1  28
HETATM   28  C   UNL     1      -5.231  -1.008 -32.533  1.00  0.00     0.258 C 
HETATM   29  N   UNL     1      -6.057  -1.668 -33.420  1.00  0.00    -0.352 N 
HETATM   30  H   UNL     1      -6.757  -1.112 -33.893  1.00  0.00     0.163 HD
HETATM   31  O   UNL     1      -4.258  -1.528 -31.994  1.00  0.00    -0.267 OA
BRANCH  29  32
HETATM   32  C   UNL     1      -5.620  -2.903 -34.057  1.00  0.00     0.080 C 
HETATM   33  C   UNL     1      -4.638  -2.590 -35.193  1.00  0.00     0.032 C 
BRANCH  32  34
HETATM   34  C   UNL     1      -6.816  -3.689 -34.614  1.00  0.00     0.020 C 
HETATM   35  C   UNL     1      -6.415  -4.700 -35.678  1.00  0.00     0.007 C 
ENDBRANCH  32  34
ENDBRANCH  29  32
ENDBRANCH   1  28
TORSDOF 7
ENDMDL
MODEL 7
REMARK VINA RESULT:      -8.6      3.364      7.326
REMARK  7 active torsions:
REMARK  status: ('A' for Active; 'I' for Inactive)
REMARK    1  A    between atoms: C_2  and  C_3 
REMARK    2  A    between atoms: C_3  and  N_4 
REMARK       I    between atoms: N_4  and  C_5 
REMARK    3  A    between atoms: C_5  and  C_6 
REMARK    4  A    between atoms: C_7  and  N_8 
REMARK    5  A    between atoms: N_9  and  N_10 
REMARK    6  A    between atoms: C_11  and  C_12 
REMARK    7  A    between atoms: C_13  and  O_14 
ROOT
HETATM    1  C   UNL     1      -9.310   4.164 -32.995  1.00  0.00     0.110 C 
HETATM    2  C   UNL     1      -8.298   3.506 -33.671  1.00  0.00     0.143 C 
HETATM    3  N   UNL     1      -8.740   2.231 -34.011  1.00  0.00    -0.197 N 
HETATM    4  C   UNL     1     -10.109   2.184 -33.786  1.00  0.00     0.183 A 
HETATM    5  C   UNL     1     -10.458   3.347 -33.104  1.00  0.00     0.125 A 
HETATM    6  N   UNL     1     -11.726   3.562 -32.666  1.00  0.00    -0.242 NA
HETATM    7  C   UNL     1     -12.610   2.611 -33.013  1.00  0.00     0.086 A 
HETATM    8  C   UNL     1     -12.240   1.446 -33.733  1.00  0.00     0.088 A 
HETATM    9  N   UNL     1     -10.976   1.195 -34.113  1.00  0.00    -0.225 NA
HETATM   10  C   UNL     1     -13.942   2.785 -32.657  1.00  0.00     0.034 A 
HETATM   11  C   UNL     1     -14.919   1.848 -33.000  1.00  0.00     0.002 A 
HETATM   12  C   UNL     1     -14.557   0.711 -33.708  1.00  0.00     0.002 A 
HETATM   13  C   UNL     1     -13.222   0.521 -34.065  1.00  0.00     0.034 A 
ENDROOT
BRANCH   3  14
HETATM   14  N   UNL     1      -7.825   1.269 -34.375  1.00  0.00    -0.176 NA
HETATM   15  C   UNL     1      -7.682   0.232 -33.620  1.00  0.00     0.153 C 
BRANCH  15  16
HETATM   16  C   UNL     1      -6.568  -0.713 -33.878  1.00  0.00     0.017 A 
HETATM   17  C   UNL     1      -5.246  -0.408 -33.521  1.00  0.00     0.077 A 
HETATM   18  C   UNL     1      -4.232  -1.345 -33.697  1.00  0.00     0.039 A 
HETATM   19  C   UNL     1      -4.534  -2.598 -34.231  1.00  0.00     0.022 A 
HETATM   20  C   UNL     1      -5.849  -2.900 -34.589  1.00  0.00     0.012 A 
HETATM   21 BR   UNL     1      -6.253  -4.605 -35.299  1.00  0.00    -0.051 Br
HETATM   22  C   UNL     1      -6.872  -1.967 -34.415  1.00  0.00     0.034 A 
BRANCH  17  23
HETATM   23  O   UNL     1      -4.880   0.785 -32.960  1.00  0.00    -0.360 OA
HETATM   24  H   UNL     1      -3.907   0.751 -32.822  1.00  0.00     0.217 HD
ENDBRANCH  17  23
ENDBRANCH  15  16
ENDBRANCH   3  14
BRANCH   2  25
HETATM   25  N   UNL     1      -7.016   3.897 -33.907  1.00  0.00    -0.383 N 
HETATM   26  H   UNL     1      -6.265   3.421 -33.399  1.00  0.00     0.157 HD
HETATM   27  H   UNL     1      -6.819   4.886 -34.059  1.00  0.00     0.157 HD
ENDBRANCH   2  25
BRANCH   1  28
HETATM   28  C   UNL     1      -9.130   5.422 -32.301  1.00  0.00     0.258 C 
HETATM   29  N   UNL     1      -9.363   5.339 -30.943  1.00  0.00    -0.352 N 
HETATM   30  H   UNL     1      -9.641   4.436 -30.582  1.00  0.00     0.163 HD
HETATM   31  O   UNL     1      -8.660   6.416 -32.850  1.00  0.00    -0.267 OA
BRANCH  29  32
HETATM   32  C   UNL     1      -8.730   6.277 -30.025  1.00  0.00     0.080 C 
HETATM   33  C   UNL     1      -7.923   5.514 -28.968  1.00  0.00     0.032 C 
BRANCH  32  34
HETATM   34  C   UNL     1      -9.776   7.163 -29.333  1.00  0.00     0.020 C 
HETATM   35  C   UNL     1     -10.027   8.468 -30.071  1.00  0.00     0.007 C 
ENDBRANCH  32  34
ENDBRANCH  29  32
ENDBRANCH   1  28
TORSDOF 7
ENDMDL
MODEL 8
REMARK VINA RESULT:      -8.3      4.408      8.061
REMARK  7 active torsions:
REMARK  status: ('A' for Active; 'I' for Inactive)
REMARK    1  A    between atoms: C_2  and  C_3 
REMARK    2  A    between atoms: C_3  and  N_4 
REMARK       I    between atoms: N_4  and  C_5 
REMARK    3  A    between atoms: C_5  and  C_6 
REMARK    4  A    between atoms: C_7  and  N_8 
REMARK    5  A    between atoms: N_9  and  N_10 
REMARK    6  A    between atoms: C_11  and  C_12 
REMARK    7  A    between atoms: C_13  and  O_14 
ROOT
HETATM    1  C   UNL     1      -2.833   5.885 -30.967  1.00  0.00     0.110 C 
HETATM    2  C   UNL     1      -2.891   4.849 -31.882  1.00  0.00     0.143 C 
HETATM    3  N   UNL     1      -4.104   4.184 -31.730  1.00  0.00    -0.197 N 
HETATM    4  C   UNL     1      -4.913   4.959 -30.911  1.00  0.00     0.183 A 
HETATM    5  C   UNL     1      -4.119   5.977 -30.388  1.00  0.00     0.125 A 
HETATM    6  N   UNL     1      -4.605   6.862 -29.479  1.00  0.00    -0.242 NA
HETATM    7  C   UNL     1      -5.911   6.722 -29.199  1.00  0.00     0.086 A 
HETATM    8  C   UNL     1      -6.711   5.695 -29.765  1.00  0.00     0.088 A 
HETATM    9  N   UNL     1      -6.222   4.775 -30.614  1.00  0.00    -0.225 NA
HETATM   10  C   UNL     1      -6.502   7.626 -28.325  1.00  0.00     0.034 A 
HETATM   11  C   UNL     1      -7.858   7.553 -28.002  1.00  0.00     0.002 A 
HETATM   12  C   UNL     1      -8.640   6.551 -28.559  1.00  0.00     0.002 A 
HETATM   13  C   UNL     1      -8.059   5.632 -29.433  1.00  0.00     0.034 A 
ENDROOT
BRANCH   3  14
HETATM   14  N   UNL     1      -4.262   2.927 -32.270  1.00  0.00    -0.176 NA
HETATM   15  C   UNL     1      -4.174   1.902 -31.491  1.00  0.00     0.153 C 
BRANCH  15  16
HETATM   16  C   UNL     1      -4.137   0.540 -32.076  1.00  0.00     0.017 A 
HETATM   17  C   UNL     1      -3.153  -0.393 -31.711  1.00  0.00     0.077 A 
HETATM   18  C   UNL     1      -3.190  -1.691 -32.211  1.00  0.00     0.039 A 
HETATM   19  C   UNL     1      -4.215  -2.069 -33.078  1.00  0.00     0.022 A 
HETATM   20  C   UNL     1      -5.192  -1.142 -33.443  1.00  0.00     0.012 A 
HETATM   21 BR   UNL     1      -6.586  -1.665 -34.608  1.00  0.00    -0.051 Br
HETATM   22  C   UNL     1      -5.163   0.163 -32.946  1.00  0.00     0.034 A 
BRANCH  17  23
HETATM   23  O   UNL     1      -2.139  -0.105 -30.840  1.00  0.00    -0.360 OA
HETATM   24  H   UNL     1      -2.052   0.875 -30.813  1.00  0.00     0.217 HD
ENDBRANCH  17  23
ENDBRANCH  15  16
ENDBRANCH   3  14
BRANCH   2  25
HETATM   25  N   UNL     1      -1.937   4.395 -32.739  1.00  0.00    -0.383 N 
HETATM   26  H   UNL     1      -0.955   4.570 -32.507  1.00  0.00     0.157 HD
HETATM   27  H   UNL     1      -2.113   4.432 -33.743  1.00  0.00     0.157 HD
ENDBRANCH   2  25
BRANCH   1  28
HETATM   28  C   UNL     1      -1.634   6.649 -30.689  1.00  0.00     0.258 C 
HETATM   29  N   UNL     1      -1.294   6.669 -29.352  1.00  0.00    -0.352 N 
HETATM   30  H   UNL     1      -1.906   6.175 -28.717  1.00  0.00     0.163 HD
HETATM   31  O   UNL     1      -0.914   7.091 -31.580  1.00  0.00    -0.267 OA
BRANCH  29  32
HETATM   32  C   UNL     1       0.089   6.878 -28.944  1.00  0.00     0.080 C 
HETATM   33  C   UNL     1       0.769   5.529 -28.680  1.00  0.00     0.032 C 
BRANCH  32  34
HETATM   34  C   UNL     1       0.166   7.748 -27.681  1.00  0.00     0.020 C 
HETATM   35  C   UNL     1       1.362   7.412 -26.804  1.00  0.00     0.007 C 
ENDBRANCH  32  34
ENDBRANCH  29  32
ENDBRANCH   1  28
TORSDOF 7
ENDMDL
MODEL 9
REMARK VINA RESULT:      -8.3      1.646      1.777
REMARK  7 active torsions:
REMARK  status: ('A' for Active; 'I' for Inactive)
REMARK    1  A    between atoms: C_2  and  C_3 
REMARK    2  A    between atoms: C_3  and  N_4 
REMARK       I    between atoms: N_4  and  C_5 
REMARK    3  A    between atoms: C_5  and  C_6 
REMARK    4  A    between atoms: C_7  and  N_8 
REMARK    5  A    between atoms: N_9  and  N_10 
REMARK    6  A    between atoms: C_11  and  C_12 
REMARK    7  A    between atoms: C_13  and  O_14 
ROOT
HETATM    1  C   UNL     1      -5.485   2.556 -32.197  1.00  0.00     0.110 C 
HETATM    2  C   UNL     1      -6.767   3.072 -32.129  1.00  0.00     0.143 C 
HETATM    3  N   UNL     1      -7.617   2.260 -32.874  1.00  0.00    -0.197 N 
HETATM    4  C   UNL     1      -6.927   1.097 -33.186  1.00  0.00     0.183 A 
HETATM    5  C   UNL     1      -5.595   1.295 -32.826  1.00  0.00     0.125 A 
HETATM    6  N   UNL     1      -4.643   0.361 -33.081  1.00  0.00    -0.242 NA
HETATM    7  C   UNL     1      -5.103  -0.779 -33.624  1.00  0.00     0.086 A 
HETATM    8  C   UNL     1      -6.470  -0.972 -33.957  1.00  0.00     0.088 A 
HETATM    9  N   UNL     1      -7.406  -0.028 -33.768  1.00  0.00    -0.225 NA
HETATM   10  C   UNL     1      -4.203  -1.810 -33.859  1.00  0.00     0.034 A 
HETATM   11  C   UNL     1      -4.613  -3.029 -34.403  1.00  0.00     0.002 A 
HETATM   12  C   UNL     1      -5.949  -3.220 -34.724  1.00  0.00     0.002 A 
HETATM   13  C   UNL     1      -6.863  -2.190 -34.500  1.00  0.00     0.034 A 
ENDROOT
BRANCH   3  14
HETATM   14  N   UNL     1      -8.854   2.735 -33.249  1.00  0.00    -0.176 NA
HETATM   15  C   UNL     1      -9.888   2.377 -32.563  1.00  0.00     0.153 C 
BRANCH  15  16
HETATM   16  C   UNL     1     -11.246   2.706 -33.062  1.00  0.00     0.017 A 
HETATM   17  C   UNL     1     -11.710   2.233 -34.299  1.00  0.00     0.077 A 
HETATM   18  C   UNL     1     -13.017   2.486 -34.706  1.00  0.00     0.039 A 
HETATM   19  C   UNL     1     -13.872   3.211 -33.877  1.00  0.00     0.022 A 
HETATM   20  C   UNL     1     -13.409   3.682 -32.647  1.00  0.00     0.012 A 
HETATM   21 BR   UNL     1     -14.578   4.653 -31.522  1.00  0.00    -0.051 Br
HETATM   22  C   UNL     1     -12.100   3.434 -32.230  1.00  0.00     0.034 A 
BRANCH  17  23
HETATM   23  O   UNL     1     -10.941   1.487 -35.149  1.00  0.00    -0.360 OA
HETATM   24  H   UNL     1     -11.057   1.866 -36.050  1.00  0.00     0.217 HD
ENDBRANCH  17  23
ENDBRANCH  15  16
ENDBRANCH   3  14
BRANCH   2  25
HETATM   25  N   UNL     1      -7.206   4.231 -31.567  1.00  0.00    -0.383 N 
HETATM   26  H   UNL     1      -6.701   4.596 -30.755  1.00  0.00     0.157 HD
HETATM   27  H   UNL     1      -8.210   4.407 -31.513  1.00  0.00     0.157 HD
ENDBRANCH   2  25
BRANCH   1  28
HETATM   28  C   UNL     1      -4.308   3.258 -31.728  1.00  0.00     0.258 C 
HETATM   29  N   UNL     1      -3.495   3.712 -32.747  1.00  0.00    -0.352 N 
HETATM   30  H   UNL     1      -3.789   3.502 -33.692  1.00  0.00     0.163 HD
HETATM   31  O   UNL     1      -4.145   3.553 -30.547  1.00  0.00    -0.267 OA
BRANCH  29  32
HETATM   32  C   UNL     1      -2.620   4.858 -32.541  1.00  0.00     0.080 C 
HETATM   33  C   UNL     1      -3.415   6.160 -32.698  1.00  0.00     0.032 C 
BRANCH  32  34
HETATM   34  C   UNL     1      -1.451   4.846 -33.537  1.00  0.00     0.020 C 
HETATM   35  C   UNL     1      -1.888   5.134 -34.965  1.00  0.00     0.007 C 
ENDBRANCH  32  34
ENDBRANCH  29  32
ENDBRANCH   1  28
TORSDOF 7
ENDMDL
MODEL 10
REMARK VINA RESULT:      -8.2      3.900      7.280
REMARK  7 active torsions:
REMARK  status: ('A' for Active; 'I' for Inactive)
REMARK    1  A    between atoms: C_2  and  C_3 
REMARK    2  A    between atoms: C_3  and  N_4 
REMARK       I    between atoms: N_4  and  C_5 
REMARK    3  A    between atoms: C_5  and  C_6 
REMARK    4  A    between atoms: C_7  and  N_8 
REMARK    5  A    between atoms: N_9  and  N_10 
REMARK    6  A    between atoms: C_11  and  C_12 
REMARK    7  A    between atoms: C_13  and  O_14 
ROOT
HETATM    1  C   UNL     1      -3.044   5.423 -31.212  1.00  0.00     0.110 C 
HETATM    2  C   UNL     1      -3.269   4.361 -32.069  1.00  0.00     0.143 C 
HETATM    3  N   UNL     1      -4.505   3.797 -31.770  1.00  0.00    -0.197 N 
HETATM    4  C   UNL     1      -5.169   4.661 -30.911  1.00  0.00     0.183 A 
HETATM    5  C   UNL     1      -4.255   5.635 -30.514  1.00  0.00     0.125 A 
HETATM    6  N   UNL     1      -4.582   6.587 -29.602  1.00  0.00    -0.242 NA
HETATM    7  C   UNL     1      -5.861   6.558 -29.191  1.00  0.00     0.086 A 
HETATM    8  C   UNL     1      -6.785   5.574 -29.630  1.00  0.00     0.088 A 
HETATM    9  N   UNL     1      -6.452   4.589 -30.480  1.00  0.00    -0.225 NA
HETATM   10  C   UNL     1      -6.293   7.536 -28.304  1.00  0.00     0.034 A 
HETATM   11  C   UNL     1      -7.612   7.579 -27.848  1.00  0.00     0.002 A 
HETATM   12  C   UNL     1      -8.517   6.620 -28.281  1.00  0.00     0.002 A 
HETATM   13  C   UNL     1      -8.094   5.627 -29.165  1.00  0.00     0.034 A 
ENDROOT
BRANCH   3  14
HETATM   14  N   UNL     1      -4.807   2.536 -32.236  1.00  0.00    -0.176 NA
HETATM   15  C   UNL     1      -5.659   2.420 -33.199  1.00  0.00     0.153 C 
BRANCH  15  16
HETATM   16  C   UNL     1      -6.153   1.074 -33.579  1.00  0.00     0.017 A 
HETATM   17  C   UNL     1      -7.447   0.880 -34.087  1.00  0.00     0.077 A 
HETATM   18  C   UNL     1      -7.857  -0.379 -34.515  1.00  0.00     0.039 A 
HETATM   19  C   UNL     1      -6.973  -1.456 -34.441  1.00  0.00     0.022 A 
HETATM   20  C   UNL     1      -5.688  -1.264 -33.934  1.00  0.00     0.012 A 
HETATM   21 BR   UNL     1      -4.490  -2.725 -33.848  1.00  0.00    -0.051 Br
HETATM   22  C   UNL     1      -5.268  -0.004 -33.503  1.00  0.00     0.034 A 
BRANCH  17  23
HETATM   23  O   UNL     1      -8.355   1.894 -34.222  1.00  0.00    -0.360 OA
HETATM   24  H   UNL     1      -7.917   2.716 -33.906  1.00  0.00     0.217 HD
ENDBRANCH  17  23
ENDBRANCH  15  16
ENDBRANCH   3  14
BRANCH   2  25
HETATM   25  N   UNL     1      -2.441   3.803 -32.994  1.00  0.00    -0.383 N 
HETATM   26  H   UNL     1      -1.818   3.049 -32.692  1.00  0.00     0.157 HD
HETATM   27  H   UNL     1      -2.016   4.400 -33.704  1.00  0.00     0.157 HD
ENDBRANCH   2  25
BRANCH   1  28
HETATM   28  C   UNL     1      -1.771   6.102 -31.086  1.00  0.00     0.258 C 
HETATM   29  N   UNL     1      -1.272   6.101 -29.799  1.00  0.00    -0.352 N 
HETATM   30  H   UNL     1      -1.837   5.650 -29.091  1.00  0.00     0.163 HD
HETATM   31  O   UNL     1      -1.135   6.493 -32.061  1.00  0.00    -0.267 OA
BRANCH  29  32
HETATM   32  C   UNL     1       0.161   6.214 -29.561  1.00  0.00     0.080 C 
HETATM   33  C   UNL     1       0.825   4.838 -29.689  1.00  0.00     0.032 C 
BRANCH  32  34
HETATM   34  C   UNL     1       0.445   6.794 -28.168  1.00  0.00     0.020 C 
HETATM   35  C   UNL     1       1.134   8.149 -28.221  1.00  0.00     0.007 C 
ENDBRANCH  32  34
ENDBRANCH  29  32
ENDBRANCH   1  28
TORSDOF 7
ENDMDL
