MODEL 1
REMARK VINA RESULT:      -7.8      0.000      0.000
REMARK  9 active torsions:
REMARK  status: ('A' for Active; 'I' for Inactive)
REMARK    1  A    between atoms: O_2  and  C_3 
REMARK    2  A    between atoms: C_3  and  C_4 
REMARK    3  A    between atoms: C_4  and  S_5 
REMARK    4  A    between atoms: S_5  and  C_6 
REMARK    5  A    between atoms: C_7  and  C_8 
REMARK       I    between atoms: C_8  and  N_9 
REMARK    6  A    between atoms: N_9  and  C_10 
REMARK    7  A    between atoms: C_11  and  C_12 
REMARK       I    between atoms: C_12  and  N_13 
REMARK    8  A    between atoms: N_13  and  C_14 
REMARK    9  A    between atoms: C_14  and  C_15 
ROOT
HETATM    1  C   UNL     1      -7.881   0.747 -32.104  1.00  0.00     0.050 A 
HETATM    2  C   UNL     1      -9.125   1.381 -32.261  1.00  0.00     0.058 A 
HETATM    3  C   UNL     1      -9.422   2.555 -31.552  1.00  0.00     0.019 A 
HETATM    4  C   UNL     1      -8.473   3.113 -30.697  1.00  0.00     0.001 A 
HETATM    5  C   UNL     1      -7.220   2.515 -30.569  1.00  0.00     0.002 A 
HETATM    6  C   UNL     1      -6.921   1.346 -31.276  1.00  0.00     0.030 A 
ENDROOT
BRANCH   1   7
HETATM    7  N   UNL     1      -7.507  -0.448 -32.753  1.00  0.00    -0.322 N 
HETATM    8  C   UNL     1      -6.671  -0.504 -33.851  1.00  0.00     0.257 C 
HETATM    9  O   UNL     1      -6.351   0.437 -34.565  1.00  0.00    -0.267 OA
HETATM   10  H   UNL     1      -8.032  -1.288 -32.540  1.00  0.00     0.169 HD
BRANCH   8  11
HETATM   11  C   UNL     1      -6.154  -1.856 -34.141  1.00  0.00     0.049 A 
HETATM   12  C   UNL     1      -4.808  -2.212 -33.974  1.00  0.00     0.016 A 
HETATM   13  C   UNL     1      -4.426  -3.526 -34.282  1.00  0.00     0.019 A 
HETATM   14  C   UNL     1      -5.366  -4.464 -34.724  1.00  0.00     0.001 A 
HETATM   15  C   UNL     1      -6.702  -4.101 -34.873  1.00  0.00     0.001 A 
HETATM   16  C   UNL     1      -7.099  -2.798 -34.581  1.00  0.00     0.018 A 
BRANCH  12  17
HETATM   17  S   UNL     1      -3.506  -1.084 -33.498  1.00  0.00    -0.127 SA
BRANCH  17  18
HETATM   18  C   UNL     1      -3.888  -0.857 -31.718  1.00  0.00     0.106 C 
BRANCH  18  19
HETATM   19  C   UNL     1      -3.003   0.212 -31.069  1.00  0.00     0.177 C 
BRANCH  19  20
HETATM   20  O   UNL     1      -3.659   1.443 -30.762  1.00  0.00    -0.395 OA
HETATM   21  C   UNL     1      -3.251   2.531 -31.579  1.00  0.00     0.201 C 
ENDBRANCH  19  20
ENDBRANCH  18  19
ENDBRANCH  17  18
ENDBRANCH  12  17
ENDBRANCH   8  11
ENDBRANCH   1   7
BRANCH   2  22
HETATM   22  C   UNL     1     -10.075   1.011 -33.333  1.00  0.00     0.254 C 
HETATM   23  N   UNL     1     -11.392   0.907 -32.936  1.00  0.00    -0.354 N 
HETATM   24  H   UNL     1     -11.506   0.604 -31.972  1.00  0.00     0.162 HD
HETATM   25  O   UNL     1      -9.671   0.836 -34.477  1.00  0.00    -0.268 OA
BRANCH  23  26
HETATM   26  C   UNL     1     -12.363   0.352 -33.862  1.00  0.00     0.155 C 
BRANCH  26  27
HETATM   27  C   UNL     1     -13.314   1.431 -34.399  1.00  0.00     0.139 C 
HETATM   28  O   UNL     1     -13.144   2.640 -33.627  1.00  0.00    -0.384 OA
HETATM   29  C   UNL     1     -14.252   2.773 -32.724  1.00  0.00     0.168 C 
HETATM   30  C   UNL     1     -15.090   1.517 -32.843  1.00  0.00     0.029 C 
HETATM   31  C   UNL     1     -14.777   1.051 -34.242  1.00  0.00     0.035 C 
ENDBRANCH  26  27
ENDBRANCH  23  26
ENDBRANCH   2  22
TORSDOF 9
ENDMDL
MODEL 2
REMARK VINA RESULT:      -7.7      1.647      2.177
REMARK  9 active torsions:
REMARK  status: ('A' for Active; 'I' for Inactive)
REMARK    1  A    between atoms: O_2  and  C_3 
REMARK    2  A    between atoms: C_3  and  C_4 
REMARK    3  A    between atoms: C_4  and  S_5 
REMARK    4  A    between atoms: S_5  and  C_6 
REMARK    5  A    between atoms: C_7  and  C_8 
REMARK       I    between atoms: C_8  and  N_9 
REMARK    6  A    between atoms: N_9  and  C_10 
REMARK    7  A    between atoms: C_11  and  C_12 
REMARK       I    between atoms: C_12  and  N_13 
REMARK    8  A    between atoms: N_13  and  C_14 
REMARK    9  A    between atoms: C_14  and  C_15 
ROOT
HETATM    1  C   UNL     1      -7.779   2.410 -31.552  1.00  0.00     0.050 A 
HETATM    2  C   UNL     1      -9.142   2.634 -31.806  1.00  0.00     0.058 A 
HETATM    3  C   UNL     1      -9.852   3.606 -31.085  1.00  0.00     0.019 A 
HETATM    4  C   UNL     1      -9.200   4.373 -30.120  1.00  0.00     0.001 A 
HETATM    5  C   UNL     1      -7.837   4.188 -29.893  1.00  0.00     0.002 A 
HETATM    6  C   UNL     1      -7.128   3.221 -30.613  1.00  0.00     0.030 A 
ENDROOT
BRANCH   1   7
HETATM    7  N   UNL     1      -6.995   1.437 -32.208  1.00  0.00    -0.322 N 
HETATM    8  C   UNL     1      -6.779   0.162 -31.723  1.00  0.00     0.257 C 
HETATM    9  O   UNL     1      -6.996  -0.226 -30.583  1.00  0.00    -0.267 OA
HETATM   10  H   UNL     1      -6.392   1.744 -32.963  1.00  0.00     0.169 HD
BRANCH   8  11
HETATM   11  C   UNL     1      -6.226  -0.772 -32.724  1.00  0.00     0.049 A 
HETATM   12  C   UNL     1      -4.873  -1.140 -32.760  1.00  0.00     0.016 A 
HETATM   13  C   UNL     1      -4.455  -2.034 -33.757  1.00  0.00     0.019 A 
HETATM   14  C   UNL     1      -5.367  -2.562 -34.678  1.00  0.00     0.001 A 
HETATM   15  C   UNL     1      -6.710  -2.200 -34.622  1.00  0.00     0.001 A 
HETATM   16  C   UNL     1      -7.142  -1.305 -33.646  1.00  0.00     0.018 A 
BRANCH  12  17
HETATM   17  S   UNL     1      -3.604  -0.470 -31.694  1.00  0.00    -0.127 SA
BRANCH  17  18
HETATM   18  C   UNL     1      -3.410   1.206 -32.411  1.00  0.00     0.106 C 
BRANCH  18  19
HETATM   19  C   UNL     1      -3.497   2.304 -31.346  1.00  0.00     0.177 C 
BRANCH  19  20
HETATM   20  O   UNL     1      -2.352   3.153 -31.250  1.00  0.00    -0.395 OA
HETATM   21  C   UNL     1      -2.422   4.309 -32.073  1.00  0.00     0.201 C 
ENDBRANCH  19  20
ENDBRANCH  18  19
ENDBRANCH  17  18
ENDBRANCH  12  17
ENDBRANCH   8  11
ENDBRANCH   1   7
BRANCH   2  22
HETATM   22  C   UNL     1      -9.837   2.059 -32.979  1.00  0.00     0.254 C 
HETATM   23  N   UNL     1     -11.184   1.818 -32.801  1.00  0.00    -0.354 N 
HETATM   24  H   UNL     1     -11.433   1.581 -31.845  1.00  0.00     0.162 HD
HETATM   25  O   UNL     1      -9.217   1.847 -34.015  1.00  0.00    -0.268 OA
BRANCH  23  26
HETATM   26  C   UNL     1     -11.903   1.070 -33.816  1.00  0.00     0.155 C 
BRANCH  26  27
HETATM   27  C   UNL     1     -13.045   1.896 -34.424  1.00  0.00     0.139 C 
HETATM   28  O   UNL     1     -12.884   1.944 -35.859  1.00  0.00    -0.384 OA
HETATM   29  C   UNL     1     -12.376   3.236 -36.225  1.00  0.00     0.168 C 
HETATM   30  C   UNL     1     -12.080   3.990 -34.945  1.00  0.00     0.029 C 
HETATM   31  C   UNL     1     -13.028   3.345 -33.965  1.00  0.00     0.035 C 
ENDBRANCH  26  27
ENDBRANCH  23  26
ENDBRANCH   2  22
TORSDOF 9
ENDMDL
MODEL 3
REMARK VINA RESULT:      -7.5      3.374      7.020
REMARK  9 active torsions:
REMARK  status: ('A' for Active; 'I' for Inactive)
REMARK    1  A    between atoms: O_2  and  C_3 
REMARK    2  A    between atoms: C_3  and  C_4 
REMARK    3  A    between atoms: C_4  and  S_5 
REMARK    4  A    between atoms: S_5  and  C_6 
REMARK    5  A    between atoms: C_7  and  C_8 
REMARK       I    between atoms: C_8  and  N_9 
REMARK    6  A    between atoms: N_9  and  C_10 
REMARK    7  A    between atoms: C_11  and  C_12 
REMARK       I    between atoms: C_12  and  N_13 
REMARK    8  A    between atoms: N_13  and  C_14 
REMARK    9  A    between atoms: C_14  and  C_15 
ROOT
HETATM    1  C   UNL     1      -6.086   2.911 -30.917  1.00  0.00     0.050 A 
HETATM    2  C   UNL     1      -5.273   4.044 -30.750  1.00  0.00     0.058 A 
HETATM    3  C   UNL     1      -5.672   5.091 -29.904  1.00  0.00     0.019 A 
HETATM    4  C   UNL     1      -6.876   5.003 -29.207  1.00  0.00     0.001 A 
HETATM    5  C   UNL     1      -7.667   3.863 -29.332  1.00  0.00     0.002 A 
HETATM    6  C   UNL     1      -7.270   2.818 -30.173  1.00  0.00     0.030 A 
ENDROOT
BRANCH   1   7
HETATM    7  N   UNL     1      -5.779   1.827 -31.765  1.00  0.00    -0.322 N 
HETATM    8  C   UNL     1      -5.926   0.500 -31.410  1.00  0.00     0.257 C 
HETATM    9  O   UNL     1      -6.082   0.067 -30.276  1.00  0.00    -0.267 OA
HETATM   10  H   UNL     1      -5.232   2.016 -32.597  1.00  0.00     0.169 HD
BRANCH   8  11
HETATM   11  C   UNL     1      -5.873  -0.434 -32.553  1.00  0.00     0.049 A 
HETATM   12  C   UNL     1      -6.976  -0.689 -33.382  1.00  0.00     0.016 A 
HETATM   13  C   UNL     1      -6.814  -1.598 -34.438  1.00  0.00     0.019 A 
HETATM   14  C   UNL     1      -5.581  -2.217 -34.673  1.00  0.00     0.001 A 
HETATM   15  C   UNL     1      -4.491  -1.944 -33.851  1.00  0.00     0.001 A 
HETATM   16  C   UNL     1      -4.634  -1.052 -32.790  1.00  0.00     0.018 A 
BRANCH  12  17
HETATM   17  S   UNL     1      -8.616  -0.026 -33.132  1.00  0.00    -0.127 SA
BRANCH  17  18
HETATM   18  C   UNL     1      -8.656   1.274 -34.425  1.00  0.00     0.106 C 
BRANCH  18  19
HETATM   19  C   UNL     1      -8.591   2.684 -33.828  1.00  0.00     0.177 C 
BRANCH  19  20
HETATM   20  O   UNL     1      -7.329   3.342 -33.955  1.00  0.00    -0.395 OA
HETATM   21  C   UNL     1      -7.394   4.749 -33.777  1.00  0.00     0.201 C 
ENDBRANCH  19  20
ENDBRANCH  18  19
ENDBRANCH  17  18
ENDBRANCH  12  17
ENDBRANCH   8  11
ENDBRANCH   1   7
BRANCH   2  22
HETATM   22  C   UNL     1      -3.877   4.099 -31.237  1.00  0.00     0.254 C 
HETATM   23  N   UNL     1      -3.341   5.367 -31.335  1.00  0.00    -0.354 N 
HETATM   24  H   UNL     1      -4.027   6.085 -31.554  1.00  0.00     0.162 HD
HETATM   25  O   UNL     1      -3.280   3.063 -31.505  1.00  0.00    -0.268 OA
BRANCH  23  26
HETATM   26  C   UNL     1      -2.059   5.538 -31.994  1.00  0.00     0.155 C 
BRANCH  26  27
HETATM   27  C   UNL     1      -2.183   6.403 -33.256  1.00  0.00     0.139 C 
HETATM   28  O   UNL     1      -3.506   6.243 -33.813  1.00  0.00    -0.384 OA
HETATM   29  C   UNL     1      -3.424   5.393 -34.967  1.00  0.00     0.168 C 
HETATM   30  C   UNL     1      -1.999   4.888 -35.061  1.00  0.00     0.029 C 
HETATM   31  C   UNL     1      -1.225   5.974 -34.356  1.00  0.00     0.035 C 
ENDBRANCH  26  27
ENDBRANCH  23  26
ENDBRANCH   2  22
TORSDOF 9
ENDMDL
MODEL 4
REMARK VINA RESULT:      -7.5      2.475      5.413
REMARK  9 active torsions:
REMARK  status: ('A' for Active; 'I' for Inactive)
REMARK    1  A    between atoms: O_2  and  C_3 
REMARK    2  A    between atoms: C_3  and  C_4 
REMARK    3  A    between atoms: C_4  and  S_5 
REMARK    4  A    between atoms: S_5  and  C_6 
REMARK    5  A    between atoms: C_7  and  C_8 
REMARK       I    between atoms: C_8  and  N_9 
REMARK    6  A    between atoms: N_9  and  C_10 
REMARK    7  A    between atoms: C_11  and  C_12 
REMARK       I    between atoms: C_12  and  N_13 
REMARK    8  A    between atoms: N_13  and  C_14 
REMARK    9  A    between atoms: C_14  and  C_15 
ROOT
HETATM    1  C   UNL     1      -5.829   0.087 -33.392  1.00  0.00     0.050 A 
HETATM    2  C   UNL     1      -7.141  -0.394 -33.541  1.00  0.00     0.058 A 
HETATM    3  C   UNL     1      -7.375  -1.680 -34.052  1.00  0.00     0.019 A 
HETATM    4  C   UNL     1      -6.302  -2.499 -34.399  1.00  0.00     0.001 A 
HETATM    5  C   UNL     1      -4.997  -2.046 -34.213  1.00  0.00     0.002 A 
HETATM    6  C   UNL     1      -4.761  -0.766 -33.702  1.00  0.00     0.030 A 
ENDROOT
BRANCH   1   7
HETATM    7  N   UNL     1      -5.501   1.373 -32.914  1.00  0.00    -0.322 N 
HETATM    8  C   UNL     1      -5.077   1.635 -31.626  1.00  0.00     0.257 C 
HETATM    9  O   UNL     1      -5.169   0.882 -30.666  1.00  0.00    -0.267 OA
HETATM   10  H   UNL     1      -5.781   2.172 -33.471  1.00  0.00     0.169 HD
BRANCH   8  11
HETATM   11  C   UNL     1      -4.472   2.972 -31.456  1.00  0.00     0.049 A 
HETATM   12  C   UNL     1      -5.206   4.098 -31.059  1.00  0.00     0.016 A 
HETATM   13  C   UNL     1      -4.529   5.320 -30.931  1.00  0.00     0.019 A 
HETATM   14  C   UNL     1      -3.153   5.409 -31.172  1.00  0.00     0.001 A 
HETATM   15  C   UNL     1      -2.433   4.279 -31.552  1.00  0.00     0.001 A 
HETATM   16  C   UNL     1      -3.090   3.059 -31.694  1.00  0.00     0.018 A 
BRANCH  12  17
HETATM   17  S   UNL     1      -6.975   4.126 -30.805  1.00  0.00    -0.127 SA
BRANCH  17  18
HETATM   18  C   UNL     1      -7.567   4.007 -32.536  1.00  0.00     0.106 C 
BRANCH  18  19
HETATM   19  C   UNL     1      -6.796   4.940 -33.476  1.00  0.00     0.177 C 
BRANCH  19  20
HETATM   20  O   UNL     1      -5.956   4.287 -34.430  1.00  0.00    -0.395 OA
HETATM   21  C   UNL     1      -4.703   4.926 -34.625  1.00  0.00     0.201 C 
ENDBRANCH  19  20
ENDBRANCH  18  19
ENDBRANCH  17  18
ENDBRANCH  12  17
ENDBRANCH   8  11
ENDBRANCH   1   7
BRANCH   2  22
HETATM   22  C   UNL     1      -8.311   0.297 -32.957  1.00  0.00     0.254 C 
HETATM   23  N   UNL     1      -9.344   0.544 -33.837  1.00  0.00    -0.354 N 
HETATM   24  H   UNL     1      -9.037   0.698 -34.794  1.00  0.00     0.162 HD
HETATM   25  O   UNL     1      -8.319   0.591 -31.766  1.00  0.00    -0.268 OA
BRANCH  23  26
HETATM   26  C   UNL     1     -10.442   1.393 -33.412  1.00  0.00     0.155 C 
BRANCH  26  27
HETATM   27  C   UNL     1     -10.989   2.234 -34.574  1.00  0.00     0.139 C 
HETATM   28  O   UNL     1     -11.422   3.516 -34.070  1.00  0.00    -0.384 OA
HETATM   29  C   UNL     1     -12.855   3.527 -33.999  1.00  0.00     0.168 C 
HETATM   30  C   UNL     1     -13.340   2.135 -34.352  1.00  0.00     0.029 C 
HETATM   31  C   UNL     1     -12.219   1.614 -35.216  1.00  0.00     0.035 C 
ENDBRANCH  26  27
ENDBRANCH  23  26
ENDBRANCH   2  22
TORSDOF 9
ENDMDL
MODEL 5
REMARK VINA RESULT:      -7.4      2.538      7.598
REMARK  9 active torsions:
REMARK  status: ('A' for Active; 'I' for Inactive)
REMARK    1  A    between atoms: O_2  and  C_3 
REMARK    2  A    between atoms: C_3  and  C_4 
REMARK    3  A    between atoms: C_4  and  S_5 
REMARK    4  A    between atoms: S_5  and  C_6 
REMARK    5  A    between atoms: C_7  and  C_8 
REMARK       I    between atoms: C_8  and  N_9 
REMARK    6  A    between atoms: N_9  and  C_10 
REMARK    7  A    between atoms: C_11  and  C_12 
REMARK       I    between atoms: C_12  and  N_13 
REMARK    8  A    between atoms: N_13  and  C_14 
REMARK    9  A    between atoms: C_14  and  C_15 
ROOT
HETATM    1  C   UNL     1      -6.631  -0.947 -33.455  1.00  0.00     0.050 A 
HETATM    2  C   UNL     1      -5.387  -0.904 -32.805  1.00  0.00     0.058 A 
HETATM    3  C   UNL     1      -4.359  -1.786 -33.171  1.00  0.00     0.019 A 
HETATM    4  C   UNL     1      -4.561  -2.704 -34.201  1.00  0.00     0.001 A 
HETATM    5  C   UNL     1      -5.777  -2.724 -34.881  1.00  0.00     0.002 A 
HETATM    6  C   UNL     1      -6.802  -1.844 -34.519  1.00  0.00     0.030 A 
ENDROOT
BRANCH   1   7
HETATM    7  N   UNL     1      -7.728  -0.120 -33.135  1.00  0.00    -0.322 N 
HETATM    8  C   UNL     1      -7.913   1.151 -33.644  1.00  0.00     0.257 C 
HETATM    9  O   UNL     1      -7.071   1.833 -34.211  1.00  0.00    -0.267 OA
HETATM   10  H   UNL     1      -8.302  -0.379 -32.341  1.00  0.00     0.169 HD
BRANCH   8  11
HETATM   11  C   UNL     1      -9.277   1.681 -33.445  1.00  0.00     0.049 A 
HETATM   12  C   UNL     1      -9.578   2.688 -32.516  1.00  0.00     0.016 A 
HETATM   13  C   UNL     1     -10.909   3.115 -32.409  1.00  0.00     0.019 A 
HETATM   14  C   UNL     1     -11.909   2.567 -33.222  1.00  0.00     0.001 A 
HETATM   15  C   UNL     1     -11.594   1.579 -34.150  1.00  0.00     0.001 A 
HETATM   16  C   UNL     1     -10.279   1.134 -34.264  1.00  0.00     0.018 A 
BRANCH  12  17
HETATM   17  S   UNL     1      -8.407   3.400 -31.369  1.00  0.00    -0.127 SA
BRANCH  17  18
HETATM   18  C   UNL     1      -8.319   5.120 -32.000  1.00  0.00     0.106 C 
BRANCH  18  19
HETATM   19  C   UNL     1      -7.574   5.208 -33.336  1.00  0.00     0.177 C 
BRANCH  19  20
HETATM   20  O   UNL     1      -8.405   5.298 -34.494  1.00  0.00    -0.395 OA
HETATM   21  C   UNL     1      -9.631   5.979 -34.271  1.00  0.00     0.201 C 
ENDBRANCH  19  20
ENDBRANCH  18  19
ENDBRANCH  17  18
ENDBRANCH  12  17
ENDBRANCH   8  11
ENDBRANCH   1   7
BRANCH   2  22
HETATM   22  C   UNL     1      -5.003   0.200 -31.897  1.00  0.00     0.254 C 
HETATM   23  N   UNL     1      -4.325   1.241 -32.495  1.00  0.00    -0.354 N 
HETATM   24  H   UNL     1      -3.751   0.955 -33.284  1.00  0.00     0.162 HD
HETATM   25  O   UNL     1      -5.305   0.150 -30.709  1.00  0.00    -0.268 OA
BRANCH  23  26
HETATM   26  C   UNL     1      -3.730   2.266 -31.657  1.00  0.00     0.155 C 
BRANCH  26  27
HETATM   27  C   UNL     1      -2.983   3.316 -32.492  1.00  0.00     0.139 C 
HETATM   28  O   UNL     1      -1.991   3.962 -31.665  1.00  0.00    -0.384 OA
HETATM   29  C   UNL     1      -2.467   5.266 -31.302  1.00  0.00     0.168 C 
HETATM   30  C   UNL     1      -3.886   5.393 -31.818  1.00  0.00     0.029 C 
HETATM   31  C   UNL     1      -3.894   4.431 -32.979  1.00  0.00     0.035 C 
ENDBRANCH  26  27
ENDBRANCH  23  26
ENDBRANCH   2  22
TORSDOF 9
ENDMDL
MODEL 6
REMARK VINA RESULT:      -7.4      2.294      8.479
REMARK  9 active torsions:
REMARK  status: ('A' for Active; 'I' for Inactive)
REMARK    1  A    between atoms: O_2  and  C_3 
REMARK    2  A    between atoms: C_3  and  C_4 
REMARK    3  A    between atoms: C_4  and  S_5 
REMARK    4  A    between atoms: S_5  and  C_6 
REMARK    5  A    between atoms: C_7  and  C_8 
REMARK       I    between atoms: C_8  and  N_9 
REMARK    6  A    between atoms: N_9  and  C_10 
REMARK    7  A    between atoms: C_11  and  C_12 
REMARK       I    between atoms: C_12  and  N_13 
REMARK    8  A    between atoms: N_13  and  C_14 
REMARK    9  A    between atoms: C_14  and  C_15 
ROOT
HETATM    1  C   UNL     1      -6.669  -0.329 -32.892  1.00  0.00     0.050 A 
HETATM    2  C   UNL     1      -5.326  -0.606 -32.584  1.00  0.00     0.058 A 
HETATM    3  C   UNL     1      -4.632  -1.618 -33.265  1.00  0.00     0.019 A 
HETATM    4  C   UNL     1      -5.269  -2.346 -34.269  1.00  0.00     0.001 A 
HETATM    5  C   UNL     1      -6.586  -2.048 -34.611  1.00  0.00     0.002 A 
HETATM    6  C   UNL     1      -7.279  -1.039 -33.936  1.00  0.00     0.030 A 
ENDROOT
BRANCH   1   7
HETATM    7  N   UNL     1      -7.451   0.649 -32.242  1.00  0.00    -0.322 N 
HETATM    8  C   UNL     1      -7.546   1.964 -32.654  1.00  0.00     0.257 C 
HETATM    9  O   UNL     1      -6.802   2.531 -33.443  1.00  0.00    -0.267 OA
HETATM   10  H   UNL     1      -7.799   0.438 -31.314  1.00  0.00     0.169 HD
BRANCH   8  11
HETATM   11  C   UNL     1      -8.669   2.702 -32.042  1.00  0.00     0.049 A 
HETATM   12  C   UNL     1      -9.949   2.756 -32.612  1.00  0.00     0.016 A 
HETATM   13  C   UNL     1     -10.941   3.490 -31.945  1.00  0.00     0.019 A 
HETATM   14  C   UNL     1     -10.668   4.134 -30.732  1.00  0.00     0.001 A 
HETATM   15  C   UNL     1      -9.396   4.060 -30.170  1.00  0.00     0.001 A 
HETATM   16  C   UNL     1      -8.395   3.345 -30.823  1.00  0.00     0.018 A 
BRANCH  12  17
HETATM   17  S   UNL     1     -10.394   2.049 -34.191  1.00  0.00    -0.127 SA
BRANCH  17  18
HETATM   18  C   UNL     1     -12.109   1.498 -33.844  1.00  0.00     0.106 C 
BRANCH  18  19
HETATM   19  C   UNL     1     -13.044   1.735 -35.034  1.00  0.00     0.177 C 
BRANCH  19  20
HETATM   20  O   UNL     1     -14.356   1.187 -34.898  1.00  0.00    -0.395 OA
HETATM   21  C   UNL     1     -14.517   0.355 -33.758  1.00  0.00     0.201 C 
ENDBRANCH  19  20
ENDBRANCH  18  19
ENDBRANCH  17  18
ENDBRANCH  12  17
ENDBRANCH   8  11
ENDBRANCH   1   7
BRANCH   2  22
HETATM   22  C   UNL     1      -4.507   0.284 -31.732  1.00  0.00     0.254 C 
HETATM   23  N   UNL     1      -4.162   1.489 -32.306  1.00  0.00    -0.354 N 
HETATM   24  H   UNL     1      -4.053   1.444 -33.316  1.00  0.00     0.162 HD
HETATM   25  O   UNL     1      -4.199  -0.067 -30.598  1.00  0.00    -0.268 OA
BRANCH  23  26
HETATM   26  C   UNL     1      -3.194   2.337 -31.633  1.00  0.00     0.155 C 
BRANCH  26  27
HETATM   27  C   UNL     1      -3.532   3.825 -31.800  1.00  0.00     0.139 C 
HETATM   28  O   UNL     1      -3.831   4.090 -33.188  1.00  0.00    -0.384 OA
HETATM   29  C   UNL     1      -2.709   4.756 -33.785  1.00  0.00     0.168 C 
HETATM   30  C   UNL     1      -1.599   4.792 -32.755  1.00  0.00     0.029 C 
HETATM   31  C   UNL     1      -2.362   4.732 -31.456  1.00  0.00     0.035 C 
ENDBRANCH  26  27
ENDBRANCH  23  26
ENDBRANCH   2  22
TORSDOF 9
ENDMDL
MODEL 7
REMARK VINA RESULT:      -7.4      2.908      5.513
REMARK  9 active torsions:
REMARK  status: ('A' for Active; 'I' for Inactive)
REMARK    1  A    between atoms: O_2  and  C_3 
REMARK    2  A    between atoms: C_3  and  C_4 
REMARK    3  A    between atoms: C_4  and  S_5 
REMARK    4  A    between atoms: S_5  and  C_6 
REMARK    5  A    between atoms: C_7  and  C_8 
REMARK       I    between atoms: C_8  and  N_9 
REMARK    6  A    between atoms: N_9  and  C_10 
REMARK    7  A    between atoms: C_11  and  C_12 
REMARK       I    between atoms: C_12  and  N_13 
REMARK    8  A    between atoms: N_13  and  C_14 
REMARK    9  A    between atoms: C_14  and  C_15 
ROOT
HETATM    1  C   UNL     1      -5.678  -0.016 -33.056  1.00  0.00     0.050 A 
HETATM    2  C   UNL     1      -6.976  -0.444 -33.380  1.00  0.00     0.058 A 
HETATM    3  C   UNL     1      -7.176  -1.617 -34.125  1.00  0.00     0.019 A 
HETATM    4  C   UNL     1      -6.082  -2.378 -34.534  1.00  0.00     0.001 A 
HETATM    5  C   UNL     1      -4.793  -1.984 -34.179  1.00  0.00     0.002 A 
HETATM    6  C   UNL     1      -4.592  -0.817 -33.435  1.00  0.00     0.030 A 
ENDROOT
BRANCH   1   7
HETATM    7  N   UNL     1      -5.383   1.161 -32.337  1.00  0.00    -0.322 N 
HETATM    8  C   UNL     1      -5.622   2.437 -32.809  1.00  0.00     0.257 C 
HETATM    9  O   UNL     1      -5.865   2.747 -33.968  1.00  0.00    -0.267 OA
HETATM   10  H   UNL     1      -4.780   1.083 -31.526  1.00  0.00     0.169 HD
BRANCH   8  11
HETATM   11  C   UNL     1      -5.556   3.482 -31.768  1.00  0.00     0.049 A 
HETATM   12  C   UNL     1      -4.483   4.378 -31.652  1.00  0.00     0.016 A 
HETATM   13  C   UNL     1      -4.523   5.330 -30.623  1.00  0.00     0.019 A 
HETATM   14  C   UNL     1      -5.613   5.399 -29.747  1.00  0.00     0.001 A 
HETATM   15  C   UNL     1      -6.678   4.513 -29.883  1.00  0.00     0.001 A 
HETATM   16  C   UNL     1      -6.652   3.554 -30.893  1.00  0.00     0.018 A 
BRANCH  12  17
HETATM   17  S   UNL     1      -3.003   4.334 -32.653  1.00  0.00    -0.127 SA
BRANCH  17  18
HETATM   18  C   UNL     1      -3.295   5.773 -33.752  1.00  0.00     0.106 C 
BRANCH  18  19
HETATM   19  C   UNL     1      -1.990   6.341 -34.320  1.00  0.00     0.177 C 
BRANCH  19  20
HETATM   20  O   UNL     1      -1.694   7.686 -33.941  1.00  0.00    -0.395 OA
HETATM   21  C   UNL     1      -1.709   7.905 -32.537  1.00  0.00     0.201 C 
ENDBRANCH  19  20
ENDBRANCH  18  19
ENDBRANCH  17  18
ENDBRANCH  12  17
ENDBRANCH   8  11
ENDBRANCH   1   7
BRANCH   2  22
HETATM   22  C   UNL     1      -8.185   0.151 -32.768  1.00  0.00     0.254 C 
HETATM   23  N   UNL     1      -9.243   0.344 -33.632  1.00  0.00    -0.354 N 
HETATM   24  H   UNL     1      -8.959   0.540 -34.588  1.00  0.00     0.162 HD
HETATM   25  O   UNL     1      -8.198   0.418 -31.572  1.00  0.00    -0.268 OA
BRANCH  23  26
HETATM   26  C   UNL     1     -10.392   1.106 -33.176  1.00  0.00     0.155 C 
BRANCH  26  27
HETATM   27  C   UNL     1     -11.306   1.503 -34.343  1.00  0.00     0.139 C 
HETATM   28  O   UNL     1     -11.450   2.940 -34.366  1.00  0.00    -0.384 OA
HETATM   29  C   UNL     1     -12.742   3.285 -33.845  1.00  0.00     0.168 C 
HETATM   30  C   UNL     1     -13.389   2.009 -33.348  1.00  0.00     0.029 C 
HETATM   31  C   UNL     1     -12.717   0.956 -34.192  1.00  0.00     0.035 C 
ENDBRANCH  26  27
ENDBRANCH  23  26
ENDBRANCH   2  22
TORSDOF 9
ENDMDL
MODEL 8
REMARK VINA RESULT:      -7.3     14.303     16.268
REMARK  9 active torsions:
REMARK  status: ('A' for Active; 'I' for Inactive)
REMARK    1  A    between atoms: O_2  and  C_3 
REMARK    2  A    between atoms: C_3  and  C_4 
REMARK    3  A    between atoms: C_4  and  S_5 
REMARK    4  A    between atoms: S_5  and  C_6 
REMARK    5  A    between atoms: C_7  and  C_8 
REMARK       I    between atoms: C_8  and  N_9 
REMARK    6  A    between atoms: N_9  and  C_10 
REMARK    7  A    between atoms: C_11  and  C_12 
REMARK       I    between atoms: C_12  and  N_13 
REMARK    8  A    between atoms: N_13  and  C_14 
REMARK    9  A    between atoms: C_14  and  C_15 
ROOT
HETATM    1  C   UNL     1      -5.601 -13.223 -39.255  1.00  0.00     0.050 A 
HETATM    2  C   UNL     1      -6.716 -13.185 -38.401  1.00  0.00     0.058 A 
HETATM    3  C   UNL     1      -7.929 -12.627 -38.835  1.00  0.00     0.019 A 
HETATM    4  C   UNL     1      -8.041 -12.122 -40.129  1.00  0.00     0.001 A 
HETATM    5  C   UNL     1      -6.953 -12.196 -40.997  1.00  0.00     0.002 A 
HETATM    6  C   UNL     1      -5.744 -12.753 -40.568  1.00  0.00     0.030 A 
ENDROOT
BRANCH   1   7
HETATM    7  N   UNL     1      -4.338 -13.738 -38.895  1.00  0.00    -0.322 N 
HETATM    8  C   UNL     1      -3.333 -12.988 -38.318  1.00  0.00     0.257 C 
HETATM    9  O   UNL     1      -3.276 -11.766 -38.272  1.00  0.00    -0.267 OA
HETATM   10  H   UNL     1      -4.075 -14.646 -39.260  1.00  0.00     0.169 HD
BRANCH   8  11
HETATM   11  C   UNL     1      -2.250 -13.797 -37.723  1.00  0.00     0.049 A 
HETATM   12  C   UNL     1      -1.115 -14.200 -38.442  1.00  0.00     0.016 A 
HETATM   13  C   UNL     1      -0.149 -14.970 -37.777  1.00  0.00     0.019 A 
HETATM   14  C   UNL     1      -0.301 -15.308 -36.427  1.00  0.00     0.001 A 
HETATM   15  C   UNL     1      -1.425 -14.888 -35.722  1.00  0.00     0.001 A 
HETATM   16  C   UNL     1      -2.401 -14.132 -36.367  1.00  0.00     0.018 A 
BRANCH  12  17
HETATM   17  S   UNL     1      -0.851 -13.903 -40.184  1.00  0.00    -0.127 SA
BRANCH  17  18
HETATM   18  C   UNL     1      -0.924 -15.616 -40.834  1.00  0.00     0.106 C 
BRANCH  18  19
HETATM   19  C   UNL     1      -2.364 -16.119 -40.979  1.00  0.00     0.177 C 
BRANCH  19  20
HETATM   20  O   UNL     1      -3.316 -15.134 -41.385  1.00  0.00    -0.395 OA
HETATM   21  C   UNL     1      -3.430 -14.990 -42.793  1.00  0.00     0.201 C 
ENDBRANCH  19  20
ENDBRANCH  18  19
ENDBRANCH  17  18
ENDBRANCH  12  17
ENDBRANCH   8  11
ENDBRANCH   1   7
BRANCH   2  22
HETATM   22  C   UNL     1      -6.764 -13.928 -37.123  1.00  0.00     0.254 C 
HETATM   23  N   UNL     1      -7.101 -13.173 -36.019  1.00  0.00    -0.354 N 
HETATM   24  H   UNL     1      -6.800 -12.203 -36.079  1.00  0.00     0.162 HD
HETATM   25  O   UNL     1      -6.527 -15.131 -37.104  1.00  0.00    -0.268 OA
BRANCH  23  26
HETATM   26  C   UNL     1      -6.974 -13.762 -34.698  1.00  0.00     0.155 C 
BRANCH  26  27
HETATM   27  C   UNL     1      -5.543 -13.633 -34.158  1.00  0.00     0.139 C 
HETATM   28  O   UNL     1      -4.902 -14.927 -34.199  1.00  0.00    -0.384 OA
HETATM   29  C   UNL     1      -4.859 -15.465 -32.869  1.00  0.00     0.168 C 
HETATM   30  C   UNL     1      -5.630 -14.521 -31.969  1.00  0.00     0.029 C 
HETATM   31  C   UNL     1      -5.506 -13.207 -32.699  1.00  0.00     0.035 C 
ENDBRANCH  26  27
ENDBRANCH  23  26
ENDBRANCH   2  22
TORSDOF 9
ENDMDL
MODEL 9
REMARK VINA RESULT:      -7.2      3.347      7.705
REMARK  9 active torsions:
REMARK  status: ('A' for Active; 'I' for Inactive)
REMARK    1  A    between atoms: O_2  and  C_3 
REMARK    2  A    between atoms: C_3  and  C_4 
REMARK    3  A    between atoms: C_4  and  S_5 
REMARK    4  A    between atoms: S_5  and  C_6 
REMARK    5  A    between atoms: C_7  and  C_8 
REMARK       I    between atoms: C_8  and  N_9 
REMARK    6  A    between atoms: N_9  and  C_10 
REMARK    7  A    between atoms: C_11  and  C_12 
REMARK       I    between atoms: C_12  and  N_13 
REMARK    8  A    between atoms: N_13  and  C_14 
REMARK    9  A    between atoms: C_14  and  C_15 
ROOT
HETATM    1  C   UNL     1      -5.974   2.761 -31.262  1.00  0.00     0.050 A 
HETATM    2  C   UNL     1      -5.097   3.848 -31.115  1.00  0.00     0.058 A 
HETATM    3  C   UNL     1      -5.405   4.900 -30.237  1.00  0.00     0.019 A 
HETATM    4  C   UNL     1      -6.581   4.862 -29.489  1.00  0.00     0.001 A 
HETATM    5  C   UNL     1      -7.435   3.765 -29.596  1.00  0.00     0.002 A 
HETATM    6  C   UNL     1      -7.128   2.716 -30.468  1.00  0.00     0.030 A 
ENDROOT
BRANCH   1   7
HETATM    7  N   UNL     1      -5.760   1.676 -32.139  1.00  0.00    -0.322 N 
HETATM    8  C   UNL     1      -5.598   0.368 -31.727  1.00  0.00     0.257 C 
HETATM    9  O   UNL     1      -5.359  -0.007 -30.587  1.00  0.00    -0.267 OA
HETATM   10  H   UNL     1      -5.507   1.885 -33.098  1.00  0.00     0.169 HD
BRANCH   8  11
HETATM   11  C   UNL     1      -5.732  -0.622 -32.814  1.00  0.00     0.049 A 
HETATM   12  C   UNL     1      -6.930  -0.833 -33.512  1.00  0.00     0.016 A 
HETATM   13  C   UNL     1      -6.944  -1.802 -34.526  1.00  0.00     0.019 A 
HETATM   14  C   UNL     1      -5.789  -2.524 -34.849  1.00  0.00     0.001 A 
HETATM   15  C   UNL     1      -4.602  -2.294 -34.157  1.00  0.00     0.001 A 
HETATM   16  C   UNL     1      -4.571  -1.343 -33.140  1.00  0.00     0.018 A 
BRANCH  12  17
HETATM   17  S   UNL     1      -8.484  -0.036 -33.136  1.00  0.00    -0.127 SA
BRANCH  17  18
HETATM   18  C   UNL     1      -8.534   1.244 -34.449  1.00  0.00     0.106 C 
BRANCH  18  19
HETATM   19  C   UNL     1      -8.774   2.646 -33.879  1.00  0.00     0.177 C 
BRANCH  19  20
HETATM   20  O   UNL     1      -7.648   3.524 -33.922  1.00  0.00    -0.395 OA
HETATM   21  C   UNL     1      -7.982   4.896 -33.774  1.00  0.00     0.201 C 
ENDBRANCH  19  20
ENDBRANCH  18  19
ENDBRANCH  17  18
ENDBRANCH  12  17
ENDBRANCH   8  11
ENDBRANCH   1   7
BRANCH   2  22
HETATM   22  C   UNL     1      -3.723   3.840 -31.662  1.00  0.00     0.254 C 
HETATM   23  N   UNL     1      -2.807   4.590 -30.953  1.00  0.00    -0.354 N 
HETATM   24  H   UNL     1      -3.211   5.403 -30.496  1.00  0.00     0.162 HD
HETATM   25  O   UNL     1      -3.466   3.185 -32.666  1.00  0.00    -0.268 OA
BRANCH  23  26
HETATM   26  C   UNL     1      -1.490   4.811 -31.522  1.00  0.00     0.155 C 
BRANCH  26  27
HETATM   27  C   UNL     1      -1.181   6.307 -31.670  1.00  0.00     0.139 C 
HETATM   28  O   UNL     1       0.230   6.525 -31.449  1.00  0.00    -0.384 OA
HETATM   29  C   UNL     1       0.412   7.091 -30.143  1.00  0.00     0.168 C 
HETATM   30  C   UNL     1      -0.939   7.107 -29.459  1.00  0.00     0.029 C 
HETATM   31  C   UNL     1      -1.891   7.156 -30.628  1.00  0.00     0.035 C 
ENDBRANCH  26  27
ENDBRANCH  23  26
ENDBRANCH   2  22
TORSDOF 9
ENDMDL
MODEL 10
REMARK VINA RESULT:      -7.1     14.631     17.152
REMARK  9 active torsions:
REMARK  status: ('A' for Active; 'I' for Inactive)
REMARK    1  A    between atoms: O_2  and  C_3 
REMARK    2  A    between atoms: C_3  and  C_4 
REMARK    3  A    between atoms: C_4  and  S_5 
REMARK    4  A    between atoms: S_5  and  C_6 
REMARK    5  A    between atoms: C_7  and  C_8 
REMARK       I    between atoms: C_8  and  N_9 
REMARK    6  A    between atoms: N_9  and  C_10 
REMARK    7  A    between atoms: C_11  and  C_12 
REMARK       I    between atoms: C_12  and  N_13 
REMARK    8  A    between atoms: N_13  and  C_14 
REMARK    9  A    between atoms: C_14  and  C_15 
ROOT
HETATM    1  C   UNL     1      -6.510 -12.827 -38.282  1.00  0.00     0.050 A 
HETATM    2  C   UNL     1      -5.435 -12.647 -39.169  1.00  0.00     0.058 A 
HETATM    3  C   UNL     1      -5.665 -12.267 -40.500  1.00  0.00     0.019 A 
HETATM    4  C   UNL     1      -6.966 -12.047 -40.949  1.00  0.00     0.001 A 
HETATM    5  C   UNL     1      -8.035 -12.180 -40.064  1.00  0.00     0.002 A 
HETATM    6  C   UNL     1      -7.808 -12.556 -38.736  1.00  0.00     0.030 A 
ENDROOT
BRANCH   1   7
HETATM    7  N   UNL     1      -6.376 -13.233 -36.938  1.00  0.00    -0.322 N 
HETATM    8  C   UNL     1      -6.593 -14.523 -36.494  1.00  0.00     0.257 C 
HETATM    9  O   UNL     1      -7.164 -15.414 -37.108  1.00  0.00    -0.267 OA
HETATM   10  H   UNL     1      -6.319 -12.512 -36.228  1.00  0.00     0.169 HD
BRANCH   8  11
HETATM   11  C   UNL     1      -6.067 -14.785 -35.139  1.00  0.00     0.049 A 
HETATM   12  C   UNL     1      -4.728 -15.120 -34.891  1.00  0.00     0.016 A 
HETATM   13  C   UNL     1      -4.338 -15.350 -33.563  1.00  0.00     0.019 A 
HETATM   14  C   UNL     1      -5.253 -15.228 -32.512  1.00  0.00     0.001 A 
HETATM   15  C   UNL     1      -6.576 -14.881 -32.771  1.00  0.00     0.001 A 
HETATM   16  C   UNL     1      -6.986 -14.658 -34.083  1.00  0.00     0.018 A 
BRANCH  12  17
HETATM   17  S   UNL     1      -3.492 -15.387 -36.153  1.00  0.00    -0.127 SA
BRANCH  17  18
HETATM   18  C   UNL     1      -4.019 -17.018 -36.805  1.00  0.00     0.106 C 
BRANCH  18  19
HETATM   19  C   UNL     1      -3.743 -17.157 -38.305  1.00  0.00     0.177 C 
BRANCH  19  20
HETATM   20  O   UNL     1      -4.134 -16.040 -39.105  1.00  0.00    -0.395 OA
HETATM   21  C   UNL     1      -5.255 -16.294 -39.939  1.00  0.00     0.201 C 
ENDBRANCH  19  20
ENDBRANCH  18  19
ENDBRANCH  17  18
ENDBRANCH  12  17
ENDBRANCH   8  11
ENDBRANCH   1   7
BRANCH   2  22
HETATM   22  C   UNL     1      -4.028 -12.601 -38.713  1.00  0.00     0.254 C 
HETATM   23  N   UNL     1      -3.118 -13.190 -39.566  1.00  0.00    -0.354 N 
HETATM   24  H   UNL     1      -3.499 -13.971 -40.094  1.00  0.00     0.162 HD
HETATM   25  O   UNL     1      -3.745 -12.053 -37.654  1.00  0.00    -0.268 OA
BRANCH  23  26
HETATM   26  C   UNL     1      -1.751 -13.378 -39.113  1.00  0.00     0.155 C 
BRANCH  26  27
HETATM   27  C   UNL     1      -0.823 -13.775 -40.269  1.00  0.00     0.139 C 
HETATM   28  O   UNL     1      -1.574 -14.530 -41.245  1.00  0.00    -0.384 OA
HETATM   29  C   UNL     1      -1.240 -15.919 -41.113  1.00  0.00     0.168 C 
HETATM   30  C   UNL     1      -0.333 -16.058 -39.908  1.00  0.00     0.029 C 
HETATM   31  C   UNL     1       0.304 -14.694 -39.825  1.00  0.00     0.035 C 
ENDBRANCH  26  27
ENDBRANCH  23  26
ENDBRANCH   2  22
TORSDOF 9
ENDMDL
