MODEL 1
REMARK VINA RESULT:      -9.4      0.000      0.000
REMARK  7 active torsions:
REMARK  status: ('A' for Active; 'I' for Inactive)
REMARK    1  A    between atoms: C_3  and  C_4 
REMARK    2  A    between atoms: C_11  and  N_12 
REMARK       I    between atoms: N_12  and  C_13 
REMARK    3  A    between atoms: C_13  and  C_14 
REMARK    4  A    between atoms: C_21  and  C_22 
REMARK       I    between atoms: C_22  and  N_23 
REMARK    5  A    between atoms: N_23  and  C_24 
REMARK    6  A    between atoms: C_24  and  C_25 
REMARK    7  A    between atoms: C_25  and  C_26 
ROOT
HETATM    1  C   UNL     1     -10.114   0.814 -33.461  1.00  0.00     0.158 C 
HETATM    2  N   UNL     1      -9.728   2.191 -33.653  1.00  0.00    -0.335 N 
HETATM    3  C   UNL     1     -10.598   3.247 -33.822  1.00  0.00     0.111 A 
HETATM    4  N   UNL     1      -9.948   4.387 -33.874  1.00  0.00    -0.233 NA
HETATM    5  C   UNL     1      -8.622   4.065 -33.788  1.00  0.00     0.089 A 
HETATM    6  C   UNL     1      -8.433   2.685 -33.655  1.00  0.00     0.091 A 
HETATM    7  C   UNL     1      -7.143   2.117 -33.537  1.00  0.00     0.065 A 
HETATM    8  C   UNL     1      -6.063   3.015 -33.589  1.00  0.00     0.049 A 
HETATM    9  C   UNL     1      -6.246   4.398 -33.728  1.00  0.00     0.036 A 
HETATM   10  C   UNL     1      -7.527   4.940 -33.824  1.00  0.00     0.051 A 
ENDROOT
BRANCH   9  11
HETATM   11  C   UNL     1      -5.035   5.254 -33.824  1.00  0.00     0.251 C 
HETATM   12  N   UNL     1      -3.991   4.770 -34.591  1.00  0.00    -0.357 N 
HETATM   13  H   UNL     1      -4.188   4.009 -35.228  1.00  0.00     0.162 HD
HETATM   14  O   UNL     1      -5.015   6.343 -33.264  1.00  0.00    -0.268 OA
BRANCH  12  15
HETATM   15  C   UNL     1      -2.874   5.649 -34.897  1.00  0.00     0.127 C 
BRANCH  15  16
HETATM   16  C   UNL     1      -1.632   5.346 -34.060  1.00  0.00     0.060 C 
BRANCH  16  17
HETATM   17  C   UNL     1      -1.441   6.353 -32.968  1.00  0.00    -0.029 A 
HETATM   18  C   UNL     1      -0.732   6.155 -31.740  1.00  0.00    -0.002 A 
HETATM   19  C   UNL     1      -0.842   7.331 -30.997  1.00  0.00     0.042 A 
HETATM   20  C   UNL     1      -0.018   5.073 -31.182  1.00  0.00     0.014 A 
HETATM   21  C   UNL     1      -0.276   7.479 -29.725  1.00  0.00     0.030 A 
HETATM   22  N   UNL     1      -1.579   8.215 -31.749  1.00  0.00    -0.365 N 
HETATM   23  C   UNL     1       0.425   6.392 -29.196  1.00  0.00     0.002 A 
HETATM   24  C   UNL     1       0.556   5.206 -29.912  1.00  0.00     0.001 A 
HETATM   25  H   UNL     1      -1.821   9.150 -31.454  1.00  0.00     0.165 HD
HETATM   26  C   UNL     1      -1.943   7.639 -32.937  1.00  0.00     0.096 A 
ENDBRANCH  16  17
ENDBRANCH  15  16
ENDBRANCH  12  15
ENDBRANCH   9  11
BRANCH   7  27
HETATM   27  N   UNL     1      -6.958   0.730 -33.385  1.00  0.00    -0.323 N 
HETATM   28  C   UNL     1      -6.793  -0.229 -34.376  1.00  0.00     0.251 C 
HETATM   29  O   UNL     1      -6.776  -0.037 -35.586  1.00  0.00    -0.270 OA
HETATM   30  H   UNL     1      -6.948   0.341 -32.452  1.00  0.00     0.169 HD
BRANCH  28  31
HETATM   31  C   UNL     1      -6.476  -1.608 -33.766  1.00  0.00     0.213 C 
HETATM   32  O   UNL     1      -6.987  -2.676 -34.590  1.00  0.00    -0.376 OA
HETATM   33  C   UNL     1      -5.885  -3.528 -34.942  1.00  0.00     0.168 C 
HETATM   34  C   UNL     1      -4.632  -2.702 -34.764  1.00  0.00     0.029 C 
HETATM   35  C   UNL     1      -4.988  -1.851 -33.570  1.00  0.00     0.044 C 
ENDBRANCH  28  31
ENDBRANCH   7  27
BRANCH   3  36
HETATM   36  C   UNL     1     -12.120   3.168 -33.931  1.00  0.00     0.056 C 
HETATM   37  C   UNL     1     -12.828   3.128 -32.541  1.00  0.00     0.012 C 
HETATM   38  C   UNL     1     -13.928   4.014 -33.154  1.00  0.00     0.002 C 
HETATM   39  C   UNL     1     -12.846   4.533 -34.119  1.00  0.00     0.012 C 
ENDBRANCH   3  36
TORSDOF 7
ENDMDL
MODEL 2
REMARK VINA RESULT:      -9.3      3.360      8.726
REMARK  7 active torsions:
REMARK  status: ('A' for Active; 'I' for Inactive)
REMARK    1  A    between atoms: C_3  and  C_4 
REMARK    2  A    between atoms: C_11  and  N_12 
REMARK       I    between atoms: N_12  and  C_13 
REMARK    3  A    between atoms: C_13  and  C_14 
REMARK    4  A    between atoms: C_21  and  C_22 
REMARK       I    between atoms: C_22  and  N_23 
REMARK    5  A    between atoms: N_23  and  C_24 
REMARK    6  A    between atoms: C_24  and  C_25 
REMARK    7  A    between atoms: C_25  and  C_26 
ROOT
HETATM    1  C   UNL     1      -4.320   7.127 -30.040  1.00  0.00     0.158 C 
HETATM    2  N   UNL     1      -5.371   6.190 -29.723  1.00  0.00    -0.335 N 
HETATM    3  C   UNL     1      -6.316   6.357 -28.734  1.00  0.00     0.111 A 
HETATM    4  N   UNL     1      -7.194   5.381 -28.755  1.00  0.00    -0.233 NA
HETATM    5  C   UNL     1      -6.785   4.531 -29.746  1.00  0.00     0.089 A 
HETATM    6  C   UNL     1      -5.630   4.998 -30.381  1.00  0.00     0.091 A 
HETATM    7  C   UNL     1      -5.027   4.290 -31.447  1.00  0.00     0.065 A 
HETATM    8  C   UNL     1      -5.641   3.079 -31.811  1.00  0.00     0.049 A 
HETATM    9  C   UNL     1      -6.795   2.603 -31.174  1.00  0.00     0.036 A 
HETATM   10  C   UNL     1      -7.385   3.326 -30.137  1.00  0.00     0.051 A 
ENDROOT
BRANCH   9  11
HETATM   11  C   UNL     1      -7.333   1.286 -31.601  1.00  0.00     0.251 C 
HETATM   12  N   UNL     1      -8.015   1.254 -32.804  1.00  0.00    -0.357 N 
HETATM   13  H   UNL     1      -7.902   2.039 -33.431  1.00  0.00     0.162 HD
HETATM   14  O   UNL     1      -7.133   0.294 -30.909  1.00  0.00    -0.268 OA
BRANCH  12  15
HETATM   15  C   UNL     1      -8.377  -0.033 -33.375  1.00  0.00     0.127 C 
BRANCH  15  16
HETATM   16  C   UNL     1      -7.597  -0.361 -34.647  1.00  0.00     0.060 C 
BRANCH  16  17
HETATM   17  C   UNL     1      -6.298  -1.041 -34.340  1.00  0.00    -0.029 A 
HETATM   18  C   UNL     1      -6.012  -2.437 -34.484  1.00  0.00    -0.002 A 
HETATM   19  C   UNL     1      -4.704  -2.645 -34.042  1.00  0.00     0.042 A 
HETATM   20  C   UNL     1      -6.752  -3.549 -34.936  1.00  0.00     0.014 A 
HETATM   21  C   UNL     1      -4.102  -3.909 -34.027  1.00  0.00     0.030 A 
HETATM   22  N   UNL     1      -4.211  -1.422 -33.655  1.00  0.00    -0.365 N 
HETATM   23  C   UNL     1      -4.858  -4.994 -34.480  1.00  0.00     0.002 A 
HETATM   24  C   UNL     1      -6.164  -4.819 -34.930  1.00  0.00     0.001 A 
HETATM   25  H   UNL     1      -3.283  -1.273 -33.284  1.00  0.00     0.165 HD
HETATM   26  C   UNL     1      -5.158  -0.449 -33.831  1.00  0.00     0.096 A 
ENDBRANCH  16  17
ENDBRANCH  15  16
ENDBRANCH  12  15
ENDBRANCH   9  11
BRANCH   7  27
HETATM   27  N   UNL     1      -3.875   4.772 -32.096  1.00  0.00    -0.323 N 
HETATM   28  C   UNL     1      -2.570   4.312 -31.984  1.00  0.00     0.251 C 
HETATM   29  O   UNL     1      -2.177   3.384 -31.287  1.00  0.00    -0.270 OA
HETATM   30  H   UNL     1      -3.966   5.558 -32.725  1.00  0.00     0.169 HD
BRANCH  28  31
HETATM   31  C   UNL     1      -1.641   5.032 -32.981  1.00  0.00     0.213 C 
HETATM   32  O   UNL     1      -2.396   5.789 -33.949  1.00  0.00    -0.376 OA
HETATM   33  C   UNL     1      -1.966   7.158 -33.872  1.00  0.00     0.168 C 
HETATM   34  C   UNL     1      -1.324   7.329 -32.514  1.00  0.00     0.029 C 
HETATM   35  C   UNL     1      -0.665   5.987 -32.310  1.00  0.00     0.044 C 
ENDBRANCH  28  31
ENDBRANCH   7  27
BRANCH   3  36
HETATM   36  C   UNL     1      -6.392   7.504 -27.727  1.00  0.00     0.056 C 
HETATM   37  C   UNL     1      -4.996   7.908 -27.158  1.00  0.00     0.012 C 
HETATM   38  C   UNL     1      -5.481   9.369 -27.200  1.00  0.00     0.002 C 
HETATM   39  C   UNL     1      -6.412   8.933 -28.346  1.00  0.00     0.012 C 
ENDBRANCH   3  36
TORSDOF 7
ENDMDL
MODEL 3
REMARK VINA RESULT:      -9.2      2.409      5.789
REMARK  7 active torsions:
REMARK  status: ('A' for Active; 'I' for Inactive)
REMARK    1  A    between atoms: C_3  and  C_4 
REMARK    2  A    between atoms: C_11  and  N_12 
REMARK       I    between atoms: N_12  and  C_13 
REMARK    3  A    between atoms: C_13  and  C_14 
REMARK    4  A    between atoms: C_21  and  C_22 
REMARK       I    between atoms: C_22  and  N_23 
REMARK    5  A    between atoms: N_23  and  C_24 
REMARK    6  A    between atoms: C_24  and  C_25 
REMARK    7  A    between atoms: C_25  and  C_26 
ROOT
HETATM    1  C   UNL     1      -7.209   0.141 -32.651  1.00  0.00     0.158 C 
HETATM    2  N   UNL     1      -5.861   0.576 -32.376  1.00  0.00    -0.335 N 
HETATM    3  C   UNL     1      -4.753  -0.242 -32.325  1.00  0.00     0.111 A 
HETATM    4  N   UNL     1      -3.658   0.461 -32.152  1.00  0.00    -0.233 NA
HETATM    5  C   UNL     1      -4.063   1.762 -32.035  1.00  0.00     0.089 A 
HETATM    6  C   UNL     1      -5.451   1.883 -32.162  1.00  0.00     0.091 A 
HETATM    7  C   UNL     1      -6.100   3.138 -32.088  1.00  0.00     0.065 A 
HETATM    8  C   UNL     1      -5.273   4.249 -31.851  1.00  0.00     0.049 A 
HETATM    9  C   UNL     1      -3.883   4.133 -31.716  1.00  0.00     0.036 A 
HETATM   10  C   UNL     1      -3.260   2.889 -31.812  1.00  0.00     0.051 A 
ENDROOT
BRANCH   9  11
HETATM   11  C   UNL     1      -3.107   5.364 -31.416  1.00  0.00     0.251 C 
HETATM   12  N   UNL     1      -2.085   5.684 -32.292  1.00  0.00    -0.357 N 
HETATM   13  H   UNL     1      -2.077   5.226 -33.194  1.00  0.00     0.162 HD
HETATM   14  O   UNL     1      -3.410   6.053 -30.449  1.00  0.00    -0.268 OA
BRANCH  12  15
HETATM   15  C   UNL     1      -1.435   6.979 -32.174  1.00  0.00     0.127 C 
BRANCH  15  16
HETATM   16  C   UNL     1       0.019   6.875 -31.714  1.00  0.00     0.060 C 
BRANCH  16  17
HETATM   17  C   UNL     1       0.120   6.343 -30.318  1.00  0.00    -0.029 A 
HETATM   18  C   UNL     1      -0.188   7.051 -29.111  1.00  0.00    -0.002 A 
HETATM   19  C   UNL     1       0.091   6.199 -28.042  1.00  0.00     0.042 A 
HETATM   20  C   UNL     1      -0.664   8.349 -28.829  1.00  0.00     0.014 A 
HETATM   21  C   UNL     1      -0.080   6.580 -26.705  1.00  0.00     0.030 A 
HETATM   22  N   UNL     1       0.539   5.015 -28.577  1.00  0.00    -0.365 N 
HETATM   23  C   UNL     1      -0.553   7.871 -26.454  1.00  0.00     0.002 A 
HETATM   24  C   UNL     1      -0.843   8.745 -27.499  1.00  0.00     0.001 A 
HETATM   25  H   UNL     1       0.822   4.213 -28.030  1.00  0.00     0.165 HD
HETATM   26  C   UNL     1       0.559   5.088 -29.944  1.00  0.00     0.096 A 
ENDBRANCH  16  17
ENDBRANCH  15  16
ENDBRANCH  12  15
ENDBRANCH   9  11
BRANCH   7  27
HETATM   27  N   UNL     1      -7.494   3.258 -32.234  1.00  0.00    -0.323 N 
HETATM   28  C   UNL     1      -8.202   3.861 -33.266  1.00  0.00     0.251 C 
HETATM   29  O   UNL     1      -7.731   4.407 -34.256  1.00  0.00    -0.270 OA
HETATM   30  H   UNL     1      -8.093   2.878 -31.513  1.00  0.00     0.169 HD
BRANCH  28  31
HETATM   31  C   UNL     1      -9.718   3.639 -33.102  1.00  0.00     0.213 C 
HETATM   32  O   UNL     1     -10.445   4.112 -34.255  1.00  0.00    -0.376 OA
HETATM   33  C   UNL     1     -11.204   3.011 -34.780  1.00  0.00     0.168 C 
HETATM   34  C   UNL     1     -10.546   1.752 -34.263  1.00  0.00     0.029 C 
HETATM   35  C   UNL     1     -10.093   2.180 -32.889  1.00  0.00     0.044 C 
ENDBRANCH  28  31
ENDBRANCH   7  27
BRANCH   3  36
HETATM   36  C   UNL     1      -4.735  -1.765 -32.458  1.00  0.00     0.056 C 
HETATM   37  C   UNL     1      -4.488  -2.245 -33.922  1.00  0.00     0.012 C 
HETATM   38  C   UNL     1      -3.638  -3.384 -33.330  1.00  0.00     0.002 C 
HETATM   39  C   UNL     1      -3.370  -2.445 -32.140  1.00  0.00     0.012 C 
ENDBRANCH   3  36
TORSDOF 7
ENDMDL
MODEL 4
REMARK VINA RESULT:      -9.1      2.889      7.899
REMARK  7 active torsions:
REMARK  status: ('A' for Active; 'I' for Inactive)
REMARK    1  A    between atoms: C_3  and  C_4 
REMARK    2  A    between atoms: C_11  and  N_12 
REMARK       I    between atoms: N_12  and  C_13 
REMARK    3  A    between atoms: C_13  and  C_14 
REMARK    4  A    between atoms: C_21  and  C_22 
REMARK       I    between atoms: C_22  and  N_23 
REMARK    5  A    between atoms: N_23  and  C_24 
REMARK    6  A    between atoms: C_24  and  C_25 
REMARK    7  A    between atoms: C_25  and  C_26 
ROOT
HETATM    1  C   UNL     1      -3.339  -0.470 -33.117  1.00  0.00     0.158 C 
HETATM    2  N   UNL     1      -4.669  -0.847 -33.531  1.00  0.00    -0.335 N 
HETATM    3  C   UNL     1      -5.040  -2.094 -33.984  1.00  0.00     0.111 A 
HETATM    4  N   UNL     1      -6.335  -2.153 -34.190  1.00  0.00    -0.233 NA
HETATM    5  C   UNL     1      -6.814  -0.902 -33.915  1.00  0.00     0.089 A 
HETATM    6  C   UNL     1      -5.794  -0.038 -33.502  1.00  0.00     0.091 A 
HETATM    7  C   UNL     1      -6.053   1.308 -33.151  1.00  0.00     0.065 A 
HETATM    8  C   UNL     1      -7.387   1.733 -33.269  1.00  0.00     0.049 A 
HETATM    9  C   UNL     1      -8.412   0.874 -33.689  1.00  0.00     0.036 A 
HETATM   10  C   UNL     1      -8.139  -0.455 -34.012  1.00  0.00     0.051 A 
ENDROOT
BRANCH   9  11
HETATM   11  C   UNL     1      -9.779   1.438 -33.829  1.00  0.00     0.251 C 
HETATM   12  N   UNL     1      -9.910   2.559 -34.629  1.00  0.00    -0.357 N 
HETATM   13  H   UNL     1      -9.148   2.782 -35.256  1.00  0.00     0.162 HD
HETATM   14  O   UNL     1     -10.723   0.889 -33.274  1.00  0.00    -0.268 OA
BRANCH  12  15
HETATM   15  C   UNL     1     -11.242   3.027 -34.975  1.00  0.00     0.127 C 
BRANCH  15  16
HETATM   16  C   UNL     1     -11.683   4.235 -34.150  1.00  0.00     0.060 C 
BRANCH  16  17
HETATM   17  C   UNL     1     -10.515   5.071 -33.727  1.00  0.00    -0.029 A 
HETATM   18  C   UNL     1      -9.787   4.959 -32.498  1.00  0.00    -0.002 A 
HETATM   19  C   UNL     1      -8.812   5.958 -32.495  1.00  0.00     0.042 A 
HETATM   20  C   UNL     1      -9.877   4.106 -31.378  1.00  0.00     0.014 A 
HETATM   21  C   UNL     1      -7.927   6.150 -31.427  1.00  0.00     0.030 A 
HETATM   22  N   UNL     1      -8.935   6.644 -33.680  1.00  0.00    -0.365 N 
HETATM   23  C   UNL     1      -8.039   5.291 -30.330  1.00  0.00     0.002 A 
HETATM   24  C   UNL     1      -8.998   4.282 -30.303  1.00  0.00     0.001 A 
HETATM   25  H   UNL     1      -8.358   7.430 -33.946  1.00  0.00     0.165 HD
HETATM   26  C   UNL     1      -9.954   6.119 -34.430  1.00  0.00     0.096 A 
ENDBRANCH  16  17
ENDBRANCH  15  16
ENDBRANCH  12  15
ENDBRANCH   9  11
BRANCH   7  27
HETATM   27  N   UNL     1      -5.027   2.168 -32.719  1.00  0.00    -0.323 N 
HETATM   28  C   UNL     1      -4.815   2.682 -31.446  1.00  0.00     0.251 C 
HETATM   29  O   UNL     1      -5.496   2.475 -30.449  1.00  0.00    -0.270 OA
HETATM   30  H   UNL     1      -4.341   2.483 -33.392  1.00  0.00     0.169 HD
BRANCH  28  31
HETATM   31  C   UNL     1      -3.490   3.468 -31.378  1.00  0.00     0.213 C 
HETATM   32  O   UNL     1      -2.644   3.166 -32.506  1.00  0.00    -0.376 OA
HETATM   33  C   UNL     1      -2.352   4.399 -33.183  1.00  0.00     0.168 C 
HETATM   34  C   UNL     1      -3.431   5.376 -32.774  1.00  0.00     0.029 C 
HETATM   35  C   UNL     1      -3.687   4.975 -31.342  1.00  0.00     0.044 C 
ENDBRANCH  28  31
ENDBRANCH   7  27
BRANCH   3  36
HETATM   36  C   UNL     1      -4.119  -3.290 -34.224  1.00  0.00     0.056 C 
HETATM   37  C   UNL     1      -3.560  -3.903 -32.901  1.00  0.00     0.012 C 
HETATM   38  C   UNL     1      -3.714  -5.286 -33.560  1.00  0.00     0.002 C 
HETATM   39  C   UNL     1      -4.839  -4.660 -34.403  1.00  0.00     0.012 C 
ENDBRANCH   3  36
TORSDOF 7
ENDMDL
MODEL 5
REMARK VINA RESULT:      -9.1      2.625      9.191
REMARK  7 active torsions:
REMARK  status: ('A' for Active; 'I' for Inactive)
REMARK    1  A    between atoms: C_3  and  C_4 
REMARK    2  A    between atoms: C_11  and  N_12 
REMARK       I    between atoms: N_12  and  C_13 
REMARK    3  A    between atoms: C_13  and  C_14 
REMARK    4  A    between atoms: C_21  and  C_22 
REMARK       I    between atoms: C_22  and  N_23 
REMARK    5  A    between atoms: N_23  and  C_24 
REMARK    6  A    between atoms: C_24  and  C_25 
REMARK    7  A    between atoms: C_25  and  C_26 
ROOT
HETATM    1  C   UNL     1      -4.294   0.922 -32.753  1.00  0.00     0.158 C 
HETATM    2  N   UNL     1      -5.664   1.027 -33.191  1.00  0.00    -0.335 N 
HETATM    3  C   UNL     1      -6.502  -0.035 -33.454  1.00  0.00     0.111 A 
HETATM    4  N   UNL     1      -7.714   0.382 -33.739  1.00  0.00    -0.233 NA
HETATM    5  C   UNL     1      -7.655   1.748 -33.712  1.00  0.00     0.089 A 
HETATM    6  C   UNL     1      -6.374   2.203 -33.379  1.00  0.00     0.091 A 
HETATM    7  C   UNL     1      -6.075   3.582 -33.279  1.00  0.00     0.065 A 
HETATM    8  C   UNL     1      -7.130   4.466 -33.561  1.00  0.00     0.049 A 
HETATM    9  C   UNL     1      -8.413   4.017 -33.902  1.00  0.00     0.036 A 
HETATM   10  C   UNL     1      -8.693   2.652 -33.977  1.00  0.00     0.051 A 
ENDROOT
BRANCH   9  11
HETATM   11  C   UNL     1      -9.443   5.036 -34.232  1.00  0.00     0.251 C 
HETATM   12  N   UNL     1     -10.400   5.287 -33.266  1.00  0.00    -0.357 N 
HETATM   13  H   UNL     1     -10.216   4.966 -32.325  1.00  0.00     0.162 HD
HETATM   14  O   UNL     1      -9.393   5.626 -35.305  1.00  0.00    -0.268 OA
BRANCH  12  15
HETATM   15  C   UNL     1     -11.300   6.416 -33.442  1.00  0.00     0.127 C 
BRANCH  15  16
HETATM   16  C   UNL     1     -12.612   6.031 -34.124  1.00  0.00     0.060 C 
BRANCH  16  17
HETATM   17  C   UNL     1     -13.221   4.811 -33.503  1.00  0.00    -0.029 A 
HETATM   18  C   UNL     1     -13.101   3.464 -33.976  1.00  0.00    -0.002 A 
HETATM   19  C   UNL     1     -13.860   2.654 -33.131  1.00  0.00     0.042 A 
HETATM   20  C   UNL     1     -12.427   2.860 -35.058  1.00  0.00     0.014 A 
HETATM   21  C   UNL     1     -13.982   1.271 -33.315  1.00  0.00     0.030 A 
HETATM   22  N   UNL     1     -14.411   3.474 -32.175  1.00  0.00    -0.365 N 
HETATM   23  C   UNL     1     -13.304   0.699 -34.395  1.00  0.00     0.002 A 
HETATM   24  C   UNL     1     -12.536   1.479 -35.255  1.00  0.00     0.001 A 
HETATM   25  H   UNL     1     -15.017   3.155 -31.431  1.00  0.00     0.165 HD
HETATM   26  C   UNL     1     -14.033   4.773 -32.386  1.00  0.00     0.096 A 
ENDBRANCH  16  17
ENDBRANCH  15  16
ENDBRANCH  12  15
ENDBRANCH   9  11
BRANCH   7  27
HETATM   27  N   UNL     1      -4.791   4.035 -32.925  1.00  0.00    -0.323 N 
HETATM   28  C   UNL     1      -3.900   4.776 -33.690  1.00  0.00     0.251 C 
HETATM   29  O   UNL     1      -4.075   5.180 -34.833  1.00  0.00    -0.270 OA
HETATM   30  H   UNL     1      -4.430   3.804 -32.009  1.00  0.00     0.169 HD
BRANCH  28  31
HETATM   31  C   UNL     1      -2.663   5.181 -32.863  1.00  0.00     0.213 C 
HETATM   32  O   UNL     1      -1.506   5.361 -33.705  1.00  0.00    -0.376 OA
HETATM   33  C   UNL     1      -1.018   6.697 -33.506  1.00  0.00     0.168 C 
HETATM   34  C   UNL     1      -2.170   7.493 -32.938  1.00  0.00     0.029 C 
HETATM   35  C   UNL     1      -2.862   6.467 -32.075  1.00  0.00     0.044 C 
ENDBRANCH  28  31
ENDBRANCH   7  27
BRANCH   3  36
HETATM   36  C   UNL     1      -6.134  -1.518 -33.423  1.00  0.00     0.056 C 
HETATM   37  C   UNL     1      -7.071  -2.396 -34.310  1.00  0.00     0.012 C 
HETATM   38  C   UNL     1      -5.826  -3.221 -34.684  1.00  0.00     0.002 C 
HETATM   39  C   UNL     1      -5.008  -1.946 -34.411  1.00  0.00     0.012 C 
ENDBRANCH   3  36
TORSDOF 7
ENDMDL
MODEL 6
REMARK VINA RESULT:      -9.0      2.619      8.582
REMARK  7 active torsions:
REMARK  status: ('A' for Active; 'I' for Inactive)
REMARK    1  A    between atoms: C_3  and  C_4 
REMARK    2  A    between atoms: C_11  and  N_12 
REMARK       I    between atoms: N_12  and  C_13 
REMARK    3  A    between atoms: C_13  and  C_14 
REMARK    4  A    between atoms: C_21  and  C_22 
REMARK       I    between atoms: C_22  and  N_23 
REMARK    5  A    between atoms: N_23  and  C_24 
REMARK    6  A    between atoms: C_24  and  C_25 
REMARK    7  A    between atoms: C_25  and  C_26 
ROOT
HETATM    1  C   UNL     1      -3.649   0.356 -32.850  1.00  0.00     0.158 C 
HETATM    2  N   UNL     1      -4.878  -0.271 -33.273  1.00  0.00    -0.335 N 
HETATM    3  C   UNL     1      -5.011  -1.589 -33.652  1.00  0.00     0.111 A 
HETATM    4  N   UNL     1      -6.269  -1.885 -33.887  1.00  0.00    -0.233 NA
HETATM    5  C   UNL     1      -6.966  -0.722 -33.708  1.00  0.00     0.089 A 
HETATM    6  C   UNL     1      -6.126   0.329 -33.327  1.00  0.00     0.091 A 
HETATM    7  C   UNL     1      -6.626   1.628 -33.074  1.00  0.00     0.065 A 
HETATM    8  C   UNL     1      -8.008   1.806 -33.254  1.00  0.00     0.049 A 
HETATM    9  C   UNL     1      -8.854   0.758 -33.643  1.00  0.00     0.036 A 
HETATM   10  C   UNL     1      -8.344  -0.521 -33.869  1.00  0.00     0.051 A 
ENDROOT
BRANCH   9  11
HETATM   11  C   UNL     1     -10.291   1.065 -33.856  1.00  0.00     0.251 C 
HETATM   12  N   UNL     1     -10.592   1.960 -34.867  1.00  0.00    -0.357 N 
HETATM   13  H   UNL     1      -9.872   2.160 -35.549  1.00  0.00     0.162 HD
HETATM   14  O   UNL     1     -11.140   0.507 -33.171  1.00  0.00    -0.268 OA
BRANCH  12  15
HETATM   15  C   UNL     1     -11.980   2.136 -35.263  1.00  0.00     0.127 C 
BRANCH  15  16
HETATM   16  C   UNL     1     -12.545   3.499 -34.865  1.00  0.00     0.060 C 
BRANCH  16  17
HETATM   17  C   UNL     1     -12.349   3.774 -33.406  1.00  0.00    -0.029 A 
HETATM   18  C   UNL     1     -11.244   4.462 -32.809  1.00  0.00    -0.002 A 
HETATM   19  C   UNL     1     -11.440   4.453 -31.427  1.00  0.00     0.042 A 
HETATM   20  C   UNL     1     -10.082   5.081 -33.317  1.00  0.00     0.014 A 
HETATM   21  C   UNL     1     -10.533   5.027 -30.529  1.00  0.00     0.030 A 
HETATM   22  N   UNL     1     -12.624   3.795 -31.194  1.00  0.00    -0.365 N 
HETATM   23  C   UNL     1      -9.390   5.633 -31.060  1.00  0.00     0.002 A 
HETATM   24  C   UNL     1      -9.166   5.663 -32.434  1.00  0.00     0.001 A 
HETATM   25  H   UNL     1     -13.015   3.632 -30.276  1.00  0.00     0.165 HD
HETATM   26  C   UNL     1     -13.181   3.383 -32.375  1.00  0.00     0.096 A 
ENDBRANCH  16  17
ENDBRANCH  15  16
ENDBRANCH  12  15
ENDBRANCH   9  11
BRANCH   7  27
HETATM   27  N   UNL     1      -5.781   2.679 -32.672  1.00  0.00    -0.323 N 
HETATM   28  C   UNL     1      -5.387   3.793 -33.403  1.00  0.00     0.251 C 
HETATM   29  O   UNL     1      -5.712   4.068 -34.552  1.00  0.00    -0.270 OA
HETATM   30  H   UNL     1      -5.380   2.653 -31.744  1.00  0.00     0.169 HD
BRANCH  28  31
HETATM   31  C   UNL     1      -4.571   4.768 -32.531  1.00  0.00     0.213 C 
HETATM   32  O   UNL     1      -3.830   4.066 -31.512  1.00  0.00    -0.376 OA
HETATM   33  C   UNL     1      -2.441   4.390 -31.673  1.00  0.00     0.168 C 
HETATM   34  C   UNL     1      -2.277   4.875 -33.096  1.00  0.00     0.029 C 
HETATM   35  C   UNL     1      -3.579   5.601 -33.329  1.00  0.00     0.044 C 
ENDBRANCH  28  31
ENDBRANCH   7  27
BRANCH   3  36
HETATM   36  C   UNL     1      -3.890  -2.619 -33.787  1.00  0.00     0.056 C 
HETATM   37  C   UNL     1      -3.537  -3.316 -32.436  1.00  0.00     0.012 C 
HETATM   38  C   UNL     1      -3.336  -4.614 -33.239  1.00  0.00     0.002 C 
HETATM   39  C   UNL     1      -4.339  -4.035 -34.254  1.00  0.00     0.012 C 
ENDBRANCH   3  36
TORSDOF 7
ENDMDL
MODEL 7
REMARK VINA RESULT:      -8.9      2.577      9.177
REMARK  7 active torsions:
REMARK  status: ('A' for Active; 'I' for Inactive)
REMARK    1  A    between atoms: C_3  and  C_4 
REMARK    2  A    between atoms: C_11  and  N_12 
REMARK       I    between atoms: N_12  and  C_13 
REMARK    3  A    between atoms: C_13  and  C_14 
REMARK    4  A    between atoms: C_21  and  C_22 
REMARK       I    between atoms: C_22  and  N_23 
REMARK    5  A    between atoms: N_23  and  C_24 
REMARK    6  A    between atoms: C_24  and  C_25 
REMARK    7  A    between atoms: C_25  and  C_26 
ROOT
HETATM    1  C   UNL     1      -4.170   0.543 -32.747  1.00  0.00     0.158 C 
HETATM    2  N   UNL     1      -5.532   0.694 -33.199  1.00  0.00    -0.335 N 
HETATM    3  C   UNL     1      -6.385  -0.339 -33.522  1.00  0.00     0.111 A 
HETATM    4  N   UNL     1      -7.585   0.113 -33.804  1.00  0.00    -0.233 NA
HETATM    5  C   UNL     1      -7.501   1.475 -33.713  1.00  0.00     0.089 A 
HETATM    6  C   UNL     1      -6.218   1.890 -33.341  1.00  0.00     0.091 A 
HETATM    7  C   UNL     1      -5.896   3.257 -33.172  1.00  0.00     0.065 A 
HETATM    8  C   UNL     1      -6.931   4.173 -33.428  1.00  0.00     0.049 A 
HETATM    9  C   UNL     1      -8.217   3.764 -33.807  1.00  0.00     0.036 A 
HETATM   10  C   UNL     1      -8.519   2.410 -33.949  1.00  0.00     0.051 A 
ENDROOT
BRANCH   9  11
HETATM   11  C   UNL     1      -9.223   4.816 -34.104  1.00  0.00     0.251 C 
HETATM   12  N   UNL     1     -10.419   4.744 -33.412  1.00  0.00    -0.357 N 
HETATM   13  H   UNL     1     -10.454   4.155 -32.591  1.00  0.00     0.162 HD
HETATM   14  O   UNL     1      -8.956   5.705 -34.903  1.00  0.00    -0.268 OA
BRANCH  12  15
HETATM   15  C   UNL     1     -11.352   5.856 -33.499  1.00  0.00     0.127 C 
BRANCH  15  16
HETATM   16  C   UNL     1     -12.609   5.517 -34.299  1.00  0.00     0.060 C 
BRANCH  16  17
HETATM   17  C   UNL     1     -12.598   4.096 -34.771  1.00  0.00    -0.029 A 
HETATM   18  C   UNL     1     -13.277   2.990 -34.164  1.00  0.00    -0.002 A 
HETATM   19  C   UNL     1     -12.958   1.847 -34.898  1.00  0.00     0.042 A 
HETATM   20  C   UNL     1     -14.124   2.854 -33.044  1.00  0.00     0.014 A 
HETATM   21  C   UNL     1     -13.440   0.575 -34.567  1.00  0.00     0.030 A 
HETATM   22  N   UNL     1     -12.127   2.244 -35.919  1.00  0.00    -0.365 N 
HETATM   23  C   UNL     1     -14.277   0.468 -33.453  1.00  0.00     0.002 A 
HETATM   24  C   UNL     1     -14.617   1.590 -32.701  1.00  0.00     0.001 A 
HETATM   25  H   UNL     1     -11.732   1.618 -36.608  1.00  0.00     0.165 HD
HETATM   26  C   UNL     1     -11.905   3.593 -35.855  1.00  0.00     0.096 A 
ENDBRANCH  16  17
ENDBRANCH  15  16
ENDBRANCH  12  15
ENDBRANCH   9  11
BRANCH   7  27
HETATM   27  N   UNL     1      -4.609   3.670 -32.780  1.00  0.00    -0.323 N 
HETATM   28  C   UNL     1      -4.208   4.186 -31.555  1.00  0.00     0.251 C 
HETATM   29  O   UNL     1      -4.916   4.379 -30.574  1.00  0.00    -0.270 OA
HETATM   30  H   UNL     1      -3.854   3.607 -33.450  1.00  0.00     0.169 HD
BRANCH  28  31
HETATM   31  C   UNL     1      -2.678   4.371 -31.505  1.00  0.00     0.213 C 
HETATM   32  O   UNL     1      -2.076   4.104 -32.788  1.00  0.00    -0.376 OA
HETATM   33  C   UNL     1      -1.349   5.277 -33.187  1.00  0.00     0.168 C 
HETATM   34  C   UNL     1      -1.928   6.428 -32.397  1.00  0.00     0.029 C 
HETATM   35  C   UNL     1      -2.256   5.769 -31.081  1.00  0.00     0.044 C 
ENDBRANCH  28  31
ENDBRANCH   7  27
BRANCH   3  36
HETATM   36  C   UNL     1      -6.043  -1.828 -33.556  1.00  0.00     0.056 C 
HETATM   37  C   UNL     1      -7.079  -2.672 -34.363  1.00  0.00     0.012 C 
HETATM   38  C   UNL     1      -5.893  -3.511 -34.873  1.00  0.00     0.002 C 
HETATM   39  C   UNL     1      -5.029  -2.255 -34.658  1.00  0.00     0.012 C 
ENDBRANCH   3  36
TORSDOF 7
ENDMDL
MODEL 8
REMARK VINA RESULT:      -8.8      3.596      6.663
REMARK  7 active torsions:
REMARK  status: ('A' for Active; 'I' for Inactive)
REMARK    1  A    between atoms: C_3  and  C_4 
REMARK    2  A    between atoms: C_11  and  N_12 
REMARK       I    between atoms: N_12  and  C_13 
REMARK    3  A    between atoms: C_13  and  C_14 
REMARK    4  A    between atoms: C_21  and  C_22 
REMARK       I    between atoms: C_22  and  N_23 
REMARK    5  A    between atoms: N_23  and  C_24 
REMARK    6  A    between atoms: C_24  and  C_25 
REMARK    7  A    between atoms: C_25  and  C_26 
ROOT
HETATM    1  C   UNL     1      -7.993   2.969 -32.187  1.00  0.00     0.158 C 
HETATM    2  N   UNL     1      -6.606   2.597 -32.323  1.00  0.00    -0.335 N 
HETATM    3  C   UNL     1      -6.146   1.414 -32.860  1.00  0.00     0.111 A 
HETATM    4  N   UNL     1      -4.835   1.411 -32.935  1.00  0.00    -0.233 NA
HETATM    5  C   UNL     1      -4.427   2.596 -32.390  1.00  0.00     0.089 A 
HETATM    6  C   UNL     1      -5.512   3.377 -31.979  1.00  0.00     0.091 A 
HETATM    7  C   UNL     1      -5.335   4.653 -31.395  1.00  0.00     0.065 A 
HETATM    8  C   UNL     1      -4.006   5.077 -31.225  1.00  0.00     0.049 A 
HETATM    9  C   UNL     1      -2.914   4.296 -31.627  1.00  0.00     0.036 A 
HETATM   10  C   UNL     1      -3.111   3.049 -32.220  1.00  0.00     0.051 A 
ENDROOT
BRANCH   9  11
HETATM   11  C   UNL     1      -1.549   4.815 -31.354  1.00  0.00     0.251 C 
HETATM   12  N   UNL     1      -1.323   5.338 -30.094  1.00  0.00    -0.357 N 
HETATM   13  H   UNL     1      -1.993   5.122 -29.367  1.00  0.00     0.162 HD
HETATM   14  O   UNL     1      -0.684   4.735 -32.219  1.00  0.00    -0.268 OA
BRANCH  12  15
HETATM   15  C   UNL     1       0.038   5.662 -29.698  1.00  0.00     0.127 C 
BRANCH  15  16
HETATM   16  C   UNL     1       0.405   7.121 -29.967  1.00  0.00     0.060 C 
BRANCH  16  17
HETATM   17  C   UNL     1      -0.145   8.032 -28.914  1.00  0.00    -0.029 A 
HETATM   18  C   UNL     1       0.471   8.358 -27.662  1.00  0.00    -0.002 A 
HETATM   19  C   UNL     1      -0.403   9.199 -26.971  1.00  0.00     0.042 A 
HETATM   20  C   UNL     1       1.687   8.000 -27.045  1.00  0.00     0.014 A 
HETATM   21  C   UNL     1      -0.121   9.698 -25.693  1.00  0.00     0.030 A 
HETATM   22  N   UNL     1      -1.501   9.388 -27.776  1.00  0.00    -0.365 N 
HETATM   23  C   UNL     1       1.091   9.328 -25.104  1.00  0.00     0.002 A 
HETATM   24  C   UNL     1       1.985   8.492 -25.768  1.00  0.00     0.001 A 
HETATM   25  H   UNL     1      -2.301   9.952 -27.525  1.00  0.00     0.165 HD
HETATM   26  C   UNL     1      -1.358   8.693 -28.947  1.00  0.00     0.096 A 
ENDBRANCH  16  17
ENDBRANCH  15  16
ENDBRANCH  12  15
ENDBRANCH   9  11
BRANCH   7  27
HETATM   27  N   UNL     1      -6.431   5.443 -31.000  1.00  0.00    -0.323 N 
HETATM   28  C   UNL     1      -7.025   5.524 -29.748  1.00  0.00     0.251 C 
HETATM   29  O   UNL     1      -6.697   4.912 -28.739  1.00  0.00    -0.270 OA
HETATM   30  H   UNL     1      -6.876   6.034 -31.689  1.00  0.00     0.169 HD
BRANCH  28  31
HETATM   31  C   UNL     1      -8.107   6.623 -29.718  1.00  0.00     0.213 C 
HETATM   32  O   UNL     1      -9.058   6.394 -28.658  1.00  0.00    -0.376 OA
HETATM   33  C   UNL     1      -9.065   7.555 -27.812  1.00  0.00     0.168 C 
HETATM   34  C   UNL     1      -7.758   8.272 -28.059  1.00  0.00     0.029 C 
HETATM   35  C   UNL     1      -7.538   8.021 -29.530  1.00  0.00     0.044 C 
ENDBRANCH  28  31
ENDBRANCH   7  27
BRANCH   3  36
HETATM   36  C   UNL     1      -6.995   0.234 -33.331  1.00  0.00     0.056 C 
HETATM   37  C   UNL     1      -7.058   0.112 -34.886  1.00  0.00     0.012 C 
HETATM   38  C   UNL     1      -7.007  -1.415 -34.698  1.00  0.00     0.002 C 
HETATM   39  C   UNL     1      -6.259  -1.138 -33.381  1.00  0.00     0.012 C 
ENDBRANCH   3  36
TORSDOF 7
ENDMDL
MODEL 9
REMARK VINA RESULT:      -8.7      3.134      9.754
REMARK  7 active torsions:
REMARK  status: ('A' for Active; 'I' for Inactive)
REMARK    1  A    between atoms: C_3  and  C_4 
REMARK    2  A    between atoms: C_11  and  N_12 
REMARK       I    between atoms: N_12  and  C_13 
REMARK    3  A    between atoms: C_13  and  C_14 
REMARK    4  A    between atoms: C_21  and  C_22 
REMARK       I    between atoms: C_22  and  N_23 
REMARK    5  A    between atoms: N_23  and  C_24 
REMARK    6  A    between atoms: C_24  and  C_25 
REMARK    7  A    between atoms: C_25  and  C_26 
ROOT
HETATM    1  C   UNL     1      -3.129   7.058 -30.516  1.00  0.00     0.158 C 
HETATM    2  N   UNL     1      -3.142   5.698 -30.999  1.00  0.00    -0.335 N 
HETATM    3  C   UNL     1      -2.037   4.990 -31.418  1.00  0.00     0.111 A 
HETATM    4  N   UNL     1      -2.356   3.749 -31.707  1.00  0.00    -0.233 NA
HETATM    5  C   UNL     1      -3.708   3.658 -31.521  1.00  0.00     0.089 A 
HETATM    6  C   UNL     1      -4.251   4.870 -31.082  1.00  0.00     0.091 A 
HETATM    7  C   UNL     1      -5.632   5.014 -30.811  1.00  0.00     0.065 A 
HETATM    8  C   UNL     1      -6.428   3.878 -31.036  1.00  0.00     0.049 A 
HETATM    9  C   UNL     1      -5.891   2.663 -31.483  1.00  0.00     0.036 A 
HETATM   10  C   UNL     1      -4.523   2.537 -31.726  1.00  0.00     0.051 A 
ENDROOT
BRANCH   9  11
HETATM   11  C   UNL     1      -6.829   1.539 -31.739  1.00  0.00     0.251 C 
HETATM   12  N   UNL     1      -7.357   1.450 -33.014  1.00  0.00    -0.357 N 
HETATM   13  H   UNL     1      -6.907   1.979 -33.749  1.00  0.00     0.162 HD
HETATM   14  O   UNL     1      -7.069   0.734 -30.848  1.00  0.00    -0.268 OA
BRANCH  12  15
HETATM   15  C   UNL     1      -8.106   0.260 -33.384  1.00  0.00     0.127 C 
BRANCH  15  16
HETATM   16  C   UNL     1      -7.555  -0.426 -34.634  1.00  0.00     0.060 C 
BRANCH  16  17
HETATM   17  C   UNL     1      -6.262  -1.128 -34.354  1.00  0.00    -0.029 A 
HETATM   18  C   UNL     1      -5.999  -2.527 -34.519  1.00  0.00    -0.002 A 
HETATM   19  C   UNL     1      -4.688  -2.759 -34.100  1.00  0.00     0.042 A 
HETATM   20  C   UNL     1      -6.763  -3.623 -34.973  1.00  0.00     0.014 A 
HETATM   21  C   UNL     1      -4.105  -4.032 -34.108  1.00  0.00     0.030 A 
HETATM   22  N   UNL     1      -4.171  -1.548 -33.707  1.00  0.00    -0.365 N 
HETATM   23  C   UNL     1      -4.884  -5.100 -34.562  1.00  0.00     0.002 A 
HETATM   24  C   UNL     1      -6.194  -4.901 -34.990  1.00  0.00     0.001 A 
HETATM   25  H   UNL     1      -3.235  -1.418 -33.348  1.00  0.00     0.165 HD
HETATM   26  C   UNL     1      -5.106  -0.559 -33.857  1.00  0.00     0.096 A 
ENDBRANCH  16  17
ENDBRANCH  15  16
ENDBRANCH  12  15
ENDBRANCH   9  11
BRANCH   7  27
HETATM   27  N   UNL     1      -6.172   6.229 -30.351  1.00  0.00    -0.323 N 
HETATM   28  C   UNL     1      -6.661   7.291 -31.101  1.00  0.00     0.251 C 
HETATM   29  O   UNL     1      -6.714   7.362 -32.322  1.00  0.00    -0.270 OA
HETATM   30  H   UNL     1      -6.218   6.394 -29.354  1.00  0.00     0.169 HD
BRANCH  28  31
HETATM   31  C   UNL     1      -7.292   8.366 -30.193  1.00  0.00     0.213 C 
HETATM   32  O   UNL     1      -8.732   8.317 -30.246  1.00  0.00    -0.376 OA
HETATM   33  C   UNL     1      -9.217   8.122 -28.908  1.00  0.00     0.168 C 
HETATM   34  C   UNL     1      -8.067   7.540 -28.118  1.00  0.00     0.029 C 
HETATM   35  C   UNL     1      -6.881   8.238 -28.735  1.00  0.00     0.044 C 
ENDBRANCH  28  31
ENDBRANCH   7  27
BRANCH   3  36
HETATM   36  C   UNL     1      -0.607   5.516 -31.541  1.00  0.00     0.056 C 
HETATM   37  C   UNL     1      -0.537   7.074 -31.620  1.00  0.00     0.012 C 
HETATM   38  C   UNL     1       0.737   6.989 -30.759  1.00  0.00     0.002 C 
HETATM   39  C   UNL     1       0.161   5.677 -30.196  1.00  0.00     0.012 C 
ENDBRANCH   3  36
TORSDOF 7
ENDMDL
MODEL 10
REMARK VINA RESULT:      -8.7      3.131      5.862
REMARK  7 active torsions:
REMARK  status: ('A' for Active; 'I' for Inactive)
REMARK    1  A    between atoms: C_3  and  C_4 
REMARK    2  A    between atoms: C_11  and  N_12 
REMARK       I    between atoms: N_12  and  C_13 
REMARK    3  A    between atoms: C_13  and  C_14 
REMARK    4  A    between atoms: C_21  and  C_22 
REMARK       I    between atoms: C_22  and  N_23 
REMARK    5  A    between atoms: N_23  and  C_24 
REMARK    6  A    between atoms: C_24  and  C_25 
REMARK    7  A    between atoms: C_25  and  C_26 
ROOT
HETATM    1  C   UNL     1      -8.356   0.480 -33.664  1.00  0.00     0.158 C 
HETATM    2  N   UNL     1      -7.294   1.028 -32.855  1.00  0.00    -0.335 N 
HETATM    3  C   UNL     1      -5.959   0.702 -32.963  1.00  0.00     0.111 A 
HETATM    4  N   UNL     1      -5.229   1.440 -32.159  1.00  0.00    -0.233 NA
HETATM    5  C   UNL     1      -6.111   2.229 -31.473  1.00  0.00     0.089 A 
HETATM    6  C   UNL     1      -7.431   1.998 -31.874  1.00  0.00     0.091 A 
HETATM    7  C   UNL     1      -8.517   2.708 -31.310  1.00  0.00     0.065 A 
HETATM    8  C   UNL     1      -8.195   3.637 -30.306  1.00  0.00     0.049 A 
HETATM    9  C   UNL     1      -6.875   3.868 -29.895  1.00  0.00     0.036 A 
HETATM   10  C   UNL     1      -5.816   3.171 -30.478  1.00  0.00     0.051 A 
ENDROOT
BRANCH   9  11
HETATM   11  C   UNL     1      -6.649   4.834 -28.789  1.00  0.00     0.251 C 
HETATM   12  N   UNL     1      -5.354   4.946 -28.317  1.00  0.00    -0.357 N 
HETATM   13  H   UNL     1      -4.609   4.570 -28.889  1.00  0.00     0.162 HD
HETATM   14  O   UNL     1      -7.584   5.504 -28.367  1.00  0.00    -0.268 OA
BRANCH  12  15
HETATM   15  C   UNL     1      -5.031   6.019 -27.391  1.00  0.00     0.127 C 
BRANCH  15  16
HETATM   16  C   UNL     1      -4.600   7.305 -28.095  1.00  0.00     0.060 C 
BRANCH  16  17
HETATM   17  C   UNL     1      -3.366   7.097 -28.918  1.00  0.00    -0.029 A 
HETATM   18  C   UNL     1      -2.014   7.317 -28.497  1.00  0.00    -0.002 A 
HETATM   19  C   UNL     1      -1.186   7.045 -29.588  1.00  0.00     0.042 A 
HETATM   20  C   UNL     1      -1.418   7.738 -27.290  1.00  0.00     0.014 A 
HETATM   21  C   UNL     1       0.207   7.177 -29.532  1.00  0.00     0.030 A 
HETATM   22  N   UNL     1      -2.001   6.664 -30.627  1.00  0.00    -0.365 N 
HETATM   23  C   UNL     1       0.771   7.597 -28.324  1.00  0.00     0.002 A 
HETATM   24  C   UNL     1      -0.027   7.873 -27.217  1.00  0.00     0.001 A 
HETATM   25  H   UNL     1      -1.670   6.413 -31.548  1.00  0.00     0.165 HD
HETATM   26  C   UNL     1      -3.313   6.689 -30.236  1.00  0.00     0.096 A 
ENDBRANCH  16  17
ENDBRANCH  15  16
ENDBRANCH  12  15
ENDBRANCH   9  11
BRANCH   7  27
HETATM   27  N   UNL     1      -9.841   2.485 -31.730  1.00  0.00    -0.323 N 
HETATM   28  C   UNL     1     -10.513   3.061 -32.800  1.00  0.00     0.251 C 
HETATM   29  O   UNL     1     -10.064   3.883 -33.590  1.00  0.00    -0.270 OA
HETATM   30  H   UNL     1     -10.414   1.837 -31.206  1.00  0.00     0.169 HD
BRANCH  28  31
HETATM   31  C   UNL     1     -11.905   2.426 -32.988  1.00  0.00     0.213 C 
HETATM   32  O   UNL     1     -12.790   3.308 -33.709  1.00  0.00    -0.376 OA
HETATM   33  C   UNL     1     -13.255   2.611 -34.876  1.00  0.00     0.168 C 
HETATM   34  C   UNL     1     -12.259   1.504 -35.137  1.00  0.00     0.029 C 
HETATM   35  C   UNL     1     -11.865   1.103 -33.737  1.00  0.00     0.044 C 
ENDBRANCH  28  31
ENDBRANCH   7  27
BRANCH   3  36
HETATM   36  C   UNL     1      -5.349  -0.355 -33.883  1.00  0.00     0.056 C 
HETATM   37  C   UNL     1      -3.967  -0.876 -33.377  1.00  0.00     0.012 C 
HETATM   38  C   UNL     1      -4.392  -2.271 -33.873  1.00  0.00     0.002 C 
HETATM   39  C   UNL     1      -5.843  -1.812 -33.643  1.00  0.00     0.012 C 
ENDBRANCH   3  36
TORSDOF 7
ENDMDL
