MODEL 1
REMARK VINA RESULT:      -8.4      0.000      0.000
REMARK  3 active torsions:
REMARK  status: ('A' for Active; 'I' for Inactive)
REMARK    1  A    between atoms: C_3  and  N_4 
REMARK       I    between atoms: N_4  and  C_5 
REMARK    2  A    between atoms: C_5  and  C_6 
REMARK    3  A    between atoms: C_6  and  C_7 
ROOT
HETATM    1  C   UNL     1      -4.619   2.025 -31.746  1.00  0.00     0.286 C 
HETATM    2  N   UNL     1      -3.805   3.019 -30.919  1.00  0.00    -0.056 N 
HETATM    3  H   UNL     1      -4.360   3.240 -30.082  1.00  0.00     0.278 HD
HETATM    4  H   UNL     1      -2.975   2.521 -30.529  1.00  0.00     0.278 HD
HETATM    5  C   UNL     1      -3.400   4.309 -31.563  1.00  0.00     0.209 C 
HETATM    6  C   UNL     1      -4.623   4.935 -32.266  1.00  0.00     0.115 C 
HETATM    7  N   UNL     1      -5.295   3.984 -33.145  1.00  0.00    -0.353 N 
HETATM    8  C   UNL     1      -5.499   2.665 -32.832  1.00  0.00     0.249 C 
HETATM    9  O   UNL     1      -6.323   2.008 -33.461  1.00  0.00    -0.271 OA
HETATM   10  C   UNL     1      -2.211   4.096 -32.500  1.00  0.00     0.035 C 
HETATM   11  C   UNL     1      -1.835   5.401 -33.197  1.00  0.00     0.002 C 
HETATM   12  C   UNL     1      -3.025   5.995 -33.945  1.00  0.00     0.002 C 
HETATM   13  C   UNL     1      -4.227   6.207 -33.024  1.00  0.00     0.027 C 
HETATM   14  H   UNL     1      -5.966   4.338 -33.827  1.00  0.00     0.163 HD
ENDROOT
BRANCH   1  15
HETATM   15  C   UNL     1      -3.769   0.917 -32.389  1.00  0.00     0.146 C 
BRANCH  15  16
HETATM   16  C   UNL     1      -4.507  -0.399 -32.469  1.00  0.00     0.224 C 
HETATM   17  N   UNL     1      -4.391  -1.028 -33.686  1.00  0.00    -0.327 N 
HETATM   18  H   UNL     1      -3.954  -0.512 -34.440  1.00  0.00     0.169 HD
HETATM   19  O   UNL     1      -5.094  -0.806 -31.466  1.00  0.00    -0.273 OA
BRANCH  17  20
HETATM   20  C   UNL     1      -4.878  -2.311 -34.044  1.00  0.00     0.040 A 
HETATM   21  C   UNL     1      -6.179  -2.421 -34.583  1.00  0.00    -0.035 A 
HETATM   22  C   UNL     1      -7.092  -1.235 -34.755  1.00  0.00     0.050 C 
HETATM   23  C   UNL     1      -6.663  -3.686 -34.964  1.00  0.00     0.009 A 
HETATM   24  C   UNL     1      -5.878  -4.826 -34.820  1.00  0.00     0.001 A 
HETATM   25  C   UNL     1      -4.598  -4.718 -34.291  1.00  0.00     0.002 A 
HETATM   26  C   UNL     1      -4.102  -3.469 -33.906  1.00  0.00     0.030 A 
ENDBRANCH  17  20
ENDBRANCH  15  16
ENDBRANCH   1  15
TORSDOF 3
ENDMDL
MODEL 2
REMARK VINA RESULT:      -8.4      4.879      6.920
REMARK  3 active torsions:
REMARK  status: ('A' for Active; 'I' for Inactive)
REMARK    1  A    between atoms: C_3  and  N_4 
REMARK       I    between atoms: N_4  and  C_5 
REMARK    2  A    between atoms: C_5  and  C_6 
REMARK    3  A    between atoms: C_6  and  C_7 
ROOT
HETATM    1  C   UNL     1     -10.025   1.872 -33.676  1.00  0.00     0.286 C 
HETATM    2  N   UNL     1     -11.029   1.886 -34.828  1.00  0.00    -0.056 N 
HETATM    3  H   UNL     1     -10.760   2.657 -35.452  1.00  0.00     0.278 HD
HETATM    4  H   UNL     1     -10.869   1.038 -35.414  1.00  0.00     0.278 HD
HETATM    5  C   UNL     1     -12.482   2.040 -34.497  1.00  0.00     0.209 C 
HETATM    6  C   UNL     1     -12.658   3.206 -33.500  1.00  0.00     0.115 C 
HETATM    7  N   UNL     1     -11.767   3.083 -32.351  1.00  0.00    -0.353 N 
HETATM    8  C   UNL     1     -10.463   2.668 -32.435  1.00  0.00     0.249 C 
HETATM    9  O   UNL     1      -9.694   2.878 -31.502  1.00  0.00    -0.271 OA
HETATM   10  C   UNL     1     -13.063   0.721 -33.989  1.00  0.00     0.035 C 
HETATM   11  C   UNL     1     -14.530   0.894 -33.601  1.00  0.00     0.002 C 
HETATM   12  C   UNL     1     -14.705   2.006 -32.570  1.00  0.00     0.002 C 
HETATM   13  C   UNL     1     -14.120   3.331 -33.058  1.00  0.00     0.027 C 
HETATM   14  H   UNL     1     -11.948   3.657 -31.529  1.00  0.00     0.163 HD
ENDROOT
BRANCH   1  15
HETATM   15  C   UNL     1      -9.613   0.458 -33.234  1.00  0.00     0.146 C 
BRANCH  15  16
HETATM   16  C   UNL     1      -8.401  -0.046 -33.983  1.00  0.00     0.224 C 
HETATM   17  N   UNL     1      -7.733  -1.061 -33.337  1.00  0.00    -0.327 N 
HETATM   18  H   UNL     1      -8.017  -1.281 -32.390  1.00  0.00     0.169 HD
HETATM   19  O   UNL     1      -8.144   0.442 -35.083  1.00  0.00    -0.273 OA
BRANCH  17  20
HETATM   20  C   UNL     1      -6.628  -1.808 -33.819  1.00  0.00     0.040 A 
HETATM   21  C   UNL     1      -5.324  -1.415 -33.443  1.00  0.00    -0.035 A 
HETATM   22  C   UNL     1      -5.053  -0.207 -32.586  1.00  0.00     0.050 C 
HETATM   23  C   UNL     1      -4.222  -2.164 -33.895  1.00  0.00     0.009 A 
HETATM   24  C   UNL     1      -4.400  -3.285 -34.702  1.00  0.00     0.001 A 
HETATM   25  C   UNL     1      -5.682  -3.671 -35.069  1.00  0.00     0.002 A 
HETATM   26  C   UNL     1      -6.788  -2.939 -34.631  1.00  0.00     0.030 A 
ENDBRANCH  17  20
ENDBRANCH  15  16
ENDBRANCH   1  15
TORSDOF 3
ENDMDL
MODEL 3
REMARK VINA RESULT:      -8.3      1.798      2.416
REMARK  3 active torsions:
REMARK  status: ('A' for Active; 'I' for Inactive)
REMARK    1  A    between atoms: C_3  and  N_4 
REMARK       I    between atoms: N_4  and  C_5 
REMARK    2  A    between atoms: C_5  and  C_6 
REMARK    3  A    between atoms: C_6  and  C_7 
ROOT
HETATM    1  C   UNL     1      -4.437   3.870 -31.115  1.00  0.00     0.286 C 
HETATM    2  N   UNL     1      -2.970   3.488 -31.304  1.00  0.00    -0.056 N 
HETATM    3  H   UNL     1      -2.587   3.295 -30.371  1.00  0.00     0.278 HD
HETATM    4  H   UNL     1      -2.932   2.557 -31.775  1.00  0.00     0.278 HD
HETATM    5  C   UNL     1      -2.067   4.469 -31.986  1.00  0.00     0.209 C 
HETATM    6  C   UNL     1      -2.273   5.868 -31.367  1.00  0.00     0.115 C 
HETATM    7  N   UNL     1      -3.682   6.245 -31.323  1.00  0.00    -0.353 N 
HETATM    8  C   UNL     1      -4.695   5.382 -30.995  1.00  0.00     0.249 C 
HETATM    9  O   UNL     1      -5.796   5.823 -30.680  1.00  0.00    -0.271 OA
HETATM   10  C   UNL     1      -2.283   4.443 -33.499  1.00  0.00     0.035 C 
HETATM   11  C   UNL     1      -1.401   5.482 -34.186  1.00  0.00     0.002 C 
HETATM   12  C   UNL     1      -1.642   6.879 -33.620  1.00  0.00     0.002 C 
HETATM   13  C   UNL     1      -1.440   6.922 -32.105  1.00  0.00     0.027 C 
HETATM   14  H   UNL     1      -3.922   7.221 -31.151  1.00  0.00     0.163 HD
ENDROOT
BRANCH   1  15
HETATM   15  C   UNL     1      -5.369   3.295 -32.194  1.00  0.00     0.146 C 
BRANCH  15  16
HETATM   16  C   UNL     1      -5.377   1.784 -32.200  1.00  0.00     0.224 C 
HETATM   17  N   UNL     1      -5.615   1.236 -33.439  1.00  0.00    -0.327 N 
HETATM   18  H   UNL     1      -5.891   1.864 -34.184  1.00  0.00     0.169 HD
HETATM   19  O   UNL     1      -5.139   1.191 -31.148  1.00  0.00    -0.273 OA
BRANCH  17  20
HETATM   20  C   UNL     1      -5.588  -0.137 -33.794  1.00  0.00     0.040 A 
HETATM   21  C   UNL     1      -6.703  -0.690 -34.462  1.00  0.00    -0.035 A 
HETATM   22  C   UNL     1      -7.941   0.106 -34.779  1.00  0.00     0.050 C 
HETATM   23  C   UNL     1      -6.676  -2.045 -34.841  1.00  0.00     0.009 A 
HETATM   24  C   UNL     1      -5.569  -2.844 -34.568  1.00  0.00     0.001 A 
HETATM   25  C   UNL     1      -4.473  -2.299 -33.912  1.00  0.00     0.002 A 
HETATM   26  C   UNL     1      -4.483  -0.955 -33.527  1.00  0.00     0.030 A 
ENDBRANCH  17  20
ENDBRANCH  15  16
ENDBRANCH   1  15
TORSDOF 3
ENDMDL
MODEL 4
REMARK VINA RESULT:      -7.9      3.703      6.474
REMARK  3 active torsions:
REMARK  status: ('A' for Active; 'I' for Inactive)
REMARK    1  A    between atoms: C_3  and  N_4 
REMARK       I    between atoms: N_4  and  C_5 
REMARK    2  A    between atoms: C_5  and  C_6 
REMARK    3  A    between atoms: C_6  and  C_7 
ROOT
HETATM    1  C   UNL     1      -6.282   2.238 -32.077  1.00  0.00     0.286 C 
HETATM    2  N   UNL     1      -6.959   0.937 -31.648  1.00  0.00    -0.056 N 
HETATM    3  H   UNL     1      -6.950   0.917 -30.621  1.00  0.00     0.278 HD
HETATM    4  H   UNL     1      -7.975   1.004 -31.877  1.00  0.00     0.278 HD
HETATM    5  C   UNL     1      -6.384  -0.354 -32.144  1.00  0.00     0.209 C 
HETATM    6  C   UNL     1      -4.855  -0.347 -31.934  1.00  0.00     0.115 C 
HETATM    7  N   UNL     1      -4.234   0.859 -32.473  1.00  0.00    -0.353 N 
HETATM    8  C   UNL     1      -4.777   2.113 -32.363  1.00  0.00     0.249 C 
HETATM    9  O   UNL     1      -4.075   3.101 -32.558  1.00  0.00    -0.271 OA
HETATM   10  C   UNL     1      -6.791  -0.606 -33.596  1.00  0.00     0.035 C 
HETATM   11  C   UNL     1      -6.159  -1.895 -34.116  1.00  0.00     0.002 C 
HETATM   12  C   UNL     1      -4.641  -1.870 -33.966  1.00  0.00     0.002 C 
HETATM   13  C   UNL     1      -4.215  -1.610 -32.521  1.00  0.00     0.027 C 
HETATM   14  H   UNL     1      -3.223   0.874 -32.598  1.00  0.00     0.163 HD
ENDROOT
BRANCH   1  15
HETATM   15  C   UNL     1      -6.958   2.918 -33.279  1.00  0.00     0.146 C 
BRANCH  15  16
HETATM   16  C   UNL     1      -8.463   2.946 -33.151  1.00  0.00     0.224 C 
HETATM   17  N   UNL     1      -9.120   2.347 -34.201  1.00  0.00    -0.327 N 
HETATM   18  H   UNL     1      -8.567   2.072 -35.004  1.00  0.00     0.169 HD
HETATM   19  O   UNL     1      -8.958   3.445 -32.141  1.00  0.00    -0.273 OA
BRANCH  17  20
HETATM   20  C   UNL     1     -10.514   2.123 -34.330  1.00  0.00     0.040 A 
HETATM   21  C   UNL     1     -11.085   0.996 -33.697  1.00  0.00    -0.035 A 
HETATM   22  C   UNL     1     -10.267  -0.005 -32.924  1.00  0.00     0.050 C 
HETATM   23  C   UNL     1     -12.471   0.777 -33.798  1.00  0.00     0.009 A 
HETATM   24  C   UNL     1     -13.285   1.655 -34.509  1.00  0.00     0.001 A 
HETATM   25  C   UNL     1     -12.724   2.763 -35.129  1.00  0.00     0.002 A 
HETATM   26  C   UNL     1     -11.348   2.996 -35.041  1.00  0.00     0.030 A 
ENDBRANCH  17  20
ENDBRANCH  15  16
ENDBRANCH   1  15
TORSDOF 3
ENDMDL
MODEL 5
REMARK VINA RESULT:      -7.8      2.320      7.646
REMARK  3 active torsions:
REMARK  status: ('A' for Active; 'I' for Inactive)
REMARK    1  A    between atoms: C_3  and  N_4 
REMARK       I    between atoms: N_4  and  C_5 
REMARK    2  A    between atoms: C_5  and  C_6 
REMARK    3  A    between atoms: C_6  and  C_7 
ROOT
HETATM    1  C   UNL     1      -4.642   1.208 -31.486  1.00  0.00     0.286 C 
HETATM    2  N   UNL     1      -6.049   1.694 -31.829  1.00  0.00    -0.056 N 
HETATM    3  H   UNL     1      -6.590   1.694 -30.955  1.00  0.00     0.278 HD
HETATM    4  H   UNL     1      -5.996   2.706 -32.077  1.00  0.00     0.278 HD
HETATM    5  C   UNL     1      -6.827   0.933 -32.859  1.00  0.00     0.209 C 
HETATM    6  C   UNL     1      -6.745  -0.577 -32.546  1.00  0.00     0.115 C 
HETATM    7  N   UNL     1      -5.370  -1.022 -32.351  1.00  0.00    -0.353 N 
HETATM    8  C   UNL     1      -4.423  -0.303 -31.669  1.00  0.00     0.249 C 
HETATM    9  O   UNL     1      -3.398  -0.856 -31.280  1.00  0.00    -0.271 OA
HETATM   10  C   UNL     1      -6.348   1.283 -34.267  1.00  0.00     0.035 C 
HETATM   11  C   UNL     1      -7.104   0.465 -35.311  1.00  0.00     0.002 C 
HETATM   12  C   UNL     1      -6.978  -1.032 -35.044  1.00  0.00     0.002 C 
HETATM   13  C   UNL     1      -7.445  -1.399 -33.634  1.00  0.00     0.027 C 
HETATM   14  H   UNL     1      -5.173  -2.022 -32.366  1.00  0.00     0.163 HD
ENDROOT
BRANCH   1  15
HETATM   15  C   UNL     1      -3.529   1.962 -32.232  1.00  0.00     0.146 C 
BRANCH  15  16
HETATM   16  C   UNL     1      -3.526   3.440 -31.918  1.00  0.00     0.224 C 
HETATM   17  N   UNL     1      -2.334   4.064 -32.201  1.00  0.00    -0.327 N 
HETATM   18  H   UNL     1      -1.547   3.479 -32.456  1.00  0.00     0.169 HD
HETATM   19  O   UNL     1      -4.560   3.953 -31.490  1.00  0.00    -0.273 OA
BRANCH  17  20
HETATM   20  C   UNL     1      -2.044   5.450 -32.113  1.00  0.00     0.040 A 
HETATM   21  C   UNL     1      -1.820   6.176 -33.304  1.00  0.00    -0.035 A 
HETATM   22  C   UNL     1      -1.834   5.532 -34.665  1.00  0.00     0.050 C 
HETATM   23  C   UNL     1      -1.556   7.556 -33.231  1.00  0.00     0.009 A 
HETATM   24  C   UNL     1      -1.516   8.213 -32.004  1.00  0.00     0.001 A 
HETATM   25  C   UNL     1      -1.737   7.499 -30.834  1.00  0.00     0.002 A 
HETATM   26  C   UNL     1      -1.999   6.128 -30.888  1.00  0.00     0.030 A 
ENDBRANCH  17  20
ENDBRANCH  15  16
ENDBRANCH   1  15
TORSDOF 3
ENDMDL
MODEL 6
REMARK VINA RESULT:      -7.7      2.323      3.887
REMARK  3 active torsions:
REMARK  status: ('A' for Active; 'I' for Inactive)
REMARK    1  A    between atoms: C_3  and  N_4 
REMARK       I    between atoms: N_4  and  C_5 
REMARK    2  A    between atoms: C_5  and  C_6 
REMARK    3  A    between atoms: C_6  and  C_7 
ROOT
HETATM    1  C   UNL     1      -3.821   4.394 -32.864  1.00  0.00     0.286 C 
HETATM    2  N   UNL     1      -3.515   5.681 -33.629  1.00  0.00    -0.056 N 
HETATM    3  H   UNL     1      -3.117   5.406 -34.535  1.00  0.00     0.278 HD
HETATM    4  H   UNL     1      -4.420   6.130 -33.891  1.00  0.00     0.278 HD
HETATM    5  C   UNL     1      -2.590   6.675 -32.997  1.00  0.00     0.209 C 
HETATM    6  C   UNL     1      -1.334   5.944 -32.476  1.00  0.00     0.115 C 
HETATM    7  N   UNL     1      -1.674   4.795 -31.645  1.00  0.00    -0.353 N 
HETATM    8  C   UNL     1      -2.698   3.927 -31.923  1.00  0.00     0.249 C 
HETATM    9  O   UNL     1      -2.737   2.831 -31.371  1.00  0.00    -0.271 OA
HETATM   10  C   UNL     1      -3.313   7.475 -31.913  1.00  0.00     0.035 C 
HETATM   11  C   UNL     1      -2.354   8.449 -31.233  1.00  0.00     0.002 C 
HETATM   12  C   UNL     1      -1.137   7.725 -30.663  1.00  0.00     0.002 C 
HETATM   13  C   UNL     1      -0.407   6.912 -31.732  1.00  0.00     0.027 C 
HETATM   14  H   UNL     1      -0.946   4.377 -31.067  1.00  0.00     0.163 HD
ENDROOT
BRANCH   1  15
HETATM   15  C   UNL     1      -5.138   4.444 -32.074  1.00  0.00     0.146 C 
BRANCH  15  16
HETATM   16  C   UNL     1      -6.082   3.328 -32.460  1.00  0.00     0.224 C 
HETATM   17  N   UNL     1      -5.499   2.351 -33.233  1.00  0.00    -0.327 N 
HETATM   18  H   UNL     1      -4.562   2.524 -33.579  1.00  0.00     0.169 HD
HETATM   19  O   UNL     1      -7.237   3.362 -32.035  1.00  0.00    -0.273 OA
BRANCH  17  20
HETATM   20  C   UNL     1      -6.083   1.135 -33.670  1.00  0.00     0.040 A 
HETATM   21  C   UNL     1      -5.863  -0.038 -32.913  1.00  0.00    -0.035 A 
HETATM   22  C   UNL     1      -4.997  -0.061 -31.681  1.00  0.00     0.050 C 
HETATM   23  C   UNL     1      -6.457  -1.244 -33.324  1.00  0.00     0.009 A 
HETATM   24  C   UNL     1      -7.259  -1.297 -34.461  1.00  0.00     0.001 A 
HETATM   25  C   UNL     1      -7.476  -0.144 -35.204  1.00  0.00     0.002 A 
HETATM   26  C   UNL     1      -6.892   1.063 -34.811  1.00  0.00     0.030 A 
ENDBRANCH  17  20
ENDBRANCH  15  16
ENDBRANCH   1  15
TORSDOF 3
ENDMDL
MODEL 7
REMARK VINA RESULT:      -7.7      5.034      7.336
REMARK  3 active torsions:
REMARK  status: ('A' for Active; 'I' for Inactive)
REMARK    1  A    between atoms: C_3  and  N_4 
REMARK       I    between atoms: N_4  and  C_5 
REMARK    2  A    between atoms: C_5  and  C_6 
REMARK    3  A    between atoms: C_6  and  C_7 
ROOT
HETATM    1  C   UNL     1     -10.742   3.524 -32.566  1.00  0.00     0.286 C 
HETATM    2  N   UNL     1     -10.848   2.901 -33.957  1.00  0.00    -0.056 N 
HETATM    3  H   UNL     1     -10.901   3.675 -34.630  1.00  0.00     0.278 HD
HETATM    4  H   UNL     1      -9.935   2.449 -34.184  1.00  0.00     0.278 HD
HETATM    5  C   UNL     1     -11.988   1.968 -34.227  1.00  0.00     0.209 C 
HETATM    6  C   UNL     1     -13.301   2.609 -33.728  1.00  0.00     0.115 C 
HETATM    7  N   UNL     1     -13.192   3.075 -32.350  1.00  0.00    -0.353 N 
HETATM    8  C   UNL     1     -12.086   3.704 -31.840  1.00  0.00     0.249 C 
HETATM    9  O   UNL     1     -12.170   4.335 -30.791  1.00  0.00    -0.271 OA
HETATM   10  C   UNL     1     -11.719   0.593 -33.617  1.00  0.00     0.035 C 
HETATM   11  C   UNL     1     -12.906  -0.339 -33.847  1.00  0.00     0.002 C 
HETATM   12  C   UNL     1     -14.199   0.261 -33.301  1.00  0.00     0.002 C 
HETATM   13  C   UNL     1     -14.479   1.642 -33.894  1.00  0.00     0.027 C 
HETATM   14  H   UNL     1     -14.046   3.304 -31.842  1.00  0.00     0.163 HD
ENDROOT
BRANCH   1  15
HETATM   15  C   UNL     1      -9.771   2.785 -31.630  1.00  0.00     0.146 C 
BRANCH  15  16
HETATM   16  C   UNL     1      -8.571   2.235 -32.366  1.00  0.00     0.224 C 
HETATM   17  N   UNL     1      -8.424   0.873 -32.247  1.00  0.00    -0.327 N 
HETATM   18  H   UNL     1      -9.027   0.392 -31.591  1.00  0.00     0.169 HD
HETATM   19  O   UNL     1      -7.875   3.013 -33.019  1.00  0.00    -0.273 OA
BRANCH  17  20
HETATM   20  C   UNL     1      -7.467   0.050 -32.894  1.00  0.00     0.040 A 
HETATM   21  C   UNL     1      -6.328  -0.369 -32.169  1.00  0.00    -0.035 A 
HETATM   22  C   UNL     1      -6.064   0.057 -30.749  1.00  0.00     0.050 C 
HETATM   23  C   UNL     1      -5.384  -1.206 -32.793  1.00  0.00     0.009 A 
HETATM   24  C   UNL     1      -5.559  -1.627 -34.108  1.00  0.00     0.001 A 
HETATM   25  C   UNL     1      -6.679  -1.217 -34.819  1.00  0.00     0.002 A 
HETATM   26  C   UNL     1      -7.626  -0.384 -34.216  1.00  0.00     0.030 A 
ENDBRANCH  17  20
ENDBRANCH  15  16
ENDBRANCH   1  15
TORSDOF 3
ENDMDL
MODEL 8
REMARK VINA RESULT:      -7.5      5.315      7.577
REMARK  3 active torsions:
REMARK  status: ('A' for Active; 'I' for Inactive)
REMARK    1  A    between atoms: C_3  and  N_4 
REMARK       I    between atoms: N_4  and  C_5 
REMARK    2  A    between atoms: C_5  and  C_6 
REMARK    3  A    between atoms: C_6  and  C_7 
ROOT
HETATM    1  C   UNL     1      -8.273   2.165 -32.797  1.00  0.00     0.286 C 
HETATM    2  N   UNL     1      -8.159   0.893 -31.959  1.00  0.00    -0.056 N 
HETATM    3  H   UNL     1      -8.077   1.186 -30.977  1.00  0.00     0.278 HD
HETATM    4  H   UNL     1      -9.078   0.399 -31.985  1.00  0.00     0.278 HD
HETATM    5  C   UNL     1      -7.036  -0.052 -32.259  1.00  0.00     0.209 C 
HETATM    6  C   UNL     1      -5.717   0.743 -32.372  1.00  0.00     0.115 C 
HETATM    7  N   UNL     1      -5.837   1.876 -33.283  1.00  0.00    -0.353 N 
HETATM    8  C   UNL     1      -6.937   2.691 -33.348  1.00  0.00     0.249 C 
HETATM    9  O   UNL     1      -6.855   3.785 -33.899  1.00  0.00    -0.271 OA
HETATM   10  C   UNL     1      -7.346  -0.884 -33.503  1.00  0.00     0.035 C 
HETATM   11  C   UNL     1      -6.177  -1.807 -33.838  1.00  0.00     0.002 C 
HETATM   12  C   UNL     1      -4.880  -1.021 -34.011  1.00  0.00     0.002 C 
HETATM   13  C   UNL     1      -4.559  -0.175 -32.778  1.00  0.00     0.027 C 
HETATM   14  H   UNL     1      -4.986   2.331 -33.611  1.00  0.00     0.163 HD
ENDROOT
BRANCH   1  15
HETATM   15  C   UNL     1      -9.275   2.052 -33.958  1.00  0.00     0.146 C 
BRANCH  15  16
HETATM   16  C   UNL     1     -10.610   1.502 -33.512  1.00  0.00     0.224 C 
HETATM   17  N   UNL     1     -11.652   2.388 -33.658  1.00  0.00    -0.327 N 
HETATM   18  H   UNL     1     -11.424   3.342 -33.911  1.00  0.00     0.169 HD
HETATM   19  O   UNL     1     -10.662   0.339 -33.110  1.00  0.00    -0.273 OA
BRANCH  17  20
HETATM   20  C   UNL     1     -13.030   2.144 -33.427  1.00  0.00     0.040 A 
HETATM   21  C   UNL     1     -13.696   2.892 -32.430  1.00  0.00    -0.035 A 
HETATM   22  C   UNL     1     -12.996   3.911 -31.571  1.00  0.00     0.050 C 
HETATM   23  C   UNL     1     -15.069   2.675 -32.210  1.00  0.00     0.009 A 
HETATM   24  C   UNL     1     -15.776   1.739 -32.959  1.00  0.00     0.001 A 
HETATM   25  C   UNL     1     -15.120   1.005 -33.939  1.00  0.00     0.002 A 
HETATM   26  C   UNL     1     -13.757   1.206 -34.171  1.00  0.00     0.030 A 
ENDBRANCH  17  20
ENDBRANCH  15  16
ENDBRANCH   1  15
TORSDOF 3
ENDMDL
MODEL 9
REMARK VINA RESULT:      -7.4     15.322     16.914
REMARK  3 active torsions:
REMARK  status: ('A' for Active; 'I' for Inactive)
REMARK    1  A    between atoms: C_3  and  N_4 
REMARK       I    between atoms: N_4  and  C_5 
REMARK    2  A    between atoms: C_5  and  C_6 
REMARK    3  A    between atoms: C_6  and  C_7 
ROOT
HETATM    1  C   UNL     1      -4.243 -13.916 -38.931  1.00  0.00     0.286 C 
HETATM    2  N   UNL     1      -3.599 -15.235 -39.355  1.00  0.00    -0.056 N 
HETATM    3  H   UNL     1      -4.036 -15.977 -38.793  1.00  0.00     0.278 HD
HETATM    4  H   UNL     1      -3.912 -15.456 -40.326  1.00  0.00     0.278 HD
HETATM    5  C   UNL     1      -2.113 -15.368 -39.230  1.00  0.00     0.209 C 
HETATM    6  C   UNL     1      -1.673 -14.879 -37.833  1.00  0.00     0.115 C 
HETATM    7  N   UNL     1      -2.208 -13.558 -37.522  1.00  0.00    -0.353 N 
HETATM    8  C   UNL     1      -3.481 -13.156 -37.832  1.00  0.00     0.249 C 
HETATM    9  O   UNL     1      -3.961 -12.169 -37.282  1.00  0.00    -0.271 OA
HETATM   10  C   UNL     1      -1.406 -14.641 -40.373  1.00  0.00     0.035 C 
HETATM   11  C   UNL     1       0.110 -14.732 -40.212  1.00  0.00     0.002 C 
HETATM   12  C   UNL     1       0.559 -14.194 -38.856  1.00  0.00     0.002 C 
HETATM   13  C   UNL     1      -0.146 -14.904 -37.700  1.00  0.00     0.027 C 
HETATM   14  H   UNL     1      -1.808 -13.040 -36.741  1.00  0.00     0.163 HD
ENDROOT
BRANCH   1  15
HETATM   15  C   UNL     1      -4.508 -12.955 -40.101  1.00  0.00     0.146 C 
BRANCH  15  16
HETATM   16  C   UNL     1      -5.897 -13.117 -40.673  1.00  0.00     0.224 C 
HETATM   17  N   UNL     1      -6.889 -13.153 -39.721  1.00  0.00    -0.327 N 
HETATM   18  H   UNL     1      -6.604 -13.205 -38.750  1.00  0.00     0.169 HD
HETATM   19  O   UNL     1      -6.028 -13.160 -41.897  1.00  0.00    -0.273 OA
BRANCH  17  20
HETATM   20  C   UNL     1      -8.290 -13.196 -39.936  1.00  0.00     0.040 A 
HETATM   21  C   UNL     1      -8.945 -14.448 -39.916  1.00  0.00    -0.035 A 
HETATM   22  C   UNL     1      -8.211 -15.748 -39.718  1.00  0.00     0.050 C 
HETATM   23  C   UNL     1     -10.338 -14.500 -40.105  1.00  0.00     0.009 A 
HETATM   24  C   UNL     1     -11.077 -13.337 -40.306  1.00  0.00     0.001 A 
HETATM   25  C   UNL     1     -10.433 -12.107 -40.324  1.00  0.00     0.002 A 
HETATM   26  C   UNL     1      -9.050 -12.037 -40.140  1.00  0.00     0.030 A 
ENDBRANCH  17  20
ENDBRANCH  15  16
ENDBRANCH   1  15
TORSDOF 3
ENDMDL
MODEL 10
REMARK VINA RESULT:      -7.4      4.199      6.311
REMARK  3 active torsions:
REMARK  status: ('A' for Active; 'I' for Inactive)
REMARK    1  A    between atoms: C_3  and  N_4 
REMARK       I    between atoms: N_4  and  C_5 
REMARK    2  A    between atoms: C_5  and  C_6 
REMARK    3  A    between atoms: C_6  and  C_7 
ROOT
HETATM    1  C   UNL     1      -8.931   3.009 -33.703  1.00  0.00     0.286 C 
HETATM    2  N   UNL     1      -9.357   1.847 -34.598  1.00  0.00    -0.056 N 
HETATM    3  H   UNL     1      -8.978   2.033 -35.535  1.00  0.00     0.278 HD
HETATM    4  H   UNL     1      -8.839   0.993 -34.296  1.00  0.00     0.278 HD
HETATM    5  C   UNL     1     -10.821   1.562 -34.736  1.00  0.00     0.209 C 
HETATM    6  C   UNL     1     -11.572   2.880 -35.024  1.00  0.00     0.115 C 
HETATM    7  N   UNL     1     -11.229   3.926 -34.065  1.00  0.00    -0.353 N 
HETATM    8  C   UNL     1      -9.960   4.147 -33.597  1.00  0.00     0.249 C 
HETATM    9  O   UNL     1      -9.688   5.210 -33.047  1.00  0.00    -0.271 OA
HETATM   10  C   UNL     1     -11.348   0.825 -33.505  1.00  0.00     0.035 C 
HETATM   11  C   UNL     1     -12.851   0.585 -33.624  1.00  0.00     0.002 C 
HETATM   12  C   UNL     1     -13.607   1.892 -33.849  1.00  0.00     0.002 C 
HETATM   13  C   UNL     1     -13.086   2.648 -35.071  1.00  0.00     0.027 C 
HETATM   14  H   UNL     1     -11.821   4.754 -34.013  1.00  0.00     0.163 HD
ENDROOT
BRANCH   1  15
HETATM   15  C   UNL     1      -8.523   2.579 -32.285  1.00  0.00     0.146 C 
BRANCH  15  16
HETATM   16  C   UNL     1      -7.893   1.206 -32.260  1.00  0.00     0.224 C 
HETATM   17  N   UNL     1      -6.630   1.165 -32.801  1.00  0.00    -0.327 N 
HETATM   18  H   UNL     1      -6.296   1.996 -33.276  1.00  0.00     0.169 HD
HETATM   19  O   UNL     1      -8.520   0.281 -31.741  1.00  0.00    -0.273 OA
BRANCH  17  20
HETATM   20  C   UNL     1      -5.742   0.059 -32.836  1.00  0.00     0.040 A 
HETATM   21  C   UNL     1      -5.828  -0.849 -33.915  1.00  0.00    -0.035 A 
HETATM   22  C   UNL     1      -6.852  -0.717 -35.011  1.00  0.00     0.050 C 
HETATM   23  C   UNL     1      -4.936  -1.935 -33.973  1.00  0.00     0.009 A 
HETATM   24  C   UNL     1      -3.973  -2.125 -32.986  1.00  0.00     0.001 A 
HETATM   25  C   UNL     1      -3.888  -1.231 -31.927  1.00  0.00     0.002 A 
HETATM   26  C   UNL     1      -4.767  -0.147 -31.852  1.00  0.00     0.030 A 
ENDBRANCH  17  20
ENDBRANCH  15  16
ENDBRANCH   1  15
TORSDOF 3
ENDMDL
