MODEL 1
REMARK VINA RESULT:      -8.1      0.000      0.000
REMARK  6 active torsions:
REMARK  status: ('A' for Active; 'I' for Inactive)
REMARK    1  A    between atoms: C_4  and  C_5 
REMARK    2  A    between atoms: C_7  and  N_8 
REMARK       I    between atoms: N_8  and  C_9 
REMARK    3  A    between atoms: C_9  and  C_10 
REMARK    4  A    between atoms: C_10  and  N_11 
REMARK    5  A    between atoms: N_11  and  C_14 
REMARK    6  A    between atoms: C_20  and  C_21 
REMARK       I    between atoms: C_21  and  N_22 
ROOT
HETATM    1  C   UNL     1      -6.258  -0.771 -33.408  1.00  0.00     0.018 A 
HETATM    2  S   UNL     1      -4.980   0.342 -33.177  1.00  0.00    -0.071 SA
HETATM    3  C   UNL     1      -6.015   1.534 -32.568  1.00  0.00     0.093 A 
HETATM    4  C   UNL     1      -7.341   1.125 -32.518  1.00  0.00     0.067 A 
HETATM    5  C   UNL     1      -7.462  -0.223 -33.003  1.00  0.00     0.039 A 
ENDROOT
BRANCH   3   6
HETATM    6  N   UNL     1      -5.546   2.779 -32.165  1.00  0.00    -0.319 N 
HETATM    7  C   UNL     1      -5.192   3.164 -30.893  1.00  0.00     0.248 C 
HETATM    8  O   UNL     1      -5.211   2.508 -29.853  1.00  0.00    -0.271 OA
HETATM    9  H   UNL     1      -5.445   3.436 -32.944  1.00  0.00     0.169 HD
BRANCH   7  10
HETATM   10  C   UNL     1      -4.693   4.606 -30.804  1.00  0.00     0.335 C 
BRANCH  10  11
HETATM   11  N   UNL     1      -3.226   4.645 -31.175  1.00  0.00    -0.063 N 
HETATM   12  H   UNL     1      -2.744   5.041 -30.347  1.00  0.00     0.278 HD
HETATM   13  H   UNL     1      -2.874   3.676 -31.198  1.00  0.00     0.278 HD
BRANCH  11  14
HETATM   14  C   UNL     1      -2.866   5.389 -32.397  1.00  0.00     0.186 C 
HETATM   15  C   UNL     1      -1.676   6.297 -32.132  1.00  0.00     0.033 C 
HETATM   16  C   UNL     1      -1.172   6.608 -33.535  1.00  0.00     0.002 C 
HETATM   17  C   UNL     1      -1.456   5.350 -34.357  1.00  0.00     0.002 C 
HETATM   18  C   UNL     1      -2.363   4.467 -33.498  1.00  0.00     0.033 C 
ENDBRANCH  11  14
ENDBRANCH  10  11
ENDBRANCH   7  10
ENDBRANCH   3   6
BRANCH   4  19
HETATM   19  C   UNL     1      -8.398   2.010 -32.031  1.00  0.00     0.252 C 
HETATM   20  N   UNL     1      -9.224   1.521 -31.066  1.00  0.00    -0.366 N 
HETATM   21  H   UNL     1      -9.169   0.586 -30.692  1.00  0.00     0.159 HD
HETATM   22  H   UNL     1      -9.970   2.117 -30.732  1.00  0.00     0.159 HD
HETATM   23  O   UNL     1      -8.548   3.149 -32.476  1.00  0.00    -0.268 OA
ENDBRANCH   4  19
BRANCH   1  24
HETATM   24  C   UNL     1      -5.993  -2.113 -33.941  1.00  0.00    -0.019 A 
HETATM   25  C   UNL     1      -4.696  -2.645 -33.892  1.00  0.00     0.013 A 
HETATM   26  C   UNL     1      -4.429  -3.926 -34.382  1.00  0.00     0.001 A 
HETATM   27  C   UNL     1      -5.458  -4.694 -34.923  1.00  0.00     0.000 A 
HETATM   28  C   UNL     1      -6.752  -4.183 -34.974  1.00  0.00     0.001 A 
HETATM   29  C   UNL     1      -7.019  -2.901 -34.485  1.00  0.00     0.013 A 
ENDBRANCH   1  24
TORSDOF 6
ENDMDL
MODEL 2
REMARK VINA RESULT:      -8.0      3.269      6.723
REMARK  6 active torsions:
REMARK  status: ('A' for Active; 'I' for Inactive)
REMARK    1  A    between atoms: C_4  and  C_5 
REMARK    2  A    between atoms: C_7  and  N_8 
REMARK       I    between atoms: N_8  and  C_9 
REMARK    3  A    between atoms: C_9  and  C_10 
REMARK    4  A    between atoms: C_10  and  N_11 
REMARK    5  A    between atoms: N_11  and  C_14 
REMARK    6  A    between atoms: C_20  and  C_21 
REMARK       I    between atoms: C_21  and  N_22 
ROOT
HETATM    1  C   UNL     1      -6.314  -0.907 -34.258  1.00  0.00     0.018 A 
HETATM    2  S   UNL     1      -7.870  -0.492 -34.833  1.00  0.00    -0.071 SA
HETATM    3  C   UNL     1      -7.668   1.144 -34.451  1.00  0.00     0.093 A 
HETATM    4  C   UNL     1      -6.429   1.419 -33.888  1.00  0.00     0.067 A 
HETATM    5  C   UNL     1      -5.650   0.214 -33.792  1.00  0.00     0.039 A 
ENDROOT
BRANCH   3   6
HETATM    6  N   UNL     1      -8.663   2.084 -34.695  1.00  0.00    -0.319 N 
HETATM    7  C   UNL     1      -9.733   2.392 -33.889  1.00  0.00     0.248 C 
HETATM    8  O   UNL     1     -10.041   1.917 -32.796  1.00  0.00    -0.271 OA
HETATM    9  H   UNL     1      -8.521   2.593 -35.572  1.00  0.00     0.169 HD
BRANCH   7  10
HETATM   10  C   UNL     1     -10.628   3.495 -34.451  1.00  0.00     0.335 C 
BRANCH  10  11
HETATM   11  N   UNL     1     -11.571   2.895 -35.473  1.00  0.00    -0.063 N 
HETATM   12  H   UNL     1     -11.604   3.578 -36.251  1.00  0.00     0.278 HD
HETATM   13  H   UNL     1     -11.102   2.085 -35.906  1.00  0.00     0.278 HD
BRANCH  11  14
HETATM   14  C   UNL     1     -12.931   2.560 -35.010  1.00  0.00     0.186 C 
HETATM   15  C   UNL     1     -13.039   1.071 -34.718  1.00  0.00     0.033 C 
HETATM   16  C   UNL     1     -14.287   0.990 -33.850  1.00  0.00     0.002 C 
HETATM   17  C   UNL     1     -14.310   2.290 -33.046  1.00  0.00     0.002 C 
HETATM   18  C   UNL     1     -13.251   3.202 -33.669  1.00  0.00     0.033 C 
ENDBRANCH  11  14
ENDBRANCH  10  11
ENDBRANCH   7  10
ENDBRANCH   3   6
BRANCH   4  19
HETATM   19  C   UNL     1      -6.057   2.772 -33.477  1.00  0.00     0.252 C 
HETATM   20  N   UNL     1      -5.280   2.893 -32.367  1.00  0.00    -0.366 N 
HETATM   21  H   UNL     1      -4.971   2.116 -31.801  1.00  0.00     0.159 HD
HETATM   22  H   UNL     1      -5.028   3.824 -32.061  1.00  0.00     0.159 HD
HETATM   23  O   UNL     1      -6.434   3.766 -34.098  1.00  0.00    -0.268 OA
ENDBRANCH   4  19
BRANCH   1  24
HETATM   24  C   UNL     1      -5.836  -2.293 -34.329  1.00  0.00    -0.019 A 
HETATM   25  C   UNL     1      -6.689  -3.308 -34.789  1.00  0.00     0.013 A 
HETATM   26  C   UNL     1      -6.246  -4.630 -34.875  1.00  0.00     0.001 A 
HETATM   27  C   UNL     1      -4.942  -4.954 -34.508  1.00  0.00     0.000 A 
HETATM   28  C   UNL     1      -4.081  -3.958 -34.054  1.00  0.00     0.001 A 
HETATM   29  C   UNL     1      -4.525  -2.635 -33.966  1.00  0.00     0.013 A 
ENDBRANCH   1  24
TORSDOF 6
ENDMDL
MODEL 3
REMARK VINA RESULT:      -7.9      2.089      2.997
REMARK  6 active torsions:
REMARK  status: ('A' for Active; 'I' for Inactive)
REMARK    1  A    between atoms: C_4  and  C_5 
REMARK    2  A    between atoms: C_7  and  N_8 
REMARK       I    between atoms: N_8  and  C_9 
REMARK    3  A    between atoms: C_9  and  C_10 
REMARK    4  A    between atoms: C_10  and  N_11 
REMARK    5  A    between atoms: N_11  and  C_14 
REMARK    6  A    between atoms: C_20  and  C_21 
REMARK       I    between atoms: C_21  and  N_22 
ROOT
HETATM    1  C   UNL     1      -5.123  -0.210 -33.378  1.00  0.00     0.018 A 
HETATM    2  S   UNL     1      -3.683   0.259 -32.583  1.00  0.00    -0.071 SA
HETATM    3  C   UNL     1      -4.219   1.850 -32.370  1.00  0.00     0.093 A 
HETATM    4  C   UNL     1      -5.491   2.065 -32.884  1.00  0.00     0.067 A 
HETATM    5  C   UNL     1      -6.005   0.852 -33.460  1.00  0.00     0.039 A 
ENDROOT
BRANCH   3   6
HETATM    6  N   UNL     1      -3.438   2.810 -31.736  1.00  0.00    -0.319 N 
HETATM    7  C   UNL     1      -2.624   3.745 -32.329  1.00  0.00     0.248 C 
HETATM    8  O   UNL     1      -2.410   3.938 -33.525  1.00  0.00    -0.271 OA
HETATM    9  H   UNL     1      -3.538   2.792 -30.717  1.00  0.00     0.169 HD
BRANCH   7  10
HETATM   10  C   UNL     1      -1.920   4.666 -31.333  1.00  0.00     0.335 C 
BRANCH  10  11
HETATM   11  N   UNL     1      -1.407   5.887 -32.067  1.00  0.00    -0.063 N 
HETATM   12  H   UNL     1      -0.685   5.532 -32.720  1.00  0.00     0.278 HD
HETATM   13  H   UNL     1      -2.147   6.212 -32.707  1.00  0.00     0.278 HD
BRANCH  11  14
HETATM   14  C   UNL     1      -0.873   6.987 -31.240  1.00  0.00     0.186 C 
HETATM   15  C   UNL     1      -1.791   7.255 -30.059  1.00  0.00     0.033 C 
HETATM   16  C   UNL     1      -0.897   8.043 -29.112  1.00  0.00     0.002 C 
HETATM   17  C   UNL     1       0.512   7.490 -29.328  1.00  0.00     0.002 C 
HETATM   18  C   UNL     1       0.446   6.613 -30.579  1.00  0.00     0.033 C 
ENDBRANCH  11  14
ENDBRANCH  10  11
ENDBRANCH   7  10
ENDBRANCH   3   6
BRANCH   4  19
HETATM   19  C   UNL     1      -6.135   3.376 -32.811  1.00  0.00     0.252 C 
HETATM   20  N   UNL     1      -6.554   3.930 -33.981  1.00  0.00    -0.366 N 
HETATM   21  H   UNL     1      -6.424   3.508 -34.888  1.00  0.00     0.159 HD
HETATM   22  H   UNL     1      -6.987   4.844 -33.947  1.00  0.00     0.159 HD
HETATM   23  O   UNL     1      -6.288   3.966 -31.741  1.00  0.00    -0.268 OA
ENDBRANCH   4  19
BRANCH   1  24
HETATM   24  C   UNL     1      -5.305  -1.592 -33.842  1.00  0.00    -0.019 A 
HETATM   25  C   UNL     1      -6.554  -2.012 -34.322  1.00  0.00     0.013 A 
HETATM   26  C   UNL     1      -6.741  -3.319 -34.779  1.00  0.00     0.001 A 
HETATM   27  C   UNL     1      -5.680  -4.221 -34.767  1.00  0.00     0.000 A 
HETATM   28  C   UNL     1      -4.432  -3.818 -34.298  1.00  0.00     0.001 A 
HETATM   29  C   UNL     1      -4.245  -2.511 -33.839  1.00  0.00     0.013 A 
ENDBRANCH   1  24
TORSDOF 6
ENDMDL
MODEL 4
REMARK VINA RESULT:      -7.7      2.738      5.776
REMARK  6 active torsions:
REMARK  status: ('A' for Active; 'I' for Inactive)
REMARK    1  A    between atoms: C_4  and  C_5 
REMARK    2  A    between atoms: C_7  and  N_8 
REMARK       I    between atoms: N_8  and  C_9 
REMARK    3  A    between atoms: C_9  and  C_10 
REMARK    4  A    between atoms: C_10  and  N_11 
REMARK    5  A    between atoms: N_11  and  C_14 
REMARK    6  A    between atoms: C_20  and  C_21 
REMARK       I    between atoms: C_21  and  N_22 
ROOT
HETATM    1  C   UNL     1      -6.285  -0.831 -33.829  1.00  0.00     0.018 A 
HETATM    2  S   UNL     1      -7.928  -0.355 -33.862  1.00  0.00    -0.071 SA
HETATM    3  C   UNL     1      -7.563   1.239 -33.427  1.00  0.00     0.093 A 
HETATM    4  C   UNL     1      -6.202   1.453 -33.252  1.00  0.00     0.067 A 
HETATM    5  C   UNL     1      -5.473   0.239 -33.499  1.00  0.00     0.039 A 
ENDROOT
BRANCH   3   6
HETATM    6  N   UNL     1      -8.552   2.204 -33.276  1.00  0.00    -0.319 N 
HETATM    7  C   UNL     1      -9.065   2.693 -32.098  1.00  0.00     0.248 C 
HETATM    8  O   UNL     1      -8.769   2.394 -30.942  1.00  0.00    -0.271 OA
HETATM    9  H   UNL     1      -8.882   2.577 -34.171  1.00  0.00     0.169 HD
BRANCH   7  10
HETATM   10  C   UNL     1     -10.133   3.769 -32.293  1.00  0.00     0.335 C 
BRANCH  10  11
HETATM   11  N   UNL     1     -11.498   3.162 -32.049  1.00  0.00    -0.063 N 
HETATM   12  H   UNL     1     -11.320   2.293 -31.512  1.00  0.00     0.278 HD
HETATM   13  H   UNL     1     -11.994   3.751 -31.364  1.00  0.00     0.278 HD
BRANCH  11  14
HETATM   14  C   UNL     1     -12.327   2.884 -33.237  1.00  0.00     0.186 C 
HETATM   15  C   UNL     1     -11.863   3.725 -34.415  1.00  0.00     0.033 C 
HETATM   16  C   UNL     1     -12.480   3.004 -35.605  1.00  0.00     0.002 C 
HETATM   17  C   UNL     1     -12.489   1.523 -35.225  1.00  0.00     0.002 C 
HETATM   18  C   UNL     1     -12.149   1.457 -33.735  1.00  0.00     0.033 C 
ENDBRANCH  11  14
ENDBRANCH  10  11
ENDBRANCH   7  10
ENDBRANCH   3   6
BRANCH   4  19
HETATM   19  C   UNL     1      -5.677   2.762 -32.865  1.00  0.00     0.252 C 
HETATM   20  N   UNL     1      -5.550   3.013 -31.534  1.00  0.00    -0.366 N 
HETATM   21  H   UNL     1      -5.820   2.368 -30.806  1.00  0.00     0.159 HD
HETATM   22  H   UNL     1      -5.204   3.920 -31.251  1.00  0.00     0.159 HD
HETATM   23  O   UNL     1      -5.368   3.611 -33.702  1.00  0.00    -0.268 OA
ENDBRANCH   4  19
BRANCH   1  24
HETATM   24  C   UNL     1      -5.899  -2.209 -34.156  1.00  0.00    -0.019 A 
HETATM   25  C   UNL     1      -4.585  -2.644 -33.924  1.00  0.00     0.013 A 
HETATM   26  C   UNL     1      -4.205  -3.956 -34.218  1.00  0.00     0.001 A 
HETATM   27  C   UNL     1      -5.133  -4.852 -34.742  1.00  0.00     0.000 A 
HETATM   28  C   UNL     1      -6.442  -4.437 -34.973  1.00  0.00     0.001 A 
HETATM   29  C   UNL     1      -6.824  -3.124 -34.681  1.00  0.00     0.013 A 
ENDBRANCH   1  24
TORSDOF 6
ENDMDL
MODEL 5
REMARK VINA RESULT:      -7.7      3.056      4.610
REMARK  6 active torsions:
REMARK  status: ('A' for Active; 'I' for Inactive)
REMARK    1  A    between atoms: C_4  and  C_5 
REMARK    2  A    between atoms: C_7  and  N_8 
REMARK       I    between atoms: N_8  and  C_9 
REMARK    3  A    between atoms: C_9  and  C_10 
REMARK    4  A    between atoms: C_10  and  N_11 
REMARK    5  A    between atoms: N_11  and  C_14 
REMARK    6  A    between atoms: C_20  and  C_21 
REMARK       I    between atoms: C_21  and  N_22 
ROOT
HETATM    1  C   UNL     1      -5.242   2.296 -32.824  1.00  0.00     0.018 A 
HETATM    2  S   UNL     1      -3.629   2.288 -32.256  1.00  0.00    -0.071 SA
HETATM    3  C   UNL     1      -3.749   3.858 -31.637  1.00  0.00     0.093 A 
HETATM    4  C   UNL     1      -5.001   4.424 -31.837  1.00  0.00     0.067 A 
HETATM    5  C   UNL     1      -5.861   3.496 -32.522  1.00  0.00     0.039 A 
ENDROOT
BRANCH   3   6
HETATM    6  N   UNL     1      -2.682   4.480 -30.998  1.00  0.00    -0.319 N 
HETATM    7  C   UNL     1      -1.535   4.969 -31.577  1.00  0.00     0.248 C 
HETATM    8  O   UNL     1      -1.206   4.967 -32.762  1.00  0.00    -0.271 OA
HETATM    9  H   UNL     1      -2.829   4.583 -29.990  1.00  0.00     0.169 HD
BRANCH   7  10
HETATM   10  C   UNL     1      -0.572   5.614 -30.582  1.00  0.00     0.335 C 
BRANCH  10  11
HETATM   11  N   UNL     1      -1.336   6.002 -29.334  1.00  0.00    -0.063 N 
HETATM   12  H   UNL     1      -2.241   6.376 -29.671  1.00  0.00     0.278 HD
HETATM   13  H   UNL     1      -1.618   5.137 -28.848  1.00  0.00     0.278 HD
BRANCH  11  14
HETATM   14  C   UNL     1      -0.681   6.957 -28.419  1.00  0.00     0.186 C 
HETATM   15  C   UNL     1       0.132   6.214 -27.371  1.00  0.00     0.033 C 
HETATM   16  C   UNL     1       1.065   7.294 -26.842  1.00  0.00     0.002 C 
HETATM   17  C   UNL     1       1.350   8.207 -28.036  1.00  0.00     0.002 C 
HETATM   18  C   UNL     1       0.363   7.804 -29.133  1.00  0.00     0.033 C 
ENDBRANCH  11  14
ENDBRANCH  10  11
ENDBRANCH   7  10
ENDBRANCH   3   6
BRANCH   4  19
HETATM   19  C   UNL     1      -5.310   5.780 -31.385  1.00  0.00     0.252 C 
HETATM   20  N   UNL     1      -5.742   6.665 -32.324  1.00  0.00    -0.366 N 
HETATM   21  H   UNL     1      -5.834   6.452 -33.306  1.00  0.00     0.159 HD
HETATM   22  H   UNL     1      -5.944   7.611 -32.028  1.00  0.00     0.159 HD
HETATM   23  O   UNL     1      -5.180   6.118 -30.208  1.00  0.00    -0.268 OA
ENDBRANCH   4  19
BRANCH   1  24
HETATM   24  C   UNL     1      -5.803   1.120 -33.499  1.00  0.00    -0.019 A 
HETATM   25  C   UNL     1      -5.445  -0.170 -33.076  1.00  0.00     0.013 A 
HETATM   26  C   UNL     1      -5.980  -1.300 -33.700  1.00  0.00     0.001 A 
HETATM   27  C   UNL     1      -6.884  -1.157 -34.750  1.00  0.00     0.000 A 
HETATM   28  C   UNL     1      -7.253   0.116 -35.178  1.00  0.00     0.001 A 
HETATM   29  C   UNL     1      -6.717   1.248 -34.556  1.00  0.00     0.013 A 
ENDBRANCH   1  24
TORSDOF 6
ENDMDL
MODEL 6
REMARK VINA RESULT:      -7.4      3.020      9.116
REMARK  6 active torsions:
REMARK  status: ('A' for Active; 'I' for Inactive)
REMARK    1  A    between atoms: C_4  and  C_5 
REMARK    2  A    between atoms: C_7  and  N_8 
REMARK       I    between atoms: N_8  and  C_9 
REMARK    3  A    between atoms: C_9  and  C_10 
REMARK    4  A    between atoms: C_10  and  N_11 
REMARK    5  A    between atoms: N_11  and  C_14 
REMARK    6  A    between atoms: C_20  and  C_21 
REMARK       I    between atoms: C_21  and  N_22 
ROOT
HETATM    1  C   UNL     1      -1.774   6.525 -31.203  1.00  0.00     0.018 A 
HETATM    2  S   UNL     1      -3.140   5.554 -30.860  1.00  0.00    -0.071 SA
HETATM    3  C   UNL     1      -3.303   5.066 -32.473  1.00  0.00     0.093 A 
HETATM    4  C   UNL     1      -2.335   5.615 -33.304  1.00  0.00     0.067 A 
HETATM    5  C   UNL     1      -1.448   6.455 -32.545  1.00  0.00     0.039 A 
ENDROOT
BRANCH   3   6
HETATM    6  N   UNL     1      -4.312   4.201 -32.880  1.00  0.00    -0.319 N 
HETATM    7  C   UNL     1      -4.427   2.862 -32.591  1.00  0.00     0.248 C 
HETATM    8  O   UNL     1      -3.681   2.148 -31.922  1.00  0.00    -0.271 OA
HETATM    9  H   UNL     1      -5.037   4.669 -33.430  1.00  0.00     0.169 HD
BRANCH   7  10
HETATM   10  C   UNL     1      -5.677   2.211 -33.182  1.00  0.00     0.335 C 
BRANCH  10  11
HETATM   11  N   UNL     1      -5.713   0.753 -32.779  1.00  0.00    -0.063 N 
HETATM   12  H   UNL     1      -4.884   0.614 -32.174  1.00  0.00     0.278 HD
HETATM   13  H   UNL     1      -6.496   0.620 -32.122  1.00  0.00     0.278 HD
BRANCH  11  14
HETATM   14  C   UNL     1      -5.738  -0.241 -33.870  1.00  0.00     0.186 C 
HETATM   15  C   UNL     1      -4.739  -1.354 -33.595  1.00  0.00     0.033 C 
HETATM   16  C   UNL     1      -5.211  -2.465 -34.522  1.00  0.00     0.002 C 
HETATM   17  C   UNL     1      -6.733  -2.321 -34.588  1.00  0.00     0.002 C 
HETATM   18  C   UNL     1      -7.068  -0.976 -33.940  1.00  0.00     0.033 C 
ENDBRANCH  11  14
ENDBRANCH  10  11
ENDBRANCH   7  10
ENDBRANCH   3   6
BRANCH   4  19
HETATM   19  C   UNL     1      -2.304   5.327 -34.737  1.00  0.00     0.252 C 
HETATM   20  N   UNL     1      -1.085   5.116 -35.303  1.00  0.00    -0.366 N 
HETATM   21  H   UNL     1      -0.209   5.174 -34.804  1.00  0.00     0.159 HD
HETATM   22  H   UNL     1      -1.047   4.932 -36.297  1.00  0.00     0.159 HD
HETATM   23  O   UNL     1      -3.332   5.283 -35.413  1.00  0.00    -0.268 OA
ENDBRANCH   4  19
BRANCH   1  24
HETATM   24  C   UNL     1      -1.096   7.265 -30.131  1.00  0.00    -0.019 A 
HETATM   25  C   UNL     1       0.216   6.926 -29.765  1.00  0.00     0.013 A 
HETATM   26  C   UNL     1       0.881   7.630 -28.757  1.00  0.00     0.001 A 
HETATM   27  C   UNL     1       0.245   8.684 -28.106  1.00  0.00     0.000 A 
HETATM   28  C   UNL     1      -1.054   9.036 -28.461  1.00  0.00     0.001 A 
HETATM   29  C   UNL     1      -1.721   8.332 -29.468  1.00  0.00     0.013 A 
ENDBRANCH   1  24
TORSDOF 6
ENDMDL
MODEL 7
REMARK VINA RESULT:      -7.4     15.430     17.557
REMARK  6 active torsions:
REMARK  status: ('A' for Active; 'I' for Inactive)
REMARK    1  A    between atoms: C_4  and  C_5 
REMARK    2  A    between atoms: C_7  and  N_8 
REMARK       I    between atoms: N_8  and  C_9 
REMARK    3  A    between atoms: C_9  and  C_10 
REMARK    4  A    between atoms: C_10  and  N_11 
REMARK    5  A    between atoms: N_11  and  C_14 
REMARK    6  A    between atoms: C_20  and  C_21 
REMARK       I    between atoms: C_21  and  N_22 
ROOT
HETATM    1  C   UNL     1      -7.225 -13.414 -39.630  1.00  0.00     0.018 A 
HETATM    2  S   UNL     1      -6.174 -14.476 -40.462  1.00  0.00    -0.071 SA
HETATM    3  C   UNL     1      -4.828 -13.990 -39.558  1.00  0.00     0.093 A 
HETATM    4  C   UNL     1      -5.136 -13.024 -38.609  1.00  0.00     0.067 A 
HETATM    5  C   UNL     1      -6.538 -12.707 -38.659  1.00  0.00     0.039 A 
ENDROOT
BRANCH   3   6
HETATM    6  N   UNL     1      -3.565 -14.529 -39.772  1.00  0.00    -0.319 N 
HETATM    7  C   UNL     1      -2.789 -14.409 -40.899  1.00  0.00     0.248 C 
HETATM    8  O   UNL     1      -3.032 -13.809 -41.946  1.00  0.00    -0.271 OA
HETATM    9  H   UNL     1      -3.210 -15.041 -38.959  1.00  0.00     0.169 HD
BRANCH   7  10
HETATM   10  C   UNL     1      -1.436 -15.112 -40.792  1.00  0.00     0.335 C 
BRANCH  10  11
HETATM   11  N   UNL     1      -0.384 -14.103 -40.385  1.00  0.00    -0.063 N 
HETATM   12  H   UNL     1       0.339 -14.145 -41.126  1.00  0.00     0.278 HD
HETATM   13  H   UNL     1      -0.779 -13.158 -40.512  1.00  0.00     0.278 HD
BRANCH  11  14
HETATM   14  C   UNL     1       0.222 -14.271 -39.050  1.00  0.00     0.186 C 
HETATM   15  C   UNL     1      -0.566 -15.284 -38.235  1.00  0.00     0.033 C 
HETATM   16  C   UNL     1       0.415 -15.665 -37.136  1.00  0.00     0.002 C 
HETATM   17  C   UNL     1       1.800 -15.583 -37.779  1.00  0.00     0.002 C 
HETATM   18  C   UNL     1       1.609 -14.889 -39.129  1.00  0.00     0.033 C 
ENDBRANCH  11  14
ENDBRANCH  10  11
ENDBRANCH   7  10
ENDBRANCH   3   6
BRANCH   4  19
HETATM   19  C   UNL     1      -4.112 -12.461 -37.729  1.00  0.00     0.252 C 
HETATM   20  N   UNL     1      -4.301 -12.598 -36.388  1.00  0.00    -0.366 N 
HETATM   21  H   UNL     1      -5.110 -13.033 -35.969  1.00  0.00     0.159 HD
HETATM   22  H   UNL     1      -3.609 -12.199 -35.767  1.00  0.00     0.159 HD
HETATM   23  O   UNL     1      -3.122 -11.881 -38.173  1.00  0.00    -0.268 OA
ENDBRANCH   4  19
BRANCH   1  24
HETATM   24  C   UNL     1      -8.654 -13.364 -39.962  1.00  0.00    -0.019 A 
HETATM   25  C   UNL     1      -9.342 -12.142 -39.920  1.00  0.00     0.013 A 
HETATM   26  C   UNL     1     -10.700 -12.075 -40.246  1.00  0.00     0.001 A 
HETATM   27  C   UNL     1     -11.385 -13.227 -40.623  1.00  0.00     0.000 A 
HETATM   28  C   UNL     1     -10.714 -14.447 -40.675  1.00  0.00     0.001 A 
HETATM   29  C   UNL     1      -9.357 -14.515 -40.348  1.00  0.00     0.013 A 
ENDBRANCH   1  24
TORSDOF 6
ENDMDL
MODEL 8
REMARK VINA RESULT:      -7.3      2.157      8.038
REMARK  6 active torsions:
REMARK  status: ('A' for Active; 'I' for Inactive)
REMARK    1  A    between atoms: C_4  and  C_5 
REMARK    2  A    between atoms: C_7  and  N_8 
REMARK       I    between atoms: N_8  and  C_9 
REMARK    3  A    between atoms: C_9  and  C_10 
REMARK    4  A    between atoms: C_10  and  N_11 
REMARK    5  A    between atoms: N_11  and  C_14 
REMARK    6  A    between atoms: C_20  and  C_21 
REMARK       I    between atoms: C_21  and  N_22 
ROOT
HETATM    1  C   UNL     1      -2.951   5.288 -31.648  1.00  0.00     0.018 A 
HETATM    2  S   UNL     1      -3.171   3.593 -31.597  1.00  0.00    -0.071 SA
HETATM    3  C   UNL     1      -4.653   3.675 -32.410  1.00  0.00     0.093 A 
HETATM    4  C   UNL     1      -5.015   4.974 -32.743  1.00  0.00     0.067 A 
HETATM    5  C   UNL     1      -4.008   5.899 -32.299  1.00  0.00     0.039 A 
ENDROOT
BRANCH   3   6
HETATM    6  N   UNL     1      -5.396   2.537 -32.699  1.00  0.00    -0.319 N 
HETATM    7  C   UNL     1      -6.395   1.979 -31.936  1.00  0.00     0.248 C 
HETATM    8  O   UNL     1      -6.843   2.355 -30.854  1.00  0.00    -0.271 OA
HETATM    9  H   UNL     1      -5.152   2.123 -33.603  1.00  0.00     0.169 HD
BRANCH   7  10
HETATM   10  C   UNL     1      -7.023   0.735 -32.562  1.00  0.00     0.335 C 
BRANCH  10  11
HETATM   11  N   UNL     1      -6.023   0.093 -33.499  1.00  0.00    -0.063 N 
HETATM   12  H   UNL     1      -6.239   0.477 -34.437  1.00  0.00     0.278 HD
HETATM   13  H   UNL     1      -5.094   0.495 -33.302  1.00  0.00     0.278 HD
BRANCH  11  14
HETATM   14  C   UNL     1      -5.988  -1.382 -33.531  1.00  0.00     0.186 C 
HETATM   15  C   UNL     1      -6.996  -1.913 -34.538  1.00  0.00     0.033 C 
HETATM   16  C   UNL     1      -6.517  -3.338 -34.772  1.00  0.00     0.002 C 
HETATM   17  C   UNL     1      -4.994  -3.283 -34.639  1.00  0.00     0.002 C 
HETATM   18  C   UNL     1      -4.661  -1.909 -34.056  1.00  0.00     0.033 C 
ENDBRANCH  11  14
ENDBRANCH  10  11
ENDBRANCH   7  10
ENDBRANCH   3   6
BRANCH   4  19
HETATM   19  C   UNL     1      -6.266   5.265 -33.441  1.00  0.00     0.252 C 
HETATM   20  N   UNL     1      -6.969   6.355 -33.030  1.00  0.00    -0.366 N 
HETATM   21  H   UNL     1      -6.697   6.951 -32.263  1.00  0.00     0.159 HD
HETATM   22  H   UNL     1      -7.845   6.559 -33.494  1.00  0.00     0.159 HD
HETATM   23  O   UNL     1      -6.678   4.554 -34.358  1.00  0.00    -0.268 OA
ENDBRANCH   4  19
BRANCH   1  24
HETATM   24  C   UNL     1      -1.747   5.904 -31.075  1.00  0.00    -0.019 A 
HETATM   25  C   UNL     1      -0.476   5.479 -31.490  1.00  0.00     0.013 A 
HETATM   26  C   UNL     1       0.679   6.063 -30.964  1.00  0.00     0.001 A 
HETATM   27  C   UNL     1       0.579   7.084 -30.022  1.00  0.00     0.000 A 
HETATM   28  C   UNL     1      -0.675   7.520 -29.604  1.00  0.00     0.001 A 
HETATM   29  C   UNL     1      -1.832   6.935 -30.128  1.00  0.00     0.013 A 
ENDBRANCH   1  24
TORSDOF 6
ENDMDL
MODEL 9
REMARK VINA RESULT:      -7.1      4.117      7.978
REMARK  6 active torsions:
REMARK  status: ('A' for Active; 'I' for Inactive)
REMARK    1  A    between atoms: C_4  and  C_5 
REMARK    2  A    between atoms: C_7  and  N_8 
REMARK       I    between atoms: N_8  and  C_9 
REMARK    3  A    between atoms: C_9  and  C_10 
REMARK    4  A    between atoms: C_10  and  N_11 
REMARK    5  A    between atoms: N_11  and  C_14 
REMARK    6  A    between atoms: C_20  and  C_21 
REMARK       I    between atoms: C_21  and  N_22 
ROOT
HETATM    1  C   UNL     1     -11.793   2.760 -33.361  1.00  0.00     0.018 A 
HETATM    2  S   UNL     1     -10.841   1.389 -33.733  1.00  0.00    -0.071 SA
HETATM    3  C   UNL     1      -9.447   2.317 -33.976  1.00  0.00     0.093 A 
HETATM    4  C   UNL     1      -9.661   3.675 -33.780  1.00  0.00     0.067 A 
HETATM    5  C   UNL     1     -11.031   3.914 -33.414  1.00  0.00     0.039 A 
ENDROOT
BRANCH   3   6
HETATM    6  N   UNL     1      -8.233   1.740 -34.331  1.00  0.00    -0.319 N 
HETATM    7  C   UNL     1      -7.437   0.933 -33.553  1.00  0.00     0.248 C 
HETATM    8  O   UNL     1      -7.617   0.550 -32.398  1.00  0.00    -0.271 OA
HETATM    9  H   UNL     1      -7.961   1.949 -35.295  1.00  0.00     0.169 HD
BRANCH   7  10
HETATM   10  C   UNL     1      -6.173   0.450 -34.263  1.00  0.00     0.335 C 
BRANCH  10  11
HETATM   11  N   UNL     1      -5.751  -0.879 -33.673  1.00  0.00    -0.063 N 
HETATM   12  H   UNL     1      -4.792  -0.727 -33.311  1.00  0.00     0.278 HD
HETATM   13  H   UNL     1      -6.294  -1.034 -32.811  1.00  0.00     0.278 HD
BRANCH  11  14
HETATM   14  C   UNL     1      -5.794  -2.051 -34.569  1.00  0.00     0.186 C 
HETATM   15  C   UNL     1      -4.730  -3.060 -34.171  1.00  0.00     0.033 C 
HETATM   16  C   UNL     1      -5.204  -4.335 -34.855  1.00  0.00     0.002 C 
HETATM   17  C   UNL     1      -6.731  -4.259 -34.843  1.00  0.00     0.002 C 
HETATM   18  C   UNL     1      -7.090  -2.834 -34.420  1.00  0.00     0.033 C 
ENDBRANCH  11  14
ENDBRANCH  10  11
ENDBRANCH   7  10
ENDBRANCH   3   6
BRANCH   4  19
HETATM   19  C   UNL     1      -8.586   4.652 -33.951  1.00  0.00     0.252 C 
HETATM   20  N   UNL     1      -8.943   5.908 -34.334  1.00  0.00    -0.366 N 
HETATM   21  H   UNL     1      -9.890   6.194 -34.534  1.00  0.00     0.159 HD
HETATM   22  H   UNL     1      -8.208   6.590 -34.472  1.00  0.00     0.159 HD
HETATM   23  O   UNL     1      -7.405   4.358 -33.765  1.00  0.00    -0.268 OA
ENDBRANCH   4  19
BRANCH   1  24
HETATM   24  C   UNL     1     -13.212   2.614 -33.014  1.00  0.00    -0.019 A 
HETATM   25  C   UNL     1     -13.829   3.550 -32.170  1.00  0.00     0.013 A 
HETATM   26  C   UNL     1     -15.182   3.432 -31.841  1.00  0.00     0.001 A 
HETATM   27  C   UNL     1     -15.937   2.381 -32.355  1.00  0.00     0.000 A 
HETATM   28  C   UNL     1     -15.341   1.447 -33.199  1.00  0.00     0.001 A 
HETATM   29  C   UNL     1     -13.987   1.563 -33.528  1.00  0.00     0.013 A 
ENDBRANCH   1  24
TORSDOF 6
ENDMDL
MODEL 10
REMARK VINA RESULT:      -7.0      3.465      9.511
REMARK  6 active torsions:
REMARK  status: ('A' for Active; 'I' for Inactive)
REMARK    1  A    between atoms: C_4  and  C_5 
REMARK    2  A    between atoms: C_7  and  N_8 
REMARK       I    between atoms: N_8  and  C_9 
REMARK    3  A    between atoms: C_9  and  C_10 
REMARK    4  A    between atoms: C_10  and  N_11 
REMARK    5  A    between atoms: N_11  and  C_14 
REMARK    6  A    between atoms: C_20  and  C_21 
REMARK       I    between atoms: C_21  and  N_22 
ROOT
HETATM    1  C   UNL     1      -1.398   7.198 -30.181  1.00  0.00     0.018 A 
HETATM    2  S   UNL     1      -2.922   6.524 -29.794  1.00  0.00    -0.071 SA
HETATM    3  C   UNL     1      -3.122   5.872 -31.342  1.00  0.00     0.093 A 
HETATM    4  C   UNL     1      -2.050   6.140 -32.184  1.00  0.00     0.067 A 
HETATM    5  C   UNL     1      -1.052   6.906 -31.488  1.00  0.00     0.039 A 
ENDROOT
BRANCH   3   6
HETATM    6  N   UNL     1      -4.254   5.146 -31.694  1.00  0.00    -0.319 N 
HETATM    7  C   UNL     1      -4.435   3.787 -31.592  1.00  0.00     0.248 C 
HETATM    8  O   UNL     1      -3.656   2.931 -31.177  1.00  0.00    -0.271 OA
HETATM    9  H   UNL     1      -5.016   5.739 -32.034  1.00  0.00     0.169 HD
BRANCH   7  10
HETATM   10  C   UNL     1      -5.816   3.316 -32.049  1.00  0.00     0.335 C 
BRANCH  10  11
HETATM   11  N   UNL     1      -5.673   2.552 -33.348  1.00  0.00    -0.063 N 
HETATM   12  H   UNL     1      -6.049   3.182 -34.080  1.00  0.00     0.278 HD
HETATM   13  H   UNL     1      -4.671   2.506 -33.585  1.00  0.00     0.278 HD
BRANCH  11  14
HETATM   14  C   UNL     1      -6.317   1.226 -33.416  1.00  0.00     0.186 C 
HETATM   15  C   UNL     1      -6.909   0.996 -34.798  1.00  0.00     0.033 C 
HETATM   16  C   UNL     1      -7.098  -0.514 -34.834  1.00  0.00     0.002 C 
HETATM   17  C   UNL     1      -5.951  -1.088 -34.001  1.00  0.00     0.002 C 
HETATM   18  C   UNL     1      -5.307   0.096 -33.277  1.00  0.00     0.033 C 
ENDBRANCH  11  14
ENDBRANCH  10  11
ENDBRANCH   7  10
ENDBRANCH   3   6
BRANCH   4  19
HETATM   19  C   UNL     1      -2.029   5.673 -33.570  1.00  0.00     0.252 C 
HETATM   20  N   UNL     1      -2.164   6.613 -34.544  1.00  0.00    -0.366 N 
HETATM   21  H   UNL     1      -2.305   7.597 -34.370  1.00  0.00     0.159 HD
HETATM   22  H   UNL     1      -2.168   6.302 -35.508  1.00  0.00     0.159 HD
HETATM   23  O   UNL     1      -1.903   4.481 -33.852  1.00  0.00    -0.268 OA
ENDBRANCH   4  19
BRANCH   1  24
HETATM   24  C   UNL     1      -0.632   7.942 -29.173  1.00  0.00    -0.019 A 
HETATM   25  C   UNL     1      -1.239   8.986 -28.458  1.00  0.00     0.013 A 
HETATM   26  C   UNL     1      -0.528   9.694 -27.486  1.00  0.00     0.001 A 
HETATM   27  C   UNL     1       0.797   9.365 -27.212  1.00  0.00     0.000 A 
HETATM   28  C   UNL     1       1.413   8.329 -27.909  1.00  0.00     0.001 A 
HETATM   29  C   UNL     1       0.702   7.620 -28.883  1.00  0.00     0.013 A 
ENDBRANCH   1  24
TORSDOF 6
ENDMDL
