MODEL 1
REMARK VINA RESULT:      -9.6      0.000      0.000
REMARK  7 active torsions:
REMARK  status: ('A' for Active; 'I' for Inactive)
REMARK    1  A    between atoms: C_2  and  O_3 
REMARK    2  A    between atoms: O_3  and  C_4 
REMARK    3  A    between atoms: C_7  and  N_8 
REMARK       I    between atoms: N_8  and  C_9 
REMARK    4  A    between atoms: C_9  and  C_10 
REMARK    5  A    between atoms: C_13  and  N_14 
REMARK       I    between atoms: N_14  and  C_15 
REMARK    6  A    between atoms: C_15  and  C_16 
REMARK    7  A    between atoms: C_16  and  N_17 
ROOT
HETATM    1  C   UNL     1      -7.242   4.105 -32.870  1.00  0.00     0.032 A 
HETATM    2  C   UNL     1      -6.817   4.196 -31.542  1.00  0.00     0.019 A 
HETATM    3  C   UNL     1      -5.519   4.650 -31.251  1.00  0.00     0.030 A 
HETATM    4  C   UNL     1      -4.638   4.991 -32.283  1.00  0.00     0.034 A 
HETATM    5  C   UNL     1      -5.087   4.925 -33.608  1.00  0.00     0.030 A 
HETATM    6  C   UNL     1      -6.375   4.473 -33.902  1.00  0.00     0.019 A 
ENDROOT
BRANCH   4   7
HETATM    7  N   UNL     1      -3.284   5.347 -32.101  1.00  0.00    -0.326 N 
HETATM    8  C   UNL     1      -2.221   4.522 -31.753  1.00  0.00     0.240 C 
HETATM    9  O   UNL     1      -2.298   3.346 -31.412  1.00  0.00    -0.271 OA
HETATM   10  H   UNL     1      -3.050   6.289 -32.389  1.00  0.00     0.169 HD
BRANCH   8  11
HETATM   11  C   UNL     1      -0.877   5.263 -31.819  1.00  0.00     0.240 C 
BRANCH  11  12
HETATM   12  N   UNL     1      -0.479   5.704 -30.503  1.00  0.00    -0.259 N 
HETATM   13  C   UNL     1       0.387   5.013 -29.716  1.00  0.00     0.326 A 
HETATM   14  O   UNL     1       0.958   3.971 -29.995  1.00  0.00    -0.247 OA
HETATM   15  N   UNL     1       0.552   5.700 -28.539  1.00  0.00    -0.324 N 
HETATM   16  C   UNL     1      -0.124   6.980 -28.546  1.00  0.00     0.116 A 
HETATM   17  H   UNL     1       1.192   5.365 -27.829  1.00  0.00     0.165 HD
HETATM   18  C   UNL     1       0.888   8.132 -28.556  1.00  0.00     0.041 C 
HETATM   19  C   UNL     1      -1.141   7.103 -27.413  1.00  0.00     0.041 C 
HETATM   20  C   UNL     1      -0.834   6.882 -29.913  1.00  0.00     0.256 A 
HETATM   21  C   UNL     1       1.551   8.324 -27.191  1.00  0.00     0.007 C 
HETATM   22  C   UNL     1       0.540   8.467 -26.045  1.00  0.00    -0.019 C 
HETATM   23  C   UNL     1      -0.158   9.830 -26.078  1.00  0.00     0.010 C 
HETATM   24  C   UNL     1      -0.470   7.311 -26.054  1.00  0.00     0.007 C 
HETATM   25  O   UNL     1      -1.542   7.750 -30.406  1.00  0.00    -0.270 OA
ENDBRANCH  11  12
ENDBRANCH   8  11
ENDBRANCH   4   7
BRANCH   1  26
HETATM   26  C   UNL     1      -8.477   3.402 -33.249  1.00  0.00     0.256 C 
HETATM   27  N   UNL     1      -8.544   2.102 -33.671  1.00  0.00    -0.323 N 
HETATM   28  H   UNL     1      -9.488   1.911 -33.990  1.00  0.00     0.169 HD
HETATM   29  O   UNL     1      -9.525   4.051 -33.210  1.00  0.00    -0.267 OA
BRANCH  27  30
HETATM   30  C   UNL     1      -7.692   0.990 -33.634  1.00  0.00     0.035 A 
HETATM   31  C   UNL     1      -7.086   0.455 -32.501  1.00  0.00     0.032 A 
HETATM   32  C   UNL     1      -6.277  -0.694 -32.598  1.00  0.00     0.039 A 
HETATM   33  C   UNL     1      -6.080  -1.325 -33.826  1.00  0.00     0.068 A 
HETATM   34  C   UNL     1      -6.705  -0.804 -34.955  1.00  0.00     0.039 A 
HETATM   35  C   UNL     1      -7.498   0.340 -34.862  1.00  0.00     0.032 A 
BRANCH  33  36
HETATM   36  O   UNL     1      -5.339  -2.444 -34.069  1.00  0.00    -0.352 OA
BRANCH  36  37
HETATM   37  C   UNL     1      -5.609  -3.224 -35.231  1.00  0.00     0.171 C 
HETATM   38  C   UNL     1      -6.445  -4.440 -34.875  1.00  0.00     0.034 C 
ENDBRANCH  36  37
ENDBRANCH  33  36
ENDBRANCH  27  30
ENDBRANCH   1  26
TORSDOF 7
ENDMDL
MODEL 2
REMARK VINA RESULT:      -9.4      2.630     10.821
REMARK  7 active torsions:
REMARK  status: ('A' for Active; 'I' for Inactive)
REMARK    1  A    between atoms: C_2  and  O_3 
REMARK    2  A    between atoms: O_3  and  C_4 
REMARK    3  A    between atoms: C_7  and  N_8 
REMARK       I    between atoms: N_8  and  C_9 
REMARK    4  A    between atoms: C_9  and  C_10 
REMARK    5  A    between atoms: C_13  and  N_14 
REMARK       I    between atoms: N_14  and  C_15 
REMARK    6  A    between atoms: C_15  and  C_16 
REMARK    7  A    between atoms: C_16  and  N_17 
ROOT
HETATM    1  C   UNL     1      -2.731   5.100 -33.761  1.00  0.00     0.032 A 
HETATM    2  C   UNL     1      -3.951   5.284 -34.415  1.00  0.00     0.019 A 
HETATM    3  C   UNL     1      -5.032   4.431 -34.133  1.00  0.00     0.030 A 
HETATM    4  C   UNL     1      -4.891   3.383 -33.218  1.00  0.00     0.034 A 
HETATM    5  C   UNL     1      -3.671   3.229 -32.546  1.00  0.00     0.030 A 
HETATM    6  C   UNL     1      -2.593   4.072 -32.824  1.00  0.00     0.019 A 
ENDROOT
BRANCH   4   7
HETATM    7  N   UNL     1      -5.875   2.408 -32.952  1.00  0.00    -0.326 N 
HETATM    8  C   UNL     1      -5.746   1.025 -32.997  1.00  0.00     0.240 C 
HETATM    9  O   UNL     1      -4.772   0.401 -33.407  1.00  0.00    -0.271 OA
HETATM   10  H   UNL     1      -6.735   2.769 -32.555  1.00  0.00     0.169 HD
BRANCH   8  11
HETATM   11  C   UNL     1      -7.006   0.314 -32.478  1.00  0.00     0.240 C 
BRANCH  11  12
HETATM   12  N   UNL     1      -8.172   0.768 -33.196  1.00  0.00    -0.259 N 
HETATM   13  C   UNL     1      -8.380   0.516 -34.515  1.00  0.00     0.326 A 
HETATM   14  O   UNL     1      -7.659  -0.127 -35.260  1.00  0.00    -0.247 OA
HETATM   15  N   UNL     1      -9.576   1.081 -34.886  1.00  0.00    -0.324 N 
HETATM   16  C   UNL     1     -10.292   1.646 -33.762  1.00  0.00     0.116 A 
HETATM   17  H   UNL     1      -9.929   0.973 -35.828  1.00  0.00     0.165 HD
HETATM   18  C   UNL     1     -11.560   0.837 -33.462  1.00  0.00     0.041 C 
HETATM   19  C   UNL     1     -10.577   3.135 -33.946  1.00  0.00     0.041 C 
HETATM   20  C   UNL     1      -9.242   1.420 -32.654  1.00  0.00     0.256 A 
HETATM   21  C   UNL     1     -12.665   1.101 -34.488  1.00  0.00     0.007 C 
HETATM   22  C   UNL     1     -12.973   2.594 -34.670  1.00  0.00    -0.019 C 
HETATM   23  C   UNL     1     -13.732   3.162 -33.468  1.00  0.00     0.010 C 
HETATM   24  C   UNL     1     -11.693   3.389 -34.962  1.00  0.00     0.007 C 
HETATM   25  O   UNL     1      -9.382   1.719 -31.475  1.00  0.00    -0.270 OA
ENDBRANCH  11  12
ENDBRANCH   8  11
ENDBRANCH   4   7
BRANCH   1  26
HETATM   26  C   UNL     1      -1.501   5.782 -34.194  1.00  0.00     0.256 C 
HETATM   27  N   UNL     1      -0.819   6.715 -33.461  1.00  0.00    -0.323 N 
HETATM   28  H   UNL     1      -0.090   7.116 -34.041  1.00  0.00     0.169 HD
HETATM   29  O   UNL     1      -1.075   5.507 -35.319  1.00  0.00    -0.267 OA
BRANCH  27  30
HETATM   30  C   UNL     1      -0.804   7.122 -32.120  1.00  0.00     0.035 A 
HETATM   31  C   UNL     1      -1.724   7.966 -31.507  1.00  0.00     0.032 A 
HETATM   32  C   UNL     1      -1.614   8.268 -30.135  1.00  0.00     0.039 A 
HETATM   33  C   UNL     1      -0.592   7.716 -29.364  1.00  0.00     0.068 A 
HETATM   34  C   UNL     1       0.314   6.852 -29.972  1.00  0.00     0.039 A 
HETATM   35  C   UNL     1       0.213   6.561 -31.333  1.00  0.00     0.032 A 
BRANCH  33  36
HETATM   36  O   UNL     1      -0.369   7.905 -28.032  1.00  0.00    -0.352 OA
BRANCH  36  37
HETATM   37  C   UNL     1       0.898   7.562 -27.478  1.00  0.00     0.171 C 
HETATM   38  C   UNL     1       1.729   8.809 -27.237  1.00  0.00     0.034 C 
ENDBRANCH  36  37
ENDBRANCH  33  36
ENDBRANCH  27  30
ENDBRANCH   1  26
TORSDOF 7
ENDMDL
MODEL 3
REMARK VINA RESULT:      -9.1      2.156     10.625
REMARK  7 active torsions:
REMARK  status: ('A' for Active; 'I' for Inactive)
REMARK    1  A    between atoms: C_2  and  O_3 
REMARK    2  A    between atoms: O_3  and  C_4 
REMARK    3  A    between atoms: C_7  and  N_8 
REMARK       I    between atoms: N_8  and  C_9 
REMARK    4  A    between atoms: C_9  and  C_10 
REMARK    5  A    between atoms: C_13  and  N_14 
REMARK       I    between atoms: N_14  and  C_15 
REMARK    6  A    between atoms: C_15  and  C_16 
REMARK    7  A    between atoms: C_16  and  N_17 
ROOT
HETATM    1  C   UNL     1      -2.439   5.669 -33.024  1.00  0.00     0.032 A 
HETATM    2  C   UNL     1      -3.715   6.223 -33.158  1.00  0.00     0.019 A 
HETATM    3  C   UNL     1      -4.845   5.387 -33.156  1.00  0.00     0.030 A 
HETATM    4  C   UNL     1      -4.703   4.000 -33.043  1.00  0.00     0.034 A 
HETATM    5  C   UNL     1      -3.420   3.461 -32.878  1.00  0.00     0.030 A 
HETATM    6  C   UNL     1      -2.294   4.286 -32.881  1.00  0.00     0.019 A 
ENDROOT
BRANCH   4   7
HETATM    7  N   UNL     1      -5.761   3.072 -33.144  1.00  0.00    -0.326 N 
HETATM    8  C   UNL     1      -6.499   2.498 -32.117  1.00  0.00     0.240 C 
HETATM    9  O   UNL     1      -6.272   2.603 -30.915  1.00  0.00    -0.271 OA
HETATM   10  H   UNL     1      -6.098   2.914 -34.086  1.00  0.00     0.169 HD
BRANCH   8  11
HETATM   11  C   UNL     1      -7.673   1.664 -32.651  1.00  0.00     0.240 C 
BRANCH  11  12
HETATM   12  N   UNL     1      -7.186   0.518 -33.380  1.00  0.00    -0.259 N 
HETATM   13  C   UNL     1      -7.041   0.500 -34.731  1.00  0.00     0.326 A 
HETATM   14  O   UNL     1      -7.266   1.417 -35.503  1.00  0.00    -0.247 OA
HETATM   15  N   UNL     1      -6.558  -0.731 -35.103  1.00  0.00    -0.324 N 
HETATM   16  C   UNL     1      -6.235  -1.566 -33.965  1.00  0.00     0.116 A 
HETATM   17  H   UNL     1      -6.347  -0.932 -36.073  1.00  0.00     0.165 HD
HETATM   18  C   UNL     1      -4.720  -1.774 -33.854  1.00  0.00     0.041 C 
HETATM   19  C   UNL     1      -7.010  -2.882 -33.976  1.00  0.00     0.041 C 
HETATM   20  C   UNL     1      -6.731  -0.646 -32.830  1.00  0.00     0.256 A 
HETATM   21  C   UNL     1      -4.197  -2.753 -34.908  1.00  0.00     0.007 C 
HETATM   22  C   UNL     1      -4.956  -4.089 -34.917  1.00  0.00    -0.019 C 
HETATM   23  C   UNL     1      -4.593  -4.950 -33.704  1.00  0.00     0.010 C 
HETATM   24  C   UNL     1      -6.470  -3.861 -35.022  1.00  0.00     0.007 C 
HETATM   25  O   UNL     1      -6.664  -0.900 -31.634  1.00  0.00    -0.270 OA
ENDBRANCH  11  12
ENDBRANCH   8  11
ENDBRANCH   4   7
BRANCH   1  26
HETATM   26  C   UNL     1      -1.218   6.449 -33.276  1.00  0.00     0.256 C 
HETATM   27  N   UNL     1      -0.402   6.968 -32.308  1.00  0.00    -0.323 N 
HETATM   28  H   UNL     1       0.288   7.567 -32.749  1.00  0.00     0.169 HD
HETATM   29  O   UNL     1      -0.930   6.673 -34.455  1.00  0.00    -0.267 OA
BRANCH  27  30
HETATM   30  C   UNL     1      -0.221   6.764 -30.933  1.00  0.00     0.035 A 
HETATM   31  C   UNL     1       0.434   5.689 -30.340  1.00  0.00     0.032 A 
HETATM   32  C   UNL     1       0.579   5.625 -28.940  1.00  0.00     0.039 A 
HETATM   33  C   UNL     1       0.083   6.641 -28.125  1.00  0.00     0.068 A 
HETATM   34  C   UNL     1      -0.551   7.728 -28.719  1.00  0.00     0.039 A 
HETATM   35  C   UNL     1      -0.704   7.788 -30.105  1.00  0.00     0.032 A 
BRANCH  33  36
HETATM   36  O   UNL     1       0.160   6.720 -26.765  1.00  0.00    -0.352 OA
BRANCH  36  37
HETATM   37  C   UNL     1       1.222   7.457 -26.166  1.00  0.00     0.171 C 
HETATM   38  C   UNL     1       0.703   8.756 -25.576  1.00  0.00     0.034 C 
ENDBRANCH  36  37
ENDBRANCH  33  36
ENDBRANCH  27  30
ENDBRANCH   1  26
TORSDOF 7
ENDMDL
MODEL 4
REMARK VINA RESULT:      -8.9      1.582      1.909
REMARK  7 active torsions:
REMARK  status: ('A' for Active; 'I' for Inactive)
REMARK    1  A    between atoms: C_2  and  O_3 
REMARK    2  A    between atoms: O_3  and  C_4 
REMARK    3  A    between atoms: C_7  and  N_8 
REMARK       I    between atoms: N_8  and  C_9 
REMARK    4  A    between atoms: C_9  and  C_10 
REMARK    5  A    between atoms: C_13  and  N_14 
REMARK       I    between atoms: N_14  and  C_15 
REMARK    6  A    between atoms: C_15  and  C_16 
REMARK    7  A    between atoms: C_16  and  N_17 
ROOT
HETATM    1  C   UNL     1      -7.999   2.976 -32.618  1.00  0.00     0.032 A 
HETATM    2  C   UNL     1      -7.431   3.301 -31.383  1.00  0.00     0.019 A 
HETATM    3  C   UNL     1      -6.344   4.190 -31.325  1.00  0.00     0.030 A 
HETATM    4  C   UNL     1      -5.810   4.738 -32.496  1.00  0.00     0.034 A 
HETATM    5  C   UNL     1      -6.409   4.428 -33.724  1.00  0.00     0.030 A 
HETATM    6  C   UNL     1      -7.488   3.544 -33.788  1.00  0.00     0.019 A 
ENDROOT
BRANCH   4   7
HETATM    7  N   UNL     1      -4.656   5.547 -32.553  1.00  0.00    -0.326 N 
HETATM    8  C   UNL     1      -4.450   6.790 -31.966  1.00  0.00     0.240 C 
HETATM    9  O   UNL     1      -5.297   7.470 -31.394  1.00  0.00    -0.271 OA
HETATM   10  H   UNL     1      -3.844   5.100 -32.961  1.00  0.00     0.169 HD
BRANCH   8  11
HETATM   11  C   UNL     1      -2.998   7.266 -32.126  1.00  0.00     0.240 C 
BRANCH  11  12
HETATM   12  N   UNL     1      -2.244   6.995 -30.926  1.00  0.00    -0.259 N 
HETATM   13  C   UNL     1      -1.689   5.784 -30.652  1.00  0.00     0.326 A 
HETATM   14  O   UNL     1      -1.717   4.790 -31.358  1.00  0.00    -0.247 OA
HETATM   15  N   UNL     1      -1.044   5.862 -29.442  1.00  0.00    -0.324 N 
HETATM   16  C   UNL     1      -1.040   7.206 -28.903  1.00  0.00     0.116 A 
HETATM   17  H   UNL     1      -0.533   5.069 -29.076  1.00  0.00     0.165 HD
HETATM   18  C   UNL     1       0.376   7.794 -28.913  1.00  0.00     0.041 C 
HETATM   19  C   UNL     1      -1.695   7.278 -27.525  1.00  0.00     0.041 C 
HETATM   20  C   UNL     1      -1.915   7.906 -29.965  1.00  0.00     0.256 A 
HETATM   21  C   UNL     1       1.255   7.192 -27.814  1.00  0.00     0.007 C 
HETATM   22  C   UNL     1       0.615   7.274 -26.420  1.00  0.00    -0.019 C 
HETATM   23  C   UNL     1       0.635   8.705 -25.876  1.00  0.00     0.010 C 
HETATM   24  C   UNL     1      -0.804   6.688 -26.430  1.00  0.00     0.007 C 
HETATM   25  O   UNL     1      -2.204   9.095 -29.969  1.00  0.00    -0.270 OA
ENDBRANCH  11  12
ENDBRANCH   8  11
ENDBRANCH   4   7
BRANCH   1  26
HETATM   26  C   UNL     1      -8.954   1.867 -32.771  1.00  0.00     0.256 C 
HETATM   27  N   UNL     1      -8.633   0.605 -33.191  1.00  0.00    -0.323 N 
HETATM   28  H   UNL     1      -9.490   0.081 -33.333  1.00  0.00     0.169 HD
HETATM   29  O   UNL     1     -10.139   2.112 -32.529  1.00  0.00    -0.267 OA
BRANCH  27  30
HETATM   30  C   UNL     1      -7.451  -0.137 -33.328  1.00  0.00     0.035 A 
HETATM   31  C   UNL     1      -6.421  -0.223 -32.397  1.00  0.00     0.032 A 
HETATM   32  C   UNL     1      -5.300  -1.038 -32.645  1.00  0.00     0.039 A 
HETATM   33  C   UNL     1      -5.207  -1.784 -33.820  1.00  0.00     0.068 A 
HETATM   34  C   UNL     1      -6.248  -1.717 -34.740  1.00  0.00     0.039 A 
HETATM   35  C   UNL     1      -7.355  -0.901 -34.501  1.00  0.00     0.032 A 
BRANCH  33  36
HETATM   36  O   UNL     1      -4.195  -2.621 -34.188  1.00  0.00    -0.352 OA
BRANCH  36  37
HETATM   37  C   UNL     1      -3.657  -3.532 -33.233  1.00  0.00     0.171 C 
HETATM   38  C   UNL     1      -3.832  -4.964 -33.706  1.00  0.00     0.034 C 
ENDBRANCH  36  37
ENDBRANCH  33  36
ENDBRANCH  27  30
ENDBRANCH   1  26
TORSDOF 7
ENDMDL
MODEL 5
REMARK VINA RESULT:      -8.7      2.996     10.529
REMARK  7 active torsions:
REMARK  status: ('A' for Active; 'I' for Inactive)
REMARK    1  A    between atoms: C_2  and  O_3 
REMARK    2  A    between atoms: O_3  and  C_4 
REMARK    3  A    between atoms: C_7  and  N_8 
REMARK       I    between atoms: N_8  and  C_9 
REMARK    4  A    between atoms: C_9  and  C_10 
REMARK    5  A    between atoms: C_13  and  N_14 
REMARK       I    between atoms: N_14  and  C_15 
REMARK    6  A    between atoms: C_15  and  C_16 
REMARK    7  A    between atoms: C_16  and  N_17 
ROOT
HETATM    1  C   UNL     1      -2.423   4.978 -33.795  1.00  0.00     0.032 A 
HETATM    2  C   UNL     1      -2.324   4.121 -32.696  1.00  0.00     0.019 A 
HETATM    3  C   UNL     1      -3.479   3.506 -32.182  1.00  0.00     0.030 A 
HETATM    4  C   UNL     1      -4.732   3.760 -32.749  1.00  0.00     0.034 A 
HETATM    5  C   UNL     1      -4.812   4.596 -33.871  1.00  0.00     0.030 A 
HETATM    6  C   UNL     1      -3.669   5.212 -34.383  1.00  0.00     0.019 A 
ENDROOT
BRANCH   4   7
HETATM    7  N   UNL     1      -5.958   3.283 -32.239  1.00  0.00    -0.326 N 
HETATM    8  C   UNL     1      -6.458   1.987 -32.281  1.00  0.00     0.240 C 
HETATM    9  O   UNL     1      -5.969   1.042 -32.892  1.00  0.00    -0.271 OA
HETATM   10  H   UNL     1      -6.464   3.944 -31.662  1.00  0.00     0.169 HD
BRANCH   8  11
HETATM   11  C   UNL     1      -7.753   1.846 -31.466  1.00  0.00     0.240 C 
BRANCH  11  12
HETATM   12  N   UNL     1      -8.903   2.097 -32.301  1.00  0.00    -0.259 N 
HETATM   13  C   UNL     1      -9.733   1.115 -32.742  1.00  0.00     0.326 A 
HETATM   14  O   UNL     1      -9.655  -0.076 -32.491  1.00  0.00    -0.247 OA
HETATM   15  N   UNL     1     -10.721   1.687 -33.506  1.00  0.00    -0.324 N 
HETATM   16  C   UNL     1     -10.654   3.133 -33.503  1.00  0.00     0.116 A 
HETATM   17  H   UNL     1     -11.463   1.122 -33.899  1.00  0.00     0.165 HD
HETATM   18  C   UNL     1     -11.849   3.732 -32.752  1.00  0.00     0.041 C 
HETATM   19  C   UNL     1     -10.499   3.708 -34.910  1.00  0.00     0.041 C 
HETATM   20  C   UNL     1      -9.360   3.324 -32.685  1.00  0.00     0.256 A 
HETATM   21  C   UNL     1     -13.141   3.646 -33.566  1.00  0.00     0.007 C 
HETATM   22  C   UNL     1     -13.004   4.236 -34.977  1.00  0.00    -0.019 C 
HETATM   23  C   UNL     1     -12.938   5.765 -34.942  1.00  0.00     0.010 C 
HETATM   24  C   UNL     1     -11.800   3.631 -35.713  1.00  0.00     0.007 C 
HETATM   25  O   UNL     1      -8.869   4.404 -32.382  1.00  0.00    -0.270 OA
ENDBRANCH  11  12
ENDBRANCH   8  11
ENDBRANCH   4   7
BRANCH   1  26
HETATM   26  C   UNL     1      -1.310   5.845 -34.213  1.00  0.00     0.256 C 
HETATM   27  N   UNL     1      -0.701   6.779 -33.420  1.00  0.00    -0.323 N 
HETATM   28  H   UNL     1      -0.061   7.322 -33.989  1.00  0.00     0.169 HD
HETATM   29  O   UNL     1      -0.923   5.736 -35.379  1.00  0.00    -0.267 OA
BRANCH  27  30
HETATM   30  C   UNL     1      -0.654   7.053 -32.046  1.00  0.00     0.035 A 
HETATM   31  C   UNL     1       0.376   6.715 -31.174  1.00  0.00     0.032 A 
HETATM   32  C   UNL     1       0.314   7.084 -29.816  1.00  0.00     0.039 A 
HETATM   33  C   UNL     1      -0.773   7.805 -29.323  1.00  0.00     0.068 A 
HETATM   34  C   UNL     1      -1.792   8.164 -30.200  1.00  0.00     0.039 A 
HETATM   35  C   UNL     1      -1.737   7.790 -31.544  1.00  0.00     0.032 A 
BRANCH  33  36
HETATM   36  O   UNL     1      -0.963   8.241 -28.044  1.00  0.00    -0.352 OA
BRANCH  36  37
HETATM   37  C   UNL     1      -1.754   7.462 -27.150  1.00  0.00     0.171 C 
HETATM   38  C   UNL     1      -0.889   6.458 -26.411  1.00  0.00     0.034 C 
ENDBRANCH  36  37
ENDBRANCH  33  36
ENDBRANCH  27  30
ENDBRANCH   1  26
TORSDOF 7
ENDMDL
MODEL 6
REMARK VINA RESULT:      -8.5      2.863     10.484
REMARK  7 active torsions:
REMARK  status: ('A' for Active; 'I' for Inactive)
REMARK    1  A    between atoms: C_2  and  O_3 
REMARK    2  A    between atoms: O_3  and  C_4 
REMARK    3  A    between atoms: C_7  and  N_8 
REMARK       I    between atoms: N_8  and  C_9 
REMARK    4  A    between atoms: C_9  and  C_10 
REMARK    5  A    between atoms: C_13  and  N_14 
REMARK       I    between atoms: N_14  and  C_15 
REMARK    6  A    between atoms: C_15  and  C_16 
REMARK    7  A    between atoms: C_16  and  N_17 
ROOT
HETATM    1  C   UNL     1      -2.419   4.897 -33.624  1.00  0.00     0.032 A 
HETATM    2  C   UNL     1      -2.204   4.072 -32.517  1.00  0.00     0.019 A 
HETATM    3  C   UNL     1      -3.269   3.326 -31.982  1.00  0.00     0.030 A 
HETATM    4  C   UNL     1      -4.551   3.420 -32.535  1.00  0.00     0.034 A 
HETATM    5  C   UNL     1      -4.745   4.228 -33.663  1.00  0.00     0.030 A 
HETATM    6  C   UNL     1      -3.691   4.971 -34.198  1.00  0.00     0.019 A 
ENDROOT
BRANCH   4   7
HETATM    7  N   UNL     1      -5.703   2.804 -32.004  1.00  0.00    -0.326 N 
HETATM    8  C   UNL     1      -6.092   1.474 -32.112  1.00  0.00     0.240 C 
HETATM    9  O   UNL     1      -5.556   0.618 -32.809  1.00  0.00    -0.271 OA
HETATM   10  H   UNL     1      -6.233   3.379 -31.360  1.00  0.00     0.169 HD
BRANCH   8  11
HETATM   11  C   UNL     1      -7.326   1.165 -31.252  1.00  0.00     0.240 C 
BRANCH  11  12
HETATM   12  N   UNL     1      -8.488   1.841 -31.777  1.00  0.00    -0.259 N 
HETATM   13  C   UNL     1      -9.124   2.848 -31.121  1.00  0.00     0.326 A 
HETATM   14  O   UNL     1      -8.812   3.334 -30.047  1.00  0.00    -0.247 OA
HETATM   15  N   UNL     1     -10.182   3.271 -31.889  1.00  0.00    -0.324 N 
HETATM   16  C   UNL     1     -10.219   2.624 -33.183  1.00  0.00     0.116 A 
HETATM   17  H   UNL     1     -10.762   4.043 -31.589  1.00  0.00     0.165 HD
HETATM   18  C   UNL     1      -9.903   3.623 -34.302  1.00  0.00     0.041 C 
HETATM   19  C   UNL     1     -11.530   1.875 -33.418  1.00  0.00     0.041 C 
HETATM   20  C   UNL     1      -9.046   1.636 -33.005  1.00  0.00     0.256 A 
HETATM   21  C   UNL     1     -11.076   4.567 -34.576  1.00  0.00     0.007 C 
HETATM   22  C   UNL     1     -12.397   3.827 -34.832  1.00  0.00    -0.019 C 
HETATM   23  C   UNL     1     -12.407   3.155 -36.207  1.00  0.00     0.010 C 
HETATM   24  C   UNL     1     -12.694   2.826 -33.707  1.00  0.00     0.007 C 
HETATM   25  O   UNL     1      -8.650   0.849 -33.854  1.00  0.00    -0.270 OA
ENDBRANCH  11  12
ENDBRANCH   8  11
ENDBRANCH   4   7
BRANCH   1  26
HETATM   26  C   UNL     1      -1.425   5.888 -34.065  1.00  0.00     0.256 C 
HETATM   27  N   UNL     1      -0.816   6.806 -33.253  1.00  0.00    -0.323 N 
HETATM   28  H   UNL     1      -0.281   7.446 -33.829  1.00  0.00     0.169 HD
HETATM   29  O   UNL     1      -1.147   5.905 -35.267  1.00  0.00    -0.267 OA
BRANCH  27  30
HETATM   30  C   UNL     1      -0.657   6.974 -31.870  1.00  0.00     0.035 A 
HETATM   31  C   UNL     1       0.379   6.464 -31.094  1.00  0.00     0.032 A 
HETATM   32  C   UNL     1       0.441   6.740 -29.714  1.00  0.00     0.039 A 
HETATM   33  C   UNL     1      -0.525   7.538 -29.104  1.00  0.00     0.068 A 
HETATM   34  C   UNL     1      -1.548   8.068 -29.884  1.00  0.00     0.039 A 
HETATM   35  C   UNL     1      -1.616   7.788 -31.250  1.00  0.00     0.032 A 
BRANCH  33  36
HETATM   36  O   UNL     1      -0.588   7.899 -27.789  1.00  0.00    -0.352 OA
BRANCH  36  37
HETATM   37  C   UNL     1       0.272   7.263 -26.847  1.00  0.00     0.171 C 
HETATM   38  C   UNL     1       1.581   8.020 -26.724  1.00  0.00     0.034 C 
ENDBRANCH  36  37
ENDBRANCH  33  36
ENDBRANCH  27  30
ENDBRANCH   1  26
TORSDOF 7
ENDMDL
MODEL 7
REMARK VINA RESULT:      -8.5      4.058     12.441
REMARK  7 active torsions:
REMARK  status: ('A' for Active; 'I' for Inactive)
REMARK    1  A    between atoms: C_2  and  O_3 
REMARK    2  A    between atoms: O_3  and  C_4 
REMARK    3  A    between atoms: C_7  and  N_8 
REMARK       I    between atoms: N_8  and  C_9 
REMARK    4  A    between atoms: C_9  and  C_10 
REMARK    5  A    between atoms: C_13  and  N_14 
REMARK       I    between atoms: N_14  and  C_15 
REMARK    6  A    between atoms: C_15  and  C_16 
REMARK    7  A    between atoms: C_16  and  N_17 
ROOT
HETATM    1  C   UNL     1       1.253   9.353 -25.305  1.00  0.00     0.032 A 
HETATM    2  C   UNL     1       1.806   8.090 -25.528  1.00  0.00     0.019 A 
HETATM    3  C   UNL     1       1.741   7.514 -26.809  1.00  0.00     0.030 A 
HETATM    4  C   UNL     1       1.107   8.187 -27.859  1.00  0.00     0.034 A 
HETATM    5  C   UNL     1       0.585   9.466 -27.628  1.00  0.00     0.030 A 
HETATM    6  C   UNL     1       0.645  10.042 -26.358  1.00  0.00     0.019 A 
ENDROOT
BRANCH   4   7
HETATM    7  N   UNL     1       0.891   7.648 -29.145  1.00  0.00    -0.326 N 
HETATM    8  C   UNL     1      -0.272   7.079 -29.652  1.00  0.00     0.240 C 
HETATM    9  O   UNL     1      -1.290   6.826 -29.016  1.00  0.00    -0.271 OA
HETATM   10  H   UNL     1       1.635   7.823 -29.810  1.00  0.00     0.169 HD
BRANCH   8  11
HETATM   11  C   UNL     1      -0.150   6.764 -31.150  1.00  0.00     0.240 C 
BRANCH  11  12
HETATM   12  N   UNL     1      -1.453   6.533 -31.724  1.00  0.00    -0.259 N 
HETATM   13  C   UNL     1      -2.186   7.507 -32.326  1.00  0.00     0.326 A 
HETATM   14  O   UNL     1      -1.861   8.671 -32.490  1.00  0.00    -0.247 OA
HETATM   15  N   UNL     1      -3.367   6.959 -32.763  1.00  0.00    -0.324 N 
HETATM   16  C   UNL     1      -3.416   5.525 -32.572  1.00  0.00     0.116 A 
HETATM   17  H   UNL     1      -4.040   7.519 -33.272  1.00  0.00     0.165 HD
HETATM   18  C   UNL     1      -3.380   4.794 -33.919  1.00  0.00     0.041 C 
HETATM   19  C   UNL     1      -4.597   5.097 -31.703  1.00  0.00     0.041 C 
HETATM   20  C   UNL     1      -2.081   5.326 -31.822  1.00  0.00     0.256 A 
HETATM   21  C   UNL     1      -4.717   4.889 -34.658  1.00  0.00     0.007 C 
HETATM   22  C   UNL     1      -5.911   4.444 -33.802  1.00  0.00    -0.019 C 
HETATM   23  C   UNL     1      -5.937   2.924 -33.619  1.00  0.00     0.010 C 
HETATM   24  C   UNL     1      -5.927   5.180 -32.455  1.00  0.00     0.007 C 
HETATM   25  O   UNL     1      -1.639   4.250 -31.441  1.00  0.00    -0.270 OA
ENDBRANCH  11  12
ENDBRANCH   8  11
ENDBRANCH   4   7
BRANCH   1  26
HETATM   26  C   UNL     1       1.058   9.893 -23.950  1.00  0.00     0.256 C 
HETATM   27  N   UNL     1       1.899   9.683 -22.891  1.00  0.00    -0.323 N 
HETATM   28  H   UNL     1       1.466  10.053 -22.052  1.00  0.00     0.169 HD
HETATM   29  O   UNL     1       0.040  10.561 -23.754  1.00  0.00    -0.267 OA
BRANCH  27  30
HETATM   30  C   UNL     1       3.214   9.223 -22.729  1.00  0.00     0.035 A 
HETATM   31  C   UNL     1       4.341   9.709 -23.384  1.00  0.00     0.032 A 
HETATM   32  C   UNL     1       5.616   9.180 -23.100  1.00  0.00     0.039 A 
HETATM   33  C   UNL     1       5.774   8.172 -22.150  1.00  0.00     0.068 A 
HETATM   34  C   UNL     1       4.649   7.703 -21.478  1.00  0.00     0.039 A 
HETATM   35  C   UNL     1       3.385   8.218 -21.765  1.00  0.00     0.032 A 
BRANCH  33  36
HETATM   36  O   UNL     1       6.939   7.577 -21.764  1.00  0.00    -0.352 OA
BRANCH  36  37
HETATM   37  C   UNL     1       7.696   6.837 -22.717  1.00  0.00     0.171 C 
HETATM   38  C   UNL     1       7.080   5.468 -22.941  1.00  0.00     0.034 C 
ENDBRANCH  36  37
ENDBRANCH  33  36
ENDBRANCH  27  30
ENDBRANCH   1  26
TORSDOF 7
ENDMDL
MODEL 8
REMARK VINA RESULT:      -8.3      2.712      4.124
REMARK  7 active torsions:
REMARK  status: ('A' for Active; 'I' for Inactive)
REMARK    1  A    between atoms: C_2  and  O_3 
REMARK    2  A    between atoms: O_3  and  C_4 
REMARK    3  A    between atoms: C_7  and  N_8 
REMARK       I    between atoms: N_8  and  C_9 
REMARK    4  A    between atoms: C_9  and  C_10 
REMARK    5  A    between atoms: C_13  and  N_14 
REMARK       I    between atoms: N_14  and  C_15 
REMARK    6  A    between atoms: C_15  and  C_16 
REMARK    7  A    between atoms: C_16  and  N_17 
ROOT
HETATM    1  C   UNL     1      -9.543   3.991 -33.682  1.00  0.00     0.032 A 
HETATM    2  C   UNL     1     -10.016   4.312 -32.407  1.00  0.00     0.019 A 
HETATM    3  C   UNL     1      -9.263   5.158 -31.574  1.00  0.00     0.030 A 
HETATM    4  C   UNL     1      -8.031   5.664 -32.002  1.00  0.00     0.034 A 
HETATM    5  C   UNL     1      -7.584   5.359 -33.294  1.00  0.00     0.030 A 
HETATM    6  C   UNL     1      -8.327   4.518 -34.125  1.00  0.00     0.019 A 
ENDROOT
BRANCH   4   7
HETATM    7  N   UNL     1      -7.152   6.424 -31.202  1.00  0.00    -0.326 N 
HETATM    8  C   UNL     1      -6.882   7.785 -31.280  1.00  0.00     0.240 C 
HETATM    9  O   UNL     1      -7.270   8.551 -32.157  1.00  0.00    -0.271 OA
HETATM   10  H   UNL     1      -6.781   5.935 -30.396  1.00  0.00     0.169 HD
BRANCH   8  11
HETATM   11  C   UNL     1      -5.991   8.260 -30.122  1.00  0.00     0.240 C 
BRANCH  11  12
HETATM   12  N   UNL     1      -4.598   8.151 -30.481  1.00  0.00    -0.259 N 
HETATM   13  C   UNL     1      -3.852   9.205 -30.905  1.00  0.00     0.326 A 
HETATM   14  O   UNL     1      -4.220  10.362 -31.020  1.00  0.00    -0.247 OA
HETATM   15  N   UNL     1      -2.576   8.765 -31.160  1.00  0.00    -0.324 N 
HETATM   16  C   UNL     1      -2.384   7.380 -30.786  1.00  0.00     0.116 A 
HETATM   17  H   UNL     1      -1.855   9.412 -31.454  1.00  0.00     0.165 HD
HETATM   18  C   UNL     1      -1.440   7.266 -29.583  1.00  0.00     0.041 C 
HETATM   19  C   UNL     1      -1.937   6.519 -31.966  1.00  0.00     0.041 C 
HETATM   20  C   UNL     1      -3.827   7.030 -30.366  1.00  0.00     0.256 A 
HETATM   21  C   UNL     1       0.018   7.516 -29.973  1.00  0.00     0.007 C 
HETATM   22  C   UNL     1       0.486   6.644 -31.147  1.00  0.00    -0.019 C 
HETATM   23  C   UNL     1       0.682   5.187 -30.721  1.00  0.00     0.010 C 
HETATM   24  C   UNL     1      -0.473   6.765 -32.339  1.00  0.00     0.007 C 
HETATM   25  O   UNL     1      -4.195   5.943 -29.941  1.00  0.00    -0.270 OA
ENDBRANCH  11  12
ENDBRANCH   8  11
ENDBRANCH   4   7
BRANCH   1  26
HETATM   26  C   UNL     1     -10.145   2.919 -34.491  1.00  0.00     0.256 C 
HETATM   27  N   UNL     1      -9.571   1.702 -34.737  1.00  0.00    -0.323 N 
HETATM   28  H   UNL     1     -10.131   1.209 -35.424  1.00  0.00     0.169 HD
HETATM   29  O   UNL     1     -11.239   3.157 -35.010  1.00  0.00    -0.267 OA
BRANCH  27  30
HETATM   30  C   UNL     1      -8.518   0.959 -34.184  1.00  0.00     0.035 A 
HETATM   31  C   UNL     1      -8.269   0.769 -32.829  1.00  0.00     0.032 A 
HETATM   32  C   UNL     1      -7.193  -0.035 -32.406  1.00  0.00     0.039 A 
HETATM   33  C   UNL     1      -6.368  -0.667 -33.335  1.00  0.00     0.068 A 
HETATM   34  C   UNL     1      -6.632  -0.498 -34.691  1.00  0.00     0.039 A 
HETATM   35  C   UNL     1      -7.691   0.308 -35.111  1.00  0.00     0.032 A 
BRANCH  33  36
HETATM   36  O   UNL     1      -5.304  -1.481 -33.075  1.00  0.00    -0.352 OA
BRANCH  36  37
HETATM   37  C   UNL     1      -4.010  -1.113 -33.545  1.00  0.00     0.171 C 
HETATM   38  C   UNL     1      -3.413  -0.029 -32.666  1.00  0.00     0.034 C 
ENDBRANCH  36  37
ENDBRANCH  33  36
ENDBRANCH  27  30
ENDBRANCH   1  26
TORSDOF 7
ENDMDL
MODEL 9
REMARK VINA RESULT:      -8.1      3.237      4.563
REMARK  7 active torsions:
REMARK  status: ('A' for Active; 'I' for Inactive)
REMARK    1  A    between atoms: C_2  and  O_3 
REMARK    2  A    between atoms: O_3  and  C_4 
REMARK    3  A    between atoms: C_7  and  N_8 
REMARK       I    between atoms: N_8  and  C_9 
REMARK    4  A    between atoms: C_9  and  C_10 
REMARK    5  A    between atoms: C_13  and  N_14 
REMARK       I    between atoms: N_14  and  C_15 
REMARK    6  A    between atoms: C_15  and  C_16 
REMARK    7  A    between atoms: C_16  and  N_17 
ROOT
HETATM    1  C   UNL     1     -10.201   3.163 -33.417  1.00  0.00     0.032 A 
HETATM    2  C   UNL     1     -10.480   3.154 -32.048  1.00  0.00     0.019 A 
HETATM    3  C   UNL     1      -9.867   4.095 -31.203  1.00  0.00     0.030 A 
HETATM    4  C   UNL     1      -8.961   5.029 -31.716  1.00  0.00     0.034 A 
HETATM    5  C   UNL     1      -8.714   5.047 -33.096  1.00  0.00     0.030 A 
HETATM    6  C   UNL     1      -9.319   4.113 -33.940  1.00  0.00     0.019 A 
ENDROOT
BRANCH   4   7
HETATM    7  N   UNL     1      -8.211   5.935 -30.938  1.00  0.00    -0.326 N 
HETATM    8  C   UNL     1      -7.487   5.677 -29.780  1.00  0.00     0.240 C 
HETATM    9  O   UNL     1      -7.479   4.623 -29.152  1.00  0.00    -0.271 OA
HETATM   10  H   UNL     1      -8.085   6.850 -31.355  1.00  0.00     0.169 HD
BRANCH   8  11
HETATM   11  C   UNL     1      -6.674   6.899 -29.328  1.00  0.00     0.240 C 
BRANCH  11  12
HETATM   12  N   UNL     1      -5.312   6.798 -29.795  1.00  0.00    -0.259 N 
HETATM   13  C   UNL     1      -4.250   6.623 -28.965  1.00  0.00     0.326 A 
HETATM   14  O   UNL     1      -4.282   6.502 -27.751  1.00  0.00    -0.247 OA
HETATM   15  N   UNL     1      -3.106   6.566 -29.723  1.00  0.00    -0.324 N 
HETATM   16  C   UNL     1      -3.384   6.580 -31.144  1.00  0.00     0.116 A 
HETATM   17  H   UNL     1      -2.206   6.403 -29.290  1.00  0.00     0.165 HD
HETATM   18  C   UNL     1      -3.043   5.227 -31.779  1.00  0.00     0.041 C 
HETATM   19  C   UNL     1      -2.704   7.750 -31.854  1.00  0.00     0.041 C 
HETATM   20  C   UNL     1      -4.913   6.778 -31.100  1.00  0.00     0.256 A 
HETATM   21  C   UNL     1      -1.533   5.027 -31.926  1.00  0.00     0.007 C 
HETATM   22  C   UNL     1      -0.839   6.187 -32.654  1.00  0.00    -0.019 C 
HETATM   23  C   UNL     1      -1.149   6.174 -34.154  1.00  0.00     0.010 C 
HETATM   24  C   UNL     1      -1.197   7.534 -32.010  1.00  0.00     0.007 C 
HETATM   25  O   UNL     1      -5.646   6.840 -32.079  1.00  0.00    -0.270 OA
ENDBRANCH  11  12
ENDBRANCH   8  11
ENDBRANCH   4   7
BRANCH   1  26
HETATM   26  C   UNL     1     -10.600   2.059 -34.304  1.00  0.00     0.256 C 
HETATM   27  N   UNL     1      -9.802   1.003 -34.653  1.00  0.00    -0.323 N 
HETATM   28  H   UNL     1     -10.272   0.463 -35.371  1.00  0.00     0.169 HD
HETATM   29  O   UNL     1     -11.733   2.112 -34.789  1.00  0.00    -0.267 OA
BRANCH  27  30
HETATM   30  C   UNL     1      -8.609   0.445 -34.174  1.00  0.00     0.035 A 
HETATM   31  C   UNL     1      -8.275   0.240 -32.839  1.00  0.00     0.032 A 
HETATM   32  C   UNL     1      -7.052  -0.368 -32.493  1.00  0.00     0.039 A 
HETATM   33  C   UNL     1      -6.161  -0.786 -33.480  1.00  0.00     0.068 A 
HETATM   34  C   UNL     1      -6.505  -0.603 -34.816  1.00  0.00     0.039 A 
HETATM   35  C   UNL     1      -7.712   0.009 -35.160  1.00  0.00     0.032 A 
BRANCH  33  36
HETATM   36  O   UNL     1      -4.954  -1.397 -33.298  1.00  0.00    -0.352 OA
BRANCH  36  37
HETATM   37  C   UNL     1      -4.120  -0.990 -32.217  1.00  0.00     0.171 C 
HETATM   38  C   UNL     1      -3.488   0.358 -32.510  1.00  0.00     0.034 C 
ENDBRANCH  36  37
ENDBRANCH  33  36
ENDBRANCH  27  30
ENDBRANCH   1  26
TORSDOF 7
ENDMDL
MODEL 10
REMARK VINA RESULT:      -8.1      2.251     10.536
REMARK  7 active torsions:
REMARK  status: ('A' for Active; 'I' for Inactive)
REMARK    1  A    between atoms: C_2  and  O_3 
REMARK    2  A    between atoms: O_3  and  C_4 
REMARK    3  A    between atoms: C_7  and  N_8 
REMARK       I    between atoms: N_8  and  C_9 
REMARK    4  A    between atoms: C_9  and  C_10 
REMARK    5  A    between atoms: C_13  and  N_14 
REMARK       I    between atoms: N_14  and  C_15 
REMARK    6  A    between atoms: C_15  and  C_16 
REMARK    7  A    between atoms: C_16  and  N_17 
ROOT
HETATM    1  C   UNL     1      -2.663   5.369 -33.495  1.00  0.00     0.032 A 
HETATM    2  C   UNL     1      -3.809   6.035 -33.938  1.00  0.00     0.019 A 
HETATM    3  C   UNL     1      -5.067   5.422 -33.813  1.00  0.00     0.030 A 
HETATM    4  C   UNL     1      -5.182   4.139 -33.267  1.00  0.00     0.034 A 
HETATM    5  C   UNL     1      -4.029   3.496 -32.798  1.00  0.00     0.030 A 
HETATM    6  C   UNL     1      -2.776   4.099 -32.922  1.00  0.00     0.019 A 
ENDROOT
BRANCH   4   7
HETATM    7  N   UNL     1      -6.379   3.396 -33.203  1.00  0.00    -0.326 N 
HETATM    8  C   UNL     1      -7.626   3.731 -33.719  1.00  0.00     0.240 C 
HETATM    9  O   UNL     1      -7.937   4.809 -34.216  1.00  0.00    -0.271 OA
HETATM   10  H   UNL     1      -6.274   2.450 -32.854  1.00  0.00     0.169 HD
BRANCH   8  11
HETATM   11  C   UNL     1      -8.631   2.578 -33.583  1.00  0.00     0.240 C 
BRANCH  11  12
HETATM   12  N   UNL     1      -7.939   1.317 -33.466  1.00  0.00    -0.259 N 
HETATM   13  C   UNL     1      -8.052   0.503 -32.384  1.00  0.00     0.326 A 
HETATM   14  O   UNL     1      -8.743   0.690 -31.396  1.00  0.00    -0.247 OA
HETATM   15  N   UNL     1      -7.272  -0.609 -32.589  1.00  0.00    -0.324 N 
HETATM   16  C   UNL     1      -6.688  -0.637 -33.914  1.00  0.00     0.116 A 
HETATM   17  H   UNL     1      -7.249  -1.357 -31.908  1.00  0.00     0.165 HD
HETATM   18  C   UNL     1      -7.300  -1.762 -34.756  1.00  0.00     0.041 C 
HETATM   19  C   UNL     1      -5.162  -0.700 -33.871  1.00  0.00     0.041 C 
HETATM   20  C   UNL     1      -7.167   0.736 -34.430  1.00  0.00     0.256 A 
HETATM   21  C   UNL     1      -6.781  -3.140 -34.337  1.00  0.00     0.007 C 
HETATM   22  C   UNL     1      -5.248  -3.222 -34.307  1.00  0.00    -0.019 C 
HETATM   23  C   UNL     1      -4.660  -3.252 -35.720  1.00  0.00     0.010 C 
HETATM   24  C   UNL     1      -4.652  -2.085 -33.466  1.00  0.00     0.007 C 
HETATM   25  O   UNL     1      -6.940   1.191 -35.544  1.00  0.00    -0.270 OA
ENDBRANCH  11  12
ENDBRANCH   8  11
ENDBRANCH   4   7
BRANCH   1  26
HETATM   26  C   UNL     1      -1.309   5.836 -33.829  1.00  0.00     0.256 C 
HETATM   27  N   UNL     1      -0.533   6.635 -33.033  1.00  0.00    -0.323 N 
HETATM   28  H   UNL     1       0.292   6.912 -33.554  1.00  0.00     0.169 HD
HETATM   29  O   UNL     1      -0.857   5.502 -34.927  1.00  0.00    -0.267 OA
BRANCH  27  30
HETATM   30  C   UNL     1      -0.545   7.024 -31.686  1.00  0.00     0.035 A 
HETATM   31  C   UNL     1       0.403   6.689 -30.725  1.00  0.00     0.032 A 
HETATM   32  C   UNL     1       0.291   7.180 -29.409  1.00  0.00     0.039 A 
HETATM   33  C   UNL     1      -0.761   8.020 -29.050  1.00  0.00     0.068 A 
HETATM   34  C   UNL     1      -1.696   8.375 -30.018  1.00  0.00     0.039 A 
HETATM   35  C   UNL     1      -1.593   7.881 -31.319  1.00  0.00     0.032 A 
BRANCH  33  36
HETATM   36  O   UNL     1      -0.990   8.580 -27.827  1.00  0.00    -0.352 OA
BRANCH  36  37
HETATM   37  C   UNL     1      -0.324   9.788 -27.474  1.00  0.00     0.171 C 
HETATM   38  C   UNL     1      -0.275   9.949 -25.965  1.00  0.00     0.034 C 
ENDBRANCH  36  37
ENDBRANCH  33  36
ENDBRANCH  27  30
ENDBRANCH   1  26
TORSDOF 7
ENDMDL
