MODEL 1
REMARK VINA RESULT:      -7.7      0.000      0.000
REMARK  8 active torsions:
REMARK  status: ('A' for Active; 'I' for Inactive)
REMARK    1  A    between atoms: C_2  and  O_3 
REMARK    2  A    between atoms: O_3  and  C_4 
REMARK       I    between atoms: C_4  and  N_5 
REMARK    3  A    between atoms: C_8  and  N_9 
REMARK       I    between atoms: N_9  and  C_10 
REMARK    4  A    between atoms: C_10  and  C_11 
REMARK    5  A    between atoms: C_12  and  C_13 
REMARK    6  A    between atoms: N_18  and  C_19 
REMARK    7  A    between atoms: C_19  and  C_20 
REMARK    8  A    between atoms: C_20  and  O_21 
ROOT
HETATM    1  C   UNL     1      -5.809   3.495 -32.843  1.00  0.00     0.139 C 
HETATM    2  C   UNL     1      -4.914   4.358 -31.931  1.00  0.00     0.145 C 
HETATM    3  N   UNL     1      -3.688   3.599 -31.648  1.00  0.00    -0.335 N 
HETATM    4  C   UNL     1      -3.758   2.247 -31.312  1.00  0.00     0.255 C 
HETATM    5  O   UNL     1      -2.771   1.563 -31.065  1.00  0.00    -0.267 OA
HETATM    6  C   UNL     1      -5.112   1.611 -31.357  1.00  0.00     0.039 A 
HETATM    7  C   UNL     1      -6.142   2.194 -32.133  1.00  0.00    -0.027 A 
HETATM    8  C   UNL     1      -5.318   0.402 -30.688  1.00  0.00     0.017 A 
HETATM    9  C   UNL     1      -6.553  -0.236 -30.778  1.00  0.00     0.001 A 
HETATM   10  C   UNL     1      -7.569   0.320 -31.555  1.00  0.00     0.001 A 
HETATM   11  C   UNL     1      -7.364   1.522 -32.242  1.00  0.00     0.009 A 
ENDROOT
BRANCH   1  12
HETATM   12  C   UNL     1      -6.907   4.366 -33.432  1.00  0.00     0.229 C 
HETATM   13  N   UNL     1      -8.162   4.020 -32.962  1.00  0.00    -0.356 N 
HETATM   14  H   UNL     1      -8.208   3.310 -32.234  1.00  0.00     0.162 HD
HETATM   15  O   UNL     1      -6.716   5.254 -34.252  1.00  0.00    -0.273 OA
BRANCH  13  16
HETATM   16  C   UNL     1      -9.447   4.547 -33.416  1.00  0.00     0.087 C 
HETATM   17  C   UNL     1     -10.064   3.801 -34.602  1.00  0.00     0.045 C 
HETATM   18  C   UNL     1     -11.061   2.711 -34.227  1.00  0.00     0.130 C 
HETATM   19  N   UNL     1     -11.991   3.149 -33.194  1.00  0.00    -0.328 N 
HETATM   20  C   UNL     1     -13.287   2.653 -33.114  1.00  0.00     0.362 C 
HETATM   21  C   UNL     1     -11.390   3.681 -31.981  1.00  0.00     0.130 C 
HETATM   22  O   UNL     1     -14.015   2.792 -32.138  1.00  0.00    -0.238 OA
HETATM   23  C   UNL     1     -10.435   4.827 -32.281  1.00  0.00     0.045 C 
BRANCH  20  24
HETATM   24  O   UNL     1     -13.672   2.012 -34.253  1.00  0.00    -0.304 OA
BRANCH  24  25
HETATM   25  C   UNL     1     -14.355   0.764 -34.071  1.00  0.00     0.176 C 
HETATM   26  C   UNL     1     -13.381  -0.322 -33.656  1.00  0.00     0.034 C 
ENDBRANCH  24  25
ENDBRANCH  20  24
ENDBRANCH  13  16
ENDBRANCH   1  12
BRANCH   2  27
HETATM   27  C   UNL     1      -5.525   4.838 -30.613  1.00  0.00     0.006 A 
HETATM   28  S   UNL     1      -4.907   6.277 -29.879  1.00  0.00    -0.104 SA
HETATM   29  C   UNL     1      -5.996   6.175 -28.571  1.00  0.00     0.050 A 
HETATM   30  C   UNL     1      -6.845   5.101 -28.690  1.00  0.00     0.008 A 
HETATM   31  C   UNL     1      -6.580   4.339 -29.866  1.00  0.00     0.017 A 
ENDBRANCH   2  27
BRANCH   3  32
HETATM   32  C   UNL     1      -2.403   4.169 -32.062  1.00  0.00     0.153 C 
BRANCH  32  33
HETATM   33  C   UNL     1      -2.580   5.526 -32.768  1.00  0.00     0.187 C 
BRANCH  33  34
HETATM   34  O   UNL     1      -2.133   5.494 -34.137  1.00  0.00    -0.394 OA
HETATM   35  C   UNL     1      -3.209   5.311 -35.053  1.00  0.00     0.201 C 
ENDBRANCH  33  34
ENDBRANCH  32  33
ENDBRANCH   3  32
TORSDOF 8
ENDMDL
MODEL 2
REMARK VINA RESULT:      -7.4      3.923      6.999
REMARK  8 active torsions:
REMARK  status: ('A' for Active; 'I' for Inactive)
REMARK    1  A    between atoms: C_2  and  O_3 
REMARK    2  A    between atoms: O_3  and  C_4 
REMARK       I    between atoms: C_4  and  N_5 
REMARK    3  A    between atoms: C_8  and  N_9 
REMARK       I    between atoms: N_9  and  C_10 
REMARK    4  A    between atoms: C_10  and  C_11 
REMARK    5  A    between atoms: C_12  and  C_13 
REMARK    6  A    between atoms: N_18  and  C_19 
REMARK    7  A    between atoms: C_19  and  C_20 
REMARK    8  A    between atoms: C_20  and  O_21 
ROOT
HETATM    1  C   UNL     1      -1.524   8.063 -31.433  1.00  0.00     0.139 C 
HETATM    2  C   UNL     1      -2.792   8.726 -30.856  1.00  0.00     0.145 C 
HETATM    3  N   UNL     1      -2.375   9.659 -29.800  1.00  0.00    -0.335 N 
HETATM    4  C   UNL     1      -1.418   9.279 -28.860  1.00  0.00     0.255 C 
HETATM    5  O   UNL     1      -1.031  10.014 -27.958  1.00  0.00    -0.267 OA
HETATM    6  C   UNL     1      -0.784   7.936 -29.050  1.00  0.00     0.039 A 
HETATM    7  C   UNL     1      -0.797   7.321 -30.324  1.00  0.00    -0.027 A 
HETATM    8  C   UNL     1      -0.119   7.341 -27.975  1.00  0.00     0.017 A 
HETATM    9  C   UNL     1       0.533   6.123 -28.155  1.00  0.00     0.001 A 
HETATM   10  C   UNL     1       0.543   5.517 -29.412  1.00  0.00     0.001 A 
HETATM   11  C   UNL     1      -0.106   6.117 -30.496  1.00  0.00     0.009 A 
ENDROOT
BRANCH   1  12
HETATM   12  C   UNL     1      -1.876   7.366 -32.737  1.00  0.00     0.229 C 
HETATM   13  N   UNL     1      -2.544   6.172 -32.533  1.00  0.00    -0.356 N 
HETATM   14  H   UNL     1      -2.799   5.938 -31.575  1.00  0.00     0.162 HD
HETATM   15  O   UNL     1      -1.581   7.791 -33.846  1.00  0.00    -0.273 OA
BRANCH  13  16
HETATM   16  C   UNL     1      -2.906   5.182 -33.545  1.00  0.00     0.087 C 
HETATM   17  C   UNL     1      -2.708   3.725 -33.118  1.00  0.00     0.045 C 
HETATM   18  C   UNL     1      -3.949   3.050 -32.545  1.00  0.00     0.130 C 
HETATM   19  N   UNL     1      -5.141   3.328 -33.335  1.00  0.00    -0.328 N 
HETATM   20  C   UNL     1      -6.191   2.422 -33.425  1.00  0.00     0.362 C 
HETATM   21  C   UNL     1      -5.432   4.733 -33.574  1.00  0.00     0.130 C 
HETATM   22  O   UNL     1      -7.302   2.702 -33.860  1.00  0.00    -0.238 OA
HETATM   23  C   UNL     1      -4.255   5.452 -34.217  1.00  0.00     0.045 C 
BRANCH  20  24
HETATM   24  O   UNL     1      -5.844   1.177 -32.997  1.00  0.00    -0.304 OA
BRANCH  24  25
HETATM   25  C   UNL     1      -6.889   0.195 -33.008  1.00  0.00     0.176 C 
HETATM   26  C   UNL     1      -6.626  -0.852 -34.074  1.00  0.00     0.034 C 
ENDBRANCH  24  25
ENDBRANCH  20  24
ENDBRANCH  13  16
ENDBRANCH   1  12
BRANCH   2  27
HETATM   27  C   UNL     1      -3.873   7.793 -30.305  1.00  0.00     0.006 A 
HETATM   28  S   UNL     1      -5.424   7.767 -31.069  1.00  0.00    -0.104 SA
HETATM   29  C   UNL     1      -6.025   6.589 -29.994  1.00  0.00     0.050 A 
HETATM   30  C   UNL     1      -5.072   6.182 -29.091  1.00  0.00     0.008 A 
HETATM   31  C   UNL     1      -3.835   6.867 -29.276  1.00  0.00     0.017 A 
ENDBRANCH   2  27
BRANCH   3  32
HETATM   32  C   UNL     1      -2.701  11.079 -29.957  1.00  0.00     0.153 C 
BRANCH  32  33
HETATM   33  C   UNL     1      -4.148  11.384 -29.530  1.00  0.00     0.187 C 
BRANCH  33  34
HETATM   34  O   UNL     1      -4.414  10.985 -28.171  1.00  0.00    -0.394 OA
HETATM   35  C   UNL     1      -5.589  10.186 -28.062  1.00  0.00     0.201 C 
ENDBRANCH  33  34
ENDBRANCH  32  33
ENDBRANCH   3  32
TORSDOF 8
ENDMDL
MODEL 3
REMARK VINA RESULT:      -7.4      2.060      2.552
REMARK  8 active torsions:
REMARK  status: ('A' for Active; 'I' for Inactive)
REMARK    1  A    between atoms: C_2  and  O_3 
REMARK    2  A    between atoms: O_3  and  C_4 
REMARK       I    between atoms: C_4  and  N_5 
REMARK    3  A    between atoms: C_8  and  N_9 
REMARK       I    between atoms: N_9  and  C_10 
REMARK    4  A    between atoms: C_10  and  C_11 
REMARK    5  A    between atoms: C_12  and  C_13 
REMARK    6  A    between atoms: N_18  and  C_19 
REMARK    7  A    between atoms: C_19  and  C_20 
REMARK    8  A    between atoms: C_20  and  O_21 
ROOT
HETATM    1  C   UNL     1      -5.983   2.305 -33.726  1.00  0.00     0.139 C 
HETATM    2  C   UNL     1      -6.002   3.686 -33.040  1.00  0.00     0.145 C 
HETATM    3  N   UNL     1      -4.610   4.125 -32.866  1.00  0.00    -0.335 N 
HETATM    4  C   UNL     1      -3.645   3.236 -32.394  1.00  0.00     0.255 C 
HETATM    5  O   UNL     1      -2.469   3.545 -32.228  1.00  0.00    -0.267 OA
HETATM    6  C   UNL     1      -4.079   1.820 -32.182  1.00  0.00     0.039 A 
HETATM    7  C   UNL     1      -5.221   1.322 -32.854  1.00  0.00    -0.027 A 
HETATM    8  C   UNL     1      -3.301   0.984 -31.377  1.00  0.00     0.017 A 
HETATM    9  C   UNL     1      -3.656  -0.354 -31.226  1.00  0.00     0.001 A 
HETATM   10  C   UNL     1      -4.769  -0.861 -31.898  1.00  0.00     0.001 A 
HETATM   11  C   UNL     1      -5.542  -0.033 -32.719  1.00  0.00     0.009 A 
ENDROOT
BRANCH   1  12
HETATM   12  C   UNL     1      -7.379   1.980 -34.232  1.00  0.00     0.229 C 
HETATM   13  N   UNL     1      -8.250   3.047 -34.094  1.00  0.00    -0.356 N 
HETATM   14  H   UNL     1      -7.860   3.929 -33.766  1.00  0.00     0.162 HD
HETATM   15  O   UNL     1      -7.712   0.893 -34.684  1.00  0.00    -0.273 OA
BRANCH  13  16
HETATM   16  C   UNL     1      -9.690   3.044 -34.343  1.00  0.00     0.087 C 
HETATM   17  C   UNL     1     -10.534   2.429 -33.225  1.00  0.00     0.045 C 
HETATM   18  C   UNL     1     -11.084   3.427 -32.211  1.00  0.00     0.130 C 
HETATM   19  N   UNL     1     -11.640   4.611 -32.853  1.00  0.00    -0.328 N 
HETATM   20  C   UNL     1     -12.688   5.328 -32.290  1.00  0.00     0.362 C 
HETATM   21  C   UNL     1     -10.757   5.308 -33.775  1.00  0.00     0.130 C 
HETATM   22  O   UNL     1     -13.021   6.452 -32.649  1.00  0.00    -0.238 OA
HETATM   23  C   UNL     1     -10.229   4.381 -34.860  1.00  0.00     0.045 C 
BRANCH  20  24
HETATM   24  O   UNL     1     -13.326   4.635 -31.306  1.00  0.00    -0.304 OA
BRANCH  24  25
HETATM   25  C   UNL     1     -14.673   4.233 -31.591  1.00  0.00     0.176 C 
HETATM   26  C   UNL     1     -14.739   2.740 -31.851  1.00  0.00     0.034 C 
ENDBRANCH  24  25
ENDBRANCH  20  24
ENDBRANCH  13  16
ENDBRANCH   1  12
BRANCH   2  27
HETATM   27  C   UNL     1      -6.733   3.785 -31.700  1.00  0.00     0.006 A 
HETATM   28  S   UNL     1      -7.279   5.333 -31.156  1.00  0.00    -0.104 SA
HETATM   29  C   UNL     1      -7.944   4.687 -29.726  1.00  0.00     0.050 A 
HETATM   30  C   UNL     1      -7.800   3.322 -29.661  1.00  0.00     0.008 A 
HETATM   31  C   UNL     1      -7.113   2.804 -30.798  1.00  0.00     0.017 A 
ENDBRANCH   2  27
BRANCH   3  32
HETATM   32  C   UNL     1      -4.185   5.369 -33.514  1.00  0.00     0.153 C 
BRANCH  32  33
HETATM   33  C   UNL     1      -3.874   5.159 -35.007  1.00  0.00     0.187 C 
BRANCH  33  34
HETATM   34  O   UNL     1      -2.461   5.213 -35.285  1.00  0.00    -0.394 OA
HETATM   35  C   UNL     1      -1.778   6.128 -34.432  1.00  0.00     0.201 C 
ENDBRANCH  33  34
ENDBRANCH  32  33
ENDBRANCH   3  32
TORSDOF 8
ENDMDL
MODEL 4
REMARK VINA RESULT:      -7.3      3.217      8.467
REMARK  8 active torsions:
REMARK  status: ('A' for Active; 'I' for Inactive)
REMARK    1  A    between atoms: C_2  and  O_3 
REMARK    2  A    between atoms: O_3  and  C_4 
REMARK       I    between atoms: C_4  and  N_5 
REMARK    3  A    between atoms: C_8  and  N_9 
REMARK       I    between atoms: N_9  and  C_10 
REMARK    4  A    between atoms: C_10  and  C_11 
REMARK    5  A    between atoms: C_12  and  C_13 
REMARK    6  A    between atoms: N_18  and  C_19 
REMARK    7  A    between atoms: C_19  and  C_20 
REMARK    8  A    between atoms: C_20  and  O_21 
ROOT
HETATM    1  C   UNL     1      -6.524   3.987 -33.515  1.00  0.00     0.139 C 
HETATM    2  C   UNL     1      -6.383   2.455 -33.615  1.00  0.00     0.145 C 
HETATM    3  N   UNL     1      -7.723   1.866 -33.490  1.00  0.00    -0.335 N 
HETATM    4  C   UNL     1      -8.604   2.323 -32.510  1.00  0.00     0.255 C 
HETATM    5  O   UNL     1      -9.734   1.870 -32.357  1.00  0.00    -0.267 OA
HETATM    6  C   UNL     1      -8.151   3.486 -31.686  1.00  0.00     0.039 A 
HETATM    7  C   UNL     1      -7.139   4.347 -32.173  1.00  0.00    -0.027 A 
HETATM    8  C   UNL     1      -8.791   3.751 -30.473  1.00  0.00     0.017 A 
HETATM    9  C   UNL     1      -8.425   4.870 -29.728  1.00  0.00     0.001 A 
HETATM   10  C   UNL     1      -7.442   5.735 -30.208  1.00  0.00     0.001 A 
HETATM   11  C   UNL     1      -6.810   5.486 -31.430  1.00  0.00     0.009 A 
ENDROOT
BRANCH   1  12
HETATM   12  C   UNL     1      -5.232   4.639 -33.981  1.00  0.00     0.229 C 
HETATM   13  N   UNL     1      -4.504   5.173 -32.933  1.00  0.00    -0.356 N 
HETATM   14  H   UNL     1      -4.849   5.002 -31.990  1.00  0.00     0.162 HD
HETATM   15  O   UNL     1      -4.882   4.712 -35.151  1.00  0.00    -0.273 OA
BRANCH  13  16
HETATM   16  C   UNL     1      -3.294   5.987 -33.027  1.00  0.00     0.087 C 
HETATM   17  C   UNL     1      -3.189   7.104 -31.986  1.00  0.00     0.045 C 
HETATM   18  C   UNL     1      -2.402   6.740 -30.731  1.00  0.00     0.130 C 
HETATM   19  N   UNL     1      -1.163   6.039 -31.043  1.00  0.00    -0.328 N 
HETATM   20  C   UNL     1      -0.038   6.140 -30.235  1.00  0.00     0.362 C 
HETATM   21  C   UNL     1      -1.296   4.857 -31.881  1.00  0.00     0.130 C 
HETATM   22  O   UNL     1       0.928   5.390 -30.308  1.00  0.00    -0.238 OA
HETATM   23  C   UNL     1      -2.010   5.168 -33.187  1.00  0.00     0.045 C 
BRANCH  20  24
HETATM   24  O   UNL     1      -0.115   7.183 -29.362  1.00  0.00    -0.304 OA
BRANCH  24  25
HETATM   25  C   UNL     1       0.721   7.092 -28.200  1.00  0.00     0.176 C 
HETATM   26  C   UNL     1       1.366   8.432 -27.902  1.00  0.00     0.034 C 
ENDBRANCH  24  25
ENDBRANCH  20  24
ENDBRANCH  13  16
ENDBRANCH   1  12
BRANCH   2  27
HETATM   27  C   UNL     1      -5.440   1.778 -32.618  1.00  0.00     0.006 A 
HETATM   28  S   UNL     1      -6.054   0.510 -31.614  1.00  0.00    -0.104 SA
HETATM   29  C   UNL     1      -4.548   0.275 -30.850  1.00  0.00     0.050 A 
HETATM   30  C   UNL     1      -3.578   1.104 -31.359  1.00  0.00     0.008 A 
HETATM   31  C   UNL     1      -4.088   1.960 -32.379  1.00  0.00     0.017 A 
ENDBRANCH   2  27
BRANCH   3  32
HETATM   32  C   UNL     1      -8.241   1.067 -34.603  1.00  0.00     0.153 C 
BRANCH  32  33
HETATM   33  C   UNL     1      -7.147   0.182 -35.229  1.00  0.00     0.187 C 
BRANCH  33  34
HETATM   34  O   UNL     1      -7.242  -1.191 -34.802  1.00  0.00    -0.394 OA
HETATM   35  C   UNL     1      -5.962  -1.791 -34.626  1.00  0.00     0.201 C 
ENDBRANCH  33  34
ENDBRANCH  32  33
ENDBRANCH   3  32
TORSDOF 8
ENDMDL
MODEL 5
REMARK VINA RESULT:      -7.3      2.541      7.793
REMARK  8 active torsions:
REMARK  status: ('A' for Active; 'I' for Inactive)
REMARK    1  A    between atoms: C_2  and  O_3 
REMARK    2  A    between atoms: O_3  and  C_4 
REMARK       I    between atoms: C_4  and  N_5 
REMARK    3  A    between atoms: C_8  and  N_9 
REMARK       I    between atoms: N_9  and  C_10 
REMARK    4  A    between atoms: C_10  and  C_11 
REMARK    5  A    between atoms: C_12  and  C_13 
REMARK    6  A    between atoms: N_18  and  C_19 
REMARK    7  A    between atoms: C_19  and  C_20 
REMARK    8  A    between atoms: C_20  and  O_21 
ROOT
HETATM    1  C   UNL     1      -7.440   3.146 -33.285  1.00  0.00     0.139 C 
HETATM    2  C   UNL     1      -7.298   2.913 -31.768  1.00  0.00     0.145 C 
HETATM    3  N   UNL     1      -7.833   1.579 -31.462  1.00  0.00    -0.335 N 
HETATM    4  C   UNL     1      -9.038   1.157 -32.022  1.00  0.00     0.255 C 
HETATM    5  O   UNL     1      -9.534   0.057 -31.803  1.00  0.00    -0.267 OA
HETATM    6  C   UNL     1      -9.683   2.081 -33.007  1.00  0.00     0.039 A 
HETATM    7  C   UNL     1      -8.907   3.060 -33.671  1.00  0.00    -0.027 A 
HETATM    8  C   UNL     1     -11.036   1.912 -33.313  1.00  0.00     0.017 A 
HETATM    9  C   UNL     1     -11.632   2.720 -34.278  1.00  0.00     0.001 A 
HETATM   10  C   UNL     1     -10.872   3.676 -34.952  1.00  0.00     0.001 A 
HETATM   11  C   UNL     1      -9.513   3.839 -34.663  1.00  0.00     0.009 A 
ENDROOT
BRANCH   1  12
HETATM   12  C   UNL     1      -6.597   4.346 -33.686  1.00  0.00     0.229 C 
HETATM   13  N   UNL     1      -5.274   4.210 -33.304  1.00  0.00    -0.356 N 
HETATM   14  H   UNL     1      -4.996   3.321 -32.893  1.00  0.00     0.162 HD
HETATM   15  O   UNL     1      -7.035   5.335 -34.257  1.00  0.00    -0.273 OA
BRANCH  13  16
HETATM   16  C   UNL     1      -4.222   5.220 -33.401  1.00  0.00     0.087 C 
HETATM   17  C   UNL     1      -4.167   6.204 -32.230  1.00  0.00     0.045 C 
HETATM   18  C   UNL     1      -3.191   5.827 -31.120  1.00  0.00     0.130 C 
HETATM   19  N   UNL     1      -1.906   5.386 -31.645  1.00  0.00    -0.328 N 
HETATM   20  C   UNL     1      -0.722   5.575 -30.943  1.00  0.00     0.362 C 
HETATM   21  C   UNL     1      -1.954   4.309 -32.621  1.00  0.00     0.130 C 
HETATM   22  O   UNL     1       0.332   5.011 -31.213  1.00  0.00    -0.238 OA
HETATM   23  C   UNL     1      -2.857   4.653 -33.797  1.00  0.00     0.045 C 
BRANCH  20  24
HETATM   24  O   UNL     1      -0.853   6.476 -29.930  1.00  0.00    -0.304 OA
BRANCH  24  25
HETATM   25  C   UNL     1       0.011   6.285 -28.802  1.00  0.00     0.176 C 
HETATM   26  C   UNL     1       0.795   7.550 -28.511  1.00  0.00     0.034 C 
ENDBRANCH  24  25
ENDBRANCH  20  24
ENDBRANCH  13  16
ENDBRANCH   1  12
BRANCH   2  27
HETATM   27  C   UNL     1      -7.953   3.942 -30.843  1.00  0.00     0.006 A 
HETATM   28  S   UNL     1      -7.041   4.575 -29.517  1.00  0.00    -0.104 SA
HETATM   29  C   UNL     1      -8.325   5.574 -29.006  1.00  0.00     0.050 A 
HETATM   30  C   UNL     1      -9.417   5.473 -29.834  1.00  0.00     0.008 A 
HETATM   31  C   UNL     1      -9.200   4.543 -30.893  1.00  0.00     0.017 A 
ENDBRANCH   2  27
BRANCH   3  32
HETATM   32  C   UNL     1      -6.934   0.587 -30.865  1.00  0.00     0.153 C 
BRANCH  32  33
HETATM   33  C   UNL     1      -5.655   0.397 -31.702  1.00  0.00     0.187 C 
BRANCH  33  34
HETATM   34  O   UNL     1      -5.536  -0.941 -32.223  1.00  0.00    -0.394 OA
HETATM   35  C   UNL     1      -6.392  -1.163 -33.341  1.00  0.00     0.201 C 
ENDBRANCH  33  34
ENDBRANCH  32  33
ENDBRANCH   3  32
TORSDOF 8
ENDMDL
MODEL 6
REMARK VINA RESULT:      -7.2      4.837      8.335
REMARK  8 active torsions:
REMARK  status: ('A' for Active; 'I' for Inactive)
REMARK    1  A    between atoms: C_2  and  O_3 
REMARK    2  A    between atoms: O_3  and  C_4 
REMARK       I    between atoms: C_4  and  N_5 
REMARK    3  A    between atoms: C_8  and  N_9 
REMARK       I    between atoms: N_9  and  C_10 
REMARK    4  A    between atoms: C_10  and  C_11 
REMARK    5  A    between atoms: C_12  and  C_13 
REMARK    6  A    between atoms: N_18  and  C_19 
REMARK    7  A    between atoms: C_19  and  C_20 
REMARK    8  A    between atoms: C_20  and  O_21 
ROOT
HETATM    1  C   UNL     1      -0.425   7.992 -29.352  1.00  0.00     0.139 C 
HETATM    2  C   UNL     1      -1.890   8.471 -29.301  1.00  0.00     0.145 C 
HETATM    3  N   UNL     1      -1.887   9.904 -28.975  1.00  0.00    -0.335 N 
HETATM    4  C   UNL     1      -1.061  10.395 -27.965  1.00  0.00     0.255 C 
HETATM    5  O   UNL     1      -1.016  11.580 -27.649  1.00  0.00    -0.267 OA
HETATM    6  C   UNL     1      -0.128   9.418 -27.322  1.00  0.00     0.039 A 
HETATM    7  C   UNL     1       0.228   8.228 -28.001  1.00  0.00    -0.027 A 
HETATM    8  C   UNL     1       0.440   9.733 -26.085  1.00  0.00     0.017 A 
HETATM    9  C   UNL     1       1.362   8.863 -25.507  1.00  0.00     0.001 A 
HETATM   10  C   UNL     1       1.734   7.697 -26.176  1.00  0.00     0.001 A 
HETATM   11  C   UNL     1       1.183   7.384 -27.423  1.00  0.00     0.009 A 
ENDROOT
BRANCH   1  12
HETATM   12  C   UNL     1      -0.370   6.626 -30.017  1.00  0.00     0.229 C 
HETATM   13  N   UNL     1      -0.982   6.619 -31.258  1.00  0.00    -0.356 N 
HETATM   14  H   UNL     1      -1.311   7.512 -31.621  1.00  0.00     0.162 HD
HETATM   15  O   UNL     1       0.129   5.632 -29.508  1.00  0.00    -0.273 OA
BRANCH  13  16
HETATM   16  C   UNL     1      -1.237   5.458 -32.108  1.00  0.00     0.087 C 
HETATM   17  C   UNL     1      -2.087   4.363 -31.459  1.00  0.00     0.045 C 
HETATM   18  C   UNL     1      -3.580   4.447 -31.759  1.00  0.00     0.130 C 
HETATM   19  N   UNL     1      -3.844   4.711 -33.168  1.00  0.00    -0.328 N 
HETATM   20  C   UNL     1      -4.990   4.247 -33.800  1.00  0.00     0.362 C 
HETATM   21  C   UNL     1      -3.179   5.875 -33.732  1.00  0.00     0.130 C 
HETATM   22  O   UNL     1      -5.379   4.644 -34.893  1.00  0.00    -0.238 OA
HETATM   23  C   UNL     1      -1.672   5.818 -33.530  1.00  0.00     0.045 C 
BRANCH  20  24
HETATM   24  O   UNL     1      -5.628   3.281 -33.082  1.00  0.00    -0.304 OA
BRANCH  24  25
HETATM   25  C   UNL     1      -6.808   2.728 -33.682  1.00  0.00     0.176 C 
HETATM   26  C   UNL     1      -6.511   1.367 -34.284  1.00  0.00     0.034 C 
ENDBRANCH  24  25
ENDBRANCH  20  24
ENDBRANCH  13  16
ENDBRANCH   1  12
BRANCH   2  27
HETATM   27  C   UNL     1      -2.826   7.738 -28.338  1.00  0.00     0.006 A 
HETATM   28  S   UNL     1      -4.305   7.080 -28.948  1.00  0.00    -0.104 SA
HETATM   29  C   UNL     1      -4.757   6.468 -27.422  1.00  0.00     0.050 A 
HETATM   30  C   UNL     1      -3.802   6.713 -26.466  1.00  0.00     0.008 A 
HETATM   31  C   UNL     1      -2.690   7.434 -26.994  1.00  0.00     0.017 A 
ENDBRANCH   2  27
BRANCH   3  32
HETATM   32  C   UNL     1      -2.478  10.838 -29.937  1.00  0.00     0.153 C 
BRANCH  32  33
HETATM   33  C   UNL     1      -4.015  10.757 -29.944  1.00  0.00     0.187 C 
BRANCH  33  34
HETATM   34  O   UNL     1      -4.532  10.264 -31.196  1.00  0.00    -0.394 OA
HETATM   35  C   UNL     1      -5.922  10.534 -31.349  1.00  0.00     0.201 C 
ENDBRANCH  33  34
ENDBRANCH  32  33
ENDBRANCH   3  32
TORSDOF 8
ENDMDL
MODEL 7
REMARK VINA RESULT:      -7.2     17.706     20.080
REMARK  8 active torsions:
REMARK  status: ('A' for Active; 'I' for Inactive)
REMARK    1  A    between atoms: C_2  and  O_3 
REMARK    2  A    between atoms: O_3  and  C_4 
REMARK       I    between atoms: C_4  and  N_5 
REMARK    3  A    between atoms: C_8  and  N_9 
REMARK       I    between atoms: N_9  and  C_10 
REMARK    4  A    between atoms: C_10  and  C_11 
REMARK    5  A    between atoms: C_12  and  C_13 
REMARK    6  A    between atoms: N_18  and  C_19 
REMARK    7  A    between atoms: C_19  and  C_20 
REMARK    8  A    between atoms: C_20  and  O_21 
ROOT
HETATM    1  C   UNL     1      -7.036 -14.321 -37.936  1.00  0.00     0.139 C 
HETATM    2  C   UNL     1      -5.915 -14.772 -38.894  1.00  0.00     0.145 C 
HETATM    3  N   UNL     1      -5.375 -13.575 -39.555  1.00  0.00    -0.335 N 
HETATM    4  C   UNL     1      -6.235 -12.599 -40.057  1.00  0.00     0.255 C 
HETATM    5  O   UNL     1      -5.843 -11.581 -40.618  1.00  0.00    -0.267 OA
HETATM    6  C   UNL     1      -7.696 -12.790 -39.797  1.00  0.00     0.039 A 
HETATM    7  C   UNL     1      -8.123 -13.617 -38.731  1.00  0.00    -0.027 A 
HETATM    8  C   UNL     1      -8.622 -12.083 -40.568  1.00  0.00     0.017 A 
HETATM    9  C   UNL     1      -9.982 -12.199 -40.293  1.00  0.00     0.001 A 
HETATM   10  C   UNL     1     -10.413 -12.997 -39.233  1.00  0.00     0.001 A 
HETATM   11  C   UNL     1      -9.490 -13.693 -38.445  1.00  0.00     0.009 A 
ENDROOT
BRANCH   1  12
HETATM   12  C   UNL     1      -7.376 -15.465 -36.994  1.00  0.00     0.229 C 
HETATM   13  N   UNL     1      -6.784 -15.316 -35.751  1.00  0.00    -0.356 N 
HETATM   14  H   UNL     1      -6.279 -14.449 -35.576  1.00  0.00     0.162 HD
HETATM   15  O   UNL     1      -8.069 -16.426 -37.299  1.00  0.00    -0.273 OA
BRANCH  13  16
HETATM   16  C   UNL     1      -6.779 -16.285 -34.657  1.00  0.00     0.087 C 
HETATM   17  C   UNL     1      -5.436 -16.979 -34.421  1.00  0.00     0.045 C 
HETATM   18  C   UNL     1      -4.556 -16.330 -33.358  1.00  0.00     0.130 C 
HETATM   19  N   UNL     1      -5.310 -15.973 -32.163  1.00  0.00    -0.328 N 
HETATM   20  C   UNL     1      -4.726 -15.959 -30.903  1.00  0.00     0.362 C 
HETATM   21  C   UNL     1      -6.486 -15.144 -32.378  1.00  0.00     0.130 C 
HETATM   22  O   UNL     1      -5.233 -15.434 -29.918  1.00  0.00    -0.238 OA
HETATM   23  C   UNL     1      -7.445 -15.773 -33.377  1.00  0.00     0.045 C 
BRANCH  20  24
HETATM   24  O   UNL     1      -3.533 -16.615 -30.873  1.00  0.00    -0.304 OA
BRANCH  24  25
HETATM   25  C   UNL     1      -2.421 -15.874 -30.353  1.00  0.00     0.176 C 
HETATM   26  C   UNL     1      -1.977 -16.444 -29.019  1.00  0.00     0.034 C 
ENDBRANCH  24  25
ENDBRANCH  20  24
ENDBRANCH  13  16
ENDBRANCH   1  12
BRANCH   2  27
HETATM   27  C   UNL     1      -6.285 -15.809 -39.956  1.00  0.00     0.006 A 
HETATM   28  S   UNL     1      -5.151 -17.059 -40.336  1.00  0.00    -0.104 SA
HETATM   29  C   UNL     1      -6.188 -17.762 -41.492  1.00  0.00     0.050 A 
HETATM   30  C   UNL     1      -7.390 -17.101 -41.574  1.00  0.00     0.008 A 
HETATM   31  C   UNL     1      -7.448 -15.986 -40.687  1.00  0.00     0.017 A 
ENDBRANCH   2  27
BRANCH   3  32
HETATM   32  C   UNL     1      -3.958 -13.255 -39.366  1.00  0.00     0.153 C 
BRANCH  32  33
HETATM   33  C   UNL     1      -3.708 -12.525 -38.034  1.00  0.00     0.187 C 
BRANCH  33  34
HETATM   34  O   UNL     1      -2.485 -11.763 -38.048  1.00  0.00    -0.394 OA
HETATM   35  C   UNL     1      -1.348 -12.573 -38.333  1.00  0.00     0.201 C 
ENDBRANCH  33  34
ENDBRANCH  32  33
ENDBRANCH   3  32
TORSDOF 8
ENDMDL
MODEL 8
REMARK VINA RESULT:      -7.1      2.099      4.367
REMARK  8 active torsions:
REMARK  status: ('A' for Active; 'I' for Inactive)
REMARK    1  A    between atoms: C_2  and  O_3 
REMARK    2  A    between atoms: O_3  and  C_4 
REMARK       I    between atoms: C_4  and  N_5 
REMARK    3  A    between atoms: C_8  and  N_9 
REMARK       I    between atoms: N_9  and  C_10 
REMARK    4  A    between atoms: C_10  and  C_11 
REMARK    5  A    between atoms: C_12  and  C_13 
REMARK    6  A    between atoms: N_18  and  C_19 
REMARK    7  A    between atoms: C_19  and  C_20 
REMARK    8  A    between atoms: C_20  and  O_21 
ROOT
HETATM    1  C   UNL     1      -5.505   4.745 -32.849  1.00  0.00     0.139 C 
HETATM    2  C   UNL     1      -5.462   4.073 -31.462  1.00  0.00     0.145 C 
HETATM    3  N   UNL     1      -4.793   4.994 -30.533  1.00  0.00    -0.335 N 
HETATM    4  C   UNL     1      -3.626   5.655 -30.914  1.00  0.00     0.255 C 
HETATM    5  O   UNL     1      -3.023   6.434 -30.183  1.00  0.00    -0.267 OA
HETATM    6  C   UNL     1      -3.167   5.454 -32.325  1.00  0.00     0.039 A 
HETATM    7  C   UNL     1      -4.087   5.030 -33.313  1.00  0.00    -0.027 A 
HETATM    8  C   UNL     1      -1.847   5.763 -32.661  1.00  0.00     0.017 A 
HETATM    9  C   UNL     1      -1.426   5.645 -33.984  1.00  0.00     0.001 A 
HETATM   10  C   UNL     1      -2.328   5.246 -34.970  1.00  0.00     0.001 A 
HETATM   11  C   UNL     1      -3.656   4.952 -34.642  1.00  0.00     0.009 A 
ENDROOT
BRANCH   1  12
HETATM   12  C   UNL     1      -6.480   3.990 -33.738  1.00  0.00     0.229 C 
HETATM   13  N   UNL     1      -7.775   4.461 -33.618  1.00  0.00    -0.356 N 
HETATM   14  H   UNL     1      -7.920   5.288 -33.041  1.00  0.00     0.162 HD
HETATM   15  O   UNL     1      -6.169   3.052 -34.460  1.00  0.00    -0.273 OA
BRANCH  13  16
HETATM   16  C   UNL     1      -8.980   3.885 -34.213  1.00  0.00     0.087 C 
HETATM   17  C   UNL     1      -9.641   2.782 -33.383  1.00  0.00     0.045 C 
HETATM   18  C   UNL     1     -10.765   3.254 -32.467  1.00  0.00     0.130 C 
HETATM   19  N   UNL     1     -11.670   4.178 -33.138  1.00  0.00    -0.328 N 
HETATM   20  C   UNL     1     -13.014   4.265 -32.800  1.00  0.00     0.362 C 
HETATM   21  C   UNL     1     -11.049   5.335 -33.763  1.00  0.00     0.130 C 
HETATM   22  O   UNL     1     -13.751   5.181 -33.147  1.00  0.00    -0.238 OA
HETATM   23  C   UNL     1      -9.963   4.929 -34.748  1.00  0.00     0.045 C 
BRANCH  20  24
HETATM   24  O   UNL     1     -13.435   3.206 -32.055  1.00  0.00    -0.304 OA
BRANCH  24  25
HETATM   25  C   UNL     1     -14.267   2.252 -32.731  1.00  0.00     0.176 C 
HETATM   26  C   UNL     1     -15.658   2.236 -32.126  1.00  0.00     0.034 C 
ENDBRANCH  24  25
ENDBRANCH  20  24
ENDBRANCH  13  16
ENDBRANCH   1  12
BRANCH   2  27
HETATM   27  C   UNL     1      -4.794   2.699 -31.377  1.00  0.00     0.006 A 
HETATM   28  S   UNL     1      -5.535   1.467 -30.415  1.00  0.00    -0.104 SA
HETATM   29  C   UNL     1      -4.322   0.330 -30.791  1.00  0.00     0.050 A 
HETATM   30  C   UNL     1      -3.387   0.842 -31.658  1.00  0.00     0.008 A 
HETATM   31  C   UNL     1      -3.663   2.199 -32.001  1.00  0.00     0.017 A 
ENDBRANCH   2  27
BRANCH   3  32
HETATM   32  C   UNL     1      -5.540   5.473 -29.367  1.00  0.00     0.153 C 
BRANCH  32  33
HETATM   33  C   UNL     1      -6.475   6.642 -29.726  1.00  0.00     0.187 C 
BRANCH  33  34
HETATM   34  O   UNL     1      -7.866   6.297 -29.576  1.00  0.00    -0.394 OA
HETATM   35  C   UNL     1      -8.299   6.378 -28.221  1.00  0.00     0.201 C 
ENDBRANCH  33  34
ENDBRANCH  32  33
ENDBRANCH   3  32
TORSDOF 8
ENDMDL
MODEL 9
REMARK VINA RESULT:      -6.9     17.738     20.144
REMARK  8 active torsions:
REMARK  status: ('A' for Active; 'I' for Inactive)
REMARK    1  A    between atoms: C_2  and  O_3 
REMARK    2  A    between atoms: O_3  and  C_4 
REMARK       I    between atoms: C_4  and  N_5 
REMARK    3  A    between atoms: C_8  and  N_9 
REMARK       I    between atoms: N_9  and  C_10 
REMARK    4  A    between atoms: C_10  and  C_11 
REMARK    5  A    between atoms: C_12  and  C_13 
REMARK    6  A    between atoms: N_18  and  C_19 
REMARK    7  A    between atoms: C_19  and  C_20 
REMARK    8  A    between atoms: C_20  and  O_21 
ROOT
HETATM    1  C   UNL     1      -4.986 -14.836 -37.420  1.00  0.00     0.139 C 
HETATM    2  C   UNL     1      -5.925 -15.179 -38.595  1.00  0.00     0.145 C 
HETATM    3  N   UNL     1      -5.218 -16.111 -39.484  1.00  0.00    -0.335 N 
HETATM    4  C   UNL     1      -3.887 -15.881 -39.830  1.00  0.00     0.255 C 
HETATM    5  O   UNL     1      -3.246 -16.623 -40.567  1.00  0.00    -0.267 OA
HETATM    6  C   UNL     1      -3.211 -14.718 -39.175  1.00  0.00     0.039 A 
HETATM    7  C   UNL     1      -3.719 -14.196 -37.962  1.00  0.00    -0.027 A 
HETATM    8  C   UNL     1      -2.037 -14.209 -39.736  1.00  0.00     0.017 A 
HETATM    9  C   UNL     1      -1.361 -13.170 -39.101  1.00  0.00     0.001 A 
HETATM   10  C   UNL     1      -1.843 -12.661 -37.895  1.00  0.00     0.001 A 
HETATM   11  C   UNL     1      -3.008 -13.177 -37.318  1.00  0.00     0.009 A 
ENDROOT
BRANCH   1  12
HETATM   12  C   UNL     1      -5.790 -14.165 -36.319  1.00  0.00     0.229 C 
HETATM   13  N   UNL     1      -5.715 -14.851 -35.119  1.00  0.00    -0.356 N 
HETATM   14  H   UNL     1      -5.083 -15.649 -35.077  1.00  0.00     0.162 HD
HETATM   15  O   UNL     1      -6.455 -13.149 -36.472  1.00  0.00    -0.273 OA
BRANCH  13  16
HETATM   16  C   UNL     1      -6.467 -14.573 -33.897  1.00  0.00     0.087 C 
HETATM   17  C   UNL     1      -7.334 -15.732 -33.400  1.00  0.00     0.045 C 
HETATM   18  C   UNL     1      -6.675 -16.622 -32.351  1.00  0.00     0.130 C 
HETATM   19  N   UNL     1      -5.992 -15.847 -31.323  1.00  0.00    -0.328 N 
HETATM   20  C   UNL     1      -5.863 -16.309 -30.019  1.00  0.00     0.362 C 
HETATM   21  C   UNL     1      -5.021 -14.876 -31.800  1.00  0.00     0.130 C 
HETATM   22  O   UNL     1      -5.097 -15.826 -29.194  1.00  0.00    -0.238 OA
HETATM   23  C   UNL     1      -5.636 -13.906 -32.799  1.00  0.00     0.045 C 
BRANCH  20  24
HETATM   24  O   UNL     1      -6.702 -17.347 -29.748  1.00  0.00    -0.304 OA
BRANCH  24  25
HETATM   25  C   UNL     1      -7.078 -17.509 -28.373  1.00  0.00     0.176 C 
HETATM   26  C   UNL     1      -8.572 -17.306 -28.203  1.00  0.00     0.034 C 
ENDBRANCH  24  25
ENDBRANCH  20  24
ENDBRANCH  13  16
ENDBRANCH   1  12
BRANCH   2  27
HETATM   27  C   UNL     1      -6.463 -14.007 -39.418  1.00  0.00     0.006 A 
HETATM   28  S   UNL     1      -8.170 -13.857 -39.646  1.00  0.00    -0.104 SA
HETATM   29  C   UNL     1      -8.005 -12.437 -40.574  1.00  0.00     0.050 A 
HETATM   30  C   UNL     1      -6.692 -12.045 -40.687  1.00  0.00     0.008 A 
HETATM   31  C   UNL     1      -5.809 -12.942 -40.016  1.00  0.00     0.017 A 
ENDBRANCH   2  27
BRANCH   3  32
HETATM   32  C   UNL     1      -5.799 -17.437 -39.708  1.00  0.00     0.153 C 
BRANCH  32  33
HETATM   33  C   UNL     1      -7.053 -17.665 -38.845  1.00  0.00     0.187 C 
BRANCH  33  34
HETATM   34  O   UNL     1      -8.272 -17.512 -39.599  1.00  0.00    -0.394 OA
HETATM   35  C   UNL     1      -9.420 -17.434 -38.758  1.00  0.00     0.201 C 
ENDBRANCH  33  34
ENDBRANCH  32  33
ENDBRANCH   3  32
TORSDOF 8
ENDMDL
MODEL 10
REMARK VINA RESULT:      -6.9      3.639      5.917
REMARK  8 active torsions:
REMARK  status: ('A' for Active; 'I' for Inactive)
REMARK    1  A    between atoms: C_2  and  O_3 
REMARK    2  A    between atoms: O_3  and  C_4 
REMARK       I    between atoms: C_4  and  N_5 
REMARK    3  A    between atoms: C_8  and  N_9 
REMARK       I    between atoms: N_9  and  C_10 
REMARK    4  A    between atoms: C_10  and  C_11 
REMARK    5  A    between atoms: C_12  and  C_13 
REMARK    6  A    between atoms: N_18  and  C_19 
REMARK    7  A    between atoms: C_19  and  C_20 
REMARK    8  A    between atoms: C_20  and  O_21 
ROOT
HETATM    1  C   UNL     1      -4.001   6.653 -30.252  1.00  0.00     0.139 C 
HETATM    2  C   UNL     1      -3.337   7.661 -29.292  1.00  0.00     0.145 C 
HETATM    3  N   UNL     1      -2.901   8.820 -30.083  1.00  0.00    -0.335 N 
HETATM    4  C   UNL     1      -2.248   8.637 -31.301  1.00  0.00     0.255 C 
HETATM    5  O   UNL     1      -1.860   9.564 -32.003  1.00  0.00    -0.267 OA
HETATM    6  C   UNL     1      -2.117   7.228 -31.789  1.00  0.00     0.039 A 
HETATM    7  C   UNL     1      -2.993   6.228 -31.307  1.00  0.00    -0.027 A 
HETATM    8  C   UNL     1      -1.173   6.937 -32.778  1.00  0.00     0.017 A 
HETATM    9  C   UNL     1      -1.087   5.644 -33.290  1.00  0.00     0.001 A 
HETATM   10  C   UNL     1      -1.958   4.654 -32.835  1.00  0.00     0.001 A 
HETATM   11  C   UNL     1      -2.917   4.944 -31.859  1.00  0.00     0.009 A 
ENDROOT
BRANCH   1  12
HETATM   12  C   UNL     1      -4.764   5.619 -29.440  1.00  0.00     0.229 C 
HETATM   13  N   UNL     1      -4.909   4.421 -30.117  1.00  0.00    -0.356 N 
HETATM   14  H   UNL     1      -4.432   4.330 -31.012  1.00  0.00     0.162 HD
HETATM   15  O   UNL     1      -5.226   5.823 -28.326  1.00  0.00    -0.273 OA
BRANCH  13  16
HETATM   16  C   UNL     1      -5.700   3.265 -29.700  1.00  0.00     0.087 C 
HETATM   17  C   UNL     1      -7.216   3.464 -29.774  1.00  0.00     0.045 C 
HETATM   18  C   UNL     1      -7.865   2.978 -31.065  1.00  0.00     0.130 C 
HETATM   19  N   UNL     1      -7.373   1.667 -31.468  1.00  0.00    -0.328 N 
HETATM   20  C   UNL     1      -8.164   0.770 -32.175  1.00  0.00     0.362 C 
HETATM   21  C   UNL     1      -5.929   1.539 -31.585  1.00  0.00     0.130 C 
HETATM   22  O   UNL     1      -7.731  -0.223 -32.748  1.00  0.00    -0.238 OA
HETATM   23  C   UNL     1      -5.221   1.941 -30.300  1.00  0.00     0.045 C 
BRANCH  20  24
HETATM   24  O   UNL     1      -9.485   1.102 -32.144  1.00  0.00    -0.304 OA
BRANCH  24  25
HETATM   25  C   UNL     1     -10.310   0.495 -33.148  1.00  0.00     0.176 C 
HETATM   26  C   UNL     1     -10.550   1.458 -34.295  1.00  0.00     0.034 C 
ENDBRANCH  24  25
ENDBRANCH  20  24
ENDBRANCH  13  16
ENDBRANCH   1  12
BRANCH   2  27
HETATM   27  C   UNL     1      -2.163   7.152 -28.454  1.00  0.00     0.006 A 
HETATM   28  S   UNL     1      -2.327   7.092 -26.733  1.00  0.00    -0.104 SA
HETATM   29  C   UNL     1      -0.755   6.467 -26.523  1.00  0.00     0.050 A 
HETATM   30  C   UNL     1      -0.118   6.263 -27.723  1.00  0.00     0.008 A 
HETATM   31  C   UNL     1      -0.929   6.648 -28.831  1.00  0.00     0.017 A 
ENDBRANCH   2  27
BRANCH   3  32
HETATM   32  C   UNL     1      -3.461  10.135 -29.760  1.00  0.00     0.153 C 
BRANCH  32  33
HETATM   33  C   UNL     1      -4.908  10.280 -30.262  1.00  0.00     0.187 C 
BRANCH  33  34
HETATM   34  O   UNL     1      -4.989  11.021 -31.495  1.00  0.00    -0.394 OA
HETATM   35  C   UNL     1      -6.336  11.248 -31.902  1.00  0.00     0.201 C 
ENDBRANCH  33  34
ENDBRANCH  32  33
ENDBRANCH   3  32
TORSDOF 8
ENDMDL
