MODEL 1
REMARK VINA RESULT:      -8.2      0.000      0.000
REMARK  6 active torsions:
REMARK  status: ('A' for Active; 'I' for Inactive)
REMARK    1  A    between atoms: C_2  and  N_3 
REMARK    2  A    between atoms: C_2  and  C_16 
REMARK    3  A    between atoms: N_3  and  C_6 
REMARK    4  A    between atoms: C_16  and  C_17 
REMARK       I    between atoms: C_17  and  N_18 
REMARK    5  A    between atoms: N_18  and  C_19 
REMARK    6  A    between atoms: C_21  and  O_22 
ROOT
HETATM    1  C   UNL     1      -8.699   2.315 -33.193  1.00  0.00     0.040 C 
HETATM    2  C   UNL     1      -7.187   2.482 -33.105  1.00  0.00     0.191 C 
ENDROOT
BRANCH   2   3
HETATM    3  N   UNL     1      -6.492   1.197 -33.495  1.00  0.00    -0.063 N 
HETATM    4  H   UNL     1      -6.669   1.069 -34.515  1.00  0.00     0.278 HD
HETATM    5  H   UNL     1      -5.481   1.377 -33.449  1.00  0.00     0.278 HD
BRANCH   3   6
HETATM    6  C   UNL     1      -6.785  -0.104 -32.795  1.00  0.00     0.221 C 
HETATM    7  C   UNL     1      -6.260  -1.319 -33.511  1.00  0.00    -0.011 A 
HETATM    8  C   UNL     1      -4.881  -1.576 -33.538  1.00  0.00     0.009 A 
HETATM    9  C   UNL     1      -7.137  -2.214 -34.149  1.00  0.00     0.011 A 
HETATM   10  C   UNL     1      -4.390  -2.674 -34.248  1.00  0.00     0.019 A 
HETATM   11  S   UNL     1      -3.721  -0.495 -32.728  1.00  0.00    -0.129 SA
HETATM   12  C   UNL     1      -5.267  -3.542 -34.898  1.00  0.00     0.001 A 
HETATM   13  C   UNL     1      -6.640  -3.318 -34.842  1.00  0.00     0.001 A 
HETATM   14  C   UNL     1      -4.683   0.089 -31.294  1.00  0.00     0.082 C 
HETATM   15  C   UNL     1      -6.200  -0.069 -31.378  1.00  0.00     0.048 C 
ENDBRANCH   3   6
ENDBRANCH   2   3
BRANCH   2  16
HETATM   16  C   UNL     1      -6.689   3.707 -33.882  1.00  0.00     0.135 C 
BRANCH  16  17
HETATM   17  C   UNL     1      -5.262   4.043 -33.510  1.00  0.00     0.224 C 
HETATM   18  N   UNL     1      -4.731   5.058 -34.274  1.00  0.00    -0.327 N 
HETATM   19  H   UNL     1      -5.246   5.350 -35.096  1.00  0.00     0.169 HD
HETATM   20  O   UNL     1      -4.695   3.387 -32.639  1.00  0.00    -0.273 OA
BRANCH  18  21
HETATM   21  C   UNL     1      -3.459   5.653 -34.125  1.00  0.00     0.037 A 
HETATM   22  C   UNL     1      -3.225   6.803 -33.364  1.00  0.00     0.066 A 
HETATM   23  C   UNL     1      -1.940   7.354 -33.299  1.00  0.00     0.070 A 
HETATM   24  C   UNL     1      -0.880   6.725 -33.951  1.00  0.00     0.037 A 
HETATM   25  C   UNL     1      -1.104   5.582 -34.713  1.00  0.00     0.005 A 
HETATM   26  C   UNL     1      -2.393   5.057 -34.812  1.00  0.00     0.029 A 
BRANCH  23  27
HETATM   27  O   UNL     1      -1.608   8.485 -32.604  1.00  0.00    -0.356 OA
HETATM   28  C   UNL     1      -2.281   8.658 -31.362  1.00  0.00     0.210 C 
ENDBRANCH  23  27
ENDBRANCH  18  21
ENDBRANCH  16  17
ENDBRANCH   2  16
TORSDOF 6
ENDMDL
MODEL 2
REMARK VINA RESULT:      -8.2      1.921      2.156
REMARK  6 active torsions:
REMARK  status: ('A' for Active; 'I' for Inactive)
REMARK    1  A    between atoms: C_2  and  N_3 
REMARK    2  A    between atoms: C_2  and  C_16 
REMARK    3  A    between atoms: N_3  and  C_6 
REMARK    4  A    between atoms: C_16  and  C_17 
REMARK       I    between atoms: C_17  and  N_18 
REMARK    5  A    between atoms: N_18  and  C_19 
REMARK    6  A    between atoms: C_21  and  O_22 
ROOT
HETATM    1  C   UNL     1      -7.498   3.151 -32.526  1.00  0.00     0.040 C 
HETATM    2  C   UNL     1      -6.043   3.261 -32.963  1.00  0.00     0.191 C 
ENDROOT
BRANCH   2   3
HETATM    3  N   UNL     1      -5.433   1.887 -33.118  1.00  0.00    -0.063 N 
HETATM    4  H   UNL     1      -5.381   1.707 -34.144  1.00  0.00     0.278 HD
HETATM    5  H   UNL     1      -4.446   1.963 -32.839  1.00  0.00     0.278 HD
BRANCH   3   6
HETATM    6  C   UNL     1      -6.033   0.676 -32.452  1.00  0.00     0.221 C 
HETATM    7  C   UNL     1      -5.884  -0.596 -33.242  1.00  0.00    -0.011 A 
HETATM    8  C   UNL     1      -4.626  -1.208 -33.354  1.00  0.00     0.009 A 
HETATM    9  C   UNL     1      -6.996  -1.192 -33.864  1.00  0.00     0.011 A 
HETATM   10  C   UNL     1      -4.479  -2.359 -34.132  1.00  0.00     0.019 A 
HETATM   11  S   UNL     1      -3.186  -0.517 -32.569  1.00  0.00    -0.129 SA
HETATM   12  C   UNL     1      -5.583  -2.929 -34.765  1.00  0.00     0.001 A 
HETATM   13  C   UNL     1      -6.842  -2.352 -34.625  1.00  0.00     0.001 A 
HETATM   14  C   UNL     1      -3.894   0.227 -31.064  1.00  0.00     0.082 C 
HETATM   15  C   UNL     1      -5.400   0.482 -31.070  1.00  0.00     0.048 C 
ENDBRANCH   3   6
ENDBRANCH   2   3
BRANCH   2  16
HETATM   16  C   UNL     1      -5.871   4.151 -34.201  1.00  0.00     0.135 C 
BRANCH  16  17
HETATM   17  C   UNL     1      -4.532   4.854 -34.183  1.00  0.00     0.224 C 
HETATM   18  N   UNL     1      -4.031   5.028 -32.913  1.00  0.00    -0.327 N 
HETATM   19  H   UNL     1      -4.652   4.849 -32.131  1.00  0.00     0.169 HD
HETATM   20  O   UNL     1      -4.041   5.243 -35.240  1.00  0.00    -0.273 OA
BRANCH  18  21
HETATM   21  C   UNL     1      -2.777   5.575 -32.565  1.00  0.00     0.037 A 
HETATM   22  C   UNL     1      -1.710   4.817 -32.073  1.00  0.00     0.066 A 
HETATM   23  C   UNL     1      -0.511   5.441 -31.713  1.00  0.00     0.070 A 
HETATM   24  C   UNL     1      -0.359   6.815 -31.895  1.00  0.00     0.037 A 
HETATM   25  C   UNL     1      -1.418   7.579 -32.381  1.00  0.00     0.005 A 
HETATM   26  C   UNL     1      -2.628   6.962 -32.700  1.00  0.00     0.029 A 
BRANCH  23  27
HETATM   27  O   UNL     1       0.584   4.798 -31.202  1.00  0.00    -0.356 OA
HETATM   28  C   UNL     1       0.763   4.921 -29.795  1.00  0.00     0.210 C 
ENDBRANCH  23  27
ENDBRANCH  18  21
ENDBRANCH  16  17
ENDBRANCH   2  16
TORSDOF 6
ENDMDL
MODEL 3
REMARK VINA RESULT:      -7.8      1.929      2.713
REMARK  6 active torsions:
REMARK  status: ('A' for Active; 'I' for Inactive)
REMARK    1  A    between atoms: C_2  and  N_3 
REMARK    2  A    between atoms: C_2  and  C_16 
REMARK    3  A    between atoms: N_3  and  C_6 
REMARK    4  A    between atoms: C_16  and  C_17 
REMARK       I    between atoms: C_17  and  N_18 
REMARK    5  A    between atoms: N_18  and  C_19 
REMARK    6  A    between atoms: C_21  and  O_22 
ROOT
HETATM    1  C   UNL     1      -5.621   0.554 -29.425  1.00  0.00     0.040 C 
HETATM    2  C   UNL     1      -5.325   1.602 -30.490  1.00  0.00     0.191 C 
ENDROOT
BRANCH   2   3
HETATM    3  N   UNL     1      -6.196   1.378 -31.706  1.00  0.00    -0.063 N 
HETATM    4  H   UNL     1      -6.791   0.549 -31.487  1.00  0.00     0.278 HD
HETATM    5  H   UNL     1      -6.870   2.153 -31.739  1.00  0.00     0.278 HD
BRANCH   3   6
HETATM    6  C   UNL     1      -5.604   1.190 -33.079  1.00  0.00     0.221 C 
HETATM    7  C   UNL     1      -5.651  -0.228 -33.579  1.00  0.00    -0.011 A 
HETATM    8  C   UNL     1      -6.875  -0.796 -33.964  1.00  0.00     0.009 A 
HETATM    9  C   UNL     1      -4.477  -0.996 -33.678  1.00  0.00     0.011 A 
HETATM   10  C   UNL     1      -6.925  -2.129 -34.377  1.00  0.00     0.019 A 
HETATM   11  S   UNL     1      -8.392   0.132 -33.886  1.00  0.00    -0.129 SA
HETATM   12  C   UNL     1      -5.758  -2.890 -34.449  1.00  0.00     0.001 A 
HETATM   13  C   UNL     1      -4.534  -2.322 -34.108  1.00  0.00     0.001 A 
HETATM   14  C   UNL     1      -7.823   1.824 -34.255  1.00  0.00     0.082 C 
HETATM   15  C   UNL     1      -6.330   2.096 -34.080  1.00  0.00     0.048 C 
ENDBRANCH   3   6
ENDBRANCH   2   3
BRANCH   2  16
HETATM   16  C   UNL     1      -5.399   3.031 -29.939  1.00  0.00     0.135 C 
BRANCH  16  17
HETATM   17  C   UNL     1      -4.980   4.039 -30.986  1.00  0.00     0.224 C 
HETATM   18  N   UNL     1      -3.615   4.204 -31.058  1.00  0.00    -0.327 N 
HETATM   19  H   UNL     1      -3.050   3.799 -30.321  1.00  0.00     0.169 HD
HETATM   20  O   UNL     1      -5.840   4.642 -31.622  1.00  0.00    -0.273 OA
BRANCH  18  21
HETATM   21  C   UNL     1      -2.907   5.008 -31.979  1.00  0.00     0.037 A 
HETATM   22  C   UNL     1      -2.684   6.377 -31.802  1.00  0.00     0.066 A 
HETATM   23  C   UNL     1      -2.006   7.112 -32.781  1.00  0.00     0.070 A 
HETATM   24  C   UNL     1      -1.505   6.468 -33.912  1.00  0.00     0.037 A 
HETATM   25  C   UNL     1      -1.726   5.106 -34.098  1.00  0.00     0.005 A 
HETATM   26  C   UNL     1      -2.438   4.382 -33.141  1.00  0.00     0.029 A 
BRANCH  23  27
HETATM   27  O   UNL     1      -1.755   8.456 -32.718  1.00  0.00    -0.356 OA
HETATM   28  C   UNL     1      -2.151   9.094 -31.508  1.00  0.00     0.210 C 
ENDBRANCH  23  27
ENDBRANCH  18  21
ENDBRANCH  16  17
ENDBRANCH   2  16
TORSDOF 6
ENDMDL
MODEL 4
REMARK VINA RESULT:      -7.8      2.298      2.756
REMARK  6 active torsions:
REMARK  status: ('A' for Active; 'I' for Inactive)
REMARK    1  A    between atoms: C_2  and  N_3 
REMARK    2  A    between atoms: C_2  and  C_16 
REMARK    3  A    between atoms: N_3  and  C_6 
REMARK    4  A    between atoms: C_16  and  C_17 
REMARK       I    between atoms: C_17  and  N_18 
REMARK    5  A    between atoms: N_18  and  C_19 
REMARK    6  A    between atoms: C_21  and  O_22 
ROOT
HETATM    1  C   UNL     1      -6.818   3.551 -32.907  1.00  0.00     0.040 C 
HETATM    2  C   UNL     1      -5.374   3.160 -32.618  1.00  0.00     0.191 C 
ENDROOT
BRANCH   2   3
HETATM    3  N   UNL     1      -5.120   1.731 -33.038  1.00  0.00    -0.063 N 
HETATM    4  H   UNL     1      -5.298   1.695 -34.065  1.00  0.00     0.278 HD
HETATM    5  H   UNL     1      -4.107   1.572 -32.966  1.00  0.00     0.278 HD
BRANCH   3   6
HETATM    6  C   UNL     1      -5.839   0.576 -32.390  1.00  0.00     0.221 C 
HETATM    7  C   UNL     1      -5.756  -0.712 -33.163  1.00  0.00    -0.011 A 
HETATM    8  C   UNL     1      -4.546  -1.419 -33.218  1.00  0.00     0.009 A 
HETATM    9  C   UNL     1      -6.883  -1.227 -33.828  1.00  0.00     0.011 A 
HETATM   10  C   UNL     1      -4.455  -2.587 -33.980  1.00  0.00     0.019 A 
HETATM   11  S   UNL     1      -3.091  -0.833 -32.377  1.00  0.00    -0.129 SA
HETATM   12  C   UNL     1      -5.573  -3.077 -34.655  1.00  0.00     0.001 A 
HETATM   13  C   UNL     1      -6.788  -2.403 -34.572  1.00  0.00     0.001 A 
HETATM   14  C   UNL     1      -3.801  -0.021 -30.908  1.00  0.00     0.082 C 
HETATM   15  C   UNL     1      -5.281   0.349 -30.980  1.00  0.00     0.048 C 
ENDBRANCH   3   6
ENDBRANCH   2   3
BRANCH   2  16
HETATM   16  C   UNL     1      -4.371   4.160 -33.207  1.00  0.00     0.135 C 
BRANCH  16  17
HETATM   17  C   UNL     1      -3.167   4.316 -32.305  1.00  0.00     0.224 C 
HETATM   18  N   UNL     1      -2.788   5.629 -32.135  1.00  0.00    -0.327 N 
HETATM   19  H   UNL     1      -3.208   6.325 -32.741  1.00  0.00     0.169 HD
HETATM   20  O   UNL     1      -2.613   3.315 -31.858  1.00  0.00    -0.273 OA
BRANCH  18  21
HETATM   21  C   UNL     1      -1.759   6.112 -31.297  1.00  0.00     0.037 A 
HETATM   22  C   UNL     1      -1.943   6.430 -29.948  1.00  0.00     0.066 A 
HETATM   23  C   UNL     1      -0.880   6.941 -29.195  1.00  0.00     0.070 A 
HETATM   24  C   UNL     1       0.379   7.084 -29.776  1.00  0.00     0.037 A 
HETATM   25  C   UNL     1       0.571   6.774 -31.120  1.00  0.00     0.005 A 
HETATM   26  C   UNL     1      -0.500   6.304 -31.882  1.00  0.00     0.029 A 
BRANCH  23  27
HETATM   27  O   UNL     1      -0.957   7.304 -27.877  1.00  0.00    -0.356 OA
HETATM   28  C   UNL     1      -0.370   6.390 -26.957  1.00  0.00     0.210 C 
ENDBRANCH  23  27
ENDBRANCH  18  21
ENDBRANCH  16  17
ENDBRANCH   2  16
TORSDOF 6
ENDMDL
MODEL 5
REMARK VINA RESULT:      -7.6      3.661      7.168
REMARK  6 active torsions:
REMARK  status: ('A' for Active; 'I' for Inactive)
REMARK    1  A    between atoms: C_2  and  N_3 
REMARK    2  A    between atoms: C_2  and  C_16 
REMARK    3  A    between atoms: N_3  and  C_6 
REMARK    4  A    between atoms: C_16  and  C_17 
REMARK       I    between atoms: C_17  and  N_18 
REMARK    5  A    between atoms: N_18  and  C_19 
REMARK    6  A    between atoms: C_21  and  O_22 
ROOT
HETATM    1  C   UNL     1      -6.154   3.855 -34.070  1.00  0.00     0.040 C 
HETATM    2  C   UNL     1      -6.872   2.789 -33.251  1.00  0.00     0.191 C 
ENDROOT
BRANCH   2   3
HETATM    3  N   UNL     1      -5.922   1.669 -32.895  1.00  0.00    -0.063 N 
HETATM    4  H   UNL     1      -5.374   1.468 -33.760  1.00  0.00     0.278 HD
HETATM    5  H   UNL     1      -5.221   2.062 -32.254  1.00  0.00     0.278 HD
BRANCH   3   6
HETATM    6  C   UNL     1      -6.416   0.362 -32.330  1.00  0.00     0.221 C 
HETATM    7  C   UNL     1      -6.083  -0.837 -33.175  1.00  0.00    -0.011 A 
HETATM    8  C   UNL     1      -4.761  -1.300 -33.246  1.00  0.00     0.009 A 
HETATM    9  C   UNL     1      -7.087  -1.514 -33.892  1.00  0.00     0.011 A 
HETATM   10  C   UNL     1      -4.444  -2.380 -34.073  1.00  0.00     0.019 A 
HETATM   11  S   UNL     1      -3.450  -0.502 -32.343  1.00  0.00    -0.129 SA
HETATM   12  C   UNL     1      -5.442  -3.030 -34.798  1.00  0.00     0.001 A 
HETATM   13  C   UNL     1      -6.764  -2.603 -34.701  1.00  0.00     0.001 A 
HETATM   14  C   UNL     1      -4.315   0.070 -30.844  1.00  0.00     0.082 C 
HETATM   15  C   UNL     1      -5.838   0.159 -30.925  1.00  0.00     0.048 C 
ENDBRANCH   3   6
ENDBRANCH   2   3
BRANCH   2  16
HETATM   16  C   UNL     1      -7.604   3.380 -32.040  1.00  0.00     0.135 C 
BRANCH  16  17
HETATM   17  C   UNL     1      -8.965   2.743 -31.864  1.00  0.00     0.224 C 
HETATM   18  N   UNL     1      -9.813   2.982 -32.923  1.00  0.00    -0.327 N 
HETATM   19  H   UNL     1      -9.533   3.679 -33.604  1.00  0.00     0.169 HD
HETATM   20  O   UNL     1      -9.219   2.138 -30.826  1.00  0.00    -0.273 OA
BRANCH  18  21
HETATM   21  C   UNL     1     -11.115   2.466 -33.098  1.00  0.00     0.037 A 
HETATM   22  C   UNL     1     -12.277   3.147 -32.721  1.00  0.00     0.066 A 
HETATM   23  C   UNL     1     -13.530   2.549 -32.893  1.00  0.00     0.070 A 
HETATM   24  C   UNL     1     -13.625   1.293 -33.490  1.00  0.00     0.037 A 
HETATM   25  C   UNL     1     -12.474   0.605 -33.865  1.00  0.00     0.005 A 
HETATM   26  C   UNL     1     -11.222   1.185 -33.655  1.00  0.00     0.029 A 
BRANCH  23  27
HETATM   27  O   UNL     1     -14.724   3.117 -32.539  1.00  0.00    -0.356 OA
HETATM   28  C   UNL     1     -15.798   2.204 -32.337  1.00  0.00     0.210 C 
ENDBRANCH  23  27
ENDBRANCH  18  21
ENDBRANCH  16  17
ENDBRANCH   2  16
TORSDOF 6
ENDMDL
MODEL 6
REMARK VINA RESULT:      -7.5      5.555      8.719
REMARK  6 active torsions:
REMARK  status: ('A' for Active; 'I' for Inactive)
REMARK    1  A    between atoms: C_2  and  N_3 
REMARK    2  A    between atoms: C_2  and  C_16 
REMARK    3  A    between atoms: N_3  and  C_6 
REMARK    4  A    between atoms: C_16  and  C_17 
REMARK       I    between atoms: C_17  and  N_18 
REMARK    5  A    between atoms: N_18  and  C_19 
REMARK    6  A    between atoms: C_21  and  O_22 
ROOT
HETATM    1  C   UNL     1      -9.323   3.001 -32.593  1.00  0.00     0.040 C 
HETATM    2  C   UNL     1     -10.451   2.211 -33.244  1.00  0.00     0.191 C 
ENDROOT
BRANCH   2   3
HETATM    3  N   UNL     1     -10.699   2.707 -34.650  1.00  0.00    -0.063 N 
HETATM    4  H   UNL     1     -10.322   3.679 -34.685  1.00  0.00     0.278 HD
HETATM    5  H   UNL     1     -10.066   2.183 -35.269  1.00  0.00     0.278 HD
BRANCH   3   6
HETATM    6  C   UNL     1     -12.078   2.710 -35.257  1.00  0.00     0.221 C 
HETATM    7  C   UNL     1     -13.185   2.474 -34.266  1.00  0.00    -0.011 A 
HETATM    8  C   UNL     1     -13.525   3.475 -33.343  1.00  0.00     0.009 A 
HETATM    9  C   UNL     1     -13.898   1.262 -34.257  1.00  0.00     0.011 A 
HETATM   10  C   UNL     1     -14.516   3.235 -32.388  1.00  0.00     0.019 A 
HETATM   11  S   UNL     1     -12.677   5.040 -33.319  1.00  0.00    -0.129 SA
HETATM   12  C   UNL     1     -15.202   2.021 -32.373  1.00  0.00     0.001 A 
HETATM   13  C   UNL     1     -14.899   1.038 -33.312  1.00  0.00     0.001 A 
HETATM   14  C   UNL     1     -12.282   5.285 -35.081  1.00  0.00     0.082 C 
HETATM   15  C   UNL     1     -12.323   4.044 -35.970  1.00  0.00     0.048 C 
ENDBRANCH   3   6
ENDBRANCH   2   3
BRANCH   2  16
HETATM   16  C   UNL     1     -10.227   0.696 -33.159  1.00  0.00     0.135 C 
BRANCH  16  17
HETATM   17  C   UNL     1      -8.937   0.300 -33.843  1.00  0.00     0.224 C 
HETATM   18  N   UNL     1      -8.087  -0.407 -33.023  1.00  0.00    -0.327 N 
HETATM   19  H   UNL     1      -8.304  -0.439 -32.033  1.00  0.00     0.169 HD
HETATM   20  O   UNL     1      -8.731   0.661 -34.999  1.00  0.00    -0.273 OA
BRANCH  18  21
HETATM   21  C   UNL     1      -6.849  -0.984 -33.381  1.00  0.00     0.037 A 
HETATM   22  C   UNL     1      -6.727  -2.126 -34.179  1.00  0.00     0.066 A 
HETATM   23  C   UNL     1      -5.463  -2.659 -34.456  1.00  0.00     0.070 A 
HETATM   24  C   UNL     1      -4.319  -2.020 -33.980  1.00  0.00     0.037 A 
HETATM   25  C   UNL     1      -4.431  -0.885 -33.181  1.00  0.00     0.005 A 
HETATM   26  C   UNL     1      -5.693  -0.378 -32.870  1.00  0.00     0.029 A 
BRANCH  23  27
HETATM   27  O   UNL     1      -5.234  -3.781 -35.205  1.00  0.00    -0.356 OA
HETATM   28  C   UNL     1      -6.361  -4.631 -35.391  1.00  0.00     0.210 C 
ENDBRANCH  23  27
ENDBRANCH  18  21
ENDBRANCH  16  17
ENDBRANCH   2  16
TORSDOF 6
ENDMDL
MODEL 7
REMARK VINA RESULT:      -7.3      2.582      3.651
REMARK  6 active torsions:
REMARK  status: ('A' for Active; 'I' for Inactive)
REMARK    1  A    between atoms: C_2  and  N_3 
REMARK    2  A    between atoms: C_2  and  C_16 
REMARK    3  A    between atoms: N_3  and  C_6 
REMARK    4  A    between atoms: C_16  and  C_17 
REMARK       I    between atoms: C_17  and  N_18 
REMARK    5  A    between atoms: N_18  and  C_19 
REMARK    6  A    between atoms: C_21  and  O_22 
ROOT
HETATM    1  C   UNL     1      -5.171   4.532 -34.326  1.00  0.00     0.040 C 
HETATM    2  C   UNL     1      -4.325   4.170 -33.112  1.00  0.00     0.191 C 
ENDROOT
BRANCH   2   3
HETATM    3  N   UNL     1      -4.609   2.750 -32.677  1.00  0.00    -0.063 N 
HETATM    4  H   UNL     1      -4.083   2.135 -33.336  1.00  0.00     0.278 HD
HETATM    5  H   UNL     1      -4.125   2.608 -31.781  1.00  0.00     0.278 HD
BRANCH   3   6
HETATM    6  C   UNL     1      -6.016   2.226 -32.557  1.00  0.00     0.221 C 
HETATM    7  C   UNL     1      -6.290   1.004 -33.393  1.00  0.00    -0.011 A 
HETATM    8  C   UNL     1      -5.735  -0.232 -33.030  1.00  0.00     0.009 A 
HETATM    9  C   UNL     1      -7.108   1.082 -34.534  1.00  0.00     0.011 A 
HETATM   10  C   UNL     1      -5.946  -1.354 -33.835  1.00  0.00     0.019 A 
HETATM   11  S   UNL     1      -4.712  -0.399 -31.583  1.00  0.00    -0.129 SA
HETATM   12  C   UNL     1      -6.740  -1.262 -34.978  1.00  0.00     0.001 A 
HETATM   13  C   UNL     1      -7.328  -0.048 -35.323  1.00  0.00     0.001 A 
HETATM   14  C   UNL     1      -5.446   0.828 -30.453  1.00  0.00     0.082 C 
HETATM   15  C   UNL     1      -6.322   1.905 -31.090  1.00  0.00     0.048 C 
ENDBRANCH   3   6
ENDBRANCH   2   3
BRANCH   2  16
HETATM   16  C   UNL     1      -2.835   4.457 -33.333  1.00  0.00     0.135 C 
BRANCH  16  17
HETATM   17  C   UNL     1      -2.142   4.768 -32.025  1.00  0.00     0.224 C 
HETATM   18  N   UNL     1      -1.842   6.104 -31.879  1.00  0.00    -0.327 N 
HETATM   19  H   UNL     1      -1.937   6.701 -32.692  1.00  0.00     0.169 HD
HETATM   20  O   UNL     1      -1.866   3.852 -31.255  1.00  0.00    -0.273 OA
BRANCH  18  21
HETATM   21  C   UNL     1      -1.270   6.724 -30.746  1.00  0.00     0.037 A 
HETATM   22  C   UNL     1      -2.005   7.460 -29.811  1.00  0.00     0.066 A 
HETATM   23  C   UNL     1      -1.356   8.078 -28.736  1.00  0.00     0.070 A 
HETATM   24  C   UNL     1       0.019   7.916 -28.567  1.00  0.00     0.037 A 
HETATM   25  C   UNL     1       0.759   7.189 -29.496  1.00  0.00     0.005 A 
HETATM   26  C   UNL     1       0.118   6.608 -30.590  1.00  0.00     0.029 A 
BRANCH  23  27
HETATM   27  O   UNL     1      -1.975   8.836 -27.780  1.00  0.00    -0.356 OA
HETATM   28  C   UNL     1      -1.267  10.003 -27.374  1.00  0.00     0.210 C 
ENDBRANCH  23  27
ENDBRANCH  18  21
ENDBRANCH  16  17
ENDBRANCH   2  16
TORSDOF 6
ENDMDL
MODEL 8
REMARK VINA RESULT:      -7.2      4.205      7.259
REMARK  6 active torsions:
REMARK  status: ('A' for Active; 'I' for Inactive)
REMARK    1  A    between atoms: C_2  and  N_3 
REMARK    2  A    between atoms: C_2  and  C_16 
REMARK    3  A    between atoms: N_3  and  C_6 
REMARK    4  A    between atoms: C_16  and  C_17 
REMARK       I    between atoms: C_17  and  N_18 
REMARK    5  A    between atoms: N_18  and  C_19 
REMARK    6  A    between atoms: C_21  and  O_22 
ROOT
HETATM    1  C   UNL     1     -11.456   3.215 -32.772  1.00  0.00     0.040 C 
HETATM    2  C   UNL     1     -10.465   3.021 -33.913  1.00  0.00     0.191 C 
ENDROOT
BRANCH   2   3
HETATM    3  N   UNL     1      -9.086   3.480 -33.498  1.00  0.00    -0.063 N 
HETATM    4  H   UNL     1      -8.430   2.720 -33.780  1.00  0.00     0.278 HD
HETATM    5  H   UNL     1      -8.830   4.259 -34.119  1.00  0.00     0.278 HD
BRANCH   3   6
HETATM    6  C   UNL     1      -8.778   3.872 -32.076  1.00  0.00     0.221 C 
HETATM    7  C   UNL     1      -7.468   3.337 -31.562  1.00  0.00    -0.011 A 
HETATM    8  C   UNL     1      -6.260   3.871 -32.034  1.00  0.00     0.009 A 
HETATM    9  C   UNL     1      -7.437   2.311 -30.601  1.00  0.00     0.011 A 
HETATM   10  C   UNL     1      -5.045   3.338 -31.597  1.00  0.00     0.019 A 
HETATM   11  S   UNL     1      -6.234   5.188 -33.232  1.00  0.00    -0.129 SA
HETATM   12  C   UNL     1      -5.024   2.304 -30.661  1.00  0.00     0.001 A 
HETATM   13  C   UNL     1      -6.219   1.796 -30.157  1.00  0.00     0.001 A 
HETATM   14  C   UNL     1      -7.732   6.129 -32.795  1.00  0.00     0.082 C 
HETATM   15  C   UNL     1      -8.776   5.399 -31.952  1.00  0.00     0.048 C 
ENDBRANCH   3   6
ENDBRANCH   2   3
BRANCH   2  16
HETATM   16  C   UNL     1     -10.493   1.593 -34.472  1.00  0.00     0.135 C 
BRANCH  16  17
HETATM   17  C   UNL     1      -9.409   0.743 -33.845  1.00  0.00     0.224 C 
HETATM   18  N   UNL     1      -8.405   0.414 -34.726  1.00  0.00    -0.327 N 
HETATM   19  H   UNL     1      -8.560   0.600 -35.711  1.00  0.00     0.169 HD
HETATM   20  O   UNL     1      -9.524   0.386 -32.675  1.00  0.00    -0.273 OA
BRANCH  18  21
HETATM   21  C   UNL     1      -7.220  -0.297 -34.434  1.00  0.00     0.037 A 
HETATM   22  C   UNL     1      -7.034  -1.650 -34.732  1.00  0.00     0.066 A 
HETATM   23  C   UNL     1      -5.844  -2.293 -34.373  1.00  0.00     0.070 A 
HETATM   24  C   UNL     1      -4.819  -1.569 -33.764  1.00  0.00     0.037 A 
HETATM   25  C   UNL     1      -4.997  -0.222 -33.460  1.00  0.00     0.005 A 
HETATM   26  C   UNL     1      -6.200   0.408 -33.780  1.00  0.00     0.029 A 
BRANCH  23  27
HETATM   27  O   UNL     1      -5.570  -3.615 -34.596  1.00  0.00    -0.356 OA
HETATM   28  C   UNL     1      -6.629  -4.368 -35.179  1.00  0.00     0.210 C 
ENDBRANCH  23  27
ENDBRANCH  18  21
ENDBRANCH  16  17
ENDBRANCH   2  16
TORSDOF 6
ENDMDL
MODEL 9
REMARK VINA RESULT:      -7.2      5.436      7.795
REMARK  6 active torsions:
REMARK  status: ('A' for Active; 'I' for Inactive)
REMARK    1  A    between atoms: C_2  and  N_3 
REMARK    2  A    between atoms: C_2  and  C_16 
REMARK    3  A    between atoms: N_3  and  C_6 
REMARK    4  A    between atoms: C_16  and  C_17 
REMARK       I    between atoms: C_17  and  N_18 
REMARK    5  A    between atoms: N_18  and  C_19 
REMARK    6  A    between atoms: C_21  and  O_22 
ROOT
HETATM    1  C   UNL     1     -10.179   4.015 -30.461  1.00  0.00     0.040 C 
HETATM    2  C   UNL     1      -9.705   3.143 -31.617  1.00  0.00     0.191 C 
ENDROOT
BRANCH   2   3
HETATM    3  N   UNL     1      -9.960   3.833 -32.937  1.00  0.00    -0.063 N 
HETATM    4  H   UNL     1     -10.644   4.595 -32.738  1.00  0.00     0.278 HD
HETATM    5  H   UNL     1      -9.101   4.341 -33.181  1.00  0.00     0.278 HD
BRANCH   3   6
HETATM    6  C   UNL     1     -10.434   3.072 -34.148  1.00  0.00     0.221 C 
HETATM    7  C   UNL     1     -11.680   2.262 -33.916  1.00  0.00    -0.011 A 
HETATM    8  C   UNL     1     -12.917   2.907 -33.764  1.00  0.00     0.009 A 
HETATM    9  C   UNL     1     -11.626   0.858 -33.860  1.00  0.00     0.011 A 
HETATM   10  C   UNL     1     -14.065   2.157 -33.495  1.00  0.00     0.019 A 
HETATM   11  S   UNL     1     -13.055   4.679 -33.850  1.00  0.00    -0.129 SA
HETATM   12  C   UNL     1     -13.997   0.766 -33.418  1.00  0.00     0.001 A 
HETATM   13  C   UNL     1     -12.781   0.116 -33.608  1.00  0.00     0.001 A 
HETATM   14  C   UNL     1     -11.757   5.104 -35.058  1.00  0.00     0.082 C 
HETATM   15  C   UNL     1     -10.681   4.048 -35.304  1.00  0.00     0.048 C 
ENDBRANCH   3   6
ENDBRANCH   2   3
BRANCH   2  16
HETATM   16  C   UNL     1      -8.254   2.677 -31.439  1.00  0.00     0.135 C 
BRANCH  16  17
HETATM   17  C   UNL     1      -8.074   1.260 -31.936  1.00  0.00     0.224 C 
HETATM   18  N   UNL     1      -6.955   1.103 -32.722  1.00  0.00    -0.327 N 
HETATM   19  H   UNL     1      -6.477   1.940 -33.037  1.00  0.00     0.169 HD
HETATM   20  O   UNL     1      -8.920   0.412 -31.662  1.00  0.00    -0.273 OA
BRANCH  18  21
HETATM   21  C   UNL     1      -6.468  -0.104 -33.271  1.00  0.00     0.037 A 
HETATM   22  C   UNL     1      -5.351  -0.785 -32.778  1.00  0.00     0.066 A 
HETATM   23  C   UNL     1      -4.908  -1.955 -33.404  1.00  0.00     0.070 A 
HETATM   24  C   UNL     1      -5.613  -2.473 -34.490  1.00  0.00     0.037 A 
HETATM   25  C   UNL     1      -6.724  -1.799 -34.990  1.00  0.00     0.005 A 
HETATM   26  C   UNL     1      -7.141  -0.610 -34.392  1.00  0.00     0.029 A 
BRANCH  23  27
HETATM   27  O   UNL     1      -3.817  -2.685 -33.017  1.00  0.00    -0.356 OA
HETATM   28  C   UNL     1      -3.031  -2.105 -31.982  1.00  0.00     0.210 C 
ENDBRANCH  23  27
ENDBRANCH  18  21
ENDBRANCH  16  17
ENDBRANCH   2  16
TORSDOF 6
ENDMDL
MODEL 10
REMARK VINA RESULT:      -7.0     16.865     18.601
REMARK  6 active torsions:
REMARK  status: ('A' for Active; 'I' for Inactive)
REMARK    1  A    between atoms: C_2  and  N_3 
REMARK    2  A    between atoms: C_2  and  C_16 
REMARK    3  A    between atoms: N_3  and  C_6 
REMARK    4  A    between atoms: C_16  and  C_17 
REMARK       I    between atoms: C_17  and  N_18 
REMARK    5  A    between atoms: N_18  and  C_19 
REMARK    6  A    between atoms: C_21  and  O_22 
ROOT
HETATM    1  C   UNL     1      -6.462 -15.203 -42.383  1.00  0.00     0.040 C 
HETATM    2  C   UNL     1      -5.440 -14.093 -42.172  1.00  0.00     0.191 C 
ENDROOT
BRANCH   2   3
HETATM    3  N   UNL     1      -5.300 -13.778 -40.700  1.00  0.00    -0.063 N 
HETATM    4  H   UNL     1      -5.650 -14.618 -40.190  1.00  0.00     0.278 HD
HETATM    5  H   UNL     1      -4.294 -13.772 -40.489  1.00  0.00     0.278 HD
BRANCH   3   6
HETATM    6  C   UNL     1      -5.931 -12.553 -40.091  1.00  0.00     0.221 C 
HETATM    7  C   UNL     1      -7.382 -12.724 -39.731  1.00  0.00    -0.011 A 
HETATM    8  C   UNL     1      -7.743 -13.527 -38.638  1.00  0.00     0.009 A 
HETATM    9  C   UNL     1      -8.389 -12.079 -40.471  1.00  0.00     0.011 A 
HETATM   10  C   UNL     1      -9.093 -13.729 -38.338  1.00  0.00     0.019 A 
HETATM   11  S   UNL     1      -6.515 -14.350 -37.647  1.00  0.00    -0.129 SA
HETATM   12  C   UNL     1     -10.084 -13.103 -39.092  1.00  0.00     0.001 A 
HETATM   13  C   UNL     1      -9.733 -12.272 -40.153  1.00  0.00     0.001 A 
HETATM   14  C   UNL     1      -5.125 -13.173 -37.709  1.00  0.00     0.082 C 
HETATM   15  C   UNL     1      -5.151 -12.143 -38.836  1.00  0.00     0.048 C 
ENDBRANCH   3   6
ENDBRANCH   2   3
BRANCH   2  16
HETATM   16  C   UNL     1      -4.104 -14.392 -42.864  1.00  0.00     0.135 C 
BRANCH  16  17
HETATM   17  C   UNL     1      -3.093 -14.938 -41.880  1.00  0.00     0.224 C 
HETATM   18  N   UNL     1      -2.175 -13.997 -41.472  1.00  0.00    -0.327 N 
HETATM   19  H   UNL     1      -2.142 -13.119 -41.978  1.00  0.00     0.169 HD
HETATM   20  O   UNL     1      -3.131 -16.128 -41.574  1.00  0.00    -0.273 OA
BRANCH  18  21
HETATM   21  C   UNL     1      -1.158 -14.168 -40.507  1.00  0.00     0.037 A 
HETATM   22  C   UNL     1      -0.023 -14.959 -40.709  1.00  0.00     0.066 A 
HETATM   23  C   UNL     1       0.921 -15.110 -39.687  1.00  0.00     0.070 A 
HETATM   24  C   UNL     1       0.756 -14.427 -38.482  1.00  0.00     0.037 A 
HETATM   25  C   UNL     1      -0.373 -13.640 -38.271  1.00  0.00     0.005 A 
HETATM   26  C   UNL     1      -1.335 -13.524 -39.276  1.00  0.00     0.029 A 
BRANCH  23  27
HETATM   27  O   UNL     1       2.052 -15.875 -39.772  1.00  0.00    -0.356 OA
HETATM   28  C   UNL     1       2.234 -16.813 -38.716  1.00  0.00     0.210 C 
ENDBRANCH  23  27
ENDBRANCH  18  21
ENDBRANCH  16  17
ENDBRANCH   2  16
TORSDOF 6
ENDMDL
