MODEL 1
REMARK VINA RESULT:      -9.0      0.000      0.000
REMARK  2 active torsions:
REMARK  status: ('A' for Active; 'I' for Inactive)
REMARK    1  A    between atoms: C_4  and  C_5 
REMARK       I    between atoms: C_5  and  N_6 
REMARK    2  A    between atoms: N_6  and  C_7 
ROOT
HETATM    1  C   UNL     1      -8.899   0.864 -33.201  1.00  0.00     0.277 C 
HETATM    2  N   UNL     1      -8.105   0.323 -34.183  1.00  0.00    -0.321 N 
HETATM    3  O   UNL     1      -8.867   0.706 -31.995  1.00  0.00    -0.266 OA
HETATM    4  H   UNL     1      -8.519   0.391 -35.110  1.00  0.00     0.169 HD
ENDROOT
BRANCH   1   5
HETATM    5  C   UNL     1     -10.007   1.727 -33.811  1.00  0.00     0.156 A 
HETATM    6  N   UNL     1      -9.640   2.920 -34.185  1.00  0.00    -0.164 NA
HETATM    7  N   UNL     1     -10.577   3.761 -34.729  1.00  0.00    -0.238 N 
HETATM    8  C   UNL     1     -10.106   5.060 -35.168  1.00  0.00     0.183 C 
HETATM    9  C   UNL     1     -11.909   3.420 -34.945  1.00  0.00     0.274 A 
HETATM   10  C   UNL     1     -12.326   2.083 -34.484  1.00  0.00     0.046 A 
HETATM   11  O   UNL     1     -12.729   4.167 -35.473  1.00  0.00    -0.266 OA
HETATM   12  C   UNL     1     -11.390   1.230 -33.906  1.00  0.00     0.016 A 
HETATM   13  C   UNL     1     -13.665   1.688 -34.611  1.00  0.00     0.018 A 
HETATM   14  C   UNL     1     -11.801  -0.022 -33.432  1.00  0.00     0.015 A 
HETATM   15  C   UNL     1     -13.138  -0.417 -33.558  1.00  0.00     0.001 A 
HETATM   16  C   UNL     1     -14.068   0.436 -34.150  1.00  0.00     0.001 A 
ENDBRANCH   1   5
BRANCH   2  17
HETATM   17  C   UNL     1      -6.937  -0.454 -34.070  1.00  0.00     0.047 A 
HETATM   18  C   UNL     1      -5.715  -0.070 -33.458  1.00  0.00     0.019 A 
HETATM   19  C   UNL     1      -4.651  -0.986 -33.466  1.00  0.00     0.044 A 
HETATM   20  C   UNL     1      -5.201   1.103 -32.822  1.00  0.00     0.033 A 
HETATM   21  N   UNL     1      -3.582  -0.400 -32.823  1.00  0.00    -0.365 N 
HETATM   22  C   UNL     1      -4.730  -2.254 -34.051  1.00  0.00     0.030 A 
HETATM   23  H   UNL     1      -2.687  -0.846 -32.680  1.00  0.00     0.165 HD
HETATM   24  C   UNL     1      -3.900   0.868 -32.438  1.00  0.00     0.089 A 
HETATM   25  C   UNL     1      -5.927  -2.608 -34.668  1.00  0.00     0.005 A 
HETATM   26  C   UNL     1      -7.002  -1.724 -34.682  1.00  0.00     0.030 A 
ENDBRANCH   2  17
TORSDOF 2
ENDMDL
MODEL 2
REMARK VINA RESULT:      -8.8      2.163      7.407
REMARK  2 active torsions:
REMARK  status: ('A' for Active; 'I' for Inactive)
REMARK    1  A    between atoms: C_4  and  C_5 
REMARK       I    between atoms: C_5  and  N_6 
REMARK    2  A    between atoms: N_6  and  C_7 
ROOT
HETATM    1  C   UNL     1      -6.810   0.050 -34.315  1.00  0.00     0.277 C 
HETATM    2  N   UNL     1      -7.817   0.287 -33.410  1.00  0.00    -0.321 N 
HETATM    3  O   UNL     1      -6.735   0.340 -35.494  1.00  0.00    -0.266 OA
HETATM    4  H   UNL     1      -7.753  -0.301 -32.582  1.00  0.00     0.169 HD
ENDROOT
BRANCH   1   5
HETATM    5  C   UNL     1      -5.684  -0.765 -33.674  1.00  0.00     0.156 A 
HETATM    6  N   UNL     1      -4.910  -0.103 -32.861  1.00  0.00    -0.164 NA
HETATM    7  N   UNL     1      -3.869  -0.759 -32.257  1.00  0.00    -0.238 N 
HETATM    8  C   UNL     1      -3.067   0.015 -31.328  1.00  0.00     0.183 C 
HETATM    9  C   UNL     1      -3.588  -2.111 -32.423  1.00  0.00     0.274 A 
HETATM   10  C   UNL     1      -4.444  -2.846 -33.374  1.00  0.00     0.046 A 
HETATM   11  O   UNL     1      -2.678  -2.698 -31.842  1.00  0.00    -0.266 OA
HETATM   12  C   UNL     1      -5.488  -2.185 -34.014  1.00  0.00     0.016 A 
HETATM   13  C   UNL     1      -4.187  -4.198 -33.642  1.00  0.00     0.018 A 
HETATM   14  C   UNL     1      -6.270  -2.877 -34.948  1.00  0.00     0.015 A 
HETATM   15  C   UNL     1      -6.014  -4.226 -35.216  1.00  0.00     0.001 A 
HETATM   16  C   UNL     1      -4.976  -4.887 -34.562  1.00  0.00     0.001 A 
ENDBRANCH   1   5
BRANCH   2  17
HETATM   17  C   UNL     1      -8.987   1.057 -33.548  1.00  0.00     0.047 A 
HETATM   18  C   UNL     1      -9.065   2.459 -33.753  1.00  0.00     0.019 A 
HETATM   19  C   UNL     1     -10.336   3.048 -33.844  1.00  0.00     0.044 A 
HETATM   20  C   UNL     1      -8.137   3.542 -33.857  1.00  0.00     0.033 A 
HETATM   21  N   UNL     1     -10.163   4.401 -34.041  1.00  0.00    -0.365 N 
HETATM   22  C   UNL     1     -11.530   2.327 -33.736  1.00  0.00     0.030 A 
HETATM   23  H   UNL     1     -10.918   5.064 -34.149  1.00  0.00     0.165 HD
HETATM   24  C   UNL     1      -8.836   4.712 -34.040  1.00  0.00     0.089 A 
HETATM   25  C   UNL     1     -11.438   0.957 -33.511  1.00  0.00     0.005 A 
HETATM   26  C   UNL     1     -10.195   0.338 -33.412  1.00  0.00     0.030 A 
ENDBRANCH   2  17
TORSDOF 2
ENDMDL
MODEL 3
REMARK VINA RESULT:      -8.8      1.777      7.028
REMARK  2 active torsions:
REMARK  status: ('A' for Active; 'I' for Inactive)
REMARK    1  A    between atoms: C_4  and  C_5 
REMARK       I    between atoms: C_5  and  N_6 
REMARK    2  A    between atoms: N_6  and  C_7 
ROOT
HETATM    1  C   UNL     1      -8.783   0.624 -32.412  1.00  0.00     0.277 C 
HETATM    2  N   UNL     1      -9.335   1.139 -33.560  1.00  0.00    -0.321 N 
HETATM    3  O   UNL     1      -9.309   0.334 -31.354  1.00  0.00    -0.266 OA
HETATM    4  H   UNL     1      -8.644   1.551 -34.183  1.00  0.00     0.169 HD
ENDROOT
BRANCH   1   5
HETATM    5  C   UNL     1      -7.264   0.493 -32.550  1.00  0.00     0.156 A 
HETATM    6  N   UNL     1      -6.572   1.465 -32.027  1.00  0.00    -0.164 NA
HETATM    7  N   UNL     1      -5.205   1.429 -32.120  1.00  0.00    -0.238 N 
HETATM    8  C   UNL     1      -4.482   2.513 -31.483  1.00  0.00     0.183 C 
HETATM    9  C   UNL     1      -4.483   0.399 -32.715  1.00  0.00     0.274 A 
HETATM   10  C   UNL     1      -5.274  -0.679 -33.340  1.00  0.00     0.046 A 
HETATM   11  O   UNL     1      -3.256   0.357 -32.755  1.00  0.00    -0.266 OA
HETATM   12  C   UNL     1      -6.663  -0.641 -33.275  1.00  0.00     0.016 A 
HETATM   13  C   UNL     1      -4.622  -1.722 -34.012  1.00  0.00     0.018 A 
HETATM   14  C   UNL     1      -7.409  -1.644 -33.906  1.00  0.00     0.015 A 
HETATM   15  C   UNL     1      -6.759  -2.685 -34.578  1.00  0.00     0.001 A 
HETATM   16  C   UNL     1      -5.367  -2.726 -34.628  1.00  0.00     0.001 A 
ENDBRANCH   1   5
BRANCH   2  17
HETATM   17  C   UNL     1     -10.687   1.344 -33.895  1.00  0.00     0.047 A 
HETATM   18  C   UNL     1     -11.248   2.497 -34.505  1.00  0.00     0.019 A 
HETATM   19  C   UNL     1     -12.633   2.517 -34.740  1.00  0.00     0.044 A 
HETATM   20  C   UNL     1     -10.771   3.770 -34.944  1.00  0.00     0.033 A 
HETATM   21  N   UNL     1     -12.944   3.721 -35.332  1.00  0.00    -0.365 N 
HETATM   22  C   UNL     1     -13.488   1.464 -34.397  1.00  0.00     0.030 A 
HETATM   23  H   UNL     1     -13.875   3.994 -35.616  1.00  0.00     0.165 HD
HETATM   24  C   UNL     1     -11.827   4.492 -35.451  1.00  0.00     0.089 A 
HETATM   25  C   UNL     1     -12.927   0.351 -33.779  1.00  0.00     0.005 A 
HETATM   26  C   UNL     1     -11.559   0.296 -33.527  1.00  0.00     0.030 A 
ENDBRANCH   2  17
TORSDOF 2
ENDMDL
MODEL 4
REMARK VINA RESULT:      -8.8      2.985      5.731
REMARK  2 active torsions:
REMARK  status: ('A' for Active; 'I' for Inactive)
REMARK    1  A    between atoms: C_4  and  C_5 
REMARK       I    between atoms: C_5  and  N_6 
REMARK    2  A    between atoms: N_6  and  C_7 
ROOT
HETATM    1  C   UNL     1      -5.961   0.134 -32.392  1.00  0.00     0.277 C 
HETATM    2  N   UNL     1      -5.287  -0.560 -33.368  1.00  0.00    -0.321 N 
HETATM    3  O   UNL     1      -6.362  -0.238 -31.305  1.00  0.00    -0.266 OA
HETATM    4  H   UNL     1      -5.324  -0.104 -34.277  1.00  0.00     0.169 HD
ENDROOT
BRANCH   1   5
HETATM    5  C   UNL     1      -6.273   1.559 -32.855  1.00  0.00     0.156 A 
HETATM    6  N   UNL     1      -7.486   1.749 -33.292  1.00  0.00    -0.164 NA
HETATM    7  N   UNL     1      -7.841   2.996 -33.738  1.00  0.00    -0.238 N 
HETATM    8  C   UNL     1      -9.215   3.162 -34.172  1.00  0.00     0.183 C 
HETATM    9  C   UNL     1      -6.999   4.104 -33.730  1.00  0.00     0.274 A 
HETATM   10  C   UNL     1      -5.617   3.873 -33.271  1.00  0.00     0.046 A 
HETATM   11  O   UNL     1      -7.343   5.227 -34.092  1.00  0.00    -0.266 OA
HETATM   12  C   UNL     1      -5.236   2.605 -32.841  1.00  0.00     0.016 A 
HETATM   13  C   UNL     1      -4.691   4.925 -33.291  1.00  0.00     0.018 A 
HETATM   14  C   UNL     1      -3.911   2.382 -32.446  1.00  0.00     0.015 A 
HETATM   15  C   UNL     1      -2.986   3.432 -32.466  1.00  0.00     0.001 A 
HETATM   16  C   UNL     1      -3.376   4.703 -32.884  1.00  0.00     0.001 A 
ENDBRANCH   1   5
BRANCH   2  17
HETATM   17  C   UNL     1      -4.738  -1.856 -33.335  1.00  0.00     0.047 A 
HETATM   18  C   UNL     1      -5.163  -2.980 -34.092  1.00  0.00     0.019 A 
HETATM   19  C   UNL     1      -4.496  -4.201 -33.899  1.00  0.00     0.044 A 
HETATM   20  C   UNL     1      -6.194  -3.258 -35.041  1.00  0.00     0.033 A 
HETATM   21  N   UNL     1      -5.074  -5.135 -34.730  1.00  0.00    -0.365 N 
HETATM   22  C   UNL     1      -3.440  -4.368 -32.996  1.00  0.00     0.030 A 
HETATM   23  H   UNL     1      -4.780  -6.100 -34.798  1.00  0.00     0.165 HD
HETATM   24  C   UNL     1      -6.110  -4.578 -35.418  1.00  0.00     0.089 A 
HETATM   25  C   UNL     1      -3.051  -3.263 -32.245  1.00  0.00     0.005 A 
HETATM   26  C   UNL     1      -3.690  -2.038 -32.406  1.00  0.00     0.030 A 
ENDBRANCH   2  17
TORSDOF 2
ENDMDL
MODEL 5
REMARK VINA RESULT:      -8.8      1.858      7.158
REMARK  2 active torsions:
REMARK  status: ('A' for Active; 'I' for Inactive)
REMARK    1  A    between atoms: C_4  and  C_5 
REMARK       I    between atoms: C_5  and  N_6 
REMARK    2  A    between atoms: N_6  and  C_7 
ROOT
HETATM    1  C   UNL     1      -8.462   0.993 -32.562  1.00  0.00     0.277 C 
HETATM    2  N   UNL     1      -8.851   1.649 -33.706  1.00  0.00    -0.321 N 
HETATM    3  O   UNL     1      -9.093   0.739 -31.553  1.00  0.00    -0.266 OA
HETATM    4  H   UNL     1      -8.065   1.972 -34.265  1.00  0.00     0.169 HD
ENDROOT
BRANCH   1   5
HETATM    5  C   UNL     1      -6.978   0.622 -32.626  1.00  0.00     0.156 A 
HETATM    6  N   UNL     1      -6.166   1.480 -32.077  1.00  0.00    -0.164 NA
HETATM    7  N   UNL     1      -4.819   1.229 -32.104  1.00  0.00    -0.238 N 
HETATM    8  C   UNL     1      -3.965   2.195 -31.440  1.00  0.00     0.183 C 
HETATM    9  C   UNL     1      -4.242   0.089 -32.656  1.00  0.00     0.274 A 
HETATM   10  C   UNL     1      -5.163  -0.859 -33.311  1.00  0.00     0.046 A 
HETATM   11  O   UNL     1      -3.036  -0.146 -32.636  1.00  0.00    -0.266 OA
HETATM   12  C   UNL     1      -6.531  -0.602 -33.313  1.00  0.00     0.016 A 
HETATM   13  C   UNL     1      -4.653  -2.001 -33.944  1.00  0.00     0.018 A 
HETATM   14  C   UNL     1      -7.395  -1.484 -33.973  1.00  0.00     0.015 A 
HETATM   15  C   UNL     1      -6.887  -2.624 -34.605  1.00  0.00     0.001 A 
HETATM   16  C   UNL     1      -5.518  -2.884 -34.588  1.00  0.00     0.001 A 
ENDBRANCH   1   5
BRANCH   2  17
HETATM   17  C   UNL     1     -10.129   2.088 -34.100  1.00  0.00     0.047 A 
HETATM   18  C   UNL     1     -11.350   1.374 -33.981  1.00  0.00     0.019 A 
HETATM   19  C   UNL     1     -12.524   1.981 -34.456  1.00  0.00     0.044 A 
HETATM   20  C   UNL     1     -11.751   0.083 -33.517  1.00  0.00     0.033 A 
HETATM   21  N   UNL     1     -13.569   1.111 -34.236  1.00  0.00    -0.365 N 
HETATM   22  C   UNL     1     -12.551   3.249 -35.047  1.00  0.00     0.030 A 
HETATM   23  H   UNL     1     -14.532   1.302 -34.477  1.00  0.00     0.165 HD
HETATM   24  C   UNL     1     -13.111  -0.045 -33.678  1.00  0.00     0.089 A 
HETATM   25  C   UNL     1     -11.343   3.927 -35.178  1.00  0.00     0.005 A 
HETATM   26  C   UNL     1     -10.159   3.356 -34.721  1.00  0.00     0.030 A 
ENDBRANCH   2  17
TORSDOF 2
ENDMDL
MODEL 6
REMARK VINA RESULT:      -8.7      0.824      1.946
REMARK  2 active torsions:
REMARK  status: ('A' for Active; 'I' for Inactive)
REMARK    1  A    between atoms: C_4  and  C_5 
REMARK       I    between atoms: C_5  and  N_6 
REMARK    2  A    between atoms: N_6  and  C_7 
ROOT
HETATM    1  C   UNL     1      -8.579   1.283 -33.019  1.00  0.00     0.277 C 
HETATM    2  N   UNL     1      -7.647   0.843 -33.928  1.00  0.00    -0.321 N 
HETATM    3  O   UNL     1      -8.633   1.122 -31.814  1.00  0.00    -0.266 OA
HETATM    4  H   UNL     1      -7.984   0.870 -34.887  1.00  0.00     0.169 HD
ENDROOT
BRANCH   1   5
HETATM    5  C   UNL     1      -9.722   2.018 -33.726  1.00  0.00     0.156 A 
HETATM    6  N   UNL     1      -9.437   3.219 -34.142  1.00  0.00    -0.164 NA
HETATM    7  N   UNL     1     -10.411   3.949 -34.773  1.00  0.00    -0.238 N 
HETATM    8  C   UNL     1     -10.028   5.263 -35.255  1.00  0.00     0.183 C 
HETATM    9  C   UNL     1     -11.696   3.486 -35.036  1.00  0.00     0.274 A 
HETATM   10  C   UNL     1     -12.023   2.140 -34.528  1.00  0.00     0.046 A 
HETATM   11  O   UNL     1     -12.547   4.134 -35.641  1.00  0.00    -0.266 OA
HETATM   12  C   UNL     1     -11.052   1.399 -33.863  1.00  0.00     0.016 A 
HETATM   13  C   UNL     1     -13.316   1.625 -34.700  1.00  0.00     0.018 A 
HETATM   14  C   UNL     1     -11.381   0.140 -33.345  1.00  0.00     0.015 A 
HETATM   15  C   UNL     1     -12.671  -0.374 -33.516  1.00  0.00     0.001 A 
HETATM   16  C   UNL     1     -13.636   0.366 -34.195  1.00  0.00     0.001 A 
ENDBRANCH   1   5
BRANCH   2  17
HETATM   17  C   UNL     1      -6.411   0.204 -33.711  1.00  0.00     0.047 A 
HETATM   18  C   UNL     1      -6.065  -1.125 -34.067  1.00  0.00     0.019 A 
HETATM   19  C   UNL     1      -4.780  -1.587 -33.743  1.00  0.00     0.044 A 
HETATM   20  C   UNL     1      -6.726  -2.238 -34.674  1.00  0.00     0.033 A 
HETATM   21  N   UNL     1      -4.674  -2.889 -34.182  1.00  0.00    -0.365 N 
HETATM   22  C   UNL     1      -3.825  -0.808 -33.081  1.00  0.00     0.030 A 
HETATM   23  H   UNL     1      -3.846  -3.460 -34.083  1.00  0.00     0.165 HD
HETATM   24  C   UNL     1      -5.850  -3.297 -34.737  1.00  0.00     0.089 A 
HETATM   25  C   UNL     1      -4.186   0.485 -32.717  1.00  0.00     0.005 A 
HETATM   26  C   UNL     1      -5.453   0.977 -33.019  1.00  0.00     0.030 A 
ENDBRANCH   2  17
TORSDOF 2
ENDMDL
MODEL 7
REMARK VINA RESULT:      -8.6      2.239      3.439
REMARK  2 active torsions:
REMARK  status: ('A' for Active; 'I' for Inactive)
REMARK    1  A    between atoms: C_4  and  C_5 
REMARK       I    between atoms: C_5  and  N_6 
REMARK    2  A    between atoms: N_6  and  C_7 
ROOT
HETATM    1  C   UNL     1      -6.815   0.315 -32.599  1.00  0.00     0.277 C 
HETATM    2  N   UNL     1      -6.152  -0.349 -33.603  1.00  0.00    -0.321 N 
HETATM    3  O   UNL     1      -7.008  -0.009 -31.442  1.00  0.00    -0.266 OA
HETATM    4  H   UNL     1      -6.381   0.002 -34.530  1.00  0.00     0.169 HD
ENDROOT
BRANCH   1   5
HETATM    5  C   UNL     1      -7.431   1.616 -33.122  1.00  0.00     0.156 A 
HETATM    6  N   UNL     1      -6.611   2.625 -33.205  1.00  0.00    -0.164 NA
HETATM    7  N   UNL     1      -7.088   3.830 -33.651  1.00  0.00    -0.238 N 
HETATM    8  C   UNL     1      -6.124   4.908 -33.765  1.00  0.00     0.183 C 
HETATM    9  C   UNL     1      -8.399   4.055 -34.061  1.00  0.00     0.274 A 
HETATM   10  C   UNL     1      -9.330   2.919 -33.929  1.00  0.00     0.046 A 
HETATM   11  O   UNL     1      -8.804   5.129 -34.501  1.00  0.00    -0.266 OA
HETATM   12  C   UNL     1      -8.865   1.698 -33.452  1.00  0.00     0.016 A 
HETATM   13  C   UNL     1     -10.681   3.083 -34.264  1.00  0.00     0.018 A 
HETATM   14  C   UNL     1      -9.762   0.635 -33.289  1.00  0.00     0.015 A 
HETATM   15  C   UNL     1     -11.111   0.798 -33.622  1.00  0.00     0.001 A 
HETATM   16  C   UNL     1     -11.570   2.019 -34.113  1.00  0.00     0.001 A 
ENDBRANCH   1   5
BRANCH   2  17
HETATM   17  C   UNL     1      -5.382  -1.526 -33.547  1.00  0.00     0.047 A 
HETATM   18  C   UNL     1      -5.653  -2.754 -34.204  1.00  0.00     0.019 A 
HETATM   19  C   UNL     1      -4.767  -3.825 -34.003  1.00  0.00     0.044 A 
HETATM   20  C   UNL     1      -6.685  -3.269 -35.049  1.00  0.00     0.033 A 
HETATM   21  N   UNL     1      -5.229  -4.899 -34.732  1.00  0.00    -0.365 N 
HETATM   22  C   UNL     1      -3.637  -3.747 -33.183  1.00  0.00     0.030 A 
HETATM   23  H   UNL     1      -4.774  -5.801 -34.773  1.00  0.00     0.165 HD
HETATM   24  C   UNL     1      -6.395  -4.577 -35.361  1.00  0.00     0.089 A 
HETATM   25  C   UNL     1      -3.396  -2.544 -32.527  1.00  0.00     0.005 A 
HETATM   26  C   UNL     1      -4.254  -1.461 -32.700  1.00  0.00     0.030 A 
ENDBRANCH   2  17
TORSDOF 2
ENDMDL
MODEL 8
REMARK VINA RESULT:      -8.6      1.589      3.365
REMARK  2 active torsions:
REMARK  status: ('A' for Active; 'I' for Inactive)
REMARK    1  A    between atoms: C_4  and  C_5 
REMARK       I    between atoms: C_5  and  N_6 
REMARK    2  A    between atoms: N_6  and  C_7 
ROOT
HETATM    1  C   UNL     1      -8.973   0.663 -32.765  1.00  0.00     0.277 C 
HETATM    2  N   UNL     1      -8.184   0.060 -33.715  1.00  0.00    -0.321 N 
HETATM    3  O   UNL     1      -8.753   0.876 -31.586  1.00  0.00    -0.266 OA
HETATM    4  H   UNL     1      -8.709  -0.243 -34.532  1.00  0.00     0.169 HD
ENDROOT
BRANCH   1   5
HETATM    5  C   UNL     1     -10.341   1.029 -33.346  1.00  0.00     0.156 A 
HETATM    6  N   UNL     1     -11.252   0.102 -33.250  1.00  0.00    -0.164 NA
HETATM    7  N   UNL     1     -12.501   0.345 -33.759  1.00  0.00    -0.238 N 
HETATM    8  C   UNL     1     -13.488  -0.704 -33.586  1.00  0.00     0.183 C 
HETATM    9  C   UNL     1     -12.889   1.542 -34.354  1.00  0.00     0.274 A 
HETATM   10  C   UNL     1     -11.843   2.573 -34.494  1.00  0.00     0.046 A 
HETATM   11  O   UNL     1     -14.024   1.764 -34.768  1.00  0.00    -0.266 OA
HETATM   12  C   UNL     1     -10.563   2.327 -34.005  1.00  0.00     0.016 A 
HETATM   13  C   UNL     1     -12.138   3.782 -35.137  1.00  0.00     0.018 A 
HETATM   14  C   UNL     1      -9.564   3.293 -34.179  1.00  0.00     0.015 A 
HETATM   15  C   UNL     1      -9.858   4.500 -34.821  1.00  0.00     0.001 A 
HETATM   16  C   UNL     1     -11.144   4.747 -35.296  1.00  0.00     0.001 A 
ENDBRANCH   1   5
BRANCH   2  17
HETATM   17  C   UNL     1      -6.841  -0.355 -33.637  1.00  0.00     0.047 A 
HETATM   18  C   UNL     1      -6.309  -1.600 -34.065  1.00  0.00     0.019 A 
HETATM   19  C   UNL     1      -4.936  -1.834 -33.881  1.00  0.00     0.044 A 
HETATM   20  C   UNL     1      -6.825  -2.804 -34.637  1.00  0.00     0.033 A 
HETATM   21  N   UNL     1      -4.652  -3.092 -34.366  1.00  0.00    -0.365 N 
HETATM   22  C   UNL     1      -4.069  -0.908 -33.291  1.00  0.00     0.030 A 
HETATM   23  H   UNL     1      -3.733  -3.510 -34.364  1.00  0.00     0.165 HD
HETATM   24  C   UNL     1      -5.790  -3.692 -34.816  1.00  0.00     0.089 A 
HETATM   25  C   UNL     1      -4.610   0.298 -32.856  1.00  0.00     0.005 A 
HETATM   26  C   UNL     1      -5.966   0.565 -33.019  1.00  0.00     0.030 A 
ENDBRANCH   2  17
TORSDOF 2
ENDMDL
MODEL 9
REMARK VINA RESULT:      -8.5      2.242      7.542
REMARK  2 active torsions:
REMARK  status: ('A' for Active; 'I' for Inactive)
REMARK    1  A    between atoms: C_4  and  C_5 
REMARK       I    between atoms: C_5  and  N_6 
REMARK    2  A    between atoms: N_6  and  C_7 
ROOT
HETATM    1  C   UNL     1      -6.878   0.874 -33.700  1.00  0.00     0.277 C 
HETATM    2  N   UNL     1      -7.760   1.096 -32.670  1.00  0.00    -0.321 N 
HETATM    3  O   UNL     1      -6.907   1.267 -34.852  1.00  0.00    -0.266 OA
HETATM    4  H   UNL     1      -7.656   0.431 -31.908  1.00  0.00     0.169 HD
ENDROOT
BRANCH   1   5
HETATM    5  C   UNL     1      -5.762  -0.079 -33.265  1.00  0.00     0.156 A 
HETATM    6  N   UNL     1      -4.886   0.428 -32.445  1.00  0.00    -0.164 NA
HETATM    7  N   UNL     1      -3.846  -0.356 -32.018  1.00  0.00    -0.238 N 
HETATM    8  C   UNL     1      -2.925   0.245 -31.072  1.00  0.00     0.183 C 
HETATM    9  C   UNL     1      -3.668  -1.689 -32.375  1.00  0.00     0.274 A 
HETATM   10  C   UNL     1      -4.641  -2.246 -33.333  1.00  0.00     0.046 A 
HETATM   11  O   UNL     1      -2.756  -2.395 -31.951  1.00  0.00    -0.266 OA
HETATM   12  C   UNL     1      -5.686  -1.452 -33.795  1.00  0.00     0.016 A 
HETATM   13  C   UNL     1      -4.495  -3.564 -33.788  1.00  0.00     0.018 A 
HETATM   14  C   UNL     1      -6.582  -1.973 -34.737  1.00  0.00     0.015 A 
HETATM   15  C   UNL     1      -6.437  -3.287 -35.192  1.00  0.00     0.001 A 
HETATM   16  C   UNL     1      -5.397  -4.083 -34.716  1.00  0.00     0.001 A 
ENDBRANCH   1   5
BRANCH   2  17
HETATM   17  C   UNL     1      -8.870   1.960 -32.606  1.00  0.00     0.047 A 
HETATM   18  C   UNL     1     -10.212   1.649 -32.949  1.00  0.00     0.019 A 
HETATM   19  C   UNL     1     -11.178   2.661 -32.836  1.00  0.00     0.044 A 
HETATM   20  C   UNL     1     -10.910   0.513 -33.464  1.00  0.00     0.033 A 
HETATM   21  N   UNL     1     -12.392   2.133 -33.218  1.00  0.00    -0.365 N 
HETATM   22  C   UNL     1     -10.886   3.962 -32.411  1.00  0.00     0.030 A 
HETATM   23  H   UNL     1     -13.262   2.646 -33.224  1.00  0.00     0.165 HD
HETATM   24  C   UNL     1     -12.240   0.836 -33.611  1.00  0.00     0.089 A 
HETATM   25  C   UNL     1      -9.563   4.258 -32.100  1.00  0.00     0.005 A 
HETATM   26  C   UNL     1      -8.576   3.281 -32.203  1.00  0.00     0.030 A 
ENDBRANCH   2  17
TORSDOF 2
ENDMDL
MODEL 10
REMARK VINA RESULT:      -8.4      4.503      7.654
REMARK  2 active torsions:
REMARK  status: ('A' for Active; 'I' for Inactive)
REMARK    1  A    between atoms: C_4  and  C_5 
REMARK       I    between atoms: C_5  and  N_6 
REMARK    2  A    between atoms: N_6  and  C_7 
ROOT
HETATM    1  C   UNL     1      -3.948   2.927 -32.208  1.00  0.00     0.277 C 
HETATM    2  N   UNL     1      -2.846   3.377 -32.895  1.00  0.00    -0.321 N 
HETATM    3  O   UNL     1      -4.628   3.488 -31.368  1.00  0.00    -0.266 OA
HETATM    4  H   UNL     1      -2.307   2.625 -33.316  1.00  0.00     0.169 HD
ENDROOT
BRANCH   1   5
HETATM    5  C   UNL     1      -4.253   1.470 -32.563  1.00  0.00     0.156 A 
HETATM    6  N   UNL     1      -3.393   0.597 -32.119  1.00  0.00    -0.164 NA
HETATM    7  N   UNL     1      -3.587  -0.729 -32.406  1.00  0.00    -0.238 N 
HETATM    8  C   UNL     1      -2.623  -1.660 -31.852  1.00  0.00     0.183 C 
HETATM    9  C   UNL     1      -4.670  -1.229 -33.122  1.00  0.00     0.274 A 
HETATM   10  C   UNL     1      -5.620  -0.233 -33.654  1.00  0.00     0.046 A 
HETATM   11  O   UNL     1      -4.856  -2.424 -33.336  1.00  0.00    -0.266 OA
HETATM   12  C   UNL     1      -5.419   1.119 -33.392  1.00  0.00     0.016 A 
HETATM   13  C   UNL     1      -6.704  -0.652 -34.436  1.00  0.00     0.018 A 
HETATM   14  C   UNL     1      -6.300   2.063 -33.935  1.00  0.00     0.015 A 
HETATM   15  C   UNL     1      -7.382   1.645 -34.716  1.00  0.00     0.001 A 
HETATM   16  C   UNL     1      -7.586   0.289 -34.964  1.00  0.00     0.001 A 
ENDBRANCH   1   5
BRANCH   2  17
HETATM   17  C   UNL     1      -2.273   4.662 -32.934  1.00  0.00     0.047 A 
HETATM   18  C   UNL     1      -1.373   5.223 -31.991  1.00  0.00     0.019 A 
HETATM   19  C   UNL     1      -0.928   6.539 -32.197  1.00  0.00     0.044 A 
HETATM   20  C   UNL     1      -0.775   4.809 -30.760  1.00  0.00     0.033 A 
HETATM   21  N   UNL     1      -0.073   6.863 -31.167  1.00  0.00    -0.365 N 
HETATM   22  C   UNL     1      -1.331   7.328 -33.280  1.00  0.00     0.030 A 
HETATM   23  H   UNL     1       0.399   7.752 -31.074  1.00  0.00     0.165 HD
HETATM   24  C   UNL     1       0.019   5.828 -30.286  1.00  0.00     0.089 A 
HETATM   25  C   UNL     1      -2.232   6.773 -34.184  1.00  0.00     0.005 A 
HETATM   26  C   UNL     1      -2.698   5.473 -34.010  1.00  0.00     0.030 A 
ENDBRANCH   2  17
TORSDOF 2
ENDMDL
