MODEL 1
REMARK VINA RESULT:      -8.4      0.000      0.000
REMARK  4 active torsions:
REMARK  status: ('A' for Active; 'I' for Inactive)
REMARK    1  A    between atoms: C_9  and  C_10 
REMARK    2  A    between atoms: C_13  and  O_14 
REMARK    3  A    between atoms: C_18  and  C_19 
REMARK       I    between atoms: C_19  and  N_20 
REMARK    4  A    between atoms: N_20  and  C_21 
ROOT
HETATM    1  C   UNL     1      -9.847   1.034 -32.723  1.00  0.00     0.070 C 
HETATM    2  C   UNL     1      -8.920   1.978 -32.000  1.00  0.00     0.037 C 
HETATM    3  N   UNL     1      -9.450   3.232 -31.708  1.00  0.00    -0.192 N 
HETATM    4  C   UNL     1      -8.866   4.092 -30.850  1.00  0.00     0.725 A 
HETATM    5  N   UNL     1      -7.621   3.809 -30.358  1.00  0.00    -0.084 N 
HETATM    6  N   UNL     1      -7.234   4.728 -29.447  1.00  0.00    -0.149 NA
HETATM    7  C   UNL     1      -8.280   5.561 -29.480  1.00  0.00     0.275 A 
HETATM    8  N   UNL     1      -9.299   5.210 -30.327  1.00  0.00    -0.054 NA
HETATM    9  C   UNL     1      -6.836   2.629 -30.738  1.00  0.00     0.202 C 
HETATM   10  C   UNL     1      -7.672   1.662 -31.572  1.00  0.00     0.062 C 
HETATM   11  H   UNL     1     -10.420   3.403 -31.962  1.00  0.00     0.184 HD
ENDROOT
BRANCH  10  12
HETATM   12  C   UNL     1      -7.042   0.328 -31.754  1.00  0.00     0.256 C 
HETATM   13  N   UNL     1      -6.789   0.015 -33.073  1.00  0.00    -0.323 N 
HETATM   14  H   UNL     1      -7.019   0.720 -33.761  1.00  0.00     0.169 HD
HETATM   15  O   UNL     1      -6.774  -0.337 -30.762  1.00  0.00    -0.267 OA
BRANCH  13  16
HETATM   16  C   UNL     1      -6.264  -1.192 -33.576  1.00  0.00     0.035 A 
HETATM   17  C   UNL     1      -4.915  -1.549 -33.501  1.00  0.00     0.031 A 
HETATM   18  C   UNL     1      -4.475  -2.778 -34.007  1.00  0.00     0.026 A 
HETATM   19  C   UNL     1      -5.385  -3.657 -34.586  1.00  0.00     0.034 A 
HETATM   20 CL   UNL     1      -4.846  -5.172 -35.198  1.00  0.00    -0.084 Cl
HETATM   21  C   UNL     1      -6.731  -3.316 -34.670  1.00  0.00     0.026 A 
HETATM   22  C   UNL     1      -7.168  -2.085 -34.170  1.00  0.00     0.031 A 
ENDBRANCH  13  16
ENDBRANCH  10  12
BRANCH   9  23
HETATM   23  C   UNL     1      -5.559   3.051 -31.462  1.00  0.00    -0.028 A 
HETATM   24  C   UNL     1      -5.645   3.822 -32.630  1.00  0.00     0.012 A 
HETATM   25  C   UNL     1      -4.489   4.212 -33.310  1.00  0.00     0.037 A 
HETATM   26  C   UNL     1      -3.226   3.843 -32.844  1.00  0.00     0.068 A 
HETATM   27  C   UNL     1      -3.128   3.096 -31.671  1.00  0.00     0.037 A 
HETATM   28  C   UNL     1      -4.283   2.707 -30.983  1.00  0.00     0.012 A 
BRANCH  26  29
HETATM   29  O   UNL     1      -2.182   4.274 -33.612  1.00  0.00    -0.356 OA
HETATM   30  C   UNL     1      -2.493   5.162 -34.677  1.00  0.00     0.210 C 
ENDBRANCH  26  29
ENDBRANCH   9  23
TORSDOF 4
ENDMDL
MODEL 2
REMARK VINA RESULT:      -8.2      3.526      6.186
REMARK  4 active torsions:
REMARK  status: ('A' for Active; 'I' for Inactive)
REMARK    1  A    between atoms: C_9  and  C_10 
REMARK    2  A    between atoms: C_13  and  O_14 
REMARK    3  A    between atoms: C_18  and  C_19 
REMARK       I    between atoms: C_19  and  N_20 
REMARK    4  A    between atoms: N_20  and  C_21 
ROOT
HETATM    1  C   UNL     1      -8.304   5.222 -33.872  1.00  0.00     0.070 C 
HETATM    2  C   UNL     1      -7.286   4.193 -33.451  1.00  0.00     0.037 C 
HETATM    3  N   UNL     1      -5.955   4.593 -33.547  1.00  0.00    -0.192 N 
HETATM    4  C   UNL     1      -4.943   3.911 -32.975  1.00  0.00     0.725 A 
HETATM    5  N   UNL     1      -5.190   2.689 -32.411  1.00  0.00    -0.084 N 
HETATM    6  N   UNL     1      -4.087   2.196 -31.808  1.00  0.00    -0.149 NA
HETATM    7  C   UNL     1      -3.201   3.156 -32.095  1.00  0.00     0.275 A 
HETATM    8  N   UNL     1      -3.684   4.223 -32.810  1.00  0.00    -0.054 NA
HETATM    9  C   UNL     1      -6.501   2.030 -32.420  1.00  0.00     0.202 C 
HETATM   10  C   UNL     1      -7.583   2.973 -32.938  1.00  0.00     0.062 C 
HETATM   11  H   UNL     1      -5.772   5.547 -33.848  1.00  0.00     0.184 HD
ENDROOT
BRANCH  10  12
HETATM   12  C   UNL     1      -8.967   2.479 -32.713  1.00  0.00     0.256 C 
HETATM   13  N   UNL     1      -9.626   2.143 -33.877  1.00  0.00    -0.323 N 
HETATM   14  H   UNL     1      -9.104   2.229 -34.739  1.00  0.00     0.169 HD
HETATM   15  O   UNL     1      -9.376   2.377 -31.565  1.00  0.00    -0.267 OA
BRANCH  13  16
HETATM   16  C   UNL     1     -10.962   1.709 -34.005  1.00  0.00     0.035 A 
HETATM   17  C   UNL     1     -11.444   0.502 -33.491  1.00  0.00     0.031 A 
HETATM   18  C   UNL     1     -12.791   0.153 -33.642  1.00  0.00     0.026 A 
HETATM   19  C   UNL     1     -13.662   1.013 -34.304  1.00  0.00     0.034 A 
HETATM   20 CL   UNL     1     -15.320   0.589 -34.479  1.00  0.00    -0.084 Cl
HETATM   21  C   UNL     1     -13.198   2.217 -34.822  1.00  0.00     0.026 A 
HETATM   22  C   UNL     1     -11.849   2.562 -34.676  1.00  0.00     0.031 A 
ENDBRANCH  13  16
ENDBRANCH  10  12
BRANCH   9  23
HETATM   23  C   UNL     1      -6.439   0.734 -33.224  1.00  0.00    -0.028 A 
HETATM   24  C   UNL     1      -6.100  -0.466 -32.584  1.00  0.00     0.012 A 
HETATM   25  C   UNL     1      -6.030  -1.661 -33.305  1.00  0.00     0.037 A 
HETATM   26  C   UNL     1      -6.297  -1.686 -34.675  1.00  0.00     0.068 A 
HETATM   27  C   UNL     1      -6.658  -0.503 -35.317  1.00  0.00     0.037 A 
HETATM   28  C   UNL     1      -6.734   0.696 -34.599  1.00  0.00     0.012 A 
BRANCH  26  29
HETATM   29  O   UNL     1      -6.177  -2.914 -35.261  1.00  0.00    -0.356 OA
HETATM   30  C   UNL     1      -6.864  -3.992 -34.639  1.00  0.00     0.210 C 
ENDBRANCH  26  29
ENDBRANCH   9  23
TORSDOF 4
ENDMDL
MODEL 3
REMARK VINA RESULT:      -8.2      1.393      1.778
REMARK  4 active torsions:
REMARK  status: ('A' for Active; 'I' for Inactive)
REMARK    1  A    between atoms: C_9  and  C_10 
REMARK    2  A    between atoms: C_13  and  O_14 
REMARK    3  A    between atoms: C_18  and  C_19 
REMARK       I    between atoms: C_19  and  N_20 
REMARK    4  A    between atoms: N_20  and  C_21 
ROOT
HETATM    1  C   UNL     1      -9.630   2.399 -33.747  1.00  0.00     0.070 C 
HETATM    2  C   UNL     1      -8.495   2.948 -32.921  1.00  0.00     0.037 C 
HETATM    3  N   UNL     1      -8.834   3.974 -32.042  1.00  0.00    -0.192 N 
HETATM    4  C   UNL     1      -8.017   4.394 -31.056  1.00  0.00     0.725 A 
HETATM    5  N   UNL     1      -6.734   3.920 -30.998  1.00  0.00    -0.084 N 
HETATM    6  N   UNL     1      -6.094   4.374 -29.900  1.00  0.00    -0.149 NA
HETATM    7  C   UNL     1      -7.040   5.157 -29.371  1.00  0.00     0.275 A 
HETATM    8  N   UNL     1      -8.231   5.199 -30.048  1.00  0.00    -0.054 NA
HETATM    9  C   UNL     1      -6.155   2.996 -31.981  1.00  0.00     0.202 C 
HETATM   10  C   UNL     1      -7.225   2.470 -32.934  1.00  0.00     0.062 C 
HETATM   11  H   UNL     1      -9.813   4.244 -31.992  1.00  0.00     0.184 HD
ENDROOT
BRANCH  10  12
HETATM   12  C   UNL     1      -6.774   1.326 -33.768  1.00  0.00     0.256 C 
HETATM   13  N   UNL     1      -6.648   0.148 -33.063  1.00  0.00    -0.323 N 
HETATM   14  H   UNL     1      -6.903   0.171 -32.084  1.00  0.00     0.169 HD
HETATM   15  O   UNL     1      -6.597   1.504 -34.965  1.00  0.00    -0.267 OA
BRANCH  13  16
HETATM   16  C   UNL     1      -6.180  -1.090 -33.550  1.00  0.00     0.035 A 
HETATM   17  C   UNL     1      -4.852  -1.515 -33.456  1.00  0.00     0.031 A 
HETATM   18  C   UNL     1      -4.472  -2.770 -33.946  1.00  0.00     0.026 A 
HETATM   19  C   UNL     1      -5.420  -3.607 -34.527  1.00  0.00     0.034 A 
HETATM   20 CL   UNL     1      -4.953  -5.154 -35.118  1.00  0.00    -0.084 Cl
HETATM   21  C   UNL     1      -6.745  -3.198 -34.628  1.00  0.00     0.026 A 
HETATM   22  C   UNL     1      -7.123  -1.940 -34.145  1.00  0.00     0.031 A 
ENDBRANCH  13  16
ENDBRANCH  10  12
BRANCH   9  23
HETATM   23  C   UNL     1      -5.005   3.667 -32.727  1.00  0.00    -0.028 A 
HETATM   24  C   UNL     1      -3.682   3.304 -32.437  1.00  0.00     0.012 A 
HETATM   25  C   UNL     1      -2.616   3.912 -33.104  1.00  0.00     0.037 A 
HETATM   26  C   UNL     1      -2.844   4.892 -34.072  1.00  0.00     0.068 A 
HETATM   27  C   UNL     1      -4.155   5.244 -34.385  1.00  0.00     0.037 A 
HETATM   28  C   UNL     1      -5.227   4.635 -33.723  1.00  0.00     0.012 A 
BRANCH  26  29
HETATM   29  O   UNL     1      -1.714   5.417 -34.635  1.00  0.00    -0.356 OA
HETATM   30  C   UNL     1      -1.218   6.624 -34.072  1.00  0.00     0.210 C 
ENDBRANCH  26  29
ENDBRANCH   9  23
TORSDOF 4
ENDMDL
MODEL 4
REMARK VINA RESULT:      -7.9     16.319     17.927
REMARK  4 active torsions:
REMARK  status: ('A' for Active; 'I' for Inactive)
REMARK    1  A    between atoms: C_9  and  C_10 
REMARK    2  A    between atoms: C_13  and  O_14 
REMARK    3  A    between atoms: C_18  and  C_19 
REMARK       I    between atoms: C_19  and  N_20 
REMARK    4  A    between atoms: N_20  and  C_21 
ROOT
HETATM    1  C   UNL     1      -6.342 -13.993 -35.958  1.00  0.00     0.070 C 
HETATM    2  C   UNL     1      -6.855 -13.690 -37.343  1.00  0.00     0.037 C 
HETATM    3  N   UNL     1      -8.233 -13.799 -37.508  1.00  0.00    -0.192 N 
HETATM    4  C   UNL     1      -8.881 -13.317 -38.588  1.00  0.00     0.725 A 
HETATM    5  N   UNL     1      -8.159 -12.844 -39.650  1.00  0.00    -0.084 N 
HETATM    6  N   UNL     1      -8.967 -12.320 -40.596  1.00  0.00    -0.149 NA
HETATM    7  C   UNL     1     -10.166 -12.559 -40.055  1.00  0.00     0.275 A 
HETATM    8  N   UNL     1     -10.158 -13.170 -38.827  1.00  0.00    -0.054 NA
HETATM    9  C   UNL     1      -6.693 -12.861 -39.719  1.00  0.00     0.202 C 
HETATM   10  C   UNL     1      -6.087 -13.266 -38.378  1.00  0.00     0.062 C 
HETATM   11  H   UNL     1      -8.788 -14.029 -36.688  1.00  0.00     0.184 HD
ENDROOT
BRANCH  10  12
HETATM   12  C   UNL     1      -4.621 -13.034 -38.288  1.00  0.00     0.256 C 
HETATM   13  N   UNL     1      -3.869 -14.138 -38.630  1.00  0.00    -0.323 N 
HETATM   14  H   UNL     1      -4.375 -14.959 -38.935  1.00  0.00     0.169 HD
HETATM   15  O   UNL     1      -4.220 -11.923 -37.971  1.00  0.00    -0.267 OA
BRANCH  13  16
HETATM   16  C   UNL     1      -2.465 -14.259 -38.584  1.00  0.00     0.035 A 
HETATM   17  C   UNL     1      -1.748 -14.590 -37.431  1.00  0.00     0.031 A 
HETATM   18  C   UNL     1      -0.354 -14.712 -37.473  1.00  0.00     0.026 A 
HETATM   19  C   UNL     1       0.327 -14.508 -38.669  1.00  0.00     0.034 A 
HETATM   20 CL   UNL     1       2.039 -14.670 -38.721  1.00  0.00    -0.084 Cl
HETATM   21  C   UNL     1      -0.372 -14.177 -39.824  1.00  0.00     0.026 A 
HETATM   22  C   UNL     1      -1.765 -14.048 -39.780  1.00  0.00     0.031 A 
ENDBRANCH  13  16
ENDBRANCH  10  12
BRANCH   9  23
HETATM   23  C   UNL     1      -6.225 -13.768 -40.855  1.00  0.00    -0.028 A 
HETATM   24  C   UNL     1      -5.288 -13.293 -41.783  1.00  0.00     0.012 A 
HETATM   25  C   UNL     1      -4.853 -14.105 -42.833  1.00  0.00     0.037 A 
HETATM   26  C   UNL     1      -5.342 -15.404 -42.980  1.00  0.00     0.068 A 
HETATM   27  C   UNL     1      -6.256 -15.895 -42.051  1.00  0.00     0.037 A 
HETATM   28  C   UNL     1      -6.691 -15.088 -40.994  1.00  0.00     0.012 A 
BRANCH  26  29
HETATM   29  O   UNL     1      -4.848 -16.084 -44.058  1.00  0.00    -0.356 OA
HETATM   30  C   UNL     1      -3.861 -15.421 -44.838  1.00  0.00     0.210 C 
ENDBRANCH  26  29
ENDBRANCH   9  23
TORSDOF 4
ENDMDL
MODEL 5
REMARK VINA RESULT:      -7.9      3.322      6.513
REMARK  4 active torsions:
REMARK  status: ('A' for Active; 'I' for Inactive)
REMARK    1  A    between atoms: C_9  and  C_10 
REMARK    2  A    between atoms: C_13  and  O_14 
REMARK    3  A    between atoms: C_18  and  C_19 
REMARK       I    between atoms: C_19  and  N_20 
REMARK    4  A    between atoms: N_20  and  C_21 
ROOT
HETATM    1  C   UNL     1      -8.751   4.140 -30.166  1.00  0.00     0.070 C 
HETATM    2  C   UNL     1      -9.134   3.425 -31.436  1.00  0.00     0.037 C 
HETATM    3  N   UNL     1     -10.488   3.129 -31.572  1.00  0.00    -0.192 N 
HETATM    4  C   UNL     1     -11.038   2.737 -32.739  1.00  0.00     0.725 A 
HETATM    5  N   UNL     1     -10.226   2.456 -33.805  1.00  0.00    -0.084 N 
HETATM    6  N   UNL     1     -10.949   2.171 -34.908  1.00  0.00    -0.149 NA
HETATM    7  C   UNL     1     -12.190   2.251 -34.417  1.00  0.00     0.275 A 
HETATM    8  N   UNL     1     -12.289   2.593 -33.092  1.00  0.00    -0.054 NA
HETATM    9  C   UNL     1      -8.760   2.512 -33.757  1.00  0.00     0.202 C 
HETATM   10  C   UNL     1      -8.279   3.128 -32.447  1.00  0.00     0.062 C 
HETATM   11  H   UNL     1     -11.115   3.448 -30.838  1.00  0.00     0.184 HD
ENDROOT
BRANCH  10  12
HETATM   12  C   UNL     1      -6.833   3.474 -32.443  1.00  0.00     0.256 C 
HETATM   13  N   UNL     1      -6.538   4.611 -33.166  1.00  0.00    -0.323 N 
HETATM   14  H   UNL     1      -7.318   5.102 -33.584  1.00  0.00     0.169 HD
HETATM   15  O   UNL     1      -6.063   2.778 -31.797  1.00  0.00    -0.267 OA
BRANCH  13  16
HETATM   16  C   UNL     1      -5.263   5.159 -33.408  1.00  0.00     0.035 A 
HETATM   17  C   UNL     1      -4.516   4.920 -34.566  1.00  0.00     0.031 A 
HETATM   18  C   UNL     1      -3.264   5.521 -34.741  1.00  0.00     0.026 A 
HETATM   19  C   UNL     1      -2.755   6.366 -33.760  1.00  0.00     0.034 A 
HETATM   20 CL   UNL     1      -1.221   7.112 -33.980  1.00  0.00    -0.084 Cl
HETATM   21  C   UNL     1      -3.484   6.612 -32.601  1.00  0.00     0.026 A 
HETATM   22  C   UNL     1      -4.733   6.006 -32.425  1.00  0.00     0.031 A 
ENDBRANCH  13  16
ENDBRANCH  10  12
BRANCH   9  23
HETATM   23  C   UNL     1      -8.169   1.123 -33.987  1.00  0.00    -0.028 A 
HETATM   24  C   UNL     1      -8.421   0.099 -33.063  1.00  0.00     0.012 A 
HETATM   25  C   UNL     1      -7.883  -1.176 -33.251  1.00  0.00     0.037 A 
HETATM   26  C   UNL     1      -7.084  -1.458 -34.361  1.00  0.00     0.068 A 
HETATM   27  C   UNL     1      -6.846  -0.455 -35.298  1.00  0.00     0.037 A 
HETATM   28  C   UNL     1      -7.387   0.823 -35.117  1.00  0.00     0.012 A 
BRANCH  26  29
HETATM   29  O   UNL     1      -6.608  -2.738 -34.415  1.00  0.00    -0.356 OA
HETATM   30  C   UNL     1      -5.207  -2.895 -34.594  1.00  0.00     0.210 C 
ENDBRANCH  26  29
ENDBRANCH   9  23
TORSDOF 4
ENDMDL
MODEL 6
REMARK VINA RESULT:      -7.7      3.236      6.097
REMARK  4 active torsions:
REMARK  status: ('A' for Active; 'I' for Inactive)
REMARK    1  A    between atoms: C_9  and  C_10 
REMARK    2  A    between atoms: C_13  and  O_14 
REMARK    3  A    between atoms: C_18  and  C_19 
REMARK       I    between atoms: C_19  and  N_20 
REMARK    4  A    between atoms: N_20  and  C_21 
ROOT
HETATM    1  C   UNL     1      -7.439   3.838 -30.875  1.00  0.00     0.070 C 
HETATM    2  C   UNL     1      -8.415   4.070 -32.000  1.00  0.00     0.037 C 
HETATM    3  N   UNL     1      -8.809   5.393 -32.189  1.00  0.00    -0.192 N 
HETATM    4  C   UNL     1      -9.457   5.813 -33.293  1.00  0.00     0.725 A 
HETATM    5  N   UNL     1      -9.899   4.893 -34.205  1.00  0.00    -0.084 N 
HETATM    6  N   UNL     1     -10.441   5.495 -35.285  1.00  0.00    -0.149 NA
HETATM    7  C   UNL     1     -10.334   6.780 -34.929  1.00  0.00     0.275 A 
HETATM    8  N   UNL     1      -9.740   7.018 -33.716  1.00  0.00    -0.054 NA
HETATM    9  C   UNL     1      -9.753   3.442 -34.044  1.00  0.00     0.202 C 
HETATM   10  C   UNL     1      -8.860   3.111 -32.851  1.00  0.00     0.062 C 
HETATM   11  H   UNL     1      -8.385   6.099 -31.592  1.00  0.00     0.184 HD
ENDROOT
BRANCH  10  12
HETATM   12  C   UNL     1      -8.439   1.687 -32.794  1.00  0.00     0.256 C 
HETATM   13  N   UNL     1      -7.370   1.396 -33.615  1.00  0.00    -0.323 N 
HETATM   14  H   UNL     1      -6.968   2.168 -34.132  1.00  0.00     0.169 HD
HETATM   15  O   UNL     1      -9.022   0.931 -32.029  1.00  0.00    -0.267 OA
BRANCH  13  16
HETATM   16  C   UNL     1      -6.783   0.134 -33.835  1.00  0.00     0.035 A 
HETATM   17  C   UNL     1      -7.385  -0.890 -34.571  1.00  0.00     0.031 A 
HETATM   18  C   UNL     1      -6.725  -2.110 -34.762  1.00  0.00     0.026 A 
HETATM   19  C   UNL     1      -5.459  -2.309 -34.220  1.00  0.00     0.034 A 
HETATM   20 CL   UNL     1      -4.646  -3.805 -34.464  1.00  0.00    -0.084 Cl
HETATM   21  C   UNL     1      -4.848  -1.301 -33.483  1.00  0.00     0.026 A 
HETATM   22  C   UNL     1      -5.511  -0.084 -33.287  1.00  0.00     0.031 A 
ENDBRANCH  13  16
ENDBRANCH  10  12
BRANCH   9  23
HETATM   23  C   UNL     1     -11.124   2.779 -33.932  1.00  0.00    -0.028 A 
HETATM   24  C   UNL     1     -12.068   3.284 -33.027  1.00  0.00     0.012 A 
HETATM   25  C   UNL     1     -13.325   2.686 -32.904  1.00  0.00     0.037 A 
HETATM   26  C   UNL     1     -13.667   1.577 -33.679  1.00  0.00     0.068 A 
HETATM   27  C   UNL     1     -12.745   1.080 -34.599  1.00  0.00     0.037 A 
HETATM   28  C   UNL     1     -11.486   1.678 -34.729  1.00  0.00     0.012 A 
BRANCH  26  29
HETATM   29  O   UNL     1     -14.920   1.080 -33.448  1.00  0.00    -0.356 OA
HETATM   30  C   UNL     1     -15.758   1.831 -32.580  1.00  0.00     0.210 C 
ENDBRANCH  26  29
ENDBRANCH   9  23
TORSDOF 4
ENDMDL
MODEL 7
REMARK VINA RESULT:      -7.6      2.362      4.715
REMARK  4 active torsions:
REMARK  status: ('A' for Active; 'I' for Inactive)
REMARK    1  A    between atoms: C_9  and  C_10 
REMARK    2  A    between atoms: C_13  and  O_14 
REMARK    3  A    between atoms: C_18  and  C_19 
REMARK       I    between atoms: C_19  and  N_20 
REMARK    4  A    between atoms: N_20  and  C_21 
ROOT
HETATM    1  C   UNL     1      -5.281   1.898 -29.709  1.00  0.00     0.070 C 
HETATM    2  C   UNL     1      -6.002   2.638 -30.807  1.00  0.00     0.037 C 
HETATM    3  N   UNL     1      -5.973   4.027 -30.711  1.00  0.00    -0.192 N 
HETATM    4  C   UNL     1      -6.331   4.838 -31.727  1.00  0.00     0.725 A 
HETATM    5  N   UNL     1      -6.901   4.300 -32.849  1.00  0.00    -0.084 N 
HETATM    6  N   UNL     1      -7.108   5.242 -33.793  1.00  0.00    -0.149 NA
HETATM    7  C   UNL     1      -6.683   6.334 -33.148  1.00  0.00     0.275 A 
HETATM    8  N   UNL     1      -6.201   6.131 -31.880  1.00  0.00    -0.054 NA
HETATM    9  C   UNL     1      -7.197   2.872 -33.015  1.00  0.00     0.202 C 
HETATM   10  C   UNL     1      -6.592   2.052 -31.879  1.00  0.00     0.062 C 
HETATM   11  H   UNL     1      -5.443   4.435 -29.946  1.00  0.00     0.184 HD
ENDROOT
BRANCH  10  12
HETATM   12  C   UNL     1      -6.607   0.586 -32.124  1.00  0.00     0.256 C 
HETATM   13  N   UNL     1      -5.856   0.204 -33.215  1.00  0.00    -0.323 N 
HETATM   14  H   UNL     1      -5.355   0.934 -33.703  1.00  0.00     0.169 HD
HETATM   15  O   UNL     1      -7.224  -0.133 -31.350  1.00  0.00    -0.267 OA
BRANCH  13  16
HETATM   16  C   UNL     1      -5.723  -1.096 -33.743  1.00  0.00     0.035 A 
HETATM   17  C   UNL     1      -4.514  -1.795 -33.805  1.00  0.00     0.031 A 
HETATM   18  C   UNL     1      -4.469  -3.093 -34.326  1.00  0.00     0.026 A 
HETATM   19  C   UNL     1      -5.634  -3.699 -34.785  1.00  0.00     0.034 A 
HETATM   20 CL   UNL     1      -5.580  -5.299 -35.415  1.00  0.00    -0.084 Cl
HETATM   21  C   UNL     1      -6.845  -3.017 -34.733  1.00  0.00     0.026 A 
HETATM   22  C   UNL     1      -6.888  -1.717 -34.217  1.00  0.00     0.031 A 
ENDBRANCH  13  16
ENDBRANCH  10  12
BRANCH   9  23
HETATM   23  C   UNL     1      -8.704   2.653 -33.138  1.00  0.00    -0.028 A 
HETATM   24  C   UNL     1      -9.205   1.822 -34.150  1.00  0.00     0.012 A 
HETATM   25  C   UNL     1     -10.580   1.616 -34.283  1.00  0.00     0.037 A 
HETATM   26  C   UNL     1     -11.483   2.231 -33.414  1.00  0.00     0.068 A 
HETATM   27  C   UNL     1     -10.995   3.040 -32.390  1.00  0.00     0.037 A 
HETATM   28  C   UNL     1      -9.618   3.247 -32.249  1.00  0.00     0.012 A 
BRANCH  26  29
HETATM   29  O   UNL     1     -12.798   1.958 -33.666  1.00  0.00    -0.356 OA
HETATM   30  C   UNL     1     -13.153   0.590 -33.813  1.00  0.00     0.210 C 
ENDBRANCH  26  29
ENDBRANCH   9  23
TORSDOF 4
ENDMDL
MODEL 8
REMARK VINA RESULT:      -7.6     16.082     17.738
REMARK  4 active torsions:
REMARK  status: ('A' for Active; 'I' for Inactive)
REMARK    1  A    between atoms: C_9  and  C_10 
REMARK    2  A    between atoms: C_13  and  O_14 
REMARK    3  A    between atoms: C_18  and  C_19 
REMARK       I    between atoms: C_19  and  N_20 
REMARK    4  A    between atoms: N_20  and  C_21 
ROOT
HETATM    1  C   UNL     1      -6.329 -11.515 -40.691  1.00  0.00     0.070 C 
HETATM    2  C   UNL     1      -6.820 -12.724 -39.935  1.00  0.00     0.037 C 
HETATM    3  N   UNL     1      -8.129 -13.111 -40.209  1.00  0.00    -0.192 N 
HETATM    4  C   UNL     1      -8.634 -14.302 -39.830  1.00  0.00     0.725 A 
HETATM    5  N   UNL     1      -7.903 -15.111 -39.004  1.00  0.00    -0.084 N 
HETATM    6  N   UNL     1      -8.520 -16.295 -38.806  1.00  0.00    -0.149 NA
HETATM    7  C   UNL     1      -9.644 -16.106 -39.506  1.00  0.00     0.275 A 
HETATM    8  N   UNL     1      -9.755 -14.898 -40.146  1.00  0.00    -0.054 NA
HETATM    9  C   UNL     1      -6.592 -14.750 -38.451  1.00  0.00     0.202 C 
HETATM   10  C   UNL     1      -6.064 -13.468 -39.088  1.00  0.00     0.062 C 
HETATM   11  H   UNL     1      -8.636 -12.586 -40.917  1.00  0.00     0.184 HD
ENDROOT
BRANCH  10  12
HETATM   12  C   UNL     1      -4.634 -13.195 -38.790  1.00  0.00     0.256 C 
HETATM   13  N   UNL     1      -3.781 -14.178 -39.243  1.00  0.00    -0.323 N 
HETATM   14  H   UNL     1      -4.198 -14.947 -39.751  1.00  0.00     0.169 HD
HETATM   15  O   UNL     1      -4.340 -12.149 -38.227  1.00  0.00    -0.267 OA
BRANCH  13  16
HETATM   16  C   UNL     1      -2.385 -14.245 -39.060  1.00  0.00     0.035 A 
HETATM   17  C   UNL     1      -1.767 -14.414 -37.817  1.00  0.00     0.031 A 
HETATM   18  C   UNL     1      -0.372 -14.492 -37.722  1.00  0.00     0.026 A 
HETATM   19  C   UNL     1       0.409 -14.408 -38.870  1.00  0.00     0.034 A 
HETATM   20 CL   UNL     1       2.122 -14.516 -38.753  1.00  0.00    -0.084 Cl
HETATM   21  C   UNL     1      -0.190 -14.238 -40.114  1.00  0.00     0.026 A 
HETATM   22  C   UNL     1      -1.584 -14.153 -40.207  1.00  0.00     0.031 A 
ENDBRANCH  13  16
ENDBRANCH  10  12
BRANCH   9  23
HETATM   23  C   UNL     1      -6.669 -14.643 -36.930  1.00  0.00    -0.028 A 
HETATM   24  C   UNL     1      -6.157 -15.677 -36.133  1.00  0.00     0.012 A 
HETATM   25  C   UNL     1      -6.225 -15.601 -34.740  1.00  0.00     0.037 A 
HETATM   26  C   UNL     1      -6.801 -14.495 -34.112  1.00  0.00     0.068 A 
HETATM   27  C   UNL     1      -7.292 -13.450 -34.893  1.00  0.00     0.037 A 
HETATM   28  C   UNL     1      -7.222 -13.520 -36.289  1.00  0.00     0.012 A 
BRANCH  26  29
HETATM   29  O   UNL     1      -6.818 -14.555 -32.747  1.00  0.00    -0.356 OA
HETATM   30  C   UNL     1      -5.582 -14.342 -32.080  1.00  0.00     0.210 C 
ENDBRANCH  26  29
ENDBRANCH   9  23
TORSDOF 4
ENDMDL
MODEL 9
REMARK VINA RESULT:      -7.4      3.067      5.693
REMARK  4 active torsions:
REMARK  status: ('A' for Active; 'I' for Inactive)
REMARK    1  A    between atoms: C_9  and  C_10 
REMARK    2  A    between atoms: C_13  and  O_14 
REMARK    3  A    between atoms: C_18  and  C_19 
REMARK       I    between atoms: C_19  and  N_20 
REMARK    4  A    between atoms: N_20  and  C_21 
ROOT
HETATM    1  C   UNL     1      -7.406   3.378 -29.924  1.00  0.00     0.070 C 
HETATM    2  C   UNL     1      -8.481   4.063 -30.730  1.00  0.00     0.037 C 
HETATM    3  N   UNL     1      -9.242   5.001 -30.037  1.00  0.00    -0.192 N 
HETATM    4  C   UNL     1     -10.054   5.883 -30.653  1.00  0.00     0.725 A 
HETATM    5  N   UNL     1     -10.279   5.765 -31.998  1.00  0.00    -0.084 N 
HETATM    6  N   UNL     1     -11.039   6.781 -32.458  1.00  0.00    -0.149 NA
HETATM    7  C   UNL     1     -11.274   7.446 -31.322  1.00  0.00     0.275 A 
HETATM    8  N   UNL     1     -10.692   6.929 -30.193  1.00  0.00    -0.054 NA
HETATM    9  C   UNL     1      -9.720   4.695 -32.833  1.00  0.00     0.202 C 
HETATM   10  C   UNL     1      -8.693   3.876 -32.057  1.00  0.00     0.062 C 
HETATM   11  H   UNL     1      -8.995   5.184 -29.068  1.00  0.00     0.184 HD
ENDROOT
BRANCH  10  12
HETATM   12  C   UNL     1      -7.886   2.964 -32.909  1.00  0.00     0.256 C 
HETATM   13  N   UNL     1      -8.124   1.629 -32.664  1.00  0.00    -0.323 N 
HETATM   14  H   UNL     1      -8.831   1.409 -31.974  1.00  0.00     0.169 HD
HETATM   15  O   UNL     1      -7.139   3.450 -33.747  1.00  0.00    -0.267 OA
BRANCH  13  16
HETATM   16  C   UNL     1      -7.475   0.525 -33.254  1.00  0.00     0.035 A 
HETATM   17  C   UNL     1      -7.792   0.016 -34.517  1.00  0.00     0.031 A 
HETATM   18  C   UNL     1      -7.084  -1.071 -35.042  1.00  0.00     0.026 A 
HETATM   19  C   UNL     1      -6.054  -1.651 -34.309  1.00  0.00     0.034 A 
HETATM   20 CL   UNL     1      -5.178  -2.981 -34.960  1.00  0.00    -0.084 Cl
HETATM   21  C   UNL     1      -5.728  -1.158 -33.050  1.00  0.00     0.026 A 
HETATM   22  C   UNL     1      -6.440  -0.075 -32.523  1.00  0.00     0.031 A 
ENDBRANCH  13  16
ENDBRANCH  10  12
BRANCH   9  23
HETATM   23  C   UNL     1     -10.839   3.822 -33.397  1.00  0.00    -0.028 A 
HETATM   24  C   UNL     1     -10.939   3.631 -34.783  1.00  0.00     0.012 A 
HETATM   25  C   UNL     1     -11.960   2.842 -35.318  1.00  0.00     0.037 A 
HETATM   26  C   UNL     1     -12.900   2.228 -34.488  1.00  0.00     0.068 A 
HETATM   27  C   UNL     1     -12.796   2.393 -33.108  1.00  0.00     0.037 A 
HETATM   28  C   UNL     1     -11.772   3.178 -32.566  1.00  0.00     0.012 A 
BRANCH  26  29
HETATM   29  O   UNL     1     -13.854   1.499 -35.142  1.00  0.00    -0.356 OA
HETATM   30  C   UNL     1     -14.780   0.786 -34.335  1.00  0.00     0.210 C 
ENDBRANCH  26  29
ENDBRANCH   9  23
TORSDOF 4
ENDMDL
MODEL 10
REMARK VINA RESULT:      -7.3      2.474      4.664
REMARK  4 active torsions:
REMARK  status: ('A' for Active; 'I' for Inactive)
REMARK    1  A    between atoms: C_9  and  C_10 
REMARK    2  A    between atoms: C_13  and  O_14 
REMARK    3  A    between atoms: C_18  and  C_19 
REMARK       I    between atoms: C_19  and  N_20 
REMARK    4  A    between atoms: N_20  and  C_21 
ROOT
HETATM    1  C   UNL     1      -3.491   1.718 -31.255  1.00  0.00     0.070 C 
HETATM    2  C   UNL     1      -4.396   2.911 -31.429  1.00  0.00     0.037 C 
HETATM    3  N   UNL     1      -4.082   4.021 -30.649  1.00  0.00    -0.192 N 
HETATM    4  C   UNL     1      -4.612   5.241 -30.865  1.00  0.00     0.725 A 
HETATM    5  N   UNL     1      -5.622   5.384 -31.777  1.00  0.00    -0.084 N 
HETATM    6  N   UNL     1      -5.965   6.681 -31.929  1.00  0.00    -0.149 NA
HETATM    7  C   UNL     1      -5.150   7.256 -31.038  1.00  0.00     0.275 A 
HETATM    8  N   UNL     1      -4.308   6.410 -30.363  1.00  0.00    -0.054 NA
HETATM    9  C   UNL     1      -6.215   4.270 -32.527  1.00  0.00     0.202 C 
HETATM   10  C   UNL     1      -5.417   2.986 -32.320  1.00  0.00     0.062 C 
HETATM   11  H   UNL     1      -3.255   3.962 -30.061  1.00  0.00     0.184 HD
ENDROOT
BRANCH  10  12
HETATM   12  C   UNL     1      -5.785   1.894 -33.259  1.00  0.00     0.256 C 
HETATM   13  N   UNL     1      -5.648   0.634 -32.717  1.00  0.00    -0.323 N 
HETATM   14  H   UNL     1      -5.354   0.582 -31.750  1.00  0.00     0.169 HD
HETATM   15  O   UNL     1      -6.198   2.190 -34.372  1.00  0.00    -0.267 OA
BRANCH  13  16
HETATM   16  C   UNL     1      -5.851  -0.600 -33.367  1.00  0.00     0.035 A 
HETATM   17  C   UNL     1      -7.108  -1.094 -33.730  1.00  0.00     0.031 A 
HETATM   18  C   UNL     1      -7.224  -2.321 -34.394  1.00  0.00     0.026 A 
HETATM   19  C   UNL     1      -6.083  -3.057 -34.701  1.00  0.00     0.034 A 
HETATM   20 CL   UNL     1      -6.227  -4.559 -35.526  1.00  0.00    -0.084 Cl
HETATM   21  C   UNL     1      -4.827  -2.580 -34.345  1.00  0.00     0.026 A 
HETATM   22  C   UNL     1      -4.712  -1.356 -33.676  1.00  0.00     0.031 A 
ENDBRANCH  13  16
ENDBRANCH  10  12
BRANCH   9  23
HETATM   23  C   UNL     1      -7.684   4.098 -32.149  1.00  0.00    -0.028 A 
HETATM   24  C   UNL     1      -8.682   4.374 -33.094  1.00  0.00     0.012 A 
HETATM   25  C   UNL     1     -10.032   4.229 -32.764  1.00  0.00     0.037 A 
HETATM   26  C   UNL     1     -10.415   3.807 -31.490  1.00  0.00     0.068 A 
HETATM   27  C   UNL     1      -9.431   3.508 -30.550  1.00  0.00     0.037 A 
HETATM   28  C   UNL     1      -8.077   3.646 -30.876  1.00  0.00     0.012 A 
BRANCH  26  29
HETATM   29  O   UNL     1     -11.766   3.724 -31.295  1.00  0.00    -0.356 OA
HETATM   30  C   UNL     1     -12.568   3.503 -32.447  1.00  0.00     0.210 C 
ENDBRANCH  26  29
ENDBRANCH   9  23
TORSDOF 4
ENDMDL
