MODEL 1
REMARK VINA RESULT:     -10.2      0.000      0.000
REMARK  6 active torsions:
REMARK  status: ('A' for Active; 'I' for Inactive)
REMARK    1  A    between atoms: O_2  and  C_3 
REMARK    2  A    between atoms: C_6  and  N_7 
REMARK    3  A    between atoms: C_14  and  C_15 
REMARK       I    between atoms: C_15  and  N_16 
REMARK    4  A    between atoms: N_16  and  C_17 
REMARK    5  A    between atoms: C_20  and  C_21 
REMARK    6  A    between atoms: C_34  and  O_35 
ROOT
HETATM    1  N   UNL     1      -1.515   6.683 -29.341  1.00  0.00    -0.336 N 
HETATM    2  H   UNL     1      -1.481   5.687 -29.607  1.00  0.00     0.168 HD
HETATM    3  C   UNL     1      -2.461   7.374 -29.870  1.00  0.00     0.164 A 
HETATM    4  O   UNL     1      -2.610   8.655 -29.406  1.00  0.00    -0.289 OA
HETATM    5  C   UNL     1      -3.679   9.472 -29.823  1.00  0.00     0.121 A 
HETATM    6  C   UNL     1      -4.625   8.971 -30.712  1.00  0.00     0.002 A 
HETATM    7  C   UNL     1      -4.471   7.615 -31.230  1.00  0.00     0.035 A 
HETATM    8  C   UNL     1      -3.426   6.846 -30.878  1.00  0.00     0.084 A 
HETATM    9  C   UNL     1      -3.749  10.771 -29.305  1.00  0.00     0.102 A 
HETATM   10  C   UNL     1      -4.815  11.580 -29.697  1.00  0.00     0.040 A 
HETATM   11  C   UNL     1      -5.780  11.090 -30.585  1.00  0.00     0.004 A 
HETATM   12  C   UNL     1      -5.686   9.791 -31.093  1.00  0.00     0.014 A 
ENDROOT
BRANCH   8  13
HETATM   13  C   UNL     1      -3.226   5.445 -31.400  1.00  0.00     0.260 C 
HETATM   14  N   UNL     1      -4.332   4.636 -31.459  1.00  0.00    -0.323 N 
HETATM   15  H   UNL     1      -5.226   5.005 -31.167  1.00  0.00     0.169 HD
HETATM   16  O   UNL     1      -2.082   5.161 -31.761  1.00  0.00    -0.267 OA
BRANCH  14  17
HETATM   17  C   UNL     1      -4.401   3.288 -31.877  1.00  0.00     0.035 A 
HETATM   18  C   UNL     1      -3.555   2.272 -31.434  1.00  0.00     0.030 A 
HETATM   19  C   UNL     1      -3.715   0.956 -31.901  1.00  0.00     0.017 A 
HETATM   20  C   UNL     1      -4.732   0.637 -32.809  1.00  0.00     0.010 A 
HETATM   21  C   UNL     1      -5.579   1.661 -33.245  1.00  0.00     0.017 A 
HETATM   22  C   UNL     1      -5.409   2.972 -32.795  1.00  0.00     0.030 A 
BRANCH  20  23
HETATM   23  C   UNL     1      -4.963  -0.723 -33.295  1.00  0.00     0.139 A 
HETATM   24  N   UNL     1      -6.056  -1.138 -33.909  1.00  0.00    -0.228 NA
HETATM   25  C   UNL     1      -5.843  -2.458 -34.218  1.00  0.00     0.086 A 
HETATM   26  C   UNL     1      -4.580  -2.863 -33.809  1.00  0.00     0.062 A 
HETATM   27  C   UNL     1      -6.684  -3.376 -34.862  1.00  0.00     0.034 A 
HETATM   28  N   UNL     1      -4.045  -1.746 -33.219  1.00  0.00    -0.338 N 
HETATM   29  C   UNL     1      -4.083  -4.151 -34.017  1.00  0.00     0.032 A 
HETATM   30  H   UNL     1      -3.117  -1.676 -32.831  1.00  0.00     0.167 HD
HETATM   31  C   UNL     1      -4.934  -5.054 -34.666  1.00  0.00     0.002 A 
HETATM   32  C   UNL     1      -6.216  -4.677 -35.080  1.00  0.00     0.002 A 
ENDBRANCH  20  23
ENDBRANCH  14  17
ENDBRANCH   8  13
BRANCH   1  33
HETATM   33  C   UNL     1      -0.559   7.061 -28.377  1.00  0.00     0.034 A 
HETATM   34  C   UNL     1       0.461   7.923 -28.810  1.00  0.00     0.032 A 
HETATM   35  C   UNL     1       1.475   8.335 -27.932  1.00  0.00     0.039 A 
HETATM   36  C   UNL     1       1.468   7.908 -26.607  1.00  0.00     0.068 A 
HETATM   37  C   UNL     1       0.431   7.086 -26.165  1.00  0.00     0.039 A 
HETATM   38  C   UNL     1      -0.580   6.665 -27.037  1.00  0.00     0.032 A 
BRANCH  36  39
HETATM   39  O   UNL     1       2.388   8.223 -25.650  1.00  0.00    -0.356 OA
HETATM   40  C   UNL     1       2.243   9.477 -24.992  1.00  0.00     0.210 C 
ENDBRANCH  36  39
ENDBRANCH   1  33
BRANCH   9  41
HETATM   41  O   UNL     1      -2.744  11.129 -28.449  1.00  0.00    -0.353 OA
HETATM   42  C   UNL     1      -3.107  11.380 -27.095  1.00  0.00     0.210 C 
ENDBRANCH   9  41
TORSDOF 6
ENDMDL
MODEL 2
REMARK VINA RESULT:      -9.8      1.760      2.175
REMARK  6 active torsions:
REMARK  status: ('A' for Active; 'I' for Inactive)
REMARK    1  A    between atoms: O_2  and  C_3 
REMARK    2  A    between atoms: C_6  and  N_7 
REMARK    3  A    between atoms: C_14  and  C_15 
REMARK       I    between atoms: C_15  and  N_16 
REMARK    4  A    between atoms: N_16  and  C_17 
REMARK    5  A    between atoms: C_20  and  C_21 
REMARK    6  A    between atoms: C_34  and  O_35 
ROOT
HETATM    1  N   UNL     1      -2.325   6.655 -28.907  1.00  0.00    -0.336 N 
HETATM    2  H   UNL     1      -2.251   5.802 -29.484  1.00  0.00     0.168 HD
HETATM    3  C   UNL     1      -3.507   7.142 -28.775  1.00  0.00     0.164 A 
HETATM    4  O   UNL     1      -3.640   8.180 -27.890  1.00  0.00    -0.289 OA
HETATM    5  C   UNL     1      -4.900   8.723 -27.572  1.00  0.00     0.121 A 
HETATM    6  C   UNL     1      -6.048   8.188 -28.150  1.00  0.00     0.002 A 
HETATM    7  C   UNL     1      -5.922   7.095 -29.108  1.00  0.00     0.035 A 
HETATM    8  C   UNL     1      -4.720   6.605 -29.457  1.00  0.00     0.084 A 
HETATM    9  C   UNL     1      -4.942   9.788 -26.663  1.00  0.00     0.102 A 
HETATM   10  C   UNL     1      -6.188  10.318 -26.328  1.00  0.00     0.040 A 
HETATM   11  C   UNL     1      -7.353   9.788 -26.894  1.00  0.00     0.004 A 
HETATM   12  C   UNL     1      -7.286   8.728 -27.803  1.00  0.00     0.014 A 
ENDROOT
BRANCH   8  13
HETATM   13  C   UNL     1      -4.548   5.484 -30.452  1.00  0.00     0.260 C 
HETATM   14  N   UNL     1      -4.938   4.231 -30.055  1.00  0.00    -0.323 N 
HETATM   15  H   UNL     1      -5.329   4.108 -29.131  1.00  0.00     0.169 HD
HETATM   16  O   UNL     1      -4.100   5.805 -31.554  1.00  0.00    -0.267 OA
BRANCH  14  17
HETATM   17  C   UNL     1      -4.853   3.023 -30.783  1.00  0.00     0.035 A 
HETATM   18  C   UNL     1      -3.691   2.533 -31.380  1.00  0.00     0.030 A 
HETATM   19  C   UNL     1      -3.708   1.310 -32.074  1.00  0.00     0.017 A 
HETATM   20  C   UNL     1      -4.884   0.556 -32.168  1.00  0.00     0.010 A 
HETATM   21  C   UNL     1      -6.042   1.052 -31.564  1.00  0.00     0.017 A 
HETATM   22  C   UNL     1      -6.032   2.276 -30.890  1.00  0.00     0.030 A 
BRANCH  20  23
HETATM   23  C   UNL     1      -4.942  -0.739 -32.845  1.00  0.00     0.139 A 
HETATM   24  N   UNL     1      -4.033  -1.693 -32.746  1.00  0.00    -0.228 NA
HETATM   25  C   UNL     1      -4.491  -2.738 -33.508  1.00  0.00     0.086 A 
HETATM   26  C   UNL     1      -5.723  -2.434 -34.073  1.00  0.00     0.062 A 
HETATM   27  C   UNL     1      -3.911  -3.989 -33.757  1.00  0.00     0.034 A 
HETATM   28  N   UNL     1      -5.983  -1.158 -33.643  1.00  0.00    -0.338 N 
HETATM   29  C   UNL     1      -6.437  -3.324 -34.878  1.00  0.00     0.032 A 
HETATM   30  H   UNL     1      -6.817  -0.630 -33.845  1.00  0.00     0.167 HD
HETATM   31  C   UNL     1      -5.845  -4.570 -35.113  1.00  0.00     0.002 A 
HETATM   32  C   UNL     1      -4.601  -4.900 -34.566  1.00  0.00     0.002 A 
ENDBRANCH  20  23
ENDBRANCH  14  17
ENDBRANCH   8  13
BRANCH   1  33
HETATM   33  C   UNL     1      -1.114   7.061 -28.310  1.00  0.00     0.034 A 
HETATM   34  C   UNL     1      -0.892   6.634 -26.991  1.00  0.00     0.032 A 
HETATM   35  C   UNL     1       0.272   7.009 -26.302  1.00  0.00     0.039 A 
HETATM   36  C   UNL     1       1.234   7.794 -26.930  1.00  0.00     0.068 A 
HETATM   37  C   UNL     1       1.033   8.182 -28.255  1.00  0.00     0.039 A 
HETATM   38  C   UNL     1      -0.128   7.818 -28.947  1.00  0.00     0.032 A 
BRANCH  36  39
HETATM   39  O   UNL     1       2.403   8.234 -26.382  1.00  0.00    -0.356 OA
HETATM   40  C   UNL     1       2.376   8.628 -25.014  1.00  0.00     0.210 C 
ENDBRANCH  36  39
ENDBRANCH   1  33
BRANCH   9  41
HETATM   41  O   UNL     1      -3.734  10.215 -26.185  1.00  0.00    -0.353 OA
HETATM   42  C   UNL     1      -3.445   9.936 -24.819  1.00  0.00     0.210 C 
ENDBRANCH   9  41
TORSDOF 6
ENDMDL
MODEL 3
REMARK VINA RESULT:      -9.7      6.762     11.257
REMARK  6 active torsions:
REMARK  status: ('A' for Active; 'I' for Inactive)
REMARK    1  A    between atoms: O_2  and  C_3 
REMARK    2  A    between atoms: C_6  and  N_7 
REMARK    3  A    between atoms: C_14  and  C_15 
REMARK       I    between atoms: C_15  and  N_16 
REMARK    4  A    between atoms: N_16  and  C_17 
REMARK    5  A    between atoms: C_20  and  C_21 
REMARK    6  A    between atoms: C_34  and  O_35 
ROOT
HETATM    1  N   UNL     1      -6.279   1.912 -33.161  1.00  0.00    -0.336 N 
HETATM    2  H   UNL     1      -7.058   2.573 -33.307  1.00  0.00     0.168 HD
HETATM    3  C   UNL     1      -6.508   0.692 -33.497  1.00  0.00     0.164 A 
HETATM    4  O   UNL     1      -5.436  -0.160 -33.454  1.00  0.00    -0.289 OA
HETATM    5  C   UNL     1      -5.531  -1.491 -33.906  1.00  0.00     0.121 A 
HETATM    6  C   UNL     1      -6.733  -1.957 -34.431  1.00  0.00     0.002 A 
HETATM    7  C   UNL     1      -7.889  -1.067 -34.467  1.00  0.00     0.035 A 
HETATM    8  C   UNL     1      -7.822   0.187 -33.989  1.00  0.00     0.084 A 
HETATM    9  C   UNL     1      -4.388  -2.295 -33.818  1.00  0.00     0.102 A 
HETATM   10  C   UNL     1      -4.468  -3.607 -34.282  1.00  0.00     0.040 A 
HETATM   11  C   UNL     1      -5.667  -4.091 -34.820  1.00  0.00     0.004 A 
HETATM   12  C   UNL     1      -6.797  -3.271 -34.893  1.00  0.00     0.014 A 
ENDROOT
BRANCH   8  13
HETATM   13  C   UNL     1      -8.998   1.132 -33.999  1.00  0.00     0.260 C 
HETATM   14  N   UNL     1     -10.111   0.752 -33.294  1.00  0.00    -0.323 N 
HETATM   15  H   UNL     1     -10.100  -0.127 -32.794  1.00  0.00     0.169 HD
HETATM   16  O   UNL     1      -8.839   2.186 -34.618  1.00  0.00    -0.267 OA
BRANCH  14  17
HETATM   17  C   UNL     1     -11.340   1.439 -33.173  1.00  0.00     0.035 A 
HETATM   18  C   UNL     1     -12.576   0.940 -33.583  1.00  0.00     0.030 A 
HETATM   19  C   UNL     1     -13.746   1.700 -33.406  1.00  0.00     0.017 A 
HETATM   20  C   UNL     1     -13.695   2.963 -32.804  1.00  0.00     0.010 A 
HETATM   21  C   UNL     1     -12.453   3.454 -32.392  1.00  0.00     0.017 A 
HETATM   22  C   UNL     1     -11.288   2.708 -32.584  1.00  0.00     0.030 A 
BRANCH  20  23
HETATM   23  C   UNL     1     -14.889   3.774 -32.563  1.00  0.00     0.139 A 
HETATM   24  N   UNL     1     -16.025   3.327 -32.058  1.00  0.00    -0.228 NA
HETATM   25  C   UNL     1     -16.858   4.414 -31.971  1.00  0.00     0.086 A 
HETATM   26  C   UNL     1     -16.215   5.565 -32.410  1.00  0.00     0.062 A 
HETATM   27  C   UNL     1     -18.181   4.497 -31.515  1.00  0.00     0.034 A 
HETATM   28  N   UNL     1     -14.970   5.130 -32.787  1.00  0.00    -0.338 N 
HETATM   29  C   UNL     1     -16.816   6.825 -32.410  1.00  0.00     0.032 A 
HETATM   30  H   UNL     1     -14.225   5.714 -33.132  1.00  0.00     0.167 HD
HETATM   31  C   UNL     1     -18.136   6.890 -31.947  1.00  0.00     0.002 A 
HETATM   32  C   UNL     1     -18.811   5.746 -31.509  1.00  0.00     0.002 A 
ENDBRANCH  20  23
ENDBRANCH  14  17
ENDBRANCH   8  13
BRANCH   1  33
HETATM   33  C   UNL     1      -5.088   2.508 -32.700  1.00  0.00     0.034 A 
HETATM   34  C   UNL     1      -4.660   3.660 -33.379  1.00  0.00     0.032 A 
HETATM   35  C   UNL     1      -3.472   4.311 -33.010  1.00  0.00     0.039 A 
HETATM   36  C   UNL     1      -2.712   3.830 -31.948  1.00  0.00     0.068 A 
HETATM   37  C   UNL     1      -3.160   2.710 -31.246  1.00  0.00     0.039 A 
HETATM   38  C   UNL     1      -4.340   2.052 -31.612  1.00  0.00     0.032 A 
BRANCH  36  39
HETATM   39  O   UNL     1      -1.541   4.356 -31.488  1.00  0.00    -0.356 OA
HETATM   40  C   UNL     1      -0.930   5.376 -32.272  1.00  0.00     0.210 C 
ENDBRANCH  36  39
ENDBRANCH   1  33
BRANCH   9  41
HETATM   41  O   UNL     1      -3.282  -1.704 -33.271  1.00  0.00    -0.353 OA
HETATM   42  C   UNL     1      -2.984  -2.021 -31.915  1.00  0.00     0.210 C 
ENDBRANCH   9  41
TORSDOF 6
ENDMDL
MODEL 4
REMARK VINA RESULT:      -9.6      6.645     11.014
REMARK  6 active torsions:
REMARK  status: ('A' for Active; 'I' for Inactive)
REMARK    1  A    between atoms: O_2  and  C_3 
REMARK    2  A    between atoms: C_6  and  N_7 
REMARK    3  A    between atoms: C_14  and  C_15 
REMARK       I    between atoms: C_15  and  N_16 
REMARK    4  A    between atoms: N_16  and  C_17 
REMARK    5  A    between atoms: C_20  and  C_21 
REMARK    6  A    between atoms: C_34  and  O_35 
ROOT
HETATM    1  N   UNL     1      -5.885   2.936 -33.076  1.00  0.00    -0.336 N 
HETATM    2  H   UNL     1      -6.607   3.667 -33.171  1.00  0.00     0.168 HD
HETATM    3  C   UNL     1      -6.262   1.737 -33.347  1.00  0.00     0.164 A 
HETATM    4  O   UNL     1      -5.278   0.783 -33.374  1.00  0.00    -0.289 OA
HETATM    5  C   UNL     1      -5.545  -0.542 -33.769  1.00  0.00     0.121 A 
HETATM    6  C   UNL     1      -6.831  -0.899 -34.164  1.00  0.00     0.002 A 
HETATM    7  C   UNL     1      -7.894   0.100 -34.123  1.00  0.00     0.035 A 
HETATM    8  C   UNL     1      -7.660   1.354 -33.697  1.00  0.00     0.084 A 
HETATM    9  C   UNL     1      -4.481  -1.454 -33.760  1.00  0.00     0.102 A 
HETATM   10  C   UNL     1      -4.733  -2.762 -34.169  1.00  0.00     0.040 A 
HETATM   11  C   UNL     1      -6.019  -3.138 -34.576  1.00  0.00     0.004 A 
HETATM   12  C   UNL     1      -7.066  -2.211 -34.572  1.00  0.00     0.014 A 
ENDROOT
BRANCH   8  13
HETATM   13  C   UNL     1      -8.734   2.411 -33.630  1.00  0.00     0.260 C 
HETATM   14  N   UNL     1      -9.402   2.698 -34.793  1.00  0.00    -0.323 N 
HETATM   15  H   UNL     1      -9.163   2.192 -35.635  1.00  0.00     0.169 HD
HETATM   16  O   UNL     1      -8.939   2.903 -32.519  1.00  0.00    -0.267 OA
BRANCH  14  17
HETATM   17  C   UNL     1     -10.418   3.658 -34.997  1.00  0.00     0.035 A 
HETATM   18  C   UNL     1     -10.212   5.036 -35.055  1.00  0.00     0.030 A 
HETATM   19  C   UNL     1     -11.291   5.910 -35.276  1.00  0.00     0.017 A 
HETATM   20  C   UNL     1     -12.588   5.415 -35.454  1.00  0.00     0.010 A 
HETATM   21  C   UNL     1     -12.786   4.033 -35.398  1.00  0.00     0.017 A 
HETATM   22  C   UNL     1     -11.718   3.164 -35.161  1.00  0.00     0.030 A 
BRANCH  20  23
HETATM   23  C   UNL     1     -13.736   6.281 -35.725  1.00  0.00     0.139 A 
HETATM   24  N   UNL     1     -14.037   6.802 -36.901  1.00  0.00    -0.228 NA
HETATM   25  C   UNL     1     -15.196   7.513 -36.718  1.00  0.00     0.086 A 
HETATM   26  C   UNL     1     -15.636   7.411 -35.404  1.00  0.00     0.062 A 
HETATM   27  C   UNL     1     -15.941   8.267 -37.635  1.00  0.00     0.034 A 
HETATM   28  N   UNL     1     -14.688   6.630 -34.794  1.00  0.00    -0.338 N 
HETATM   29  C   UNL     1     -16.806   8.014 -34.939  1.00  0.00     0.032 A 
HETATM   30  H   UNL     1     -14.708   6.328 -33.832  1.00  0.00     0.167 HD
HETATM   31  C   UNL     1     -17.540   8.760 -35.869  1.00  0.00     0.002 A 
HETATM   32  C   UNL     1     -17.116   8.889 -37.195  1.00  0.00     0.002 A 
ENDBRANCH  20  23
ENDBRANCH  14  17
ENDBRANCH   8  13
BRANCH   1  33
HETATM   33  C   UNL     1      -4.603   3.422 -32.748  1.00  0.00     0.034 A 
HETATM   34  C   UNL     1      -3.981   4.243 -33.702  1.00  0.00     0.032 A 
HETATM   35  C   UNL     1      -2.693   4.754 -33.479  1.00  0.00     0.039 A 
HETATM   36  C   UNL     1      -2.023   4.468 -32.292  1.00  0.00     0.068 A 
HETATM   37  C   UNL     1      -2.659   3.688 -31.326  1.00  0.00     0.039 A 
HETATM   38  C   UNL     1      -3.940   3.169 -31.545  1.00  0.00     0.032 A 
BRANCH  36  39
HETATM   39  O   UNL     1      -0.773   4.891 -31.948  1.00  0.00    -0.356 OA
HETATM   40  C   UNL     1      -0.548   5.222 -30.581  1.00  0.00     0.210 C 
ENDBRANCH  36  39
ENDBRANCH   1  33
BRANCH   9  41
HETATM   41  O   UNL     1      -3.276  -0.962 -33.339  1.00  0.00    -0.353 OA
HETATM   42  C   UNL     1      -2.906  -1.227 -31.989  1.00  0.00     0.210 C 
ENDBRANCH   9  41
TORSDOF 6
ENDMDL
MODEL 5
REMARK VINA RESULT:      -9.2      4.297     11.439
REMARK  6 active torsions:
REMARK  status: ('A' for Active; 'I' for Inactive)
REMARK    1  A    between atoms: O_2  and  C_3 
REMARK    2  A    between atoms: C_6  and  N_7 
REMARK    3  A    between atoms: C_14  and  C_15 
REMARK       I    between atoms: C_15  and  N_16 
REMARK    4  A    between atoms: N_16  and  C_17 
REMARK    5  A    between atoms: C_20  and  C_21 
REMARK    6  A    between atoms: C_34  and  O_35 
ROOT
HETATM    1  N   UNL     1      -6.975   2.493 -33.821  1.00  0.00    -0.336 N 
HETATM    2  H   UNL     1      -6.048   2.915 -33.654  1.00  0.00     0.168 HD
HETATM    3  C   UNL     1      -7.961   3.316 -33.895  1.00  0.00     0.164 A 
HETATM    4  O   UNL     1      -9.167   2.785 -34.268  1.00  0.00    -0.289 OA
HETATM    5  C   UNL     1     -10.294   3.600 -34.496  1.00  0.00     0.121 A 
HETATM    6  C   UNL     1     -10.186   4.981 -34.361  1.00  0.00     0.002 A 
HETATM    7  C   UNL     1      -8.912   5.560 -33.947  1.00  0.00     0.035 A 
HETATM    8  C   UNL     1      -7.846   4.787 -33.676  1.00  0.00     0.084 A 
HETATM    9  C   UNL     1     -11.490   2.973 -34.866  1.00  0.00     0.102 A 
HETATM   10  C   UNL     1     -12.604   3.773 -35.113  1.00  0.00     0.040 A 
HETATM   11  C   UNL     1     -12.512   5.165 -34.990  1.00  0.00     0.004 A 
HETATM   12  C   UNL     1     -11.309   5.768 -34.613  1.00  0.00     0.014 A 
ENDROOT
BRANCH   8  13
HETATM   13  C   UNL     1      -6.517   5.348 -33.235  1.00  0.00     0.260 C 
HETATM   14  N   UNL     1      -6.286   5.416 -31.885  1.00  0.00    -0.323 N 
HETATM   15  H   UNL     1      -6.996   5.084 -31.247  1.00  0.00     0.169 HD
HETATM   16  O   UNL     1      -5.739   5.666 -34.135  1.00  0.00    -0.267 OA
BRANCH  14  17
HETATM   17  C   UNL     1      -5.144   5.924 -31.224  1.00  0.00     0.035 A 
HETATM   18  C   UNL     1      -3.828   5.589 -31.537  1.00  0.00     0.030 A 
HETATM   19  C   UNL     1      -2.758   6.161 -30.827  1.00  0.00     0.017 A 
HETATM   20  C   UNL     1      -2.992   7.086 -29.802  1.00  0.00     0.010 A 
HETATM   21  C   UNL     1      -4.314   7.419 -29.497  1.00  0.00     0.017 A 
HETATM   22  C   UNL     1      -5.379   6.838 -30.190  1.00  0.00     0.030 A 
BRANCH  20  23
HETATM   23  C   UNL     1      -1.912   7.737 -29.061  1.00  0.00     0.139 A 
HETATM   24  N   UNL     1      -0.662   7.313 -29.004  1.00  0.00    -0.228 NA
HETATM   25  C   UNL     1       0.017   8.225 -28.237  1.00  0.00     0.086 A 
HETATM   26  C   UNL     1      -0.826   9.251 -27.828  1.00  0.00     0.062 A 
HETATM   27  C   UNL     1       1.365   8.249 -27.853  1.00  0.00     0.034 A 
HETATM   28  N   UNL     1      -2.045   8.913 -28.357  1.00  0.00    -0.338 N 
HETATM   29  C   UNL     1      -0.398  10.331 -27.054  1.00  0.00     0.032 A 
HETATM   30  H   UNL     1      -2.890   9.458 -28.278  1.00  0.00     0.167 HD
HETATM   31  C   UNL     1       0.952  10.342 -26.684  1.00  0.00     0.002 A 
HETATM   32  C   UNL     1       1.821   9.318 -27.072  1.00  0.00     0.002 A 
ENDBRANCH  20  23
ENDBRANCH  14  17
ENDBRANCH   8  13
BRANCH   1  33
HETATM   33  C   UNL     1      -6.954   1.098 -34.019  1.00  0.00     0.034 A 
HETATM   34  C   UNL     1      -6.505   0.319 -32.940  1.00  0.00     0.032 A 
HETATM   35  C   UNL     1      -6.424  -1.078 -33.048  1.00  0.00     0.039 A 
HETATM   36  C   UNL     1      -6.809  -1.712 -34.226  1.00  0.00     0.068 A 
HETATM   37  C   UNL     1      -7.295  -0.941 -35.283  1.00  0.00     0.039 A 
HETATM   38  C   UNL     1      -7.373   0.453 -35.185  1.00  0.00     0.032 A 
BRANCH  36  39
HETATM   39  O   UNL     1      -6.776  -3.053 -34.471  1.00  0.00    -0.356 OA
HETATM   40  C   UNL     1      -5.502  -3.644 -34.704  1.00  0.00     0.210 C 
ENDBRANCH  36  39
ENDBRANCH   1  33
BRANCH   9  41
HETATM   41  O   UNL     1     -11.449   1.608 -34.949  1.00  0.00    -0.353 OA
HETATM   42  C   UNL     1     -12.127   0.878 -33.931  1.00  0.00     0.210 C 
ENDBRANCH   9  41
TORSDOF 6
ENDMDL
MODEL 6
REMARK VINA RESULT:      -9.0      4.789     11.907
REMARK  6 active torsions:
REMARK  status: ('A' for Active; 'I' for Inactive)
REMARK    1  A    between atoms: O_2  and  C_3 
REMARK    2  A    between atoms: C_6  and  N_7 
REMARK    3  A    between atoms: C_14  and  C_15 
REMARK       I    between atoms: C_15  and  N_16 
REMARK    4  A    between atoms: N_16  and  C_17 
REMARK    5  A    between atoms: C_20  and  C_21 
REMARK    6  A    between atoms: C_34  and  O_35 
ROOT
HETATM    1  N   UNL     1      -4.602   7.075 -29.481  1.00  0.00    -0.336 N 
HETATM    2  H   UNL     1      -4.177   7.234 -28.554  1.00  0.00     0.168 HD
HETATM    3  C   UNL     1      -3.784   6.799 -30.434  1.00  0.00     0.164 A 
HETATM    4  O   UNL     1      -4.346   6.435 -31.629  1.00  0.00    -0.289 OA
HETATM    5  C   UNL     1      -3.559   5.999 -32.714  1.00  0.00     0.121 A 
HETATM    6  C   UNL     1      -2.177   5.912 -32.572  1.00  0.00     0.002 A 
HETATM    7  C   UNL     1      -1.562   6.313 -31.311  1.00  0.00     0.035 A 
HETATM    8  C   UNL     1      -2.300   6.780 -30.289  1.00  0.00     0.084 A 
HETATM    9  C   UNL     1      -4.216   5.655 -33.901  1.00  0.00     0.102 A 
HETATM   10  C   UNL     1      -3.446   5.203 -34.972  1.00  0.00     0.040 A 
HETATM   11  C   UNL     1      -2.056   5.102 -34.846  1.00  0.00     0.004 A 
HETATM   12  C   UNL     1      -1.422   5.457 -33.652  1.00  0.00     0.014 A 
ENDROOT
BRANCH   8  13
HETATM   13  C   UNL     1      -1.699   7.215 -28.975  1.00  0.00     0.260 C 
HETATM   14  N   UNL     1      -0.469   7.820 -29.020  1.00  0.00    -0.323 N 
HETATM   15  H   UNL     1      -0.024   7.961 -29.917  1.00  0.00     0.169 HD
HETATM   16  O   UNL     1      -2.388   7.014 -27.974  1.00  0.00    -0.267 OA
BRANCH  14  17
HETATM   17  C   UNL     1       0.310   8.286 -27.937  1.00  0.00     0.035 A 
HETATM   18  C   UNL     1       0.262   9.580 -27.421  1.00  0.00     0.030 A 
HETATM   19  C   UNL     1       1.071   9.942 -26.328  1.00  0.00     0.017 A 
HETATM   20  C   UNL     1       1.927   9.009 -25.731  1.00  0.00     0.010 A 
HETATM   21  C   UNL     1       1.965   7.712 -26.252  1.00  0.00     0.017 A 
HETATM   22  C   UNL     1       1.176   7.357 -27.349  1.00  0.00     0.030 A 
BRANCH  20  23
HETATM   23  C   UNL     1       2.758   9.326 -24.570  1.00  0.00     0.139 A 
HETATM   24  N   UNL     1       3.031  10.544 -24.138  1.00  0.00    -0.228 NA
HETATM   25  C   UNL     1       3.807  10.386 -23.017  1.00  0.00     0.086 A 
HETATM   26  C   UNL     1       3.999   9.040 -22.734  1.00  0.00     0.062 A 
HETATM   27  C   UNL     1       4.379  11.353 -22.178  1.00  0.00     0.034 A 
HETATM   28  N   UNL     1       3.330   8.389 -23.739  1.00  0.00    -0.338 N 
HETATM   29  C   UNL     1       4.730   8.585 -21.635  1.00  0.00     0.032 A 
HETATM   30  H   UNL     1       3.238   7.389 -23.829  1.00  0.00     0.167 HD
HETATM   31  C   UNL     1       5.289   9.563 -20.806  1.00  0.00     0.002 A 
HETATM   32  C   UNL     1       5.122  10.926 -21.071  1.00  0.00     0.002 A 
ENDBRANCH  20  23
ENDBRANCH  14  17
ENDBRANCH   8  13
BRANCH   1  33
HETATM   33  C   UNL     1      -6.011   7.111 -29.490  1.00  0.00     0.034 A 
HETATM   34  C   UNL     1      -6.670   5.971 -29.003  1.00  0.00     0.032 A 
HETATM   35  C   UNL     1      -8.072   5.901 -28.994  1.00  0.00     0.039 A 
HETATM   36  C   UNL     1      -8.828   6.976 -29.452  1.00  0.00     0.068 A 
HETATM   37  C   UNL     1      -8.174   8.126 -29.895  1.00  0.00     0.039 A 
HETATM   38  C   UNL     1      -6.776   8.200 -29.913  1.00  0.00     0.032 A 
BRANCH  36  39
HETATM   39  O   UNL     1     -10.190   7.042 -29.506  1.00  0.00    -0.356 OA
HETATM   40  C   UNL     1     -10.838   6.328 -30.554  1.00  0.00     0.210 C 
ENDBRANCH  36  39
ENDBRANCH   1  33
BRANCH   9  41
HETATM   41  O   UNL     1      -5.577   5.800 -33.897  1.00  0.00    -0.353 OA
HETATM   42  C   UNL     1      -6.354   4.607 -33.885  1.00  0.00     0.210 C 
ENDBRANCH   9  41
TORSDOF 6
ENDMDL
MODEL 7
REMARK VINA RESULT:      -8.8      4.315     11.516
REMARK  6 active torsions:
REMARK  status: ('A' for Active; 'I' for Inactive)
REMARK    1  A    between atoms: O_2  and  C_3 
REMARK    2  A    between atoms: C_6  and  N_7 
REMARK    3  A    between atoms: C_14  and  C_15 
REMARK       I    between atoms: C_15  and  N_16 
REMARK    4  A    between atoms: N_16  and  C_17 
REMARK    5  A    between atoms: C_20  and  C_21 
REMARK    6  A    between atoms: C_34  and  O_35 
ROOT
HETATM    1  N   UNL     1      -6.962   2.018 -31.915  1.00  0.00    -0.336 N 
HETATM    2  H   UNL     1      -6.088   2.334 -31.465  1.00  0.00     0.168 HD
HETATM    3  C   UNL     1      -8.014   2.705 -31.643  1.00  0.00     0.164 A 
HETATM    4  O   UNL     1      -9.143   2.392 -32.352  1.00  0.00    -0.289 OA
HETATM    5  C   UNL     1     -10.327   3.146 -32.228  1.00  0.00     0.121 A 
HETATM    6  C   UNL     1     -10.355   4.252 -31.383  1.00  0.00     0.002 A 
HETATM    7  C   UNL     1      -9.166   4.588 -30.607  1.00  0.00     0.035 A 
HETATM    8  C   UNL     1      -8.049   3.843 -30.679  1.00  0.00     0.084 A 
HETATM    9  C   UNL     1     -11.437   2.749 -32.985  1.00  0.00     0.102 A 
HETATM   10  C   UNL     1     -12.605   3.503 -32.883  1.00  0.00     0.040 A 
HETATM   11  C   UNL     1     -12.650   4.622 -32.043  1.00  0.00     0.004 A 
HETATM   12  C   UNL     1     -11.531   4.996 -31.294  1.00  0.00     0.014 A 
ENDROOT
BRANCH   8  13
HETATM   13  C   UNL     1      -6.804   4.152 -29.885  1.00  0.00     0.260 C 
HETATM   14  N   UNL     1      -6.556   5.471 -29.601  1.00  0.00    -0.323 N 
HETATM   15  H   UNL     1      -7.209   6.173 -29.918  1.00  0.00     0.169 HD
HETATM   16  O   UNL     1      -6.134   3.180 -29.531  1.00  0.00    -0.267 OA
BRANCH  14  17
HETATM   17  C   UNL     1      -5.453   6.016 -28.905  1.00  0.00     0.035 A 
HETATM   18  C   UNL     1      -5.365   6.133 -27.519  1.00  0.00     0.030 A 
HETATM   19  C   UNL     1      -4.216   6.679 -26.920  1.00  0.00     0.017 A 
HETATM   20  C   UNL     1      -3.135   7.103 -27.702  1.00  0.00     0.010 A 
HETATM   21  C   UNL     1      -3.229   6.979 -29.092  1.00  0.00     0.017 A 
HETATM   22  C   UNL     1      -4.378   6.453 -29.688  1.00  0.00     0.030 A 
BRANCH  20  23
HETATM   23  C   UNL     1      -1.903   7.642 -27.126  1.00  0.00     0.139 A 
HETATM   24  N   UNL     1      -1.841   8.608 -26.227  1.00  0.00    -0.228 NA
HETATM   25  C   UNL     1      -0.510   8.779 -25.940  1.00  0.00     0.086 A 
HETATM   26  C   UNL     1       0.269   7.881 -26.659  1.00  0.00     0.062 A 
HETATM   27  C   UNL     1       0.111   9.678 -25.063  1.00  0.00     0.034 A 
HETATM   28  N   UNL     1      -0.639   7.177 -27.409  1.00  0.00    -0.338 N 
HETATM   29  C   UNL     1       1.659   7.812 -26.547  1.00  0.00     0.032 A 
HETATM   30  H   UNL     1      -0.418   6.417 -28.034  1.00  0.00     0.167 HD
HETATM   31  C   UNL     1       2.262   8.714 -25.663  1.00  0.00     0.002 A 
HETATM   32  C   UNL     1       1.504   9.636 -24.934  1.00  0.00     0.002 A 
ENDBRANCH  20  23
ENDBRANCH  14  17
ENDBRANCH   8  13
BRANCH   1  33
HETATM   33  C   UNL     1      -6.800   0.940 -32.809  1.00  0.00     0.034 A 
HETATM   34  C   UNL     1      -6.374  -0.276 -32.252  1.00  0.00     0.032 A 
HETATM   35  C   UNL     1      -6.159  -1.401 -33.064  1.00  0.00     0.039 A 
HETATM   36  C   UNL     1      -6.387  -1.327 -34.436  1.00  0.00     0.068 A 
HETATM   37  C   UNL     1      -6.851  -0.131 -34.982  1.00  0.00     0.039 A 
HETATM   38  C   UNL     1      -7.062   0.997 -34.180  1.00  0.00     0.032 A 
BRANCH  36  39
HETATM   39  O   UNL     1      -6.214  -2.334 -35.339  1.00  0.00    -0.356 OA
HETATM   40  C   UNL     1      -6.544  -3.654 -34.919  1.00  0.00     0.210 C 
ENDBRANCH  36  39
ENDBRANCH   1  33
BRANCH   9  41
HETATM   41  O   UNL     1     -11.264   1.638 -33.763  1.00  0.00    -0.353 OA
HETATM   42  C   UNL     1     -11.996   1.585 -34.984  1.00  0.00     0.210 C 
ENDBRANCH   9  41
TORSDOF 6
ENDMDL
MODEL 8
REMARK VINA RESULT:      -8.3      7.782     10.967
REMARK  6 active torsions:
REMARK  status: ('A' for Active; 'I' for Inactive)
REMARK    1  A    between atoms: O_2  and  C_3 
REMARK    2  A    between atoms: C_6  and  N_7 
REMARK    3  A    between atoms: C_14  and  C_15 
REMARK       I    between atoms: C_15  and  N_16 
REMARK    4  A    between atoms: N_16  and  C_17 
REMARK    5  A    between atoms: C_20  and  C_21 
REMARK    6  A    between atoms: C_34  and  O_35 
ROOT
HETATM    1  N   UNL     1     -12.855   4.093 -33.135  1.00  0.00    -0.336 N 
HETATM    2  H   UNL     1     -12.189   3.345 -32.889  1.00  0.00     0.168 HD
HETATM    3  C   UNL     1     -12.378   5.063 -33.831  1.00  0.00     0.164 A 
HETATM    4  O   UNL     1     -13.285   5.981 -34.293  1.00  0.00    -0.289 OA
HETATM    5  C   UNL     1     -12.904   7.024 -35.161  1.00  0.00     0.121 A 
HETATM    6  C   UNL     1     -11.581   7.121 -35.583  1.00  0.00     0.002 A 
HETATM    7  C   UNL     1     -10.600   6.162 -35.086  1.00  0.00     0.035 A 
HETATM    8  C   UNL     1     -10.944   5.196 -34.217  1.00  0.00     0.084 A 
HETATM    9  C   UNL     1     -13.894   7.923 -35.577  1.00  0.00     0.102 A 
HETATM   10  C   UNL     1     -13.529   8.945 -36.452  1.00  0.00     0.040 A 
HETATM   11  C   UNL     1     -12.205   9.055 -36.893  1.00  0.00     0.004 A 
HETATM   12  C   UNL     1     -11.233   8.148 -36.459  1.00  0.00     0.014 A 
ENDROOT
BRANCH   8  13
HETATM   13  C   UNL     1      -9.957   4.193 -33.672  1.00  0.00     0.260 C 
HETATM   14  N   UNL     1      -9.269   3.434 -34.584  1.00  0.00    -0.323 N 
HETATM   15  H   UNL     1      -9.437   3.580 -35.570  1.00  0.00     0.169 HD
HETATM   16  O   UNL     1      -9.832   4.169 -32.447  1.00  0.00    -0.267 OA
BRANCH  14  17
HETATM   17  C   UNL     1      -8.322   2.417 -34.330  1.00  0.00     0.035 A 
HETATM   18  C   UNL     1      -7.063   2.623 -33.767  1.00  0.00     0.030 A 
HETATM   19  C   UNL     1      -6.197   1.539 -33.541  1.00  0.00     0.017 A 
HETATM   20  C   UNL     1      -6.585   0.233 -33.863  1.00  0.00     0.010 A 
HETATM   21  C   UNL     1      -7.851   0.034 -34.423  1.00  0.00     0.017 A 
HETATM   22  C   UNL     1      -8.705   1.113 -34.665  1.00  0.00     0.030 A 
BRANCH  20  23
HETATM   23  C   UNL     1      -5.736  -0.931 -33.612  1.00  0.00     0.139 A 
HETATM   24  N   UNL     1      -5.700  -2.024 -34.353  1.00  0.00    -0.228 NA
HETATM   25  C   UNL     1      -4.754  -2.840 -33.786  1.00  0.00     0.086 A 
HETATM   26  C   UNL     1      -4.173  -2.229 -32.683  1.00  0.00     0.062 A 
HETATM   27  C   UNL     1      -4.328  -4.119 -34.167  1.00  0.00     0.034 A 
HETATM   28  N   UNL     1      -4.818  -1.023 -32.589  1.00  0.00    -0.338 N 
HETATM   29  C   UNL     1      -3.159  -2.820 -31.925  1.00  0.00     0.032 A 
HETATM   30  H   UNL     1      -4.624  -0.305 -31.908  1.00  0.00     0.167 HD
HETATM   31  C   UNL     1      -2.743  -4.096 -32.323  1.00  0.00     0.002 A 
HETATM   32  C   UNL     1      -3.317  -4.739 -33.423  1.00  0.00     0.002 A 
ENDBRANCH  20  23
ENDBRANCH  14  17
ENDBRANCH   8  13
BRANCH   1  33
HETATM   33  C   UNL     1     -14.181   3.851 -32.722  1.00  0.00     0.034 A 
HETATM   34  C   UNL     1     -14.594   2.509 -32.697  1.00  0.00     0.032 A 
HETATM   35  C   UNL     1     -15.904   2.168 -32.325  1.00  0.00     0.039 A 
HETATM   36  C   UNL     1     -16.807   3.161 -31.955  1.00  0.00     0.068 A 
HETATM   37  C   UNL     1     -16.384   4.490 -31.939  1.00  0.00     0.039 A 
HETATM   38  C   UNL     1     -15.081   4.839 -32.315  1.00  0.00     0.032 A 
BRANCH  36  39
HETATM   39  O   UNL     1     -18.105   2.975 -31.580  1.00  0.00    -0.356 OA
HETATM   40  C   UNL     1     -18.759   4.058 -30.926  1.00  0.00     0.210 C 
ENDBRANCH  36  39
ENDBRANCH   1  33
BRANCH   9  41
HETATM   41  O   UNL     1     -15.147   7.708 -35.072  1.00  0.00    -0.353 OA
HETATM   42  C   UNL     1     -16.215   7.625 -36.011  1.00  0.00     0.210 C 
ENDBRANCH   9  41
TORSDOF 6
ENDMDL
MODEL 9
REMARK VINA RESULT:      -8.1      7.653     11.442
REMARK  6 active torsions:
REMARK  status: ('A' for Active; 'I' for Inactive)
REMARK    1  A    between atoms: O_2  and  C_3 
REMARK    2  A    between atoms: C_6  and  N_7 
REMARK    3  A    between atoms: C_14  and  C_15 
REMARK       I    between atoms: C_15  and  N_16 
REMARK    4  A    between atoms: N_16  and  C_17 
REMARK    5  A    between atoms: C_20  and  C_21 
REMARK    6  A    between atoms: C_34  and  O_35 
ROOT
HETATM    1  N   UNL     1      -7.841   2.775 -33.560  1.00  0.00    -0.336 N 
HETATM    2  H   UNL     1      -8.849   2.981 -33.629  1.00  0.00     0.168 HD
HETATM    3  C   UNL     1      -7.081   3.778 -33.292  1.00  0.00     0.164 A 
HETATM    4  O   UNL     1      -5.763   3.491 -33.047  1.00  0.00    -0.289 OA
HETATM    5  C   UNL     1      -4.857   4.486 -32.631  1.00  0.00     0.121 A 
HETATM    6  C   UNL     1      -5.302   5.791 -32.441  1.00  0.00     0.002 A 
HETATM    7  C   UNL     1      -6.698   6.115 -32.715  1.00  0.00     0.035 A 
HETATM    8  C   UNL     1      -7.559   5.184 -33.163  1.00  0.00     0.084 A 
HETATM    9  C   UNL     1      -3.526   4.106 -32.410  1.00  0.00     0.102 A 
HETATM   10  C   UNL     1      -2.627   5.081 -31.979  1.00  0.00     0.040 A 
HETATM   11  C   UNL     1      -3.059   6.397 -31.775  1.00  0.00     0.004 A 
HETATM   12  C   UNL     1      -4.391   6.753 -32.007  1.00  0.00     0.014 A 
ENDROOT
BRANCH   8  13
HETATM   13  C   UNL     1      -9.005   5.484 -33.469  1.00  0.00     0.260 C 
HETATM   14  N   UNL     1      -9.292   5.972 -34.718  1.00  0.00    -0.323 N 
HETATM   15  H   UNL     1      -8.539   6.100 -35.380  1.00  0.00     0.169 HD
HETATM   16  O   UNL     1      -9.811   5.230 -32.571  1.00  0.00    -0.267 OA
BRANCH  14  17
HETATM   17  C   UNL     1     -10.551   6.355 -35.233  1.00  0.00     0.035 A 
HETATM   18  C   UNL     1     -10.835   7.596 -35.802  1.00  0.00     0.030 A 
HETATM   19  C   UNL     1     -12.120   7.875 -36.299  1.00  0.00     0.017 A 
HETATM   20  C   UNL     1     -13.133   6.911 -36.246  1.00  0.00     0.010 A 
HETATM   21  C   UNL     1     -12.839   5.668 -35.678  1.00  0.00     0.017 A 
HETATM   22  C   UNL     1     -11.568   5.396 -35.167  1.00  0.00     0.030 A 
BRANCH  20  23
HETATM   23  C   UNL     1     -14.474   7.140 -36.785  1.00  0.00     0.139 A 
HETATM   24  N   UNL     1     -14.742   7.593 -37.996  1.00  0.00    -0.228 NA
HETATM   25  C   UNL     1     -16.109   7.626 -38.099  1.00  0.00     0.086 A 
HETATM   26  C   UNL     1     -16.703   7.160 -36.932  1.00  0.00     0.062 A 
HETATM   27  C   UNL     1     -16.920   8.034 -39.167  1.00  0.00     0.034 A 
HETATM   28  N   UNL     1     -15.644   6.866 -36.112  1.00  0.00    -0.338 N 
HETATM   29  C   UNL     1     -18.085   7.060 -36.763  1.00  0.00     0.032 A 
HETATM   30  H   UNL     1     -15.711   6.475 -35.186  1.00  0.00     0.167 HD
HETATM   31  C   UNL     1     -18.880   7.467 -37.842  1.00  0.00     0.002 A 
HETATM   32  C   UNL     1     -18.310   7.950 -39.024  1.00  0.00     0.002 A 
ENDBRANCH  20  23
ENDBRANCH  14  17
ENDBRANCH   8  13
BRANCH   1  33
HETATM   33  C   UNL     1      -7.513   1.411 -33.693  1.00  0.00     0.034 A 
HETATM   34  C   UNL     1      -7.386   0.922 -35.003  1.00  0.00     0.032 A 
HETATM   35  C   UNL     1      -7.088  -0.430 -35.239  1.00  0.00     0.039 A 
HETATM   36  C   UNL     1      -6.894  -1.300 -34.169  1.00  0.00     0.068 A 
HETATM   37  C   UNL     1      -6.978  -0.804 -32.868  1.00  0.00     0.039 A 
HETATM   38  C   UNL     1      -7.282   0.541 -32.625  1.00  0.00     0.032 A 
BRANCH  36  39
HETATM   39  O   UNL     1      -6.607  -2.631 -34.251  1.00  0.00    -0.356 OA
HETATM   40  C   UNL     1      -5.459  -3.007 -35.006  1.00  0.00     0.210 C 
ENDBRANCH  36  39
ENDBRANCH   1  33
BRANCH   9  41
HETATM   41  O   UNL     1      -3.232   2.792 -32.647  1.00  0.00    -0.353 OA
HETATM   42  C   UNL     1      -3.304   1.904 -31.536  1.00  0.00     0.210 C 
ENDBRANCH   9  41
TORSDOF 6
ENDMDL
MODEL 10
REMARK VINA RESULT:      -8.1      9.117     10.729
REMARK  6 active torsions:
REMARK  status: ('A' for Active; 'I' for Inactive)
REMARK    1  A    between atoms: O_2  and  C_3 
REMARK    2  A    between atoms: C_6  and  N_7 
REMARK    3  A    between atoms: C_14  and  C_15 
REMARK       I    between atoms: C_15  and  N_16 
REMARK    4  A    between atoms: N_16  and  C_17 
REMARK    5  A    between atoms: C_20  and  C_21 
REMARK    6  A    between atoms: C_34  and  O_35 
ROOT
HETATM    1  N   UNL     1     -12.624   5.498 -34.571  1.00  0.00    -0.336 N 
HETATM    2  H   UNL     1     -12.024   4.703 -34.841  1.00  0.00     0.168 HD
HETATM    3  C   UNL     1     -13.063   5.486 -33.363  1.00  0.00     0.164 A 
HETATM    4  O   UNL     1     -13.729   6.609 -32.949  1.00  0.00    -0.289 OA
HETATM    5  C   UNL     1     -14.158   6.764 -31.616  1.00  0.00     0.121 A 
HETATM    6  C   UNL     1     -13.885   5.768 -30.683  1.00  0.00     0.002 A 
HETATM    7  C   UNL     1     -13.192   4.558 -31.112  1.00  0.00     0.035 A 
HETATM    8  C   UNL     1     -12.826   4.378 -32.393  1.00  0.00     0.084 A 
HETATM    9  C   UNL     1     -14.839   7.941 -31.281  1.00  0.00     0.102 A 
HETATM   10  C   UNL     1     -15.249   8.112 -29.959  1.00  0.00     0.040 A 
HETATM   11  C   UNL     1     -14.977   7.124 -29.006  1.00  0.00     0.004 A 
HETATM   12  C   UNL     1     -14.299   5.955 -29.365  1.00  0.00     0.014 A 
ENDROOT
BRANCH   8  13
HETATM   13  C   UNL     1     -12.119   3.137 -32.877  1.00  0.00     0.260 C 
HETATM   14  N   UNL     1     -10.772   3.051 -32.636  1.00  0.00    -0.323 N 
HETATM   15  H   UNL     1     -10.312   3.803 -32.141  1.00  0.00     0.169 HD
HETATM   16  O   UNL     1     -12.828   2.289 -33.422  1.00  0.00    -0.267 OA
BRANCH  14  17
HETATM   17  C   UNL     1      -9.886   2.015 -33.011  1.00  0.00     0.035 A 
HETATM   18  C   UNL     1      -9.196   1.958 -34.221  1.00  0.00     0.030 A 
HETATM   19  C   UNL     1      -8.325   0.888 -34.495  1.00  0.00     0.017 A 
HETATM   20  C   UNL     1      -8.124  -0.130 -33.556  1.00  0.00     0.010 A 
HETATM   21  C   UNL     1      -8.817  -0.063 -32.344  1.00  0.00     0.017 A 
HETATM   22  C   UNL     1      -9.697   0.989 -32.078  1.00  0.00     0.030 A 
BRANCH  20  23
HETATM   23  C   UNL     1      -7.200  -1.242 -33.778  1.00  0.00     0.139 A 
HETATM   24  N   UNL     1      -7.490  -2.357 -34.424  1.00  0.00    -0.228 NA
HETATM   25  C   UNL     1      -6.341  -3.106 -34.429  1.00  0.00     0.086 A 
HETATM   26  C   UNL     1      -5.308  -2.430 -33.793  1.00  0.00     0.062 A 
HETATM   27  C   UNL     1      -6.099  -4.376 -34.971  1.00  0.00     0.034 A 
HETATM   28  N   UNL     1      -5.882  -1.254 -33.382  1.00  0.00    -0.338 N 
HETATM   29  C   UNL     1      -4.016  -2.944 -33.671  1.00  0.00     0.032 A 
HETATM   30  H   UNL     1      -5.405  -0.504 -32.905  1.00  0.00     0.167 HD
HETATM   31  C   UNL     1      -3.791  -4.212 -34.222  1.00  0.00     0.002 A 
HETATM   32  C   UNL     1      -4.814  -4.920 -34.858  1.00  0.00     0.002 A 
ENDBRANCH  20  23
ENDBRANCH  14  17
ENDBRANCH   8  13
BRANCH   1  33
HETATM   33  C   UNL     1     -12.767   6.483 -35.569  1.00  0.00     0.034 A 
HETATM   34  C   UNL     1     -11.703   7.387 -35.714  1.00  0.00     0.032 A 
HETATM   35  C   UNL     1     -11.762   8.420 -36.663  1.00  0.00     0.039 A 
HETATM   36  C   UNL     1     -12.876   8.547 -37.489  1.00  0.00     0.068 A 
HETATM   37  C   UNL     1     -13.914   7.623 -37.374  1.00  0.00     0.039 A 
HETATM   38  C   UNL     1     -13.865   6.594 -36.425  1.00  0.00     0.032 A 
BRANCH  36  39
HETATM   39  O   UNL     1     -13.069   9.501 -38.444  1.00  0.00    -0.356 OA
HETATM   40  C   UNL     1     -12.383   9.338 -39.681  1.00  0.00     0.210 C 
ENDBRANCH  36  39
ENDBRANCH   1  33
BRANCH   9  41
HETATM   41  O   UNL     1     -15.044   8.826 -32.304  1.00  0.00    -0.353 OA
HETATM   42  C   UNL     1     -16.386   9.004 -32.746  1.00  0.00     0.210 C 
ENDBRANCH   9  41
TORSDOF 6
ENDMDL
