MODEL 1
REMARK VINA RESULT:     -10.5      0.000      0.000
REMARK  11 active torsions:
REMARK  status: ('A' for Active; 'I' for Inactive)
REMARK    1  A    between atoms: C_8  and  C_9 
REMARK    2  A    between atoms: C_9  and  C_10 
REMARK    3  A    between atoms: N_14  and  C_15 
REMARK    4  A    between atoms: C_15  and  C_16 
REMARK    5  A    between atoms: C_16  and  C_17 
REMARK    6  A    between atoms: C_20  and  O_21 
REMARK    7  A    between atoms: C_27  and  N_28 
REMARK    8  A    between atoms: N_28  and  C_29 
REMARK    9  A    between atoms: C_29  and  C_30 
REMARK   10  A    between atoms: C_30  and  O_31 
REMARK   11  A    between atoms: C_30  and  C_32 
ROOT
HETATM    1  C   UNL     1       0.271   4.666 -30.175  1.00  0.00     0.052 C 
HETATM    2  C   UNL     1      -0.472   5.487 -31.182  1.00  0.00    -0.015 A 
HETATM    3  C   UNL     1      -1.758   4.925 -31.729  1.00  0.00     0.144 A 
HETATM    4  N   UNL     1      -2.148   3.752 -31.349  1.00  0.00    -0.217 NA
HETATM    5  N   UNL     1      -2.462   5.717 -32.619  1.00  0.00    -0.272 N 
HETATM    6  C   UNL     1      -3.687   5.282 -33.095  1.00  0.00     0.266 C 
HETATM    7  O   UNL     1      -4.453   5.981 -33.766  1.00  0.00    -0.267 OA
HETATM    8  C   UNL     1      -4.079   3.883 -32.738  1.00  0.00     0.074 C 
HETATM    9  C   UNL     1      -3.294   3.213 -31.866  1.00  0.00     0.121 C 
HETATM   10  C   UNL     1      -1.982   6.958 -33.018  1.00  0.00     0.102 A 
HETATM   11  C   UNL     1      -0.821   7.443 -32.564  1.00  0.00     0.018 A 
HETATM   12  C   UNL     1      -0.052   6.686 -31.614  1.00  0.00     0.012 A 
ENDROOT
BRANCH   8  13
HETATM   13  C   UNL     1      -5.255   3.312 -33.382  1.00  0.00     0.045 C 
BRANCH  13  14
HETATM   14  C   UNL     1      -6.474   3.200 -32.836  1.00  0.00     0.077 A 
HETATM   15  S   UNL     1      -7.254   4.302 -31.781  1.00  0.00    -0.055 SA
HETATM   16  C   UNL     1      -8.657   3.264 -31.593  1.00  0.00     0.148 A 
HETATM   17  S   UNL     1      -9.917   3.673 -30.573  1.00  0.00    -0.052 SA
HETATM   18  N   UNL     1      -8.536   2.136 -32.393  1.00  0.00    -0.298 N 
HETATM   19  C   UNL     1      -7.346   2.021 -33.093  1.00  0.00     0.266 A 
HETATM   20  O   UNL     1      -7.005   1.106 -33.828  1.00  0.00    -0.266 OA
BRANCH  18  21
HETATM   21  C   UNL     1      -9.618   1.138 -32.464  1.00  0.00     0.138 C 
BRANCH  21  22
HETATM   22  C   UNL     1     -10.434   1.018 -33.757  1.00  0.00     0.059 C 
BRANCH  22  23
HETATM   23  C   UNL     1     -11.938   1.169 -33.625  1.00  0.00    -0.057 A 
HETATM   24  C   UNL     1     -12.848   0.113 -33.746  1.00  0.00     0.010 A 
HETATM   25  C   UNL     1     -14.218   0.328 -33.560  1.00  0.00     0.037 A 
HETATM   26  C   UNL     1     -14.709   1.595 -33.249  1.00  0.00     0.068 A 
HETATM   27  C   UNL     1     -13.817   2.658 -33.143  1.00  0.00     0.037 A 
HETATM   28  C   UNL     1     -12.446   2.446 -33.328  1.00  0.00     0.010 A 
BRANCH  26  29
HETATM   29  O   UNL     1     -16.064   1.659 -33.077  1.00  0.00    -0.356 OA
HETATM   30  C   UNL     1     -16.550   2.658 -32.190  1.00  0.00     0.210 C 
ENDBRANCH  26  29
ENDBRANCH  22  23
ENDBRANCH  21  22
ENDBRANCH  18  21
ENDBRANCH  13  14
ENDBRANCH   8  13
BRANCH   9  31
HETATM   31  N   UNL     1      -3.544   1.901 -31.467  1.00  0.00    -0.274 NA
HETATM   32  H   UNL     1      -4.536   1.900 -31.196  1.00  0.00     0.129 HD
BRANCH  31  33
HETATM   33  C   UNL     1      -3.372   0.762 -32.386  1.00  0.00     0.130 C 
BRANCH  33  34
HETATM   34  C   UNL     1      -3.266  -0.576 -31.614  1.00  0.00     0.164 C 
BRANCH  34  35
HETATM   35  O   UNL     1      -1.965  -0.695 -31.018  1.00  0.00    -0.390 OA
HETATM   36  H   UNL     1      -1.947  -1.544 -30.544  1.00  0.00     0.210 HD
ENDBRANCH  34  35
BRANCH  34  37
HETATM   37  C   UNL     1      -3.580  -1.808 -32.441  1.00  0.00    -0.029 A 
HETATM   38  C   UNL     1      -4.392  -1.702 -33.580  1.00  0.00     0.010 A 
HETATM   39  C   UNL     1      -4.698  -2.830 -34.344  1.00  0.00     0.001 A 
HETATM   40  C   UNL     1      -4.199  -4.078 -33.977  1.00  0.00     0.000 A 
HETATM   41  C   UNL     1      -3.391  -4.200 -32.850  1.00  0.00     0.001 A 
HETATM   42  C   UNL     1      -3.083  -3.072 -32.086  1.00  0.00     0.010 A 
ENDBRANCH  34  37
ENDBRANCH  33  34
ENDBRANCH  31  33
ENDBRANCH   9  31
TORSDOF 11
ENDMDL
MODEL 2
REMARK VINA RESULT:     -10.2      3.131      6.890
REMARK  11 active torsions:
REMARK  status: ('A' for Active; 'I' for Inactive)
REMARK    1  A    between atoms: C_8  and  C_9 
REMARK    2  A    between atoms: C_9  and  C_10 
REMARK    3  A    between atoms: N_14  and  C_15 
REMARK    4  A    between atoms: C_15  and  C_16 
REMARK    5  A    between atoms: C_16  and  C_17 
REMARK    6  A    between atoms: C_20  and  O_21 
REMARK    7  A    between atoms: C_27  and  N_28 
REMARK    8  A    between atoms: N_28  and  C_29 
REMARK    9  A    between atoms: C_29  and  C_30 
REMARK   10  A    between atoms: C_30  and  O_31 
REMARK   11  A    between atoms: C_30  and  C_32 
ROOT
HETATM    1  C   UNL     1      -6.628  -4.401 -35.532  1.00  0.00     0.052 C 
HETATM    2  C   UNL     1      -5.473  -4.143 -34.615  1.00  0.00    -0.015 A 
HETATM    3  C   UNL     1      -5.261  -2.730 -34.139  1.00  0.00     0.144 A 
HETATM    4  N   UNL     1      -6.046  -1.794 -34.567  1.00  0.00    -0.217 NA
HETATM    5  N   UNL     1      -4.223  -2.514 -33.251  1.00  0.00    -0.272 N 
HETATM    6  C   UNL     1      -4.030  -1.249 -32.724  1.00  0.00     0.266 C 
HETATM    7  O   UNL     1      -3.233  -0.995 -31.815  1.00  0.00    -0.267 OA
HETATM    8  C   UNL     1      -4.868  -0.153 -33.304  1.00  0.00     0.074 C 
HETATM    9  C   UNL     1      -5.842  -0.500 -34.174  1.00  0.00     0.121 C 
HETATM   10  C   UNL     1      -3.391  -3.550 -32.848  1.00  0.00     0.102 A 
HETATM   11  C   UNL     1      -3.552  -4.800 -33.298  1.00  0.00     0.018 A 
HETATM   12  C   UNL     1      -4.630  -5.101 -34.200  1.00  0.00     0.012 A 
ENDROOT
BRANCH   8  13
HETATM   13  C   UNL     1      -4.558   1.221 -32.932  1.00  0.00     0.045 C 
BRANCH  13  14
HETATM   14  C   UNL     1      -5.374   2.062 -32.282  1.00  0.00     0.077 A 
HETATM   15  S   UNL     1      -5.806   2.032 -30.624  1.00  0.00    -0.055 SA
HETATM   16  C   UNL     1      -6.899   3.395 -30.794  1.00  0.00     0.148 A 
HETATM   17  S   UNL     1      -7.813   3.948 -29.508  1.00  0.00    -0.052 SA
HETATM   18  N   UNL     1      -6.857   3.892 -32.089  1.00  0.00    -0.298 N 
HETATM   19  C   UNL     1      -6.052   3.193 -32.974  1.00  0.00     0.266 A 
HETATM   20  O   UNL     1      -5.885   3.424 -34.164  1.00  0.00    -0.266 OA
BRANCH  18  21
HETATM   21  C   UNL     1      -7.638   5.083 -32.470  1.00  0.00     0.138 C 
BRANCH  21  22
HETATM   22  C   UNL     1      -8.623   4.980 -33.641  1.00  0.00     0.059 C 
BRANCH  22  23
HETATM   23  C   UNL     1     -10.082   4.763 -33.281  1.00  0.00    -0.057 A 
HETATM   24  C   UNL     1     -10.516   4.050 -32.159  1.00  0.00     0.010 A 
HETATM   25  C   UNL     1     -11.881   3.939 -31.870  1.00  0.00     0.037 A 
HETATM   26  C   UNL     1     -12.838   4.537 -32.688  1.00  0.00     0.068 A 
HETATM   27  C   UNL     1     -12.420   5.235 -33.818  1.00  0.00     0.037 A 
HETATM   28  C   UNL     1     -11.056   5.348 -34.109  1.00  0.00     0.010 A 
BRANCH  26  29
HETATM   29  O   UNL     1     -14.132   4.364 -32.279  1.00  0.00    -0.356 OA
HETATM   30  C   UNL     1     -14.454   3.110 -31.691  1.00  0.00     0.210 C 
ENDBRANCH  26  29
ENDBRANCH  22  23
ENDBRANCH  21  22
ENDBRANCH  18  21
ENDBRANCH  13  14
ENDBRANCH   8  13
BRANCH   9  31
HETATM   31  N   UNL     1      -6.678   0.428 -34.793  1.00  0.00    -0.274 NA
HETATM   32  H   UNL     1      -6.320   0.495 -35.754  1.00  0.00     0.129 HD
BRANCH  31  33
HETATM   33  C   UNL     1      -8.130   0.206 -34.914  1.00  0.00     0.130 C 
BRANCH  33  34
HETATM   34  C   UNL     1      -8.923   1.118 -33.945  1.00  0.00     0.164 C 
BRANCH  34  35
HETATM   35  O   UNL     1      -8.629   0.759 -32.587  1.00  0.00    -0.390 OA
HETATM   36  H   UNL     1      -7.804   0.245 -32.601  1.00  0.00     0.210 HD
ENDBRANCH  34  35
BRANCH  34  37
HETATM   37  C   UNL     1     -10.422   1.128 -34.174  1.00  0.00    -0.029 A 
HETATM   38  C   UNL     1     -10.971   1.903 -35.206  1.00  0.00     0.010 A 
HETATM   39  C   UNL     1     -12.351   1.931 -35.419  1.00  0.00     0.001 A 
HETATM   40  C   UNL     1     -13.199   1.187 -34.602  1.00  0.00     0.000 A 
HETATM   41  C   UNL     1     -12.669   0.412 -33.573  1.00  0.00     0.001 A 
HETATM   42  C   UNL     1     -11.290   0.383 -33.360  1.00  0.00     0.010 A 
ENDBRANCH  34  37
ENDBRANCH  33  34
ENDBRANCH  31  33
ENDBRANCH   9  31
TORSDOF 11
ENDMDL
MODEL 3
REMARK VINA RESULT:      -9.9      3.290      9.850
REMARK  11 active torsions:
REMARK  status: ('A' for Active; 'I' for Inactive)
REMARK    1  A    between atoms: C_8  and  C_9 
REMARK    2  A    between atoms: C_9  and  C_10 
REMARK    3  A    between atoms: N_14  and  C_15 
REMARK    4  A    between atoms: C_15  and  C_16 
REMARK    5  A    between atoms: C_16  and  C_17 
REMARK    6  A    between atoms: C_20  and  O_21 
REMARK    7  A    between atoms: C_27  and  N_28 
REMARK    8  A    between atoms: N_28  and  C_29 
REMARK    9  A    between atoms: C_29  and  C_30 
REMARK   10  A    between atoms: C_30  and  O_31 
REMARK   11  A    between atoms: C_30  and  C_32 
ROOT
HETATM    1  C   UNL     1      -9.313  -0.032 -32.357  1.00  0.00     0.052 C 
HETATM    2  C   UNL     1      -9.188   1.358 -32.899  1.00  0.00    -0.015 A 
HETATM    3  C   UNL     1      -7.813   1.970 -32.941  1.00  0.00     0.144 A 
HETATM    4  N   UNL     1      -6.808   1.301 -32.475  1.00  0.00    -0.217 NA
HETATM    5  N   UNL     1      -7.703   3.234 -33.492  1.00  0.00    -0.272 N 
HETATM    6  C   UNL     1      -6.452   3.813 -33.625  1.00  0.00     0.266 C 
HETATM    7  O   UNL     1      -6.241   4.863 -34.239  1.00  0.00    -0.267 OA
HETATM    8  C   UNL     1      -5.312   3.084 -32.986  1.00  0.00     0.074 C 
HETATM    9  C   UNL     1      -5.559   1.859 -32.472  1.00  0.00     0.121 C 
HETATM   10  C   UNL     1      -8.820   3.922 -33.950  1.00  0.00     0.102 A 
HETATM   11  C   UNL     1     -10.048   3.397 -33.879  1.00  0.00     0.018 A 
HETATM   12  C   UNL     1     -10.231   2.075 -33.345  1.00  0.00     0.012 A 
ENDROOT
BRANCH   8  13
HETATM   13  C   UNL     1      -4.019   3.752 -32.920  1.00  0.00     0.045 C 
BRANCH  13  14
HETATM   14  C   UNL     1      -3.650   4.660 -32.007  1.00  0.00     0.077 A 
HETATM   15  S   UNL     1      -4.657   5.527 -30.925  1.00  0.00    -0.055 SA
HETATM   16  C   UNL     1      -3.313   6.447 -30.271  1.00  0.00     0.148 A 
HETATM   17  S   UNL     1      -3.545   7.640 -29.124  1.00  0.00    -0.052 SA
HETATM   18  N   UNL     1      -2.117   6.024 -30.836  1.00  0.00    -0.298 N 
HETATM   19  C   UNL     1      -2.227   5.054 -31.819  1.00  0.00     0.266 A 
HETATM   20  O   UNL     1      -1.321   4.557 -32.473  1.00  0.00    -0.266 OA
BRANCH  18  21
HETATM   21  C   UNL     1      -0.830   6.598 -30.402  1.00  0.00     0.138 C 
BRANCH  21  22
HETATM   22  C   UNL     1      -0.089   5.953 -29.224  1.00  0.00     0.059 C 
BRANCH  22  23
HETATM   23  C   UNL     1       0.468   6.899 -28.176  1.00  0.00    -0.057 A 
HETATM   24  C   UNL     1       0.418   6.661 -26.798  1.00  0.00     0.010 A 
HETATM   25  C   UNL     1       1.002   7.561 -25.899  1.00  0.00     0.037 A 
HETATM   26  C   UNL     1       1.647   8.711 -26.352  1.00  0.00     0.068 A 
HETATM   27  C   UNL     1       1.688   8.968 -27.719  1.00  0.00     0.037 A 
HETATM   28  C   UNL     1       1.106   8.070 -28.621  1.00  0.00     0.010 A 
BRANCH  26  29
HETATM   29  O   UNL     1       2.187   9.492 -25.367  1.00  0.00    -0.356 OA
HETATM   30  C   UNL     1       2.531   8.840 -24.151  1.00  0.00     0.210 C 
ENDBRANCH  26  29
ENDBRANCH  22  23
ENDBRANCH  21  22
ENDBRANCH  18  21
ENDBRANCH  13  14
ENDBRANCH   8  13
BRANCH   9  31
HETATM   31  N   UNL     1      -4.586   1.087 -31.840  1.00  0.00    -0.274 NA
HETATM   32  H   UNL     1      -4.470   1.525 -30.917  1.00  0.00     0.129 HD
BRANCH  31  33
HETATM   33  C   UNL     1      -4.779  -0.352 -31.585  1.00  0.00     0.130 C 
BRANCH  33  34
HETATM   34  C   UNL     1      -3.953  -1.215 -32.570  1.00  0.00     0.164 C 
BRANCH  34  35
HETATM   35  O   UNL     1      -3.149  -0.368 -33.405  1.00  0.00    -0.390 OA
HETATM   36  H   UNL     1      -2.220  -0.614 -33.249  1.00  0.00     0.210 HD
ENDBRANCH  34  35
BRANCH  34  37
HETATM   37  C   UNL     1      -4.776  -2.163 -33.421  1.00  0.00    -0.029 A 
HETATM   38  C   UNL     1      -4.252  -3.411 -33.791  1.00  0.00     0.010 A 
HETATM   39  C   UNL     1      -4.995  -4.288 -34.584  1.00  0.00     0.001 A 
HETATM   40  C   UNL     1      -6.268  -3.929 -35.019  1.00  0.00     0.000 A 
HETATM   41  C   UNL     1      -6.802  -2.694 -34.660  1.00  0.00     0.001 A 
HETATM   42  C   UNL     1      -6.061  -1.817 -33.866  1.00  0.00     0.010 A 
ENDBRANCH  34  37
ENDBRANCH  33  34
ENDBRANCH  31  33
ENDBRANCH   9  31
TORSDOF 11
ENDMDL
MODEL 4
REMARK VINA RESULT:      -9.8      3.008      9.371
REMARK  11 active torsions:
REMARK  status: ('A' for Active; 'I' for Inactive)
REMARK    1  A    between atoms: C_8  and  C_9 
REMARK    2  A    between atoms: C_9  and  C_10 
REMARK    3  A    between atoms: N_14  and  C_15 
REMARK    4  A    between atoms: C_15  and  C_16 
REMARK    5  A    between atoms: C_16  and  C_17 
REMARK    6  A    between atoms: C_20  and  O_21 
REMARK    7  A    between atoms: C_27  and  N_28 
REMARK    8  A    between atoms: N_28  and  C_29 
REMARK    9  A    between atoms: C_29  and  C_30 
REMARK   10  A    between atoms: C_30  and  O_31 
REMARK   11  A    between atoms: C_30  and  C_32 
ROOT
HETATM    1  C   UNL     1     -10.209  -0.263 -32.804  1.00  0.00     0.052 C 
HETATM    2  C   UNL     1     -10.365   1.078 -33.452  1.00  0.00    -0.015 A 
HETATM    3  C   UNL     1      -9.303   2.111 -33.182  1.00  0.00     0.144 A 
HETATM    4  N   UNL     1      -8.331   1.824 -32.378  1.00  0.00    -0.217 NA
HETATM    5  N   UNL     1      -9.431   3.328 -33.828  1.00  0.00    -0.272 N 
HETATM    6  C   UNL     1      -8.444   4.286 -33.676  1.00  0.00     0.266 C 
HETATM    7  O   UNL     1      -8.394   5.334 -34.328  1.00  0.00    -0.267 OA
HETATM    8  C   UNL     1      -7.383   3.991 -32.663  1.00  0.00     0.074 C 
HETATM    9  C   UNL     1      -7.380   2.765 -32.094  1.00  0.00     0.121 C 
HETATM   10  C   UNL     1     -10.512   3.595 -34.658  1.00  0.00     0.102 A 
HETATM   11  C   UNL     1     -11.478   2.693 -34.870  1.00  0.00     0.018 A 
HETATM   12  C   UNL     1     -11.393   1.397 -34.253  1.00  0.00     0.012 A 
ENDROOT
BRANCH   8  13
HETATM   13  C   UNL     1      -6.445   5.052 -32.319  1.00  0.00     0.045 C 
BRANCH  13  14
HETATM   14  C   UNL     1      -5.165   5.127 -32.709  1.00  0.00     0.077 A 
HETATM   15  S   UNL     1      -4.557   5.120 -34.311  1.00  0.00    -0.055 SA
HETATM   16  C   UNL     1      -2.887   5.166 -33.770  1.00  0.00     0.148 A 
HETATM   17  S   UNL     1      -1.615   5.108 -34.854  1.00  0.00    -0.052 SA
HETATM   18  N   UNL     1      -2.829   5.260 -32.387  1.00  0.00    -0.298 N 
HETATM   19  C   UNL     1      -4.048   5.222 -31.730  1.00  0.00     0.266 A 
HETATM   20  O   UNL     1      -4.240   5.257 -30.523  1.00  0.00    -0.266 OA
BRANCH  18  21
HETATM   21  C   UNL     1      -1.535   5.381 -31.689  1.00  0.00     0.138 C 
BRANCH  21  22
HETATM   22  C   UNL     1      -0.943   6.777 -31.462  1.00  0.00     0.059 C 
BRANCH  22  23
HETATM   23  C   UNL     1      -0.635   7.156 -30.024  1.00  0.00    -0.057 A 
HETATM   24  C   UNL     1       0.655   7.361 -29.525  1.00  0.00     0.010 A 
HETATM   25  C   UNL     1       0.850   7.759 -28.198  1.00  0.00     0.037 A 
HETATM   26  C   UNL     1      -0.232   7.962 -27.343  1.00  0.00     0.068 A 
HETATM   27  C   UNL     1      -1.521   7.745 -27.823  1.00  0.00     0.037 A 
HETATM   28  C   UNL     1      -1.719   7.348 -29.150  1.00  0.00     0.010 A 
BRANCH  26  29
HETATM   29  O   UNL     1       0.102   8.366 -26.080  1.00  0.00    -0.356 OA
HETATM   30  C   UNL     1      -0.678   9.412 -25.516  1.00  0.00     0.210 C 
ENDBRANCH  26  29
ENDBRANCH  22  23
ENDBRANCH  21  22
ENDBRANCH  18  21
ENDBRANCH  13  14
ENDBRANCH   8  13
BRANCH   9  31
HETATM   31  N   UNL     1      -6.455   2.375 -31.128  1.00  0.00    -0.274 NA
HETATM   32  H   UNL     1      -6.853   2.707 -30.241  1.00  0.00     0.129 HD
BRANCH  31  33
HETATM   33  C   UNL     1      -6.107   0.959 -30.912  1.00  0.00     0.130 C 
BRANCH  33  34
HETATM   34  C   UNL     1      -4.913   0.529 -31.802  1.00  0.00     0.164 C 
BRANCH  34  35
HETATM   35  O   UNL     1      -4.369   1.674 -32.475  1.00  0.00    -0.390 OA
HETATM   36  H   UNL     1      -4.157   1.396 -33.383  1.00  0.00     0.210 HD
ENDBRANCH  34  35
BRANCH  34  37
HETATM   37  C   UNL     1      -5.235  -0.565 -32.802  1.00  0.00    -0.029 A 
HETATM   38  C   UNL     1      -6.548  -0.731 -33.264  1.00  0.00     0.010 A 
HETATM   39  C   UNL     1      -6.860  -1.742 -34.176  1.00  0.00     0.001 A 
HETATM   40  C   UNL     1      -5.864  -2.600 -34.634  1.00  0.00     0.000 A 
HETATM   41  C   UNL     1      -4.555  -2.449 -34.185  1.00  0.00     0.001 A 
HETATM   42  C   UNL     1      -4.242  -1.437 -33.274  1.00  0.00     0.010 A 
ENDBRANCH  34  37
ENDBRANCH  33  34
ENDBRANCH  31  33
ENDBRANCH   9  31
TORSDOF 11
ENDMDL
MODEL 5
REMARK VINA RESULT:      -9.7      1.536      2.165
REMARK  11 active torsions:
REMARK  status: ('A' for Active; 'I' for Inactive)
REMARK    1  A    between atoms: C_8  and  C_9 
REMARK    2  A    between atoms: C_9  and  C_10 
REMARK    3  A    between atoms: N_14  and  C_15 
REMARK    4  A    between atoms: C_15  and  C_16 
REMARK    5  A    between atoms: C_16  and  C_17 
REMARK    6  A    between atoms: C_20  and  O_21 
REMARK    7  A    between atoms: C_27  and  N_28 
REMARK    8  A    between atoms: N_28  and  C_29 
REMARK    9  A    between atoms: C_29  and  C_30 
REMARK   10  A    between atoms: C_30  and  O_31 
REMARK   11  A    between atoms: C_30  and  C_32 
ROOT
HETATM    1  C   UNL     1       0.508   4.566 -30.221  1.00  0.00     0.052 C 
HETATM    2  C   UNL     1      -0.255   5.433 -31.173  1.00  0.00    -0.015 A 
HETATM    3  C   UNL     1      -1.592   4.935 -31.653  1.00  0.00     0.144 A 
HETATM    4  N   UNL     1      -2.011   3.774 -31.266  1.00  0.00    -0.217 NA
HETATM    5  N   UNL     1      -2.311   5.769 -32.492  1.00  0.00    -0.272 N 
HETATM    6  C   UNL     1      -3.578   5.394 -32.902  1.00  0.00     0.266 C 
HETATM    7  O   UNL     1      -4.350   6.134 -33.520  1.00  0.00    -0.267 OA
HETATM    8  C   UNL     1      -4.010   4.007 -32.541  1.00  0.00     0.074 C 
HETATM    9  C   UNL     1      -3.207   3.291 -31.723  1.00  0.00     0.121 C 
HETATM   10  C   UNL     1      -1.801   6.994 -32.902  1.00  0.00     0.102 A 
HETATM   11  C   UNL     1      -0.596   7.423 -32.509  1.00  0.00     0.018 A 
HETATM   12  C   UNL     1       0.192   6.620 -31.613  1.00  0.00     0.012 A 
ENDROOT
BRANCH   8  13
HETATM   13  C   UNL     1      -5.244   3.497 -33.124  1.00  0.00     0.045 C 
BRANCH  13  14
HETATM   14  C   UNL     1      -6.481   3.712 -32.657  1.00  0.00     0.077 A 
HETATM   15  S   UNL     1      -7.191   3.070 -31.236  1.00  0.00    -0.055 SA
HETATM   16  C   UNL     1      -8.738   3.835 -31.557  1.00  0.00     0.148 A 
HETATM   17  S   UNL     1     -10.057   3.592 -30.560  1.00  0.00    -0.052 SA
HETATM   18  N   UNL     1      -8.661   4.622 -32.698  1.00  0.00    -0.298 N 
HETATM   19  C   UNL     1      -7.451   4.587 -33.372  1.00  0.00     0.266 A 
HETATM   20  O   UNL     1      -7.164   5.168 -34.409  1.00  0.00    -0.266 OA
BRANCH  18  21
HETATM   21  C   UNL     1      -9.815   5.424 -33.144  1.00  0.00     0.138 C 
BRANCH  21  22
HETATM   22  C   UNL     1     -10.570   4.998 -34.410  1.00  0.00     0.059 C 
BRANCH  22  23
HETATM   23  C   UNL     1     -11.430   3.753 -34.298  1.00  0.00    -0.057 A 
HETATM   24  C   UNL     1     -12.822   3.770 -34.156  1.00  0.00     0.010 A 
HETATM   25  C   UNL     1     -13.547   2.574 -34.112  1.00  0.00     0.037 A 
HETATM   26  C   UNL     1     -12.904   1.341 -34.208  1.00  0.00     0.068 A 
HETATM   27  C   UNL     1     -11.518   1.309 -34.332  1.00  0.00     0.037 A 
HETATM   28  C   UNL     1     -10.790   2.504 -34.378  1.00  0.00     0.010 A 
BRANCH  26  29
HETATM   29  O   UNL     1     -13.736   0.255 -34.168  1.00  0.00    -0.356 OA
HETATM   30  C   UNL     1     -15.123   0.505 -34.354  1.00  0.00     0.210 C 
ENDBRANCH  26  29
ENDBRANCH  22  23
ENDBRANCH  21  22
ENDBRANCH  18  21
ENDBRANCH  13  14
ENDBRANCH   8  13
BRANCH   9  31
HETATM   31  N   UNL     1      -3.490   1.986 -31.327  1.00  0.00    -0.274 NA
HETATM   32  H   UNL     1      -4.508   1.975 -31.187  1.00  0.00     0.129 HD
BRANCH  31  33
HETATM   33  C   UNL     1      -3.186   0.829 -32.188  1.00  0.00     0.130 C 
BRANCH  33  34
HETATM   34  C   UNL     1      -3.992  -0.422 -31.758  1.00  0.00     0.164 C 
BRANCH  34  35
HETATM   35  O   UNL     1      -3.094  -1.498 -31.445  1.00  0.00    -0.390 OA
HETATM   36  H   UNL     1      -3.235  -2.189 -32.114  1.00  0.00     0.210 HD
ENDBRANCH  34  35
BRANCH  34  37
HETATM   37  C   UNL     1      -5.029  -0.880 -32.765  1.00  0.00    -0.029 A 
HETATM   38  C   UNL     1      -6.300  -0.285 -32.787  1.00  0.00     0.010 A 
HETATM   39  C   UNL     1      -7.268  -0.706 -33.701  1.00  0.00     0.001 A 
HETATM   40  C   UNL     1      -6.980  -1.727 -34.602  1.00  0.00     0.000 A 
HETATM   41  C   UNL     1      -5.724  -2.328 -34.594  1.00  0.00     0.001 A 
HETATM   42  C   UNL     1      -4.755  -1.907 -33.681  1.00  0.00     0.010 A 
ENDBRANCH  34  37
ENDBRANCH  33  34
ENDBRANCH  31  33
ENDBRANCH   9  31
TORSDOF 11
ENDMDL
MODEL 6
REMARK VINA RESULT:      -9.6      2.105      2.612
REMARK  11 active torsions:
REMARK  status: ('A' for Active; 'I' for Inactive)
REMARK    1  A    between atoms: C_8  and  C_9 
REMARK    2  A    between atoms: C_9  and  C_10 
REMARK    3  A    between atoms: N_14  and  C_15 
REMARK    4  A    between atoms: C_15  and  C_16 
REMARK    5  A    between atoms: C_16  and  C_17 
REMARK    6  A    between atoms: C_20  and  O_21 
REMARK    7  A    between atoms: C_27  and  N_28 
REMARK    8  A    between atoms: N_28  and  C_29 
REMARK    9  A    between atoms: C_29  and  C_30 
REMARK   10  A    between atoms: C_30  and  O_31 
REMARK   11  A    between atoms: C_30  and  C_32 
ROOT
HETATM    1  C   UNL     1      -1.289   4.963 -34.965  1.00  0.00     0.052 C 
HETATM    2  C   UNL     1      -1.833   5.818 -33.864  1.00  0.00    -0.015 A 
HETATM    3  C   UNL     1      -2.759   5.170 -32.869  1.00  0.00     0.144 A 
HETATM    4  N   UNL     1      -3.083   3.927 -33.023  1.00  0.00    -0.217 NA
HETATM    5  N   UNL     1      -3.214   5.958 -31.826  1.00  0.00    -0.272 N 
HETATM    6  C   UNL     1      -4.007   5.393 -30.843  1.00  0.00     0.266 C 
HETATM    7  O   UNL     1      -4.331   5.973 -29.802  1.00  0.00    -0.267 OA
HETATM    8  C   UNL     1      -4.466   3.989 -31.084  1.00  0.00     0.074 C 
HETATM    9  C   UNL     1      -3.954   3.335 -32.150  1.00  0.00     0.121 C 
HETATM   10  C   UNL     1      -2.860   7.297 -31.726  1.00  0.00     0.102 A 
HETATM   11  C   UNL     1      -2.068   7.886 -32.628  1.00  0.00     0.018 A 
HETATM   12  C   UNL     1      -1.535   7.119 -33.722  1.00  0.00     0.012 A 
ENDROOT
BRANCH   8  13
HETATM   13  C   UNL     1      -5.465   3.428 -30.184  1.00  0.00     0.045 C 
BRANCH  13  14
HETATM   14  C   UNL     1      -6.777   3.319 -30.436  1.00  0.00     0.077 A 
HETATM   15  S   UNL     1      -7.979   4.529 -30.270  1.00  0.00    -0.055 SA
HETATM   16  C   UNL     1      -9.270   3.433 -30.731  1.00  0.00     0.148 A 
HETATM   17  S   UNL     1     -10.870   3.919 -30.734  1.00  0.00    -0.052 SA
HETATM   18  N   UNL     1      -8.753   2.192 -31.073  1.00  0.00    -0.298 N 
HETATM   19  C   UNL     1      -7.384   2.047 -30.914  1.00  0.00     0.266 A 
HETATM   20  O   UNL     1      -6.717   1.042 -31.119  1.00  0.00    -0.266 OA
BRANCH  18  21
HETATM   21  C   UNL     1      -9.632   1.113 -31.560  1.00  0.00     0.138 C 
BRANCH  21  22
HETATM   22  C   UNL     1      -9.678   0.815 -33.064  1.00  0.00     0.059 C 
BRANCH  22  23
HETATM   23  C   UNL     1     -10.536   1.737 -33.910  1.00  0.00    -0.057 A 
HETATM   24  C   UNL     1     -11.868   1.477 -34.250  1.00  0.00     0.010 A 
HETATM   25  C   UNL     1     -12.608   2.405 -34.992  1.00  0.00     0.037 A 
HETATM   26  C   UNL     1     -12.038   3.607 -35.410  1.00  0.00     0.068 A 
HETATM   27  C   UNL     1     -10.708   3.870 -35.094  1.00  0.00     0.037 A 
HETATM   28  C   UNL     1      -9.967   2.944 -34.350  1.00  0.00     0.010 A 
BRANCH  26  29
HETATM   29  O   UNL     1     -12.878   4.427 -36.112  1.00  0.00    -0.356 OA
HETATM   30  C   UNL     1     -12.902   5.796 -35.730  1.00  0.00     0.210 C 
ENDBRANCH  26  29
ENDBRANCH  22  23
ENDBRANCH  21  22
ENDBRANCH  18  21
ENDBRANCH  13  14
ENDBRANCH   8  13
BRANCH   9  31
HETATM   31  N   UNL     1      -4.312   2.032 -32.489  1.00  0.00    -0.274 NA
HETATM   32  H   UNL     1      -4.748   2.118 -33.416  1.00  0.00     0.129 HD
BRANCH  31  33
HETATM   33  C   UNL     1      -3.311   0.957 -32.609  1.00  0.00     0.130 C 
BRANCH  33  34
HETATM   34  C   UNL     1      -3.850  -0.382 -32.046  1.00  0.00     0.164 C 
BRANCH  34  35
HETATM   35  O   UNL     1      -2.794  -1.094 -31.385  1.00  0.00    -0.390 OA
HETATM   36  H   UNL     1      -3.172  -1.472 -30.572  1.00  0.00     0.210 HD
ENDBRANCH  34  35
BRANCH  34  37
HETATM   37  C   UNL     1      -4.521  -1.274 -33.074  1.00  0.00    -0.029 A 
HETATM   38  C   UNL     1      -3.963  -2.520 -33.394  1.00  0.00     0.010 A 
HETATM   39  C   UNL     1      -4.564  -3.345 -34.347  1.00  0.00     0.001 A 
HETATM   40  C   UNL     1      -5.727  -2.934 -34.994  1.00  0.00     0.000 A 
HETATM   41  C   UNL     1      -6.293  -1.700 -34.687  1.00  0.00     0.001 A 
HETATM   42  C   UNL     1      -5.694  -0.874 -33.733  1.00  0.00     0.010 A 
ENDBRANCH  34  37
ENDBRANCH  33  34
ENDBRANCH  31  33
ENDBRANCH   9  31
TORSDOF 11
ENDMDL
MODEL 7
REMARK VINA RESULT:      -9.4      3.687      7.656
REMARK  11 active torsions:
REMARK  status: ('A' for Active; 'I' for Inactive)
REMARK    1  A    between atoms: C_8  and  C_9 
REMARK    2  A    between atoms: C_9  and  C_10 
REMARK    3  A    between atoms: N_14  and  C_15 
REMARK    4  A    between atoms: C_15  and  C_16 
REMARK    5  A    between atoms: C_16  and  C_17 
REMARK    6  A    between atoms: C_20  and  O_21 
REMARK    7  A    between atoms: C_27  and  N_28 
REMARK    8  A    between atoms: N_28  and  C_29 
REMARK    9  A    between atoms: C_29  and  C_30 
REMARK   10  A    between atoms: C_30  and  O_31 
REMARK   11  A    between atoms: C_30  and  C_32 
ROOT
HETATM    1  C   UNL     1      -2.244   8.965 -30.912  1.00  0.00     0.052 C 
HETATM    2  C   UNL     1      -1.966   7.550 -31.310  1.00  0.00    -0.015 A 
HETATM    3  C   UNL     1      -3.023   6.520 -31.009  1.00  0.00     0.144 A 
HETATM    4  N   UNL     1      -4.099   6.881 -30.387  1.00  0.00    -0.217 NA
HETATM    5  N   UNL     1      -2.778   5.225 -31.428  1.00  0.00    -0.272 N 
HETATM    6  C   UNL     1      -3.747   4.254 -31.244  1.00  0.00     0.266 C 
HETATM    7  O   UNL     1      -3.682   3.116 -31.719  1.00  0.00    -0.267 OA
HETATM    8  C   UNL     1      -4.938   4.652 -30.430  1.00  0.00     0.074 C 
HETATM    9  C   UNL     1      -5.051   5.950 -30.072  1.00  0.00     0.121 C 
HETATM   10  C   UNL     1      -1.591   4.885 -32.065  1.00  0.00     0.102 A 
HETATM   11  C   UNL     1      -0.633   5.789 -32.300  1.00  0.00     0.018 A 
HETATM   12  C   UNL     1      -0.835   7.160 -31.918  1.00  0.00     0.012 A 
ENDROOT
BRANCH   8  13
HETATM   13  C   UNL     1      -5.880   3.612 -30.037  1.00  0.00     0.045 C 
BRANCH  13  14
HETATM   14  C   UNL     1      -6.886   3.138 -30.786  1.00  0.00     0.077 A 
HETATM   15  S   UNL     1      -8.241   3.998 -31.385  1.00  0.00    -0.055 SA
HETATM   16  C   UNL     1      -8.941   2.562 -32.112  1.00  0.00     0.148 A 
HETATM   17  S   UNL     1     -10.425   2.606 -32.881  1.00  0.00    -0.052 SA
HETATM   18  N   UNL     1      -8.095   1.474 -31.948  1.00  0.00    -0.298 N 
HETATM   19  C   UNL     1      -6.949   1.711 -31.206  1.00  0.00     0.266 A 
HETATM   20  O   UNL     1      -6.081   0.904 -30.906  1.00  0.00    -0.266 OA
BRANCH  18  21
HETATM   21  C   UNL     1      -8.428   0.161 -32.529  1.00  0.00     0.138 C 
BRANCH  21  22
HETATM   22  C   UNL     1      -7.971  -0.156 -33.958  1.00  0.00     0.059 C 
BRANCH  22  23
HETATM   23  C   UNL     1      -6.807  -1.120 -34.099  1.00  0.00    -0.057 A 
HETATM   24  C   UNL     1      -5.491  -0.821 -33.729  1.00  0.00     0.010 A 
HETATM   25  C   UNL     1      -4.483  -1.785 -33.844  1.00  0.00     0.037 A 
HETATM   26  C   UNL     1      -4.764  -3.063 -34.325  1.00  0.00     0.068 A 
HETATM   27  C   UNL     1      -6.066  -3.368 -34.712  1.00  0.00     0.037 A 
HETATM   28  C   UNL     1      -7.077  -2.406 -34.598  1.00  0.00     0.010 A 
BRANCH  26  29
HETATM   29  O   UNL     1      -3.691  -3.909 -34.367  1.00  0.00    -0.356 OA
HETATM   30  C   UNL     1      -3.736  -5.044 -33.511  1.00  0.00     0.210 C 
ENDBRANCH  26  29
ENDBRANCH  22  23
ENDBRANCH  21  22
ENDBRANCH  18  21
ENDBRANCH  13  14
ENDBRANCH   8  13
BRANCH   9  31
HETATM   31  N   UNL     1      -6.103   6.441 -29.303  1.00  0.00    -0.274 NA
HETATM   32  H   UNL     1      -6.734   5.637 -29.187  1.00  0.00     0.129 HD
BRANCH  31  33
HETATM   33  C   UNL     1      -5.890   6.987 -27.951  1.00  0.00     0.130 C 
BRANCH  33  34
HETATM   34  C   UNL     1      -4.741   6.250 -27.219  1.00  0.00     0.164 C 
BRANCH  34  35
HETATM   35  O   UNL     1      -5.283   5.272 -26.319  1.00  0.00    -0.390 OA
HETATM   36  H   UNL     1      -5.996   4.812 -26.796  1.00  0.00     0.210 HD
ENDBRANCH  34  35
BRANCH  34  37
HETATM   37  C   UNL     1      -3.775   7.161 -26.485  1.00  0.00    -0.029 A 
HETATM   38  C   UNL     1      -2.413   7.160 -26.824  1.00  0.00     0.010 A 
HETATM   39  C   UNL     1      -1.511   7.984 -26.148  1.00  0.00     0.001 A 
HETATM   40  C   UNL     1      -1.957   8.816 -25.124  1.00  0.00     0.000 A 
HETATM   41  C   UNL     1      -3.306   8.828 -24.776  1.00  0.00     0.001 A 
HETATM   42  C   UNL     1      -4.209   8.006 -25.452  1.00  0.00     0.010 A 
ENDBRANCH  34  37
ENDBRANCH  33  34
ENDBRANCH  31  33
ENDBRANCH   9  31
TORSDOF 11
ENDMDL
MODEL 8
REMARK VINA RESULT:      -9.4      2.960      7.215
REMARK  11 active torsions:
REMARK  status: ('A' for Active; 'I' for Inactive)
REMARK    1  A    between atoms: C_8  and  C_9 
REMARK    2  A    between atoms: C_9  and  C_10 
REMARK    3  A    between atoms: N_14  and  C_15 
REMARK    4  A    between atoms: C_15  and  C_16 
REMARK    5  A    between atoms: C_16  and  C_17 
REMARK    6  A    between atoms: C_20  and  O_21 
REMARK    7  A    between atoms: C_27  and  N_28 
REMARK    8  A    between atoms: N_28  and  C_29 
REMARK    9  A    between atoms: C_29  and  C_30 
REMARK   10  A    between atoms: C_30  and  O_31 
REMARK   11  A    between atoms: C_30  and  C_32 
ROOT
HETATM    1  C   UNL     1      -0.821   5.232 -31.481  1.00  0.00     0.052 C 
HETATM    2  C   UNL     1      -1.769   5.211 -32.639  1.00  0.00    -0.015 A 
HETATM    3  C   UNL     1      -3.240   5.095 -32.335  1.00  0.00     0.144 A 
HETATM    4  N   UNL     1      -3.624   4.976 -31.105  1.00  0.00    -0.217 NA
HETATM    5  N   UNL     1      -4.110   5.131 -33.410  1.00  0.00    -0.272 N 
HETATM    6  C   UNL     1      -5.475   5.104 -33.183  1.00  0.00     0.266 C 
HETATM    7  O   UNL     1      -6.323   5.284 -34.062  1.00  0.00    -0.267 OA
HETATM    8  C   UNL     1      -5.908   4.856 -31.772  1.00  0.00     0.074 C 
HETATM    9  C   UNL     1      -4.954   4.831 -30.816  1.00  0.00     0.121 C 
HETATM   10  C   UNL     1      -3.642   5.230 -34.714  1.00  0.00     0.102 A 
HETATM   11  C   UNL     1      -2.334   5.294 -34.991  1.00  0.00     0.018 A 
HETATM   12  C   UNL     1      -1.376   5.292 -33.919  1.00  0.00     0.012 A 
ENDROOT
BRANCH   8  13
HETATM   13  C   UNL     1      -7.322   4.614 -31.520  1.00  0.00     0.045 C 
BRANCH  13  14
HETATM   14  C   UNL     1      -8.104   3.752 -32.185  1.00  0.00     0.077 A 
HETATM   15  S   UNL     1      -9.625   4.062 -32.909  1.00  0.00    -0.055 SA
HETATM   16  C   UNL     1      -9.829   2.389 -33.404  1.00  0.00     0.148 A 
HETATM   17  S   UNL     1     -11.221   1.867 -34.168  1.00  0.00    -0.052 SA
HETATM   18  N   UNL     1      -8.704   1.647 -33.074  1.00  0.00    -0.298 N 
HETATM   19  C   UNL     1      -7.717   2.327 -32.379  1.00  0.00     0.266 A 
HETATM   20  O   UNL     1      -6.662   1.875 -31.959  1.00  0.00    -0.266 OA
BRANCH  18  21
HETATM   21  C   UNL     1      -8.601   0.223 -33.444  1.00  0.00     0.138 C 
BRANCH  21  22
HETATM   22  C   UNL     1      -7.803  -0.162 -34.696  1.00  0.00     0.059 C 
BRANCH  22  23
HETATM   23  C   UNL     1      -6.743  -1.234 -34.520  1.00  0.00    -0.057 A 
HETATM   24  C   UNL     1      -6.912  -2.573 -34.887  1.00  0.00     0.010 A 
HETATM   25  C   UNL     1      -5.865  -3.490 -34.738  1.00  0.00     0.037 A 
HETATM   26  C   UNL     1      -4.631  -3.093 -34.224  1.00  0.00     0.068 A 
HETATM   27  C   UNL     1      -4.456  -1.767 -33.839  1.00  0.00     0.037 A 
HETATM   28  C   UNL     1      -5.501  -0.847 -33.987  1.00  0.00     0.010 A 
BRANCH  26  29
HETATM   29  O   UNL     1      -3.694  -4.086 -34.150  1.00  0.00    -0.356 OA
HETATM   30  C   UNL     1      -3.264  -4.463 -32.848  1.00  0.00     0.210 C 
ENDBRANCH  26  29
ENDBRANCH  22  23
ENDBRANCH  21  22
ENDBRANCH  18  21
ENDBRANCH  13  14
ENDBRANCH   8  13
BRANCH   9  31
HETATM   31  N   UNL     1      -5.227   4.595 -29.471  1.00  0.00    -0.274 NA
HETATM   32  H   UNL     1      -4.311   4.384 -29.055  1.00  0.00     0.129 HD
BRANCH  31  33
HETATM   33  C   UNL     1      -5.837   5.624 -28.609  1.00  0.00     0.130 C 
BRANCH  33  34
HETATM   34  C   UNL     1      -4.761   6.402 -27.811  1.00  0.00     0.164 C 
BRANCH  34  35
HETATM   35  O   UNL     1      -5.382   7.142 -26.749  1.00  0.00    -0.390 OA
HETATM   36  H   UNL     1      -5.300   6.604 -25.942  1.00  0.00     0.210 HD
ENDBRANCH  34  35
BRANCH  34  37
HETATM   37  C   UNL     1      -3.892   7.317 -28.651  1.00  0.00    -0.029 A 
HETATM   38  C   UNL     1      -2.496   7.274 -28.523  1.00  0.00     0.010 A 
HETATM   39  C   UNL     1      -1.684   8.120 -29.281  1.00  0.00     0.001 A 
HETATM   40  C   UNL     1      -2.257   9.021 -30.175  1.00  0.00     0.000 A 
HETATM   41  C   UNL     1      -3.642   9.076 -30.314  1.00  0.00     0.001 A 
HETATM   42  C   UNL     1      -4.454   8.230 -29.557  1.00  0.00     0.010 A 
ENDBRANCH  34  37
ENDBRANCH  33  34
ENDBRANCH  31  33
ENDBRANCH   9  31
TORSDOF 11
ENDMDL
MODEL 9
REMARK VINA RESULT:      -9.4      3.319      6.742
REMARK  11 active torsions:
REMARK  status: ('A' for Active; 'I' for Inactive)
REMARK    1  A    between atoms: C_8  and  C_9 
REMARK    2  A    between atoms: C_9  and  C_10 
REMARK    3  A    between atoms: N_14  and  C_15 
REMARK    4  A    between atoms: C_15  and  C_16 
REMARK    5  A    between atoms: C_16  and  C_17 
REMARK    6  A    between atoms: C_20  and  O_21 
REMARK    7  A    between atoms: C_27  and  N_28 
REMARK    8  A    between atoms: N_28  and  C_29 
REMARK    9  A    between atoms: C_29  and  C_30 
REMARK   10  A    between atoms: C_30  and  O_31 
REMARK   11  A    between atoms: C_30  and  C_32 
ROOT
HETATM    1  C   UNL     1      -2.277   9.769 -29.024  1.00  0.00     0.052 C 
HETATM    2  C   UNL     1      -1.473   8.525 -29.236  1.00  0.00    -0.015 A 
HETATM    3  C   UNL     1      -1.994   7.517 -30.227  1.00  0.00     0.144 A 
HETATM    4  N   UNL     1      -3.122   7.738 -30.820  1.00  0.00    -0.217 NA
HETATM    5  N   UNL     1      -1.215   6.396 -30.453  1.00  0.00    -0.272 N 
HETATM    6  C   UNL     1      -1.609   5.475 -31.408  1.00  0.00     0.266 C 
HETATM    7  O   UNL     1      -0.907   4.531 -31.785  1.00  0.00    -0.267 OA
HETATM    8  C   UNL     1      -2.964   5.679 -32.009  1.00  0.00     0.074 C 
HETATM    9  C   UNL     1      -3.627   6.814 -31.694  1.00  0.00     0.121 C 
HETATM   10  C   UNL     1      -0.025   6.193 -29.766  1.00  0.00     0.102 A 
HETATM   11  C   UNL     1       0.422   7.067 -28.856  1.00  0.00     0.018 A 
HETATM   12  C   UNL     1      -0.323   8.268 -28.594  1.00  0.00     0.012 A 
ENDROOT
BRANCH   8  13
HETATM   13  C   UNL     1      -3.504   4.628 -32.861  1.00  0.00     0.045 C 
BRANCH  13  14
HETATM   14  C   UNL     1      -4.293   3.621 -32.461  1.00  0.00     0.077 A 
HETATM   15  S   UNL     1      -4.206   2.742 -30.993  1.00  0.00    -0.055 SA
HETATM   16  C   UNL     1      -5.521   1.674 -31.453  1.00  0.00     0.148 A 
HETATM   17  S   UNL     1      -6.003   0.408 -30.472  1.00  0.00    -0.052 SA
HETATM   18  N   UNL     1      -6.047   2.054 -32.679  1.00  0.00    -0.298 N 
HETATM   19  C   UNL     1      -5.406   3.109 -33.307  1.00  0.00     0.266 A 
HETATM   20  O   UNL     1      -5.670   3.591 -34.400  1.00  0.00    -0.266 OA
BRANCH  18  21
HETATM   21  C   UNL     1      -7.209   1.352 -33.256  1.00  0.00     0.138 C 
BRANCH  21  22
HETATM   22  C   UNL     1      -7.035   0.588 -34.574  1.00  0.00     0.059 C 
BRANCH  22  23
HETATM   23  C   UNL     1      -6.413  -0.793 -34.480  1.00  0.00    -0.057 A 
HETATM   24  C   UNL     1      -7.062  -1.974 -34.857  1.00  0.00     0.010 A 
HETATM   25  C   UNL     1      -6.399  -3.204 -34.787  1.00  0.00     0.037 A 
HETATM   26  C   UNL     1      -5.080  -3.284 -34.342  1.00  0.00     0.068 A 
HETATM   27  C   UNL     1      -4.429  -2.119 -33.947  1.00  0.00     0.037 A 
HETATM   28  C   UNL     1      -5.089  -0.887 -34.017  1.00  0.00     0.010 A 
BRANCH  26  29
HETATM   29  O   UNL     1      -4.551  -4.545 -34.340  1.00  0.00    -0.356 OA
HETATM   30  C   UNL     1      -3.469  -4.783 -33.449  1.00  0.00     0.210 C 
ENDBRANCH  26  29
ENDBRANCH  22  23
ENDBRANCH  21  22
ENDBRANCH  18  21
ENDBRANCH  13  14
ENDBRANCH   8  13
BRANCH   9  31
HETATM   31  N   UNL     1      -4.899   7.113 -32.176  1.00  0.00    -0.274 NA
HETATM   32  H   UNL     1      -4.963   6.604 -33.066  1.00  0.00     0.129 HD
BRANCH  31  33
HETATM   33  C   UNL     1      -6.118   6.767 -31.422  1.00  0.00     0.130 C 
BRANCH  33  34
HETATM   34  C   UNL     1      -7.238   6.256 -32.362  1.00  0.00     0.164 C 
BRANCH  34  35
HETATM   35  O   UNL     1      -8.112   7.340 -32.713  1.00  0.00    -0.390 OA
HETATM   36  H   UNL     1      -8.101   7.966 -31.968  1.00  0.00     0.210 HD
ENDBRANCH  34  35
BRANCH  34  37
HETATM   37  C   UNL     1      -8.039   5.091 -31.813  1.00  0.00    -0.029 A 
HETATM   38  C   UNL     1      -9.137   4.593 -32.531  1.00  0.00     0.010 A 
HETATM   39  C   UNL     1      -9.890   3.529 -32.031  1.00  0.00     0.001 A 
HETATM   40  C   UNL     1      -9.558   2.951 -30.808  1.00  0.00     0.000 A 
HETATM   41  C   UNL     1      -8.471   3.434 -30.085  1.00  0.00     0.001 A 
HETATM   42  C   UNL     1      -7.716   4.497 -30.584  1.00  0.00     0.010 A 
ENDBRANCH  34  37
ENDBRANCH  33  34
ENDBRANCH  31  33
ENDBRANCH   9  31
TORSDOF 11
ENDMDL
MODEL 10
REMARK VINA RESULT:      -9.3      2.421      9.724
REMARK  11 active torsions:
REMARK  status: ('A' for Active; 'I' for Inactive)
REMARK    1  A    between atoms: C_8  and  C_9 
REMARK    2  A    between atoms: C_9  and  C_10 
REMARK    3  A    between atoms: N_14  and  C_15 
REMARK    4  A    between atoms: C_15  and  C_16 
REMARK    5  A    between atoms: C_16  and  C_17 
REMARK    6  A    between atoms: C_20  and  O_21 
REMARK    7  A    between atoms: C_27  and  N_28 
REMARK    8  A    between atoms: N_28  and  C_29 
REMARK    9  A    between atoms: C_29  and  C_30 
REMARK   10  A    between atoms: C_30  and  O_31 
REMARK   11  A    between atoms: C_30  and  C_32 
ROOT
HETATM    1  C   UNL     1      -7.859  -0.618 -35.188  1.00  0.00     0.052 C 
HETATM    2  C   UNL     1      -6.553  -0.963 -34.545  1.00  0.00    -0.015 A 
HETATM    3  C   UNL     1      -5.992   0.008 -33.540  1.00  0.00     0.144 A 
HETATM    4  N   UNL     1      -6.626   1.110 -33.303  1.00  0.00    -0.217 NA
HETATM    5  N   UNL     1      -4.810  -0.347 -32.913  1.00  0.00    -0.272 N 
HETATM    6  C   UNL     1      -4.290   0.473 -31.927  1.00  0.00     0.266 C 
HETATM    7  O   UNL     1      -3.332   0.166 -31.211  1.00  0.00    -0.267 OA
HETATM    8  C   UNL     1      -4.967   1.793 -31.736  1.00  0.00     0.074 C 
HETATM    9  C   UNL     1      -6.110   2.020 -32.420  1.00  0.00     0.121 C 
HETATM   10  C   UNL     1      -4.153  -1.530 -33.228  1.00  0.00     0.102 A 
HETATM   11  C   UNL     1      -4.628  -2.376 -34.149  1.00  0.00     0.018 A 
HETATM   12  C   UNL     1      -5.867  -2.084 -34.817  1.00  0.00     0.012 A 
ENDROOT
BRANCH   8  13
HETATM   13  C   UNL     1      -4.334   2.770 -30.859  1.00  0.00     0.045 C 
BRANCH  13  14
HETATM   14  C   UNL     1      -4.150   4.069 -31.133  1.00  0.00     0.077 A 
HETATM   15  S   UNL     1      -4.856   5.416 -30.343  1.00  0.00    -0.055 SA
HETATM   16  C   UNL     1      -4.093   6.564 -31.431  1.00  0.00     0.148 A 
HETATM   17  S   UNL     1      -4.388   8.206 -31.317  1.00  0.00    -0.052 SA
HETATM   18  N   UNL     1      -3.260   5.905 -32.324  1.00  0.00    -0.298 N 
HETATM   19  C   UNL     1      -3.256   4.522 -32.234  1.00  0.00     0.266 A 
HETATM   20  O   UNL     1      -2.631   3.737 -32.932  1.00  0.00    -0.266 OA
BRANCH  18  21
HETATM   21  C   UNL     1      -2.451   6.656 -33.302  1.00  0.00     0.138 C 
BRANCH  21  22
HETATM   22  C   UNL     1      -0.942   6.795 -33.066  1.00  0.00     0.059 C 
BRANCH  22  23
HETATM   23  C   UNL     1      -0.461   6.617 -31.638  1.00  0.00    -0.057 A 
HETATM   24  C   UNL     1      -0.627   7.571 -30.629  1.00  0.00     0.010 A 
HETATM   25  C   UNL     1      -0.199   7.309 -29.323  1.00  0.00     0.037 A 
HETATM   26  C   UNL     1       0.400   6.093 -28.995  1.00  0.00     0.068 A 
HETATM   27  C   UNL     1       0.587   5.142 -29.993  1.00  0.00     0.037 A 
HETATM   28  C   UNL     1       0.159   5.401 -31.300  1.00  0.00     0.010 A 
BRANCH  26  29
HETATM   29  O   UNL     1       0.753   5.963 -27.680  1.00  0.00    -0.356 OA
HETATM   30  C   UNL     1       0.392   7.030 -26.812  1.00  0.00     0.210 C 
ENDBRANCH  26  29
ENDBRANCH  22  23
ENDBRANCH  21  22
ENDBRANCH  18  21
ENDBRANCH  13  14
ENDBRANCH   8  13
BRANCH   9  31
HETATM   31  N   UNL     1      -6.824   3.213 -32.340  1.00  0.00    -0.274 NA
HETATM   32  H   UNL     1      -6.117   3.946 -32.482  1.00  0.00     0.129 HD
BRANCH  31  33
HETATM   33  C   UNL     1      -7.925   3.524 -33.269  1.00  0.00     0.130 C 
BRANCH  33  34
HETATM   34  C   UNL     1      -9.305   3.254 -32.619  1.00  0.00     0.164 C 
BRANCH  34  35
HETATM   35  O   UNL     1      -9.166   2.296 -31.559  1.00  0.00    -0.390 OA
HETATM   36  H   UNL     1      -8.866   2.784 -30.773  1.00  0.00     0.210 HD
ENDBRANCH  34  35
BRANCH  34  37
HETATM   37  C   UNL     1     -10.383   2.811 -33.590  1.00  0.00    -0.029 A 
HETATM   38  C   UNL     1     -10.812   3.676 -34.607  1.00  0.00     0.010 A 
HETATM   39  C   UNL     1     -11.812   3.285 -35.500  1.00  0.00     0.001 A 
HETATM   40  C   UNL     1     -12.397   2.026 -35.386  1.00  0.00     0.000 A 
HETATM   41  C   UNL     1     -11.982   1.156 -34.381  1.00  0.00     0.001 A 
HETATM   42  C   UNL     1     -10.981   1.545 -33.489  1.00  0.00     0.010 A 
ENDBRANCH  34  37
ENDBRANCH  33  34
ENDBRANCH  31  33
ENDBRANCH   9  31
TORSDOF 11
ENDMDL
