MODEL 1
REMARK VINA RESULT:      -8.1      0.000      0.000
REMARK  3 active torsions:
REMARK  status: ('A' for Active; 'I' for Inactive)
REMARK    1  A    between atoms: C_4  and  N_5 
REMARK       I    between atoms: N_5  and  C_6 
REMARK    2  A    between atoms: C_6  and  C_7 
REMARK    3  A    between atoms: C_7  and  C_8 
ROOT
HETATM    1  C   UNL     1      -5.263   1.765 -31.573  1.00  0.00     0.286 C 
HETATM    2  N   UNL     1      -5.136   2.096 -33.060  1.00  0.00    -0.056 N 
HETATM    3  H   UNL     1      -4.864   3.085 -33.120  1.00  0.00     0.278 HD
HETATM    4  H   UNL     1      -4.302   1.592 -33.427  1.00  0.00     0.278 HD
HETATM    5  C   UNL     1      -6.338   1.888 -33.934  1.00  0.00     0.209 C 
HETATM    6  C   UNL     1      -7.578   2.519 -33.259  1.00  0.00     0.115 C 
HETATM    7  N   UNL     1      -7.715   2.131 -31.859  1.00  0.00    -0.353 N 
HETATM    8  C   UNL     1      -6.655   2.059 -30.991  1.00  0.00     0.249 C 
HETATM    9  O   UNL     1      -6.848   2.131 -29.781  1.00  0.00    -0.271 OA
HETATM   10  C   UNL     1      -6.511   0.410 -34.281  1.00  0.00     0.035 C 
HETATM   11  C   UNL     1      -7.780   0.183 -35.097  1.00  0.00     0.002 C 
HETATM   12  C   UNL     1      -9.008   0.723 -34.368  1.00  0.00     0.002 C 
HETATM   13  C   UNL     1      -8.858   2.209 -34.045  1.00  0.00     0.027 C 
HETATM   14  H   UNL     1      -8.583   2.370 -31.381  1.00  0.00     0.163 HD
ENDROOT
BRANCH   1  15
HETATM   15  C   UNL     1      -4.898   0.313 -31.226  1.00  0.00     0.146 C 
BRANCH  15  16
HETATM   16  C   UNL     1      -3.418   0.060 -31.224  1.00  0.00     0.224 C 
HETATM   17  N   UNL     1      -2.868  -1.061 -31.755  1.00  0.00    -0.327 N 
HETATM   18  H   UNL     1      -1.863  -1.089 -31.601  1.00  0.00     0.169 HD
HETATM   19  O   UNL     1      -2.666   0.923 -30.747  1.00  0.00    -0.273 OA
BRANCH  17  20
HETATM   20  C   UNL     1      -3.377  -2.166 -32.471  1.00  0.00     0.035 A 
HETATM   21  C   UNL     1      -4.236  -2.107 -33.571  1.00  0.00     0.036 A 
HETATM   22  C   UNL     1      -4.666  -3.279 -34.221  1.00  0.00    -0.060 A 
HETATM   23  C   UNL     1      -5.571  -3.211 -35.417  1.00  0.00     0.048 C 
HETATM   24  C   UNL     1      -4.220  -4.521 -33.765  1.00  0.00     0.007 A 
HETATM   25  C   UNL     1      -3.361  -4.595 -32.674  1.00  0.00     0.003 A 
HETATM   26  C   UNL     1      -2.941  -3.426 -32.037  1.00  0.00     0.029 A 
ENDBRANCH  17  20
ENDBRANCH  15  16
ENDBRANCH   1  15
TORSDOF 3
ENDMDL
MODEL 2
REMARK VINA RESULT:      -8.0      3.730      5.193
REMARK  3 active torsions:
REMARK  status: ('A' for Active; 'I' for Inactive)
REMARK    1  A    between atoms: C_4  and  N_5 
REMARK       I    between atoms: N_5  and  C_6 
REMARK    2  A    between atoms: C_6  and  C_7 
REMARK    3  A    between atoms: C_7  and  C_8 
ROOT
HETATM    1  C   UNL     1      -4.470   3.873 -32.380  1.00  0.00     0.286 C 
HETATM    2  N   UNL     1      -3.852   4.468 -31.115  1.00  0.00    -0.056 N 
HETATM    3  H   UNL     1      -4.628   4.848 -30.558  1.00  0.00     0.278 HD
HETATM    4  H   UNL     1      -3.500   3.679 -30.533  1.00  0.00     0.278 HD
HETATM    5  C   UNL     1      -2.818   5.544 -31.272  1.00  0.00     0.209 C 
HETATM    6  C   UNL     1      -3.333   6.606 -32.272  1.00  0.00     0.115 C 
HETATM    7  N   UNL     1      -3.853   6.015 -33.502  1.00  0.00    -0.353 N 
HETATM    8  C   UNL     1      -4.634   4.888 -33.523  1.00  0.00     0.249 C 
HETATM    9  O   UNL     1      -5.362   4.666 -34.486  1.00  0.00    -0.271 OA
HETATM   10  C   UNL     1      -1.463   4.948 -31.650  1.00  0.00     0.035 C 
HETATM   11  C   UNL     1      -0.430   6.044 -31.896  1.00  0.00     0.002 C 
HETATM   12  C   UNL     1      -0.914   7.026 -32.960  1.00  0.00     0.002 C 
HETATM   13  C   UNL     1      -2.254   7.653 -32.577  1.00  0.00     0.027 C 
HETATM   14  H   UNL     1      -4.065   6.641 -34.278  1.00  0.00     0.163 HD
ENDROOT
BRANCH   1  15
HETATM   15  C   UNL     1      -3.710   2.655 -32.930  1.00  0.00     0.146 C 
BRANCH  15  16
HETATM   16  C   UNL     1      -3.488   1.584 -31.900  1.00  0.00     0.224 C 
HETATM   17  N   UNL     1      -4.067   0.359 -31.984  1.00  0.00    -0.327 N 
HETATM   18  H   UNL     1      -3.856  -0.206 -31.165  1.00  0.00     0.169 HD
HETATM   19  O   UNL     1      -2.721   1.816 -30.955  1.00  0.00    -0.273 OA
BRANCH  17  20
HETATM   20  C   UNL     1      -4.871  -0.288 -32.946  1.00  0.00     0.035 A 
HETATM   21  C   UNL     1      -6.003   0.246 -33.565  1.00  0.00     0.036 A 
HETATM   22  C   UNL     1      -6.719  -0.487 -34.529  1.00  0.00    -0.060 A 
HETATM   23  C   UNL     1      -7.922   0.100 -35.210  1.00  0.00     0.048 C 
HETATM   24  C   UNL     1      -6.285  -1.767 -34.881  1.00  0.00     0.007 A 
HETATM   25  C   UNL     1      -5.157  -2.310 -34.278  1.00  0.00     0.003 A 
HETATM   26  C   UNL     1      -4.455  -1.574 -33.322  1.00  0.00     0.029 A 
ENDBRANCH  17  20
ENDBRANCH  15  16
ENDBRANCH   1  15
TORSDOF 3
ENDMDL
MODEL 3
REMARK VINA RESULT:      -7.8     13.880     15.817
REMARK  3 active torsions:
REMARK  status: ('A' for Active; 'I' for Inactive)
REMARK    1  A    between atoms: C_4  and  N_5 
REMARK       I    between atoms: N_5  and  C_6 
REMARK    2  A    between atoms: C_6  and  C_7 
REMARK    3  A    between atoms: C_7  and  C_8 
ROOT
HETATM    1  C   UNL     1      -5.464 -13.169 -38.835  1.00  0.00     0.286 C 
HETATM    2  N   UNL     1      -4.964 -12.571 -37.520  1.00  0.00    -0.056 N 
HETATM    3  H   UNL     1      -5.177 -11.566 -37.552  1.00  0.00     0.278 HD
HETATM    4  H   UNL     1      -5.579 -12.924 -36.756  1.00  0.00     0.278 HD
HETATM    5  C   UNL     1      -3.512 -12.732 -37.179  1.00  0.00     0.209 C 
HETATM    6  C   UNL     1      -2.652 -12.346 -38.404  1.00  0.00     0.115 C 
HETATM    7  N   UNL     1      -3.108 -12.986 -39.635  1.00  0.00    -0.353 N 
HETATM    8  C   UNL     1      -4.432 -13.111 -39.972  1.00  0.00     0.249 C 
HETATM    9  O   UNL     1      -4.753 -13.272 -41.145  1.00  0.00    -0.271 OA
HETATM   10  C   UNL     1      -3.229 -14.135 -36.645  1.00  0.00     0.035 C 
HETATM   11  C   UNL     1      -1.738 -14.331 -36.379  1.00  0.00     0.002 C 
HETATM   12  C   UNL     1      -0.914 -14.042 -37.630  1.00  0.00     0.002 C 
HETATM   13  C   UNL     1      -1.166 -12.629 -38.154  1.00  0.00     0.027 C 
HETATM   14  H   UNL     1      -2.510 -12.915 -40.458  1.00  0.00     0.163 HD
ENDROOT
BRANCH   1  15
HETATM   15  C   UNL     1      -5.956 -14.620 -38.711  1.00  0.00     0.146 C 
BRANCH  15  16
HETATM   16  C   UNL     1      -6.868 -14.837 -37.537  1.00  0.00     0.224 C 
HETATM   17  N   UNL     1      -8.208 -14.631 -37.605  1.00  0.00    -0.327 N 
HETATM   18  H   UNL     1      -8.648 -14.762 -36.697  1.00  0.00     0.169 HD
HETATM   19  O   UNL     1      -6.382 -15.249 -36.473  1.00  0.00    -0.273 OA
BRANCH  17  20
HETATM   20  C   UNL     1      -9.102 -14.295 -38.642  1.00  0.00     0.035 A 
HETATM   21  C   UNL     1      -9.514 -13.005 -38.987  1.00  0.00     0.036 A 
HETATM   22  C   UNL     1     -10.399 -12.786 -40.058  1.00  0.00    -0.060 A 
HETATM   23  C   UNL     1     -10.822 -11.396 -40.439  1.00  0.00     0.048 C 
HETATM   24  C   UNL     1     -10.867 -13.875 -40.797  1.00  0.00     0.007 A 
HETATM   25  C   UNL     1     -10.462 -15.164 -40.470  1.00  0.00     0.003 A 
HETATM   26  C   UNL     1      -9.584 -15.369 -39.404  1.00  0.00     0.029 A 
ENDBRANCH  17  20
ENDBRANCH  15  16
ENDBRANCH   1  15
TORSDOF 3
ENDMDL
MODEL 4
REMARK VINA RESULT:      -7.7      2.830      4.214
REMARK  3 active torsions:
REMARK  status: ('A' for Active; 'I' for Inactive)
REMARK    1  A    between atoms: C_4  and  N_5 
REMARK       I    between atoms: N_5  and  C_6 
REMARK    2  A    between atoms: C_6  and  C_7 
REMARK    3  A    between atoms: C_7  and  C_8 
ROOT
HETATM    1  C   UNL     1      -9.474   0.852 -32.780  1.00  0.00     0.286 C 
HETATM    2  N   UNL     1      -9.662   2.362 -32.630  1.00  0.00    -0.056 N 
HETATM    3  H   UNL     1      -9.765   2.549 -31.625  1.00  0.00     0.278 HD
HETATM    4  H   UNL     1      -8.758   2.820 -32.871  1.00  0.00     0.278 HD
HETATM    5  C   UNL     1     -10.814   3.003 -33.346  1.00  0.00     0.209 C 
HETATM    6  C   UNL     1     -12.100   2.187 -33.082  1.00  0.00     0.115 C 
HETATM    7  N   UNL     1     -11.912   0.756 -33.300  1.00  0.00    -0.353 N 
HETATM    8  C   UNL     1     -10.794   0.073 -32.893  1.00  0.00     0.249 C 
HETATM    9  O   UNL     1     -10.844  -1.142 -32.728  1.00  0.00    -0.271 OA
HETATM   10  C   UNL     1     -10.499   3.193 -34.829  1.00  0.00     0.035 C 
HETATM   11  C   UNL     1     -11.700   3.765 -35.577  1.00  0.00     0.002 C 
HETATM   12  C   UNL     1     -12.935   2.889 -35.386  1.00  0.00     0.002 C 
HETATM   13  C   UNL     1     -13.278   2.719 -33.907  1.00  0.00     0.027 C 
HETATM   14  H   UNL     1     -12.741   0.161 -33.303  1.00  0.00     0.163 HD
ENDROOT
BRANCH   1  15
HETATM   15  C   UNL     1      -8.580   0.451 -33.964  1.00  0.00     0.146 C 
BRANCH  15  16
HETATM   16  C   UNL     1      -7.246   1.142 -33.958  1.00  0.00     0.224 C 
HETATM   17  N   UNL     1      -6.072   0.461 -33.974  1.00  0.00    -0.327 N 
HETATM   18  H   UNL     1      -5.278   1.093 -33.897  1.00  0.00     0.169 HD
HETATM   19  O   UNL     1      -7.216   2.381 -33.970  1.00  0.00    -0.273 OA
BRANCH  17  20
HETATM   20  C   UNL     1      -5.723  -0.901 -34.085  1.00  0.00     0.035 A 
HETATM   21  C   UNL     1      -6.506  -1.906 -34.656  1.00  0.00     0.036 A 
HETATM   22  C   UNL     1      -6.046  -3.234 -34.730  1.00  0.00    -0.060 A 
HETATM   23  C   UNL     1      -6.882  -4.308 -35.365  1.00  0.00     0.048 C 
HETATM   24  C   UNL     1      -4.780  -3.551 -34.232  1.00  0.00     0.007 A 
HETATM   25  C   UNL     1      -3.986  -2.560 -33.666  1.00  0.00     0.003 A 
HETATM   26  C   UNL     1      -4.454  -1.247 -33.598  1.00  0.00     0.029 A 
ENDBRANCH  17  20
ENDBRANCH  15  16
ENDBRANCH   1  15
TORSDOF 3
ENDMDL
MODEL 5
REMARK VINA RESULT:      -7.6      2.682      4.579
REMARK  3 active torsions:
REMARK  status: ('A' for Active; 'I' for Inactive)
REMARK    1  A    between atoms: C_4  and  N_5 
REMARK       I    between atoms: N_5  and  C_6 
REMARK    2  A    between atoms: C_6  and  C_7 
REMARK    3  A    between atoms: C_7  and  C_8 
ROOT
HETATM    1  C   UNL     1      -7.642   3.413 -32.755  1.00  0.00     0.286 C 
HETATM    2  N   UNL     1      -6.748   3.236 -31.528  1.00  0.00    -0.056 N 
HETATM    3  H   UNL     1      -7.185   3.767 -30.764  1.00  0.00     0.278 HD
HETATM    4  H   UNL     1      -6.833   2.246 -31.213  1.00  0.00     0.278 HD
HETATM    5  C   UNL     1      -5.313   3.662 -31.633  1.00  0.00     0.209 C 
HETATM    6  C   UNL     1      -5.243   5.076 -32.255  1.00  0.00     0.115 C 
HETATM    7  N   UNL     1      -6.050   5.198 -33.465  1.00  0.00    -0.353 N 
HETATM    8  C   UNL     1      -7.305   4.658 -33.591  1.00  0.00     0.249 C 
HETATM    9  O   UNL     1      -8.085   5.108 -34.424  1.00  0.00    -0.271 OA
HETATM   10  C   UNL     1      -4.487   2.618 -32.381  1.00  0.00     0.035 C 
HETATM   11  C   UNL     1      -3.046   3.087 -32.566  1.00  0.00     0.002 C 
HETATM   12  C   UNL     1      -2.995   4.439 -33.274  1.00  0.00     0.002 C 
HETATM   13  C   UNL     1      -3.792   5.499 -32.515  1.00  0.00     0.027 C 
HETATM   14  H   UNL     1      -5.940   6.042 -34.027  1.00  0.00     0.163 HD
ENDROOT
BRANCH   1  15
HETATM   15  C   UNL     1      -7.656   2.197 -33.695  1.00  0.00     0.146 C 
BRANCH  15  16
HETATM   16  C   UNL     1      -8.556   1.093 -33.220  1.00  0.00     0.224 C 
HETATM   17  N   UNL     1      -8.157  -0.204 -33.169  1.00  0.00    -0.327 N 
HETATM   18  H   UNL     1      -8.920  -0.815 -32.888  1.00  0.00     0.169 HD
HETATM   19  O   UNL     1      -9.697   1.380 -32.829  1.00  0.00    -0.273 OA
BRANCH  17  20
HETATM   20  C   UNL     1      -6.935  -0.870 -33.404  1.00  0.00     0.035 A 
HETATM   21  C   UNL     1      -5.780  -0.767 -32.626  1.00  0.00     0.036 A 
HETATM   22  C   UNL     1      -4.620  -1.496 -32.946  1.00  0.00    -0.060 A 
HETATM   23  C   UNL     1      -3.388  -1.400 -32.094  1.00  0.00     0.048 C 
HETATM   24  C   UNL     1      -4.627  -2.345 -34.055  1.00  0.00     0.007 A 
HETATM   25  C   UNL     1      -5.771  -2.462 -34.836  1.00  0.00     0.003 A 
HETATM   26  C   UNL     1      -6.915  -1.733 -34.509  1.00  0.00     0.029 A 
ENDBRANCH  17  20
ENDBRANCH  15  16
ENDBRANCH   1  15
TORSDOF 3
ENDMDL
MODEL 6
REMARK VINA RESULT:      -7.5      3.193      5.119
REMARK  3 active torsions:
REMARK  status: ('A' for Active; 'I' for Inactive)
REMARK    1  A    between atoms: C_4  and  N_5 
REMARK       I    between atoms: N_5  and  C_6 
REMARK    2  A    between atoms: C_6  and  C_7 
REMARK    3  A    between atoms: C_7  and  C_8 
ROOT
HETATM    1  C   UNL     1      -5.767   4.269 -31.967  1.00  0.00     0.286 C 
HETATM    2  N   UNL     1      -4.870   5.318 -31.310  1.00  0.00    -0.056 N 
HETATM    3  H   UNL     1      -5.437   6.169 -31.208  1.00  0.00     0.278 HD
HETATM    4  H   UNL     1      -4.701   5.020 -30.326  1.00  0.00     0.278 HD
HETATM    5  C   UNL     1      -3.592   5.687 -32.004  1.00  0.00     0.209 C 
HETATM    6  C   UNL     1      -3.881   5.962 -33.498  1.00  0.00     0.115 C 
HETATM    7  N   UNL     1      -4.681   4.911 -34.119  1.00  0.00    -0.353 N 
HETATM    8  C   UNL     1      -5.753   4.317 -33.503  1.00  0.00     0.249 C 
HETATM    9  O   UNL     1      -6.614   3.759 -34.175  1.00  0.00    -0.271 OA
HETATM   10  C   UNL     1      -2.518   4.626 -31.770  1.00  0.00     0.035 C 
HETATM   11  C   UNL     1      -1.244   4.954 -32.544  1.00  0.00     0.002 C 
HETATM   12  C   UNL     1      -1.534   5.123 -34.034  1.00  0.00     0.002 C 
HETATM   13  C   UNL     1      -2.585   6.205 -34.281  1.00  0.00     0.027 C 
HETATM   14  H   UNL     1      -4.785   4.928 -35.133  1.00  0.00     0.163 HD
ENDROOT
BRANCH   1  15
HETATM   15  C   UNL     1      -5.459   2.827 -31.532  1.00  0.00     0.146 C 
BRANCH  15  16
HETATM   16  C   UNL     1      -6.639   2.130 -30.917  1.00  0.00     0.224 C 
HETATM   17  N   UNL     1      -7.249   1.070 -31.506  1.00  0.00    -0.327 N 
HETATM   18  H   UNL     1      -8.068   0.775 -30.979  1.00  0.00     0.169 HD
HETATM   19  O   UNL     1      -7.051   2.517 -29.815  1.00  0.00    -0.273 OA
BRANCH  17  20
HETATM   20  C   UNL     1      -6.991   0.299 -32.659  1.00  0.00     0.035 A 
HETATM   21  C   UNL     1      -6.006  -0.683 -32.788  1.00  0.00     0.036 A 
HETATM   22  C   UNL     1      -5.852  -1.406 -33.985  1.00  0.00    -0.060 A 
HETATM   23  C   UNL     1      -4.807  -2.477 -34.112  1.00  0.00     0.048 C 
HETATM   24  C   UNL     1      -6.704  -1.145 -35.060  1.00  0.00     0.007 A 
HETATM   25  C   UNL     1      -7.693  -0.175 -34.946  1.00  0.00     0.003 A 
HETATM   26  C   UNL     1      -7.836   0.537 -33.753  1.00  0.00     0.029 A 
ENDBRANCH  17  20
ENDBRANCH  15  16
ENDBRANCH   1  15
TORSDOF 3
ENDMDL
MODEL 7
REMARK VINA RESULT:      -7.5      3.464      6.139
REMARK  3 active torsions:
REMARK  status: ('A' for Active; 'I' for Inactive)
REMARK    1  A    between atoms: C_4  and  N_5 
REMARK       I    between atoms: N_5  and  C_6 
REMARK    2  A    between atoms: C_6  and  C_7 
REMARK    3  A    between atoms: C_7  and  C_8 
ROOT
HETATM    1  C   UNL     1      -4.498   0.326 -31.225  1.00  0.00     0.286 C 
HETATM    2  N   UNL     1      -6.024   0.357 -31.148  1.00  0.00    -0.056 N 
HETATM    3  H   UNL     1      -6.298  -0.334 -30.437  1.00  0.00     0.278 HD
HETATM    4  H   UNL     1      -6.302   1.266 -30.722  1.00  0.00     0.278 HD
HETATM    5  C   UNL     1      -6.800   0.073 -32.400  1.00  0.00     0.209 C 
HETATM    6  C   UNL     1      -6.237  -1.200 -33.074  1.00  0.00     0.115 C 
HETATM    7  N   UNL     1      -4.783  -1.173 -33.199  1.00  0.00    -0.353 N 
HETATM    8  C   UNL     1      -3.950  -0.722 -32.207  1.00  0.00     0.249 C 
HETATM    9  O   UNL     1      -2.777  -1.081 -32.181  1.00  0.00    -0.271 OA
HETATM   10  C   UNL     1      -6.825   1.295 -33.316  1.00  0.00     0.035 C 
HETATM   11  C   UNL     1      -7.538   0.983 -34.629  1.00  0.00     0.002 C 
HETATM   12  C   UNL     1      -6.903  -0.215 -35.329  1.00  0.00     0.002 C 
HETATM   13  C   UNL     1      -6.902  -1.452 -34.432  1.00  0.00     0.027 C 
HETATM   14  H   UNL     1      -4.340  -1.893 -33.770  1.00  0.00     0.163 HD
ENDROOT
BRANCH   1  15
HETATM   15  C   UNL     1      -3.865   1.683 -31.574  1.00  0.00     0.146 C 
BRANCH  15  16
HETATM   16  C   UNL     1      -4.408   2.817 -30.752  1.00  0.00     0.224 C 
HETATM   17  N   UNL     1      -3.888   4.069 -30.802  1.00  0.00    -0.327 N 
HETATM   18  H   UNL     1      -4.339   4.684 -30.129  1.00  0.00     0.169 HD
HETATM   19  O   UNL     1      -5.389   2.609 -30.024  1.00  0.00    -0.273 OA
BRANCH  17  20
HETATM   20  C   UNL     1      -2.887   4.691 -31.578  1.00  0.00     0.035 A 
HETATM   21  C   UNL     1      -1.767   5.366 -31.087  1.00  0.00     0.036 A 
HETATM   22  C   UNL     1      -0.820   5.933 -31.959  1.00  0.00    -0.060 A 
HETATM   23  C   UNL     1       0.395   6.638 -31.427  1.00  0.00     0.048 C 
HETATM   24  C   UNL     1      -0.996   5.812 -33.339  1.00  0.00     0.007 A 
HETATM   25  C   UNL     1      -2.103   5.139 -33.843  1.00  0.00     0.003 A 
HETATM   26  C   UNL     1      -3.036   4.580 -32.968  1.00  0.00     0.029 A 
ENDBRANCH  17  20
ENDBRANCH  15  16
ENDBRANCH   1  15
TORSDOF 3
ENDMDL
MODEL 8
REMARK VINA RESULT:      -7.3      1.514      1.959
REMARK  3 active torsions:
REMARK  status: ('A' for Active; 'I' for Inactive)
REMARK    1  A    between atoms: C_4  and  N_5 
REMARK       I    between atoms: N_5  and  C_6 
REMARK    2  A    between atoms: C_6  and  C_7 
REMARK    3  A    between atoms: C_7  and  C_8 
ROOT
HETATM    1  C   UNL     1      -6.499   3.334 -31.516  1.00  0.00     0.286 C 
HETATM    2  N   UNL     1      -6.793   3.531 -33.003  1.00  0.00    -0.056 N 
HETATM    3  H   UNL     1      -6.997   4.529 -33.135  1.00  0.00     0.278 HD
HETATM    4  H   UNL     1      -5.902   3.394 -33.525  1.00  0.00     0.278 HD
HETATM    5  C   UNL     1      -7.916   2.741 -33.610  1.00  0.00     0.209 C 
HETATM    6  C   UNL     1      -9.167   2.852 -32.708  1.00  0.00     0.115 C 
HETATM    7  N   UNL     1      -8.871   2.591 -31.302  1.00  0.00    -0.353 N 
HETATM    8  C   UNL     1      -7.752   3.068 -30.667  1.00  0.00     0.249 C 
HETATM    9  O   UNL     1      -7.740   3.175 -29.445  1.00  0.00    -0.271 OA
HETATM   10  C   UNL     1      -7.483   1.302 -33.889  1.00  0.00     0.035 C 
HETATM   11  C   UNL     1      -8.646   0.473 -34.426  1.00  0.00     0.002 C 
HETATM   12  C   UNL     1      -9.837   0.513 -33.471  1.00  0.00     0.002 C 
HETATM   13  C   UNL     1     -10.298   1.946 -33.210  1.00  0.00     0.027 C 
HETATM   14  H   UNL     1      -9.657   2.486 -30.662  1.00  0.00     0.163 HD
ENDROOT
BRANCH   1  15
HETATM   15  C   UNL     1      -5.480   2.220 -31.226  1.00  0.00     0.146 C 
BRANCH  15  16
HETATM   16  C   UNL     1      -4.155   2.441 -31.898  1.00  0.00     0.224 C 
HETATM   17  N   UNL     1      -3.429   1.426 -32.432  1.00  0.00    -0.327 N 
HETATM   18  H   UNL     1      -2.533   1.756 -32.781  1.00  0.00     0.169 HD
HETATM   19  O   UNL     1      -3.723   3.598 -31.997  1.00  0.00    -0.273 OA
BRANCH  17  20
HETATM   20  C   UNL     1      -3.651   0.044 -32.614  1.00  0.00     0.035 A 
HETATM   21  C   UNL     1      -4.521  -0.534 -33.540  1.00  0.00     0.036 A 
HETATM   22  C   UNL     1      -4.647  -1.931 -33.647  1.00  0.00    -0.060 A 
HETATM   23  C   UNL     1      -5.568  -2.549 -34.660  1.00  0.00     0.048 C 
HETATM   24  C   UNL     1      -3.882  -2.755 -32.819  1.00  0.00     0.007 A 
HETATM   25  C   UNL     1      -3.007  -2.195 -31.896  1.00  0.00     0.003 A 
HETATM   26  C   UNL     1      -2.891  -0.807 -31.799  1.00  0.00     0.029 A 
ENDBRANCH  17  20
ENDBRANCH  15  16
ENDBRANCH   1  15
TORSDOF 3
ENDMDL
MODEL 9
REMARK VINA RESULT:      -7.3      3.489      5.705
REMARK  3 active torsions:
REMARK  status: ('A' for Active; 'I' for Inactive)
REMARK    1  A    between atoms: C_4  and  N_5 
REMARK       I    between atoms: N_5  and  C_6 
REMARK    2  A    between atoms: C_6  and  C_7 
REMARK    3  A    between atoms: C_7  and  C_8 
ROOT
HETATM    1  C   UNL     1      -4.565   3.857 -31.610  1.00  0.00     0.286 C 
HETATM    2  N   UNL     1      -3.357   3.185 -32.262  1.00  0.00    -0.056 N 
HETATM    3  H   UNL     1      -2.948   2.562 -31.555  1.00  0.00     0.278 HD
HETATM    4  H   UNL     1      -3.712   2.528 -32.988  1.00  0.00     0.278 HD
HETATM    5  C   UNL     1      -2.265   4.064 -32.798  1.00  0.00     0.209 C 
HETATM    6  C   UNL     1      -1.890   5.122 -31.735  1.00  0.00     0.115 C 
HETATM    7  N   UNL     1      -3.058   5.798 -31.179  1.00  0.00    -0.353 N 
HETATM    8  C   UNL     1      -4.219   5.146 -30.849  1.00  0.00     0.249 C 
HETATM    9  O   UNL     1      -4.994   5.647 -30.039  1.00  0.00    -0.271 OA
HETATM   10  C   UNL     1      -2.658   4.660 -34.149  1.00  0.00     0.035 C 
HETATM   11  C   UNL     1      -1.587   5.622 -34.656  1.00  0.00     0.002 C 
HETATM   12  C   UNL     1      -1.304   6.719 -33.633  1.00  0.00     0.002 C 
HETATM   13  C   UNL     1      -0.879   6.133 -32.287  1.00  0.00     0.027 C 
HETATM   14  H   UNL     1      -2.900   6.616 -30.591  1.00  0.00     0.163 HD
ENDROOT
BRANCH   1  15
HETATM   15  C   UNL     1      -5.705   4.174 -32.592  1.00  0.00     0.146 C 
BRANCH  15  16
HETATM   16  C   UNL     1      -7.052   3.732 -32.096  1.00  0.00     0.224 C 
HETATM   17  N   UNL     1      -7.617   2.556 -32.469  1.00  0.00    -0.327 N 
HETATM   18  H   UNL     1      -8.556   2.460 -32.089  1.00  0.00     0.169 HD
HETATM   19  O   UNL     1      -7.657   4.454 -31.291  1.00  0.00    -0.273 OA
BRANCH  17  20
HETATM   20  C   UNL     1      -7.188   1.457 -33.244  1.00  0.00     0.035 A 
HETATM   21  C   UNL     1      -6.155   0.575 -32.917  1.00  0.00     0.036 A 
HETATM   22  C   UNL     1      -5.826  -0.502 -33.760  1.00  0.00    -0.060 A 
HETATM   23  C   UNL     1      -4.730  -1.461 -33.394  1.00  0.00     0.048 C 
HETATM   24  C   UNL     1      -6.550  -0.700 -34.938  1.00  0.00     0.007 A 
HETATM   25  C   UNL     1      -7.584   0.166 -35.273  1.00  0.00     0.003 A 
HETATM   26  C   UNL     1      -7.901   1.232 -34.430  1.00  0.00     0.029 A 
ENDBRANCH  17  20
ENDBRANCH  15  16
ENDBRANCH   1  15
TORSDOF 3
ENDMDL
MODEL 10
REMARK VINA RESULT:      -7.3     13.661     16.426
REMARK  3 active torsions:
REMARK  status: ('A' for Active; 'I' for Inactive)
REMARK    1  A    between atoms: C_4  and  N_5 
REMARK       I    between atoms: N_5  and  C_6 
REMARK    2  A    between atoms: C_6  and  C_7 
REMARK    3  A    between atoms: C_7  and  C_8 
ROOT
HETATM    1  C   UNL     1      -3.413 -14.314 -39.291  1.00  0.00     0.286 C 
HETATM    2  N   UNL     1      -4.243 -15.510 -39.755  1.00  0.00    -0.056 N 
HETATM    3  H   UNL     1      -3.863 -16.337 -39.279  1.00  0.00     0.278 HD
HETATM    4  H   UNL     1      -5.197 -15.412 -39.347  1.00  0.00     0.278 HD
HETATM    5  C   UNL     1      -4.299 -15.801 -41.226  1.00  0.00     0.209 C 
HETATM    6  C   UNL     1      -2.867 -15.774 -41.808  1.00  0.00     0.115 C 
HETATM    7  N   UNL     1      -2.119 -14.587 -41.406  1.00  0.00    -0.353 N 
HETATM    8  C   UNL     1      -2.152 -14.071 -40.136  1.00  0.00     0.249 C 
HETATM    9  O   UNL     1      -1.237 -13.355 -39.741  1.00  0.00    -0.271 OA
HETATM   10  C   UNL     1      -5.269 -14.856 -41.934  1.00  0.00     0.035 C 
HETATM   11  C   UNL     1      -5.264 -15.092 -43.441  1.00  0.00     0.002 C 
HETATM   12  C   UNL     1      -3.854 -14.961 -44.013  1.00  0.00     0.002 C 
HETATM   13  C   UNL     1      -2.883 -15.925 -43.334  1.00  0.00     0.027 C 
HETATM   14  H   UNL     1      -1.227 -14.407 -41.867  1.00  0.00     0.163 HD
ENDROOT
BRANCH   1  15
HETATM   15  C   UNL     1      -4.202 -12.997 -39.223  1.00  0.00     0.146 C 
BRANCH  15  16
HETATM   16  C   UNL     1      -4.612 -12.624 -37.826  1.00  0.00     0.224 C 
HETATM   17  N   UNL     1      -5.900 -12.683 -37.404  1.00  0.00    -0.327 N 
HETATM   18  H   UNL     1      -5.994 -12.329 -36.454  1.00  0.00     0.169 HD
HETATM   19  O   UNL     1      -3.736 -12.281 -37.020  1.00  0.00    -0.273 OA
BRANCH  17  20
HETATM   20  C   UNL     1      -7.108 -13.129 -37.980  1.00  0.00     0.035 A 
HETATM   21  C   UNL     1      -7.983 -12.363 -38.752  1.00  0.00     0.036 A 
HETATM   22  C   UNL     1      -9.155 -12.922 -39.295  1.00  0.00    -0.060 A 
HETATM   23  C   UNL     1     -10.082 -12.100 -40.144  1.00  0.00     0.048 C 
HETATM   24  C   UNL     1      -9.444 -14.269 -39.065  1.00  0.00     0.007 A 
HETATM   25  C   UNL     1      -8.580 -15.046 -38.303  1.00  0.00     0.003 A 
HETATM   26  C   UNL     1      -7.421 -14.480 -37.769  1.00  0.00     0.029 A 
ENDBRANCH  17  20
ENDBRANCH  15  16
ENDBRANCH   1  15
TORSDOF 3
ENDMDL
