MODEL 1
REMARK VINA RESULT:      -8.1      0.000      0.000
REMARK  8 active torsions:
REMARK  status: ('A' for Active; 'I' for Inactive)
REMARK    1  A    between atoms: O_2  and  C_3 
REMARK    2  A    between atoms: C_6  and  N_7 
REMARK    3  A    between atoms: N_7  and  C_8 
REMARK    4  A    between atoms: C_8  and  C_9 
REMARK    5  A    between atoms: C_9  and  C_10 
REMARK    6  A    between atoms: C_10  and  C_11 
REMARK       I    between atoms: C_11  and  N_12 
REMARK    7  A    between atoms: N_12  and  N_13 
REMARK    8  A    between atoms: C_14  and  C_15 
ROOT
HETATM    1  C   UNL     1      -5.039   3.337 -32.313  1.00  0.00     0.237 C 
HETATM    2  N   UNL     1      -5.518   2.144 -32.839  1.00  0.00    -0.247 N 
HETATM    3  O   UNL     1      -4.056   3.442 -31.585  1.00  0.00    -0.272 OA
HETATM    4  H   UNL     1      -6.331   2.125 -33.443  1.00  0.00     0.192 HD
ENDROOT
BRANCH   1   5
HETATM    5  C   UNL     1      -5.876   4.531 -32.737  1.00  0.00     0.106 C 
BRANCH   5   6
HETATM    6  C   UNL     1      -5.040   5.543 -33.519  1.00  0.00     0.029 C 
BRANCH   6   7
HETATM    7  C   UNL     1      -4.410   4.933 -34.770  1.00  0.00     0.120 C 
BRANCH   7   8
HETATM    8  N   UNL     1      -3.186   5.660 -35.081  1.00  0.00    -0.390 N 
HETATM    9  H   UNL     1      -3.336   6.444 -35.714  1.00  0.00     0.159 HD
BRANCH   8  10
HETATM   10  C   UNL     1      -2.269   5.975 -34.078  1.00  0.00     0.028 A 
HETATM   11  C   UNL     1      -1.996   7.279 -33.655  1.00  0.00     0.032 A 
HETATM   12  C   UNL     1      -1.128   7.533 -32.581  1.00  0.00     0.039 A 
HETATM   13  C   UNL     1      -0.533   6.479 -31.893  1.00  0.00     0.068 A 
HETATM   14  C   UNL     1      -0.821   5.173 -32.283  1.00  0.00     0.039 A 
HETATM   15  C   UNL     1      -1.691   4.926 -33.350  1.00  0.00     0.032 A 
BRANCH  13  16
HETATM   16  O   UNL     1       0.325   6.584 -30.833  1.00  0.00    -0.356 OA
HETATM   17  C   UNL     1       0.196   5.612 -29.804  1.00  0.00     0.210 C 
ENDBRANCH  13  16
ENDBRANCH   8  10
ENDBRANCH   7   8
ENDBRANCH   6   7
ENDBRANCH   5   6
ENDBRANCH   1   5
BRANCH   2  18
HETATM   18  N   UNL     1      -4.884   0.979 -32.519  1.00  0.00    -0.184 NA
HETATM   19  C   UNL     1      -5.006  -0.001 -33.353  1.00  0.00     0.152 C 
BRANCH  19  20
HETATM   20  C   UNL     1      -4.364  -1.264 -33.050  1.00  0.00     0.011 A 
HETATM   21  C   UNL     1      -4.629  -2.547 -33.630  1.00  0.00     0.004 A 
HETATM   22  C   UNL     1      -3.768  -3.465 -33.021  1.00  0.00     0.043 A 
HETATM   23  C   UNL     1      -5.518  -3.020 -34.618  1.00  0.00     0.014 A 
HETATM   24  C   UNL     1      -3.754  -4.826 -33.346  1.00  0.00     0.030 A 
HETATM   25  N   UNL     1      -3.010  -2.768 -32.109  1.00  0.00    -0.364 N 
HETATM   26  C   UNL     1      -4.645  -5.267 -34.327  1.00  0.00     0.002 A 
HETATM   27  C   UNL     1      -5.515  -4.380 -34.956  1.00  0.00     0.001 A 
HETATM   28  H   UNL     1      -2.299  -3.178 -31.519  1.00  0.00     0.165 HD
HETATM   29  C   UNL     1      -3.357  -1.447 -32.120  1.00  0.00     0.102 A 
ENDBRANCH  19  20
ENDBRANCH   2  18
TORSDOF 8
ENDMDL
MODEL 2
REMARK VINA RESULT:      -7.9      6.899      9.600
REMARK  8 active torsions:
REMARK  status: ('A' for Active; 'I' for Inactive)
REMARK    1  A    between atoms: O_2  and  C_3 
REMARK    2  A    between atoms: C_6  and  N_7 
REMARK    3  A    between atoms: N_7  and  C_8 
REMARK    4  A    between atoms: C_8  and  C_9 
REMARK    5  A    between atoms: C_9  and  C_10 
REMARK    6  A    between atoms: C_10  and  C_11 
REMARK       I    between atoms: C_11  and  N_12 
REMARK    7  A    between atoms: N_12  and  N_13 
REMARK    8  A    between atoms: C_14  and  C_15 
ROOT
HETATM    1  C   UNL     1     -10.169   1.305 -33.902  1.00  0.00     0.237 C 
HETATM    2  N   UNL     1      -9.120   1.178 -34.803  1.00  0.00    -0.247 N 
HETATM    3  O   UNL     1     -10.126   0.983 -32.719  1.00  0.00    -0.272 OA
HETATM    4  H   UNL     1      -9.217   1.472 -35.768  1.00  0.00     0.192 HD
ENDROOT
BRANCH   1   5
HETATM    5  C   UNL     1     -11.411   1.898 -34.544  1.00  0.00     0.106 C 
BRANCH   5   6
HETATM    6  C   UNL     1     -11.357   3.425 -34.548  1.00  0.00     0.029 C 
BRANCH   6   7
HETATM    7  C   UNL     1     -11.926   4.030 -33.265  1.00  0.00     0.120 C 
BRANCH   7   8
HETATM    8  N   UNL     1     -12.669   3.001 -32.549  1.00  0.00    -0.390 N 
HETATM    9  H   UNL     1     -12.184   2.662 -31.720  1.00  0.00     0.159 HD
BRANCH   8  10
HETATM   10  C   UNL     1     -14.039   3.137 -32.325  1.00  0.00     0.028 A 
HETATM   11  C   UNL     1     -14.659   4.346 -32.000  1.00  0.00     0.032 A 
HETATM   12  C   UNL     1     -16.054   4.442 -31.871  1.00  0.00     0.039 A 
HETATM   13  C   UNL     1     -16.859   3.327 -32.089  1.00  0.00     0.068 A 
HETATM   14  C   UNL     1     -16.257   2.122 -32.445  1.00  0.00     0.039 A 
HETATM   15  C   UNL     1     -14.868   2.034 -32.578  1.00  0.00     0.032 A 
BRANCH  13  16
HETATM   16  O   UNL     1     -18.223   3.281 -32.000  1.00  0.00    -0.356 OA
HETATM   17  C   UNL     1     -18.949   3.362 -33.220  1.00  0.00     0.210 C 
ENDBRANCH  13  16
ENDBRANCH   8  10
ENDBRANCH   7   8
ENDBRANCH   6   7
ENDBRANCH   5   6
ENDBRANCH   1   5
BRANCH   2  18
HETATM   18  N   UNL     1      -7.945   0.630 -34.376  1.00  0.00    -0.184 NA
HETATM   19  C   UNL     1      -7.590  -0.489 -34.919  1.00  0.00     0.152 C 
BRANCH  19  20
HETATM   20  C   UNL     1      -6.359  -1.118 -34.489  1.00  0.00     0.011 A 
HETATM   21  C   UNL     1      -6.011  -2.506 -34.553  1.00  0.00     0.004 A 
HETATM   22  C   UNL     1      -4.727  -2.639 -34.017  1.00  0.00     0.043 A 
HETATM   23  C   UNL     1      -6.663  -3.667 -35.018  1.00  0.00     0.014 A 
HETATM   24  C   UNL     1      -4.067  -3.869 -33.921  1.00  0.00     0.030 A 
HETATM   25  N   UNL     1      -4.310  -1.382 -33.644  1.00  0.00    -0.364 N 
HETATM   26  C   UNL     1      -4.736  -5.002 -34.388  1.00  0.00     0.002 A 
HETATM   27  C   UNL     1      -6.015  -4.906 -34.930  1.00  0.00     0.001 A 
HETATM   28  H   UNL     1      -3.415  -1.174 -33.223  1.00  0.00     0.165 HD
HETATM   29  C   UNL     1      -5.281  -0.462 -33.923  1.00  0.00     0.102 A 
ENDBRANCH  19  20
ENDBRANCH   2  18
TORSDOF 8
ENDMDL
MODEL 3
REMARK VINA RESULT:      -7.9      3.139      4.541
REMARK  8 active torsions:
REMARK  status: ('A' for Active; 'I' for Inactive)
REMARK    1  A    between atoms: O_2  and  C_3 
REMARK    2  A    between atoms: C_6  and  N_7 
REMARK    3  A    between atoms: N_7  and  C_8 
REMARK    4  A    between atoms: C_8  and  C_9 
REMARK    5  A    between atoms: C_9  and  C_10 
REMARK    6  A    between atoms: C_10  and  C_11 
REMARK       I    between atoms: C_11  and  N_12 
REMARK    7  A    between atoms: N_12  and  N_13 
REMARK    8  A    between atoms: C_14  and  C_15 
ROOT
HETATM    1  C   UNL     1      -2.720   4.411 -31.900  1.00  0.00     0.237 C 
HETATM    2  N   UNL     1      -2.927   3.269 -31.136  1.00  0.00    -0.247 N 
HETATM    3  O   UNL     1      -2.589   4.430 -33.120  1.00  0.00    -0.272 OA
HETATM    4  H   UNL     1      -3.037   3.323 -30.131  1.00  0.00     0.192 HD
ENDROOT
BRANCH   1   5
HETATM    5  C   UNL     1      -2.668   5.670 -31.052  1.00  0.00     0.106 C 
BRANCH   5   6
HETATM    6  C   UNL     1      -1.330   6.390 -31.211  1.00  0.00     0.029 C 
BRANCH   6   7
HETATM    7  C   UNL     1      -0.212   5.723 -30.411  1.00  0.00     0.120 C 
BRANCH   7   8
HETATM    8  N   UNL     1      -0.491   5.882 -28.990  1.00  0.00    -0.390 N 
HETATM    9  H   UNL     1      -0.658   4.997 -28.514  1.00  0.00     0.159 HD
BRANCH   8  10
HETATM   10  C   UNL     1       0.268   6.753 -28.207  1.00  0.00     0.028 A 
HETATM   11  C   UNL     1       0.965   7.852 -28.718  1.00  0.00     0.032 A 
HETATM   12  C   UNL     1       1.641   8.746 -27.873  1.00  0.00     0.039 A 
HETATM   13  C   UNL     1       1.613   8.567 -26.492  1.00  0.00     0.068 A 
HETATM   14  C   UNL     1       0.896   7.494 -25.968  1.00  0.00     0.039 A 
HETATM   15  C   UNL     1       0.219   6.611 -26.814  1.00  0.00     0.032 A 
BRANCH  13  16
HETATM   16  O   UNL     1       2.223   9.360 -25.559  1.00  0.00    -0.356 OA
HETATM   17  C   UNL     1       2.600   8.738 -24.337  1.00  0.00     0.210 C 
ENDBRANCH  13  16
ENDBRANCH   8  10
ENDBRANCH   7   8
ENDBRANCH   6   7
ENDBRANCH   5   6
ENDBRANCH   1   5
BRANCH   2  18
HETATM   18  N   UNL     1      -2.966   2.056 -31.760  1.00  0.00    -0.184 NA
HETATM   19  C   UNL     1      -3.864   1.219 -31.355  1.00  0.00     0.152 C 
BRANCH  19  20
HETATM   20  C   UNL     1      -3.936  -0.087 -31.975  1.00  0.00     0.011 A 
HETATM   21  C   UNL     1      -4.840  -0.529 -32.994  1.00  0.00     0.004 A 
HETATM   22  C   UNL     1      -4.535  -1.864 -33.272  1.00  0.00     0.043 A 
HETATM   23  C   UNL     1      -5.892   0.078 -33.712  1.00  0.00     0.014 A 
HETATM   24  C   UNL     1      -5.227  -2.621 -34.224  1.00  0.00     0.030 A 
HETATM   25  N   UNL     1      -3.487  -2.220 -32.456  1.00  0.00    -0.364 N 
HETATM   26  C   UNL     1      -6.264  -1.994 -34.921  1.00  0.00     0.002 A 
HETATM   27  C   UNL     1      -6.593  -0.665 -34.671  1.00  0.00     0.001 A 
HETATM   28  H   UNL     1      -3.054  -3.133 -32.439  1.00  0.00     0.165 HD
HETATM   29  C   UNL     1      -3.118  -1.162 -31.674  1.00  0.00     0.102 A 
ENDBRANCH  19  20
ENDBRANCH   2  18
TORSDOF 8
ENDMDL
MODEL 4
REMARK VINA RESULT:      -7.9      4.123      5.371
REMARK  8 active torsions:
REMARK  status: ('A' for Active; 'I' for Inactive)
REMARK    1  A    between atoms: O_2  and  C_3 
REMARK    2  A    between atoms: C_6  and  N_7 
REMARK    3  A    between atoms: N_7  and  C_8 
REMARK    4  A    between atoms: C_8  and  C_9 
REMARK    5  A    between atoms: C_9  and  C_10 
REMARK    6  A    between atoms: C_10  and  C_11 
REMARK       I    between atoms: C_11  and  N_12 
REMARK    7  A    between atoms: N_12  and  N_13 
REMARK    8  A    between atoms: C_14  and  C_15 
ROOT
HETATM    1  C   UNL     1     -10.330   0.473 -33.428  1.00  0.00     0.237 C 
HETATM    2  N   UNL     1      -9.064   0.762 -33.922  1.00  0.00    -0.247 N 
HETATM    3  O   UNL     1     -10.599  -0.466 -32.685  1.00  0.00    -0.272 OA
HETATM    4  H   UNL     1      -8.906   1.559 -34.527  1.00  0.00     0.192 HD
ENDROOT
BRANCH   1   5
HETATM    5  C   UNL     1     -11.377   1.459 -33.914  1.00  0.00     0.106 C 
BRANCH   5   6
HETATM    6  C   UNL     1     -10.730   2.734 -34.452  1.00  0.00     0.029 C 
BRANCH   6   7
HETATM    7  C   UNL     1     -10.933   3.927 -33.521  1.00  0.00     0.120 C 
BRANCH   7   8
HETATM    8  N   UNL     1      -9.645   4.568 -33.289  1.00  0.00    -0.390 N 
HETATM    9  H   UNL     1      -9.728   5.550 -33.029  1.00  0.00     0.159 HD
BRANCH   8  10
HETATM   10  C   UNL     1      -8.650   3.923 -32.554  1.00  0.00     0.028 A 
HETATM   11  C   UNL     1      -8.878   3.268 -31.341  1.00  0.00     0.032 A 
HETATM   12  C   UNL     1      -7.856   2.561 -30.688  1.00  0.00     0.039 A 
HETATM   13  C   UNL     1      -6.587   2.476 -31.254  1.00  0.00     0.068 A 
HETATM   14  C   UNL     1      -6.353   3.097 -32.478  1.00  0.00     0.039 A 
HETATM   15  C   UNL     1      -7.377   3.795 -33.127  1.00  0.00     0.032 A 
BRANCH  13  16
HETATM   16  O   UNL     1      -5.507   1.822 -30.728  1.00  0.00    -0.356 OA
HETATM   17  C   UNL     1      -5.766   0.599 -30.051  1.00  0.00     0.210 C 
ENDBRANCH  13  16
ENDBRANCH   8  10
ENDBRANCH   7   8
ENDBRANCH   6   7
ENDBRANCH   5   6
ENDBRANCH   1   5
BRANCH   2  18
HETATM   18  N   UNL     1      -8.024  -0.059 -33.596  1.00  0.00    -0.184 NA
HETATM   19  C   UNL     1      -6.993  -0.034 -34.375  1.00  0.00     0.152 C 
BRANCH  19  20
HETATM   20  C   UNL     1      -5.869  -0.898 -34.079  1.00  0.00     0.011 A 
HETATM   21  C   UNL     1      -5.760  -2.308 -34.305  1.00  0.00     0.004 A 
HETATM   22  C   UNL     1      -4.498  -2.706 -33.856  1.00  0.00     0.043 A 
HETATM   23  C   UNL     1      -6.614  -3.290 -34.852  1.00  0.00     0.014 A 
HETATM   24  C   UNL     1      -4.049  -4.030 -33.923  1.00  0.00     0.030 A 
HETATM   25  N   UNL     1      -3.864  -1.583 -33.378  1.00  0.00    -0.364 N 
HETATM   26  C   UNL     1      -4.915  -4.981 -34.469  1.00  0.00     0.002 A 
HETATM   27  C   UNL     1      -6.178  -4.620 -34.928  1.00  0.00     0.001 A 
HETATM   28  H   UNL     1      -2.932  -1.571 -32.987  1.00  0.00     0.165 HD
HETATM   29  C   UNL     1      -4.677  -0.493 -33.507  1.00  0.00     0.102 A 
ENDBRANCH  19  20
ENDBRANCH   2  18
TORSDOF 8
ENDMDL
MODEL 5
REMARK VINA RESULT:      -7.7      1.335      1.645
REMARK  8 active torsions:
REMARK  status: ('A' for Active; 'I' for Inactive)
REMARK    1  A    between atoms: O_2  and  C_3 
REMARK    2  A    between atoms: C_6  and  N_7 
REMARK    3  A    between atoms: N_7  and  C_8 
REMARK    4  A    between atoms: C_8  and  C_9 
REMARK    5  A    between atoms: C_9  and  C_10 
REMARK    6  A    between atoms: C_10  and  C_11 
REMARK       I    between atoms: C_11  and  N_12 
REMARK    7  A    between atoms: N_12  and  N_13 
REMARK    8  A    between atoms: C_14  and  C_15 
ROOT
HETATM    1  C   UNL     1      -6.791   2.720 -31.394  1.00  0.00     0.237 C 
HETATM    2  N   UNL     1      -6.149   2.061 -32.435  1.00  0.00    -0.247 N 
HETATM    3  O   UNL     1      -6.762   2.375 -30.217  1.00  0.00    -0.272 OA
HETATM    4  H   UNL     1      -6.205   2.403 -33.387  1.00  0.00     0.192 HD
ENDROOT
BRANCH   1   5
HETATM    5  C   UNL     1      -7.555   3.943 -31.870  1.00  0.00     0.106 C 
BRANCH   5   6
HETATM    6  C   UNL     1      -7.248   4.252 -33.334  1.00  0.00     0.029 C 
BRANCH   6   7
HETATM    7  C   UNL     1      -6.291   5.432 -33.491  1.00  0.00     0.120 C 
BRANCH   7   8
HETATM    8  N   UNL     1      -5.161   5.016 -34.310  1.00  0.00    -0.390 N 
HETATM    9  H   UNL     1      -5.159   5.442 -35.236  1.00  0.00     0.159 HD
BRANCH   8  10
HETATM   10  C   UNL     1      -3.875   4.951 -33.771  1.00  0.00     0.028 A 
HETATM   11  C   UNL     1      -2.707   5.117 -34.521  1.00  0.00     0.032 A 
HETATM   12  C   UNL     1      -1.442   5.128 -33.912  1.00  0.00     0.039 A 
HETATM   13  C   UNL     1      -1.326   4.997 -32.531  1.00  0.00     0.068 A 
HETATM   14  C   UNL     1      -2.483   4.863 -31.768  1.00  0.00     0.039 A 
HETATM   15  C   UNL     1      -3.740   4.859 -32.379  1.00  0.00     0.032 A 
BRANCH  13  16
HETATM   16  O   UNL     1      -0.162   4.993 -31.812  1.00  0.00    -0.356 OA
HETATM   17  C   UNL     1      -0.278   5.137 -30.402  1.00  0.00     0.210 C 
ENDBRANCH  13  16
ENDBRANCH   8  10
ENDBRANCH   7   8
ENDBRANCH   6   7
ENDBRANCH   5   6
ENDBRANCH   1   5
BRANCH   2  18
HETATM   18  N   UNL     1      -5.446   0.923 -32.163  1.00  0.00    -0.184 NA
HETATM   19  C   UNL     1      -5.222   0.124 -33.154  1.00  0.00     0.152 C 
BRANCH  19  20
HETATM   20  C   UNL     1      -4.493  -1.104 -32.914  1.00  0.00     0.011 A 
HETATM   21  C   UNL     1      -4.688  -2.379 -33.536  1.00  0.00     0.004 A 
HETATM   22  C   UNL     1      -3.756  -3.261 -32.981  1.00  0.00     0.043 A 
HETATM   23  C   UNL     1      -5.567  -2.873 -34.523  1.00  0.00     0.014 A 
HETATM   24  C   UNL     1      -3.661  -4.605 -33.359  1.00  0.00     0.030 A 
HETATM   25  N   UNL     1      -3.023  -2.550 -32.059  1.00  0.00    -0.364 N 
HETATM   26  C   UNL     1      -4.545  -5.067 -34.338  1.00  0.00     0.002 A 
HETATM   27  C   UNL     1      -5.484  -4.216 -34.913  1.00  0.00     0.001 A 
HETATM   28  H   UNL     1      -2.274  -2.934 -31.500  1.00  0.00     0.165 HD
HETATM   29  C   UNL     1      -3.456  -1.255 -32.011  1.00  0.00     0.102 A 
ENDBRANCH  19  20
ENDBRANCH   2  18
TORSDOF 8
ENDMDL
MODEL 6
REMARK VINA RESULT:      -7.5      3.197      4.801
REMARK  8 active torsions:
REMARK  status: ('A' for Active; 'I' for Inactive)
REMARK    1  A    between atoms: O_2  and  C_3 
REMARK    2  A    between atoms: C_6  and  N_7 
REMARK    3  A    between atoms: N_7  and  C_8 
REMARK    4  A    between atoms: C_8  and  C_9 
REMARK    5  A    between atoms: C_9  and  C_10 
REMARK    6  A    between atoms: C_10  and  C_11 
REMARK       I    between atoms: C_11  and  N_12 
REMARK    7  A    between atoms: N_12  and  N_13 
REMARK    8  A    between atoms: C_14  and  C_15 
ROOT
HETATM    1  C   UNL     1      -2.186   4.289 -32.187  1.00  0.00     0.237 C 
HETATM    2  N   UNL     1      -2.940   3.507 -31.321  1.00  0.00    -0.247 N 
HETATM    3  O   UNL     1      -2.442   4.476 -33.372  1.00  0.00    -0.272 OA
HETATM    4  H   UNL     1      -2.679   3.400 -30.348  1.00  0.00     0.192 HD
ENDROOT
BRANCH   1   5
HETATM    5  C   UNL     1      -0.978   4.905 -31.503  1.00  0.00     0.106 C 
BRANCH   5   6
HETATM    6  C   UNL     1      -1.092   6.428 -31.443  1.00  0.00     0.029 C 
BRANCH   6   7
HETATM    7  C   UNL     1      -1.798   6.909 -30.177  1.00  0.00     0.120 C 
BRANCH   7   8
HETATM    8  N   UNL     1      -1.093   6.382 -29.016  1.00  0.00    -0.390 N 
HETATM    9  H   UNL     1      -0.535   5.557 -29.227  1.00  0.00     0.159 HD
BRANCH   8  10
HETATM   10  C   UNL     1      -0.433   7.239 -28.134  1.00  0.00     0.028 A 
HETATM   11  C   UNL     1      -0.857   7.486 -26.825  1.00  0.00     0.032 A 
HETATM   12  C   UNL     1      -0.107   8.290 -25.953  1.00  0.00     0.039 A 
HETATM   13  C   UNL     1       1.101   8.844 -26.370  1.00  0.00     0.068 A 
HETATM   14  C   UNL     1       1.552   8.579 -27.661  1.00  0.00     0.039 A 
HETATM   15  C   UNL     1       0.803   7.773 -28.524  1.00  0.00     0.032 A 
BRANCH  13  16
HETATM   16  O   UNL     1       1.928   9.638 -25.626  1.00  0.00    -0.356 OA
HETATM   17  C   UNL     1       2.833   8.980 -24.749  1.00  0.00     0.210 C 
ENDBRANCH  13  16
ENDBRANCH   8  10
ENDBRANCH   7   8
ENDBRANCH   6   7
ENDBRANCH   5   6
ENDBRANCH   1   5
BRANCH   2  18
HETATM   18  N   UNL     1      -4.042   2.863 -31.802  1.00  0.00    -0.184 NA
HETATM   19  C   UNL     1      -4.028   1.570 -31.760  1.00  0.00     0.152 C 
BRANCH  19  20
HETATM   20  C   UNL     1      -5.168   0.840 -32.273  1.00  0.00     0.011 A 
HETATM   21  C   UNL     1      -5.165  -0.371 -33.038  1.00  0.00     0.004 A 
HETATM   22  C   UNL     1      -6.497  -0.696 -33.310  1.00  0.00     0.043 A 
HETATM   23  C   UNL     1      -4.157  -1.228 -33.528  1.00  0.00     0.014 A 
HETATM   24  C   UNL     1      -6.870  -1.826 -34.045  1.00  0.00     0.030 A 
HETATM   25  N   UNL     1      -7.278   0.278 -32.732  1.00  0.00    -0.364 N 
HETATM   26  C   UNL     1      -5.851  -2.657 -34.518  1.00  0.00     0.002 A 
HETATM   27  C   UNL     1      -4.514  -2.366 -34.264  1.00  0.00     0.001 A 
HETATM   28  H   UNL     1      -8.288   0.301 -32.768  1.00  0.00     0.165 HD
HETATM   29  C   UNL     1      -6.492   1.203 -32.106  1.00  0.00     0.102 A 
ENDBRANCH  19  20
ENDBRANCH   2  18
TORSDOF 8
ENDMDL
MODEL 7
REMARK VINA RESULT:      -7.5      1.829      2.684
REMARK  8 active torsions:
REMARK  status: ('A' for Active; 'I' for Inactive)
REMARK    1  A    between atoms: O_2  and  C_3 
REMARK    2  A    between atoms: C_6  and  N_7 
REMARK    3  A    between atoms: N_7  and  C_8 
REMARK    4  A    between atoms: C_8  and  C_9 
REMARK    5  A    between atoms: C_9  and  C_10 
REMARK    6  A    between atoms: C_10  and  C_11 
REMARK       I    between atoms: C_11  and  N_12 
REMARK    7  A    between atoms: N_12  and  N_13 
REMARK    8  A    between atoms: C_14  and  C_15 
ROOT
HETATM    1  C   UNL     1      -5.207   3.397 -32.399  1.00  0.00     0.237 C 
HETATM    2  N   UNL     1      -4.729   2.107 -32.209  1.00  0.00    -0.247 N 
HETATM    3  O   UNL     1      -6.227   3.687 -33.017  1.00  0.00    -0.272 OA
HETATM    4  H   UNL     1      -3.883   1.932 -31.680  1.00  0.00     0.192 HD
ENDROOT
BRANCH   1   5
HETATM    5  C   UNL     1      -4.316   4.442 -31.752  1.00  0.00     0.106 C 
BRANCH   5   6
HETATM    6  C   UNL     1      -3.357   5.060 -32.768  1.00  0.00     0.029 C 
BRANCH   6   7
HETATM    7  C   UNL     1      -1.961   4.445 -32.699  1.00  0.00     0.120 C 
BRANCH   7   8
HETATM    8  N   UNL     1      -0.977   5.517 -32.633  1.00  0.00    -0.390 N 
HETATM    9  H   UNL     1      -1.201   6.303 -33.242  1.00  0.00     0.159 HD
BRANCH   8  10
HETATM   10  C   UNL     1      -0.468   5.945 -31.406  1.00  0.00     0.028 A 
HETATM   11  C   UNL     1      -0.614   7.244 -30.912  1.00  0.00     0.032 A 
HETATM   12  C   UNL     1      -0.156   7.596 -29.633  1.00  0.00     0.039 A 
HETATM   13  C   UNL     1       0.437   6.641 -28.810  1.00  0.00     0.068 A 
HETATM   14  C   UNL     1       0.560   5.334 -29.277  1.00  0.00     0.039 A 
HETATM   15  C   UNL     1       0.097   4.989 -30.551  1.00  0.00     0.032 A 
BRANCH  13  16
HETATM   16  O   UNL     1       0.921   6.847 -27.548  1.00  0.00    -0.356 OA
HETATM   17  C   UNL     1       0.029   6.596 -26.470  1.00  0.00     0.210 C 
ENDBRANCH  13  16
ENDBRANCH   8  10
ENDBRANCH   7   8
ENDBRANCH   6   7
ENDBRANCH   5   6
ENDBRANCH   1   5
BRANCH   2  18
HETATM   18  N   UNL     1      -5.410   1.062 -32.762  1.00  0.00    -0.184 NA
HETATM   19  C   UNL     1      -4.703   0.096 -33.250  1.00  0.00     0.152 C 
BRANCH  19  20
HETATM   20  C   UNL     1      -5.380  -1.029 -33.862  1.00  0.00     0.011 A 
HETATM   21  C   UNL     1      -4.953  -2.396 -33.902  1.00  0.00     0.004 A 
HETATM   22  C   UNL     1      -5.925  -3.115 -34.603  1.00  0.00     0.043 A 
HETATM   23  C   UNL     1      -3.833  -3.097 -33.408  1.00  0.00     0.014 A 
HETATM   24  C   UNL     1      -5.833  -4.492 -34.837  1.00  0.00     0.030 A 
HETATM   25  N   UNL     1      -6.904  -2.222 -34.973  1.00  0.00    -0.364 N 
HETATM   26  C   UNL     1      -4.712  -5.160 -34.337  1.00  0.00     0.002 A 
HETATM   27  C   UNL     1      -3.726  -4.476 -33.632  1.00  0.00     0.001 A 
HETATM   28  H   UNL     1      -7.735  -2.462 -35.495  1.00  0.00     0.165 HD
HETATM   29  C   UNL     1      -6.588  -0.968 -34.532  1.00  0.00     0.102 A 
ENDBRANCH  19  20
ENDBRANCH   2  18
TORSDOF 8
ENDMDL
MODEL 8
REMARK VINA RESULT:      -7.5      4.625      7.473
REMARK  8 active torsions:
REMARK  status: ('A' for Active; 'I' for Inactive)
REMARK    1  A    between atoms: O_2  and  C_3 
REMARK    2  A    between atoms: C_6  and  N_7 
REMARK    3  A    between atoms: N_7  and  C_8 
REMARK    4  A    between atoms: C_8  and  C_9 
REMARK    5  A    between atoms: C_9  and  C_10 
REMARK    6  A    between atoms: C_10  and  C_11 
REMARK       I    between atoms: C_11  and  N_12 
REMARK    7  A    between atoms: N_12  and  N_13 
REMARK    8  A    between atoms: C_14  and  C_15 
ROOT
HETATM    1  C   UNL     1      -6.034   3.943 -33.592  1.00  0.00     0.237 C 
HETATM    2  N   UNL     1      -6.512   2.740 -33.089  1.00  0.00    -0.247 N 
HETATM    3  O   UNL     1      -4.913   4.115 -34.062  1.00  0.00    -0.272 OA
HETATM    4  H   UNL     1      -7.453   2.661 -32.722  1.00  0.00     0.192 HD
ENDROOT
BRANCH   1   5
HETATM    5  C   UNL     1      -7.061   5.057 -33.496  1.00  0.00     0.106 C 
BRANCH   5   6
HETATM    6  C   UNL     1      -8.381   4.546 -32.921  1.00  0.00     0.029 C 
BRANCH   6   7
HETATM    7  C   UNL     1      -9.582   4.948 -33.774  1.00  0.00     0.120 C 
BRANCH   7   8
HETATM    8  N   UNL     1      -9.809   3.919 -34.781  1.00  0.00    -0.390 N 
HETATM    9  H   UNL     1      -8.947   3.558 -35.185  1.00  0.00     0.159 HD
BRANCH   8  10
HETATM   10  C   UNL     1     -10.743   2.905 -34.567  1.00  0.00     0.028 A 
HETATM   11  C   UNL     1     -10.473   1.739 -33.845  1.00  0.00     0.032 A 
HETATM   12  C   UNL     1     -11.475   0.790 -33.586  1.00  0.00     0.039 A 
HETATM   13  C   UNL     1     -12.778   1.006 -34.027  1.00  0.00     0.068 A 
HETATM   14  C   UNL     1     -13.068   2.179 -34.720  1.00  0.00     0.039 A 
HETATM   15  C   UNL     1     -12.067   3.122 -34.970  1.00  0.00     0.032 A 
BRANCH  13  16
HETATM   16  O   UNL     1     -13.845   0.170 -33.843  1.00  0.00    -0.356 OA
HETATM   17  C   UNL     1     -15.102   0.617 -34.335  1.00  0.00     0.210 C 
ENDBRANCH  13  16
ENDBRANCH   8  10
ENDBRANCH   7   8
ENDBRANCH   6   7
ENDBRANCH   5   6
ENDBRANCH   1   5
BRANCH   2  18
HETATM   18  N   UNL     1      -5.687   1.653 -33.080  1.00  0.00    -0.184 NA
HETATM   19  C   UNL     1      -6.147   0.566 -33.608  1.00  0.00     0.152 C 
BRANCH  19  20
HETATM   20  C   UNL     1      -5.315  -0.619 -33.609  1.00  0.00     0.011 A 
HETATM   21  C   UNL     1      -5.651  -1.929 -34.080  1.00  0.00     0.004 A 
HETATM   22  C   UNL     1      -4.536  -2.746 -33.872  1.00  0.00     0.043 A 
HETATM   23  C   UNL     1      -6.798  -2.505 -34.667  1.00  0.00     0.014 A 
HETATM   24  C   UNL     1      -4.510  -4.102 -34.216  1.00  0.00     0.030 A 
HETATM   25  N   UNL     1      -3.560  -1.963 -33.299  1.00  0.00    -0.364 N 
HETATM   26  C   UNL     1      -5.660  -4.645 -34.795  1.00  0.00     0.002 A 
HETATM   27  C   UNL     1      -6.788  -3.861 -35.019  1.00  0.00     0.001 A 
HETATM   28  H   UNL     1      -2.641  -2.290 -33.036  1.00  0.00     0.165 HD
HETATM   29  C   UNL     1      -4.016  -0.686 -33.138  1.00  0.00     0.102 A 
ENDBRANCH  19  20
ENDBRANCH   2  18
TORSDOF 8
ENDMDL
MODEL 9
REMARK VINA RESULT:      -7.3      3.058      5.891
REMARK  8 active torsions:
REMARK  status: ('A' for Active; 'I' for Inactive)
REMARK    1  A    between atoms: O_2  and  C_3 
REMARK    2  A    between atoms: C_6  and  N_7 
REMARK    3  A    between atoms: N_7  and  C_8 
REMARK    4  A    between atoms: C_8  and  C_9 
REMARK    5  A    between atoms: C_9  and  C_10 
REMARK    6  A    between atoms: C_10  and  C_11 
REMARK       I    between atoms: C_11  and  N_12 
REMARK    7  A    between atoms: N_12  and  N_13 
REMARK    8  A    between atoms: C_14  and  C_15 
ROOT
HETATM    1  C   UNL     1      -4.455   4.058 -31.466  1.00  0.00     0.237 C 
HETATM    2  N   UNL     1      -3.916   2.942 -30.840  1.00  0.00    -0.247 N 
HETATM    3  O   UNL     1      -4.805   4.108 -32.641  1.00  0.00    -0.272 OA
HETATM    4  H   UNL     1      -3.654   2.964 -29.861  1.00  0.00     0.192 HD
ENDROOT
BRANCH   1   5
HETATM    5  C   UNL     1      -4.570   5.246 -30.527  1.00  0.00     0.106 C 
BRANCH   5   6
HETATM    6  C   UNL     1      -6.017   5.723 -30.411  1.00  0.00     0.029 C 
BRANCH   6   7
HETATM    7  C   UNL     1      -6.661   5.312 -29.088  1.00  0.00     0.120 C 
BRANCH   7   8
HETATM    8  N   UNL     1      -6.931   3.881 -29.120  1.00  0.00    -0.390 N 
HETATM    9  H   UNL     1      -7.008   3.467 -28.193  1.00  0.00     0.159 HD
BRANCH   8  10
HETATM   10  C   UNL     1      -7.878   3.354 -30.000  1.00  0.00     0.028 A 
HETATM   11  C   UNL     1      -9.106   3.961 -30.277  1.00  0.00     0.032 A 
HETATM   12  C   UNL     1      -9.984   3.431 -31.235  1.00  0.00     0.039 A 
HETATM   13  C   UNL     1      -9.635   2.291 -31.955  1.00  0.00     0.068 A 
HETATM   14  C   UNL     1      -8.401   1.694 -31.711  1.00  0.00     0.039 A 
HETATM   15  C   UNL     1      -7.528   2.229 -30.759  1.00  0.00     0.032 A 
BRANCH  13  16
HETATM   16  O   UNL     1     -10.391   1.674 -32.913  1.00  0.00    -0.356 OA
HETATM   17  C   UNL     1     -10.228   0.269 -33.053  1.00  0.00     0.210 C 
ENDBRANCH  13  16
ENDBRANCH   8  10
ENDBRANCH   7   8
ENDBRANCH   6   7
ENDBRANCH   5   6
ENDBRANCH   1   5
BRANCH   2  18
HETATM   18  N   UNL     1      -3.723   1.805 -31.568  1.00  0.00    -0.184 NA
HETATM   19  C   UNL     1      -4.339   0.741 -31.167  1.00  0.00     0.152 C 
BRANCH  19  20
HETATM   20  C   UNL     1      -4.154  -0.494 -31.898  1.00  0.00     0.011 A 
HETATM   21  C   UNL     1      -4.985  -1.039 -32.930  1.00  0.00     0.004 A 
HETATM   22  C   UNL     1      -4.412  -2.248 -33.332  1.00  0.00     0.043 A 
HETATM   23  C   UNL     1      -6.173  -0.619 -33.566  1.00  0.00     0.014 A 
HETATM   24  C   UNL     1      -4.965  -3.057 -34.331  1.00  0.00     0.030 A 
HETATM   25  N   UNL     1      -3.277  -2.431 -32.577  1.00  0.00    -0.364 N 
HETATM   26  C   UNL     1      -6.142  -2.618 -34.944  1.00  0.00     0.002 A 
HETATM   27  C   UNL     1      -6.739  -1.417 -34.569  1.00  0.00     0.001 A 
HETATM   28  H   UNL     1      -2.658  -3.227 -32.652  1.00  0.00     0.165 HD
HETATM   29  C   UNL     1      -3.112  -1.385 -31.715  1.00  0.00     0.102 A 
ENDBRANCH  19  20
ENDBRANCH   2  18
TORSDOF 8
ENDMDL
MODEL 10
REMARK VINA RESULT:      -7.3      2.431      8.698
REMARK  8 active torsions:
REMARK  status: ('A' for Active; 'I' for Inactive)
REMARK    1  A    between atoms: O_2  and  C_3 
REMARK    2  A    between atoms: C_6  and  N_7 
REMARK    3  A    between atoms: N_7  and  C_8 
REMARK    4  A    between atoms: C_8  and  C_9 
REMARK    5  A    between atoms: C_9  and  C_10 
REMARK    6  A    between atoms: C_10  and  C_11 
REMARK       I    between atoms: C_11  and  N_12 
REMARK    7  A    between atoms: N_12  and  N_13 
REMARK    8  A    between atoms: C_14  and  C_15 
ROOT
HETATM    1  C   UNL     1      -6.699   2.618 -31.381  1.00  0.00     0.237 C 
HETATM    2  N   UNL     1      -5.333   2.516 -31.609  1.00  0.00    -0.247 N 
HETATM    3  O   UNL     1      -7.333   3.669 -31.354  1.00  0.00    -0.272 OA
HETATM    4  H   UNL     1      -4.869   1.616 -31.629  1.00  0.00     0.192 HD
ENDROOT
BRANCH   1   5
HETATM    5  C   UNL     1      -7.349   1.264 -31.161  1.00  0.00     0.106 C 
BRANCH   5   6
HETATM    6  C   UNL     1      -8.422   0.987 -32.213  1.00  0.00     0.029 C 
BRANCH   6   7
HETATM    7  C   UNL     1      -7.859   0.986 -33.633  1.00  0.00     0.120 C 
BRANCH   7   8
HETATM    8  N   UNL     1      -8.018  -0.346 -34.201  1.00  0.00    -0.390 N 
HETATM    9  H   UNL     1      -8.481  -0.341 -35.108  1.00  0.00     0.159 HD
BRANCH   8  10
HETATM   10  C   UNL     1      -6.972  -1.269 -34.162  1.00  0.00     0.028 A 
HETATM   11  C   UNL     1      -7.058  -2.567 -34.672  1.00  0.00     0.032 A 
HETATM   12  C   UNL     1      -5.947  -3.424 -34.684  1.00  0.00     0.039 A 
HETATM   13  C   UNL     1      -4.715  -2.985 -34.205  1.00  0.00     0.068 A 
HETATM   14  C   UNL     1      -4.606  -1.683 -33.723  1.00  0.00     0.039 A 
HETATM   15  C   UNL     1      -5.716  -0.832 -33.719  1.00  0.00     0.032 A 
BRANCH  13  16
HETATM   16  O   UNL     1      -3.557  -3.711 -34.160  1.00  0.00    -0.356 OA
HETATM   17  C   UNL     1      -3.659  -5.054 -33.704  1.00  0.00     0.210 C 
ENDBRANCH  13  16
ENDBRANCH   8  10
ENDBRANCH   7   8
ENDBRANCH   6   7
ENDBRANCH   5   6
ENDBRANCH   1   5
BRANCH   2  18
HETATM   18  N   UNL     1      -4.607   3.657 -31.793  1.00  0.00    -0.184 NA
HETATM   19  C   UNL     1      -3.779   3.669 -32.787  1.00  0.00     0.152 C 
BRANCH  19  20
HETATM   20  C   UNL     1      -2.975   4.852 -33.015  1.00  0.00     0.011 A 
HETATM   21  C   UNL     1      -1.851   5.312 -32.254  1.00  0.00     0.004 A 
HETATM   22  C   UNL     1      -1.403   6.496 -32.847  1.00  0.00     0.043 A 
HETATM   23  C   UNL     1      -1.166   4.835 -31.116  1.00  0.00     0.014 A 
HETATM   24  C   UNL     1      -0.313   7.225 -32.360  1.00  0.00     0.030 A 
HETATM   25  N   UNL     1      -2.220   6.745 -33.925  1.00  0.00    -0.364 N 
HETATM   26  C   UNL     1       0.347   6.730 -31.232  1.00  0.00     0.002 A 
HETATM   27  C   UNL     1      -0.071   5.553 -30.618  1.00  0.00     0.001 A 
HETATM   28  H   UNL     1      -2.132   7.540 -34.543  1.00  0.00     0.165 HD
HETATM   29  C   UNL     1      -3.166   5.765 -34.035  1.00  0.00     0.102 A 
ENDBRANCH  19  20
ENDBRANCH   2  18
TORSDOF 8
ENDMDL
