MODEL 1
REMARK VINA RESULT:      -9.5      0.000      0.000
REMARK  7 active torsions:
REMARK  status: ('A' for Active; 'I' for Inactive)
REMARK    1  A    between atoms: C_2  and  O_3 
REMARK    2  A    between atoms: O_3  and  C_4 
REMARK    3  A    between atoms: C_5  and  O_6 
REMARK    4  A    between atoms: C_7  and  C_8 
REMARK    5  A    between atoms: N_9  and  N_10 
REMARK       I    between atoms: N_10  and  C_11 
REMARK    6  A    between atoms: C_11  and  C_12 
REMARK    7  A    between atoms: C_16  and  C_17 
ROOT
HETATM    1  C   UNL     1      -3.708   4.209 -31.219  1.00  0.00     0.121 A 
HETATM    2  N   UNL     1      -4.712   3.725 -30.427  1.00  0.00    -0.272 N 
HETATM    3  H   UNL     1      -5.153   4.205 -29.648  1.00  0.00     0.189 HD
HETATM    4  N   UNL     1      -5.089   2.473 -30.720  1.00  0.00    -0.174 NA
HETATM    5  C   UNL     1      -4.330   2.122 -31.768  1.00  0.00     0.090 A 
HETATM    6  C   UNL     1      -3.463   3.198 -32.126  1.00  0.00     0.071 A 
ENDROOT
BRANCH   1   7
HETATM    7  C   UNL     1      -3.135   5.510 -30.980  1.00  0.00     0.289 C 
HETATM    8  N   UNL     1      -1.875   5.490 -30.401  1.00  0.00    -0.242 N 
HETATM    9  H   UNL     1      -1.431   4.609 -30.176  1.00  0.00     0.192 HD
HETATM   10  O   UNL     1      -3.759   6.535 -31.246  1.00  0.00    -0.264 OA
BRANCH   8  11
HETATM   11  N   UNL     1      -1.316   6.645 -29.937  1.00  0.00    -0.183 NA
HETATM   12  C   UNL     1      -0.757   6.563 -28.771  1.00  0.00     0.153 C 
BRANCH  12  13
HETATM   13  C   UNL     1      -0.177   7.745 -28.105  1.00  0.00     0.019 A 
HETATM   14  C   UNL     1      -1.004   8.783 -27.675  1.00  0.00     0.110 A 
HETATM   15  C   UNL     1      -0.463   9.939 -27.093  1.00  0.00     0.102 A 
HETATM   16  C   UNL     1       0.919  10.036 -26.923  1.00  0.00     0.040 A 
HETATM   17  C   UNL     1       1.751   8.993 -27.344  1.00  0.00     0.004 A 
HETATM   18  C   UNL     1       1.207   7.852 -27.936  1.00  0.00     0.016 A 
BRANCH  14  19
HETATM   19  O   UNL     1      -2.365   8.700 -27.829  1.00  0.00    -0.357 OA
HETATM   20  H   UNL     1      -2.738   9.071 -27.003  1.00  0.00     0.218 HD
ENDBRANCH  14  19
BRANCH  15  21
HETATM   21  O   UNL     1      -1.387  10.889 -26.734  1.00  0.00    -0.349 OA
BRANCH  21  22
HETATM   22  C   UNL     1      -1.325  11.364 -25.388  1.00  0.00     0.171 C 
HETATM   23  C   UNL     1      -1.936  10.301 -24.491  1.00  0.00     0.034 C 
ENDBRANCH  21  22
ENDBRANCH  15  21
ENDBRANCH  12  13
ENDBRANCH   8  11
ENDBRANCH   1   7
BRANCH   5  24
HETATM   24  C   UNL     1      -4.384   0.784 -32.373  1.00  0.00     0.005 A 
HETATM   25  C   UNL     1      -5.401   0.396 -33.297  1.00  0.00    -0.012 A 
HETATM   26  C   UNL     1      -5.334  -0.899 -33.756  1.00  0.00    -0.012 A 
HETATM   27  C   UNL     1      -6.480   1.153 -33.824  1.00  0.00     0.013 A 
HETATM   28  C   UNL     1      -6.232  -1.464 -34.643  1.00  0.00    -0.046 A 
HETATM   29  C   UNL     1      -4.360  -1.809 -33.388  1.00  0.00    -0.046 A 
HETATM   30  C   UNL     1      -7.297  -0.738 -35.155  1.00  0.00     0.008 A 
HETATM   31  C   UNL     1      -5.873  -2.882 -34.916  1.00  0.00     0.044 A 
HETATM   32  C   UNL     1      -7.403   0.592 -34.729  1.00  0.00     0.001 A 
HETATM   33  C   UNL     1      -4.587  -3.116 -34.065  1.00  0.00     0.044 A 
HETATM   34  C   UNL     1      -3.354  -1.468 -32.501  1.00  0.00     0.009 A 
HETATM   35  C   UNL     1      -3.385  -0.157 -31.998  1.00  0.00     0.015 A 
ENDBRANCH   5  24
TORSDOF 7
ENDMDL
MODEL 2
REMARK VINA RESULT:      -9.4      3.167     11.423
REMARK  7 active torsions:
REMARK  status: ('A' for Active; 'I' for Inactive)
REMARK    1  A    between atoms: C_2  and  O_3 
REMARK    2  A    between atoms: O_3  and  C_4 
REMARK    3  A    between atoms: C_5  and  O_6 
REMARK    4  A    between atoms: C_7  and  C_8 
REMARK    5  A    between atoms: N_9  and  N_10 
REMARK       I    between atoms: N_10  and  C_11 
REMARK    6  A    between atoms: C_11  and  C_12 
REMARK    7  A    between atoms: C_16  and  C_17 
ROOT
HETATM    1  C   UNL     1      -3.375   6.394 -33.428  1.00  0.00     0.121 A 
HETATM    2  N   UNL     1      -2.286   7.027 -33.959  1.00  0.00    -0.272 N 
HETATM    3  H   UNL     1      -1.926   6.922 -34.903  1.00  0.00     0.189 HD
HETATM    4  N   UNL     1      -1.636   7.822 -33.098  1.00  0.00    -0.174 NA
HETATM    5  C   UNL     1      -2.339   7.741 -31.959  1.00  0.00     0.090 A 
HETATM    6  C   UNL     1      -3.455   6.869 -32.133  1.00  0.00     0.071 A 
ENDROOT
BRANCH   1   7
HETATM    7  C   UNL     1      -4.133   5.443 -34.201  1.00  0.00     0.289 C 
HETATM    8  N   UNL     1      -5.055   4.708 -33.472  1.00  0.00    -0.242 N 
HETATM    9  H   UNL     1      -5.153   4.856 -32.476  1.00  0.00     0.192 HD
HETATM   10  O   UNL     1      -3.924   5.296 -35.403  1.00  0.00    -0.264 OA
BRANCH   8  11
HETATM   11  N   UNL     1      -5.683   3.638 -34.042  1.00  0.00    -0.183 NA
HETATM   12  C   UNL     1      -5.631   2.536 -33.363  1.00  0.00     0.153 C 
BRANCH  12  13
HETATM   13  C   UNL     1      -6.198   1.278 -33.884  1.00  0.00     0.019 A 
HETATM   14  C   UNL     1      -5.546   0.066 -33.653  1.00  0.00     0.110 A 
HETATM   15  C   UNL     1      -6.041  -1.131 -34.190  1.00  0.00     0.102 A 
HETATM   16  C   UNL     1      -7.215  -1.108 -34.946  1.00  0.00     0.040 A 
HETATM   17  C   UNL     1      -7.877   0.103 -35.171  1.00  0.00     0.004 A 
HETATM   18  C   UNL     1      -7.370   1.294 -34.646  1.00  0.00     0.016 A 
BRANCH  14  19
HETATM   19  O   UNL     1      -4.394   0.026 -32.906  1.00  0.00    -0.357 OA
HETATM   20  H   UNL     1      -4.683  -0.239 -32.009  1.00  0.00     0.218 HD
ENDBRANCH  14  19
BRANCH  15  21
HETATM   21  O   UNL     1      -5.291  -2.244 -33.902  1.00  0.00    -0.349 OA
BRANCH  21  22
HETATM   22  C   UNL     1      -5.022  -3.133 -34.989  1.00  0.00     0.171 C 
HETATM   23  C   UNL     1      -5.844  -4.391 -34.774  1.00  0.00     0.034 C 
ENDBRANCH  21  22
ENDBRANCH  15  21
ENDBRANCH  12  13
ENDBRANCH   8  11
ENDBRANCH   1   7
BRANCH   5  24
HETATM   24  C   UNL     1      -1.930   8.425 -30.724  1.00  0.00     0.005 A 
HETATM   25  C   UNL     1      -1.002   7.858 -29.799  1.00  0.00    -0.012 A 
HETATM   26  C   UNL     1      -0.740   8.606 -28.675  1.00  0.00    -0.012 A 
HETATM   27  C   UNL     1      -0.297   6.627 -29.867  1.00  0.00     0.013 A 
HETATM   28  C   UNL     1       0.118   8.222 -27.660  1.00  0.00    -0.046 A 
HETATM   29  C   UNL     1      -1.303   9.840 -28.409  1.00  0.00    -0.046 A 
HETATM   30  C   UNL     1       0.803   7.018 -27.709  1.00  0.00     0.008 A 
HETATM   31  C   UNL     1       0.158   9.258 -26.592  1.00  0.00     0.044 A 
HETATM   32  C   UNL     1       0.581   6.223 -28.841  1.00  0.00     0.001 A 
HETATM   33  C   UNL     1      -0.807  10.369 -27.109  1.00  0.00     0.044 A 
HETATM   34  C   UNL     1      -2.202  10.426 -29.285  1.00  0.00     0.009 A 
HETATM   35  C   UNL     1      -2.506   9.695 -30.444  1.00  0.00     0.015 A 
ENDBRANCH   5  24
TORSDOF 7
ENDMDL
MODEL 3
REMARK VINA RESULT:      -9.4      1.622      3.198
REMARK  7 active torsions:
REMARK  status: ('A' for Active; 'I' for Inactive)
REMARK    1  A    between atoms: C_2  and  O_3 
REMARK    2  A    between atoms: O_3  and  C_4 
REMARK    3  A    between atoms: C_5  and  O_6 
REMARK    4  A    between atoms: C_7  and  C_8 
REMARK    5  A    between atoms: N_9  and  N_10 
REMARK       I    between atoms: N_10  and  C_11 
REMARK    6  A    between atoms: C_11  and  C_12 
REMARK    7  A    between atoms: C_16  and  C_17 
ROOT
HETATM    1  C   UNL     1      -3.930   2.721 -31.898  1.00  0.00     0.121 A 
HETATM    2  N   UNL     1      -5.245   2.683 -31.527  1.00  0.00    -0.272 N 
HETATM    3  H   UNL     1      -5.724   3.350 -30.928  1.00  0.00     0.189 HD
HETATM    4  N   UNL     1      -5.918   1.621 -31.989  1.00  0.00    -0.174 NA
HETATM    5  C   UNL     1      -5.024   0.942 -32.724  1.00  0.00     0.090 A 
HETATM    6  C   UNL     1      -3.766   1.616 -32.709  1.00  0.00     0.071 A 
ENDROOT
BRANCH   1   7
HETATM    7  C   UNL     1      -3.050   3.756 -31.415  1.00  0.00     0.289 C 
HETATM    8  N   UNL     1      -3.693   4.827 -30.814  1.00  0.00    -0.242 N 
HETATM    9  H   UNL     1      -4.702   4.843 -30.744  1.00  0.00     0.192 HD
HETATM   10  O   UNL     1      -1.835   3.678 -31.576  1.00  0.00    -0.264 OA
BRANCH   8  11
HETATM   11  N   UNL     1      -2.995   5.959 -30.504  1.00  0.00    -0.183 NA
HETATM   12  C   UNL     1      -3.577   6.760 -29.669  1.00  0.00     0.153 C 
BRANCH  12  13
HETATM   13  C   UNL     1      -2.981   8.057 -29.296  1.00  0.00     0.019 A 
HETATM   14  C   UNL     1      -2.021   8.122 -28.285  1.00  0.00     0.110 A 
HETATM   15  C   UNL     1      -1.487   9.353 -27.879  1.00  0.00     0.102 A 
HETATM   16  C   UNL     1      -1.907  10.524 -28.514  1.00  0.00     0.040 A 
HETATM   17  C   UNL     1      -2.861  10.462 -29.535  1.00  0.00     0.004 A 
HETATM   18  C   UNL     1      -3.400   9.234 -29.924  1.00  0.00     0.016 A 
BRANCH  14  19
HETATM   19  O   UNL     1      -1.594   6.979 -27.656  1.00  0.00    -0.357 OA
HETATM   20  H   UNL     1      -1.457   6.330 -28.375  1.00  0.00     0.218 HD
ENDBRANCH  14  19
BRANCH  15  21
HETATM   21  O   UNL     1      -0.568   9.275 -26.862  1.00  0.00    -0.349 OA
BRANCH  21  22
HETATM   22  C   UNL     1       0.739   9.782 -27.140  1.00  0.00     0.171 C 
HETATM   23  C   UNL     1       1.600   8.619 -27.601  1.00  0.00     0.034 C 
ENDBRANCH  21  22
ENDBRANCH  15  21
ENDBRANCH  12  13
ENDBRANCH   8  11
ENDBRANCH   1   7
BRANCH   5  24
HETATM   24  C   UNL     1      -5.340  -0.339 -33.371  1.00  0.00     0.005 A 
HETATM   25  C   UNL     1      -4.627  -1.543 -33.088  1.00  0.00    -0.012 A 
HETATM   26  C   UNL     1      -5.020  -2.655 -33.795  1.00  0.00    -0.012 A 
HETATM   27  C   UNL     1      -3.566  -1.770 -32.172  1.00  0.00     0.013 A 
HETATM   28  C   UNL     1      -4.446  -3.907 -33.671  1.00  0.00    -0.046 A 
HETATM   29  C   UNL     1      -6.040  -2.667 -34.728  1.00  0.00    -0.046 A 
HETATM   30  C   UNL     1      -3.401  -4.139 -32.789  1.00  0.00     0.008 A 
HETATM   31  C   UNL     1      -5.102  -4.875 -34.590  1.00  0.00     0.044 A 
HETATM   32  C   UNL     1      -2.970  -3.041 -32.034  1.00  0.00     0.001 A 
HETATM   33  C   UNL     1      -6.199  -4.030 -35.307  1.00  0.00     0.044 A 
HETATM   34  C   UNL     1      -6.759  -1.522 -35.025  1.00  0.00     0.009 A 
HETATM   35  C   UNL     1      -6.388  -0.358 -34.332  1.00  0.00     0.015 A 
ENDBRANCH   5  24
TORSDOF 7
ENDMDL
MODEL 4
REMARK VINA RESULT:      -9.2      2.645     11.631
REMARK  7 active torsions:
REMARK  status: ('A' for Active; 'I' for Inactive)
REMARK    1  A    between atoms: C_2  and  O_3 
REMARK    2  A    between atoms: O_3  and  C_4 
REMARK    3  A    between atoms: C_5  and  O_6 
REMARK    4  A    between atoms: C_7  and  C_8 
REMARK    5  A    between atoms: N_9  and  N_10 
REMARK       I    between atoms: N_10  and  C_11 
REMARK    6  A    between atoms: C_11  and  C_12 
REMARK    7  A    between atoms: C_16  and  C_17 
ROOT
HETATM    1  C   UNL     1      -0.894   5.312 -30.467  1.00  0.00     0.121 A 
HETATM    2  N   UNL     1       0.162   4.710 -29.841  1.00  0.00    -0.272 N 
HETATM    3  H   UNL     1       0.544   3.792 -30.047  1.00  0.00     0.189 HD
HETATM    4  N   UNL     1       0.684   5.424 -28.834  1.00  0.00    -0.174 NA
HETATM    5  C   UNL     1      -0.030   6.558 -28.811  1.00  0.00     0.090 A 
HETATM    6  C   UNL     1      -1.019   6.535 -29.839  1.00  0.00     0.071 A 
ENDROOT
BRANCH   1   7
HETATM    7  C   UNL     1      -1.618   4.638 -31.516  1.00  0.00     0.289 C 
HETATM    8  N   UNL     1      -2.586   3.750 -31.073  1.00  0.00    -0.242 N 
HETATM    9  H   UNL     1      -2.736   3.611 -30.082  1.00  0.00     0.192 HD
HETATM   10  O   UNL     1      -1.346   4.834 -32.698  1.00  0.00    -0.264 OA
BRANCH   8  11
HETATM   11  N   UNL     1      -3.192   2.903 -31.955  1.00  0.00    -0.183 NA
HETATM   12  C   UNL     1      -3.765   1.867 -31.427  1.00  0.00     0.153 C 
BRANCH  12  13
HETATM   13  C   UNL     1      -4.397   0.824 -32.257  1.00  0.00     0.019 A 
HETATM   14  C   UNL     1      -3.897  -0.478 -32.246  1.00  0.00     0.110 A 
HETATM   15  C   UNL     1      -4.449  -1.468 -33.072  1.00  0.00     0.102 A 
HETATM   16  C   UNL     1      -5.529  -1.145 -33.897  1.00  0.00     0.040 A 
HETATM   17  C   UNL     1      -6.040   0.156 -33.903  1.00  0.00     0.004 A 
HETATM   18  C   UNL     1      -5.475   1.141 -33.089  1.00  0.00     0.016 A 
BRANCH  14  19
HETATM   19  O   UNL     1      -2.840  -0.812 -31.436  1.00  0.00    -0.357 OA
HETATM   20  H   UNL     1      -3.237  -0.978 -30.557  1.00  0.00     0.218 HD
ENDBRANCH  14  19
BRANCH  15  21
HETATM   21  O   UNL     1      -3.849  -2.698 -32.977  1.00  0.00    -0.349 OA
BRANCH  21  22
HETATM   22  C   UNL     1      -4.108  -3.620 -34.038  1.00  0.00     0.171 C 
HETATM   23  C   UNL     1      -3.476  -4.949 -33.664  1.00  0.00     0.034 C 
ENDBRANCH  21  22
ENDBRANCH  15  21
ENDBRANCH  12  13
ENDBRANCH   8  11
ENDBRANCH   1   7
BRANCH   5  24
HETATM   24  C   UNL     1       0.181   7.608 -27.804  1.00  0.00     0.005 A 
HETATM   25  C   UNL     1      -0.737   7.851 -26.738  1.00  0.00    -0.012 A 
HETATM   26  C   UNL     1      -0.415   8.887 -25.892  1.00  0.00    -0.012 A 
HETATM   27  C   UNL     1      -1.941   7.174 -26.411  1.00  0.00     0.013 A 
HETATM   28  C   UNL     1      -1.182   9.283 -24.811  1.00  0.00    -0.046 A 
HETATM   29  C   UNL     1       0.717   9.671 -26.012  1.00  0.00    -0.046 A 
HETATM   30  C   UNL     1      -2.366   8.638 -24.489  1.00  0.00     0.008 A 
HETATM   31  C   UNL     1      -0.550  10.440 -24.121  1.00  0.00     0.044 A 
HETATM   32  C   UNL     1      -2.733   7.567 -25.313  1.00  0.00     0.001 A 
HETATM   33  C   UNL     1       0.753  10.700 -24.937  1.00  0.00     0.044 A 
HETATM   34  C   UNL     1       1.634   9.462 -27.028  1.00  0.00     0.009 A 
HETATM   35  C   UNL     1       1.344   8.419 -27.923  1.00  0.00     0.015 A 
ENDBRANCH   5  24
TORSDOF 7
ENDMDL
MODEL 5
REMARK VINA RESULT:      -9.1      1.149      2.230
REMARK  7 active torsions:
REMARK  status: ('A' for Active; 'I' for Inactive)
REMARK    1  A    between atoms: C_2  and  O_3 
REMARK    2  A    between atoms: O_3  and  C_4 
REMARK    3  A    between atoms: C_5  and  O_6 
REMARK    4  A    between atoms: C_7  and  C_8 
REMARK    5  A    between atoms: N_9  and  N_10 
REMARK       I    between atoms: N_10  and  C_11 
REMARK    6  A    between atoms: C_11  and  C_12 
REMARK    7  A    between atoms: C_16  and  C_17 
ROOT
HETATM    1  C   UNL     1      -3.748   4.647 -31.251  1.00  0.00     0.121 A 
HETATM    2  N   UNL     1      -4.725   4.247 -30.383  1.00  0.00    -0.272 N 
HETATM    3  H   UNL     1      -4.943   4.665 -29.483  1.00  0.00     0.189 HD
HETATM    4  N   UNL     1      -5.410   3.167 -30.784  1.00  0.00    -0.174 NA
HETATM    5  C   UNL     1      -4.890   2.856 -31.980  1.00  0.00     0.090 A 
HETATM    6  C   UNL     1      -3.856   3.778 -32.319  1.00  0.00     0.071 A 
ENDROOT
BRANCH   1   7
HETATM    7  C   UNL     1      -2.869   5.743 -30.927  1.00  0.00     0.289 C 
HETATM    8  N   UNL     1      -1.658   5.367 -30.367  1.00  0.00    -0.242 N 
HETATM    9  H   UNL     1      -1.449   4.390 -30.210  1.00  0.00     0.192 HD
HETATM   10  O   UNL     1      -3.215   6.907 -31.114  1.00  0.00    -0.264 OA
BRANCH   8  11
HETATM   11  N   UNL     1      -0.831   6.310 -29.829  1.00  0.00    -0.183 NA
HETATM   12  C   UNL     1      -0.859   6.402 -28.537  1.00  0.00     0.153 C 
BRANCH  12  13
HETATM   13  C   UNL     1      -0.077   7.425 -27.816  1.00  0.00     0.019 A 
HETATM   14  C   UNL     1      -0.490   7.866 -26.558  1.00  0.00     0.110 A 
HETATM   15  C   UNL     1       0.209   8.879 -25.885  1.00  0.00     0.102 A 
HETATM   16  C   UNL     1       1.346   9.432 -26.476  1.00  0.00     0.040 A 
HETATM   17  C   UNL     1       1.770   8.986 -27.732  1.00  0.00     0.004 A 
HETATM   18  C   UNL     1       1.060   7.988 -28.403  1.00  0.00     0.016 A 
BRANCH  14  19
HETATM   19  O   UNL     1      -1.603   7.327 -25.962  1.00  0.00    -0.357 OA
HETATM   20  H   UNL     1      -1.331   7.140 -25.040  1.00  0.00     0.218 HD
ENDBRANCH  14  19
BRANCH  15  21
HETATM   21  O   UNL     1      -0.318   9.230 -24.668  1.00  0.00    -0.349 OA
BRANCH  21  22
HETATM   22  C   UNL     1      -0.015  10.545 -24.196  1.00  0.00     0.171 C 
HETATM   23  C   UNL     1       0.097  10.481 -22.683  1.00  0.00     0.034 C 
ENDBRANCH  21  22
ENDBRANCH  15  21
ENDBRANCH  12  13
ENDBRANCH   8  11
ENDBRANCH   1   7
BRANCH   5  24
HETATM   24  C   UNL     1      -5.323   1.682 -32.751  1.00  0.00     0.005 A 
HETATM   25  C   UNL     1      -4.691   0.407 -32.636  1.00  0.00    -0.012 A 
HETATM   26  C   UNL     1      -5.191  -0.587 -33.444  1.00  0.00    -0.012 A 
HETATM   27  C   UNL     1      -3.617   0.004 -31.800  1.00  0.00     0.013 A 
HETATM   28  C   UNL     1      -4.706  -1.882 -33.485  1.00  0.00    -0.046 A 
HETATM   29  C   UNL     1      -6.243  -0.422 -34.325  1.00  0.00    -0.046 A 
HETATM   30  C   UNL     1      -3.649  -2.285 -32.683  1.00  0.00     0.008 A 
HETATM   31  C   UNL     1      -5.465  -2.691 -34.477  1.00  0.00     0.044 A 
HETATM   32  C   UNL     1      -3.112  -1.312 -31.830  1.00  0.00     0.001 A 
HETATM   33  C   UNL     1      -6.523  -1.696 -35.045  1.00  0.00     0.044 A 
HETATM   34  C   UNL     1      -6.886   0.796 -34.461  1.00  0.00     0.009 A 
HETATM   35  C   UNL     1      -6.405   1.845 -33.661  1.00  0.00     0.015 A 
ENDBRANCH   5  24
TORSDOF 7
ENDMDL
MODEL 6
REMARK VINA RESULT:      -8.3      2.503     11.223
REMARK  7 active torsions:
REMARK  status: ('A' for Active; 'I' for Inactive)
REMARK    1  A    between atoms: C_2  and  O_3 
REMARK    2  A    between atoms: O_3  and  C_4 
REMARK    3  A    between atoms: C_5  and  O_6 
REMARK    4  A    between atoms: C_7  and  C_8 
REMARK    5  A    between atoms: N_9  and  N_10 
REMARK       I    between atoms: N_10  and  C_11 
REMARK    6  A    between atoms: C_11  and  C_12 
REMARK    7  A    between atoms: C_16  and  C_17 
ROOT
HETATM    1  C   UNL     1      -1.716   5.303 -30.643  1.00  0.00     0.121 A 
HETATM    2  N   UNL     1      -0.509   4.725 -30.365  1.00  0.00    -0.272 N 
HETATM    3  H   UNL     1      -0.157   3.849 -30.741  1.00  0.00     0.189 HD
HETATM    4  N   UNL     1       0.230   5.395 -29.471  1.00  0.00    -0.174 NA
HETATM    5  C   UNL     1      -0.498   6.479 -29.167  1.00  0.00     0.090 A 
HETATM    6  C   UNL     1      -1.721   6.468 -29.902  1.00  0.00     0.071 A 
ENDROOT
BRANCH   1   7
HETATM    7  C   UNL     1      -2.662   4.664 -31.523  1.00  0.00     0.289 C 
HETATM    8  N   UNL     1      -3.876   4.346 -30.935  1.00  0.00    -0.242 N 
HETATM    9  H   UNL     1      -4.042   4.559 -29.960  1.00  0.00     0.192 HD
HETATM   10  O   UNL     1      -2.366   4.403 -32.687  1.00  0.00    -0.264 OA
BRANCH   8  11
HETATM   11  N   UNL     1      -4.772   3.558 -31.597  1.00  0.00    -0.183 NA
HETATM   12  C   UNL     1      -4.714   2.294 -31.318  1.00  0.00     0.153 C 
BRANCH  12  13
HETATM   13  C   UNL     1      -5.567   1.308 -32.008  1.00  0.00     0.019 A 
HETATM   14  C   UNL     1      -6.932   1.243 -31.725  1.00  0.00     0.110 A 
HETATM   15  C   UNL     1      -7.746   0.274 -32.330  1.00  0.00     0.102 A 
HETATM   16  C   UNL     1      -7.183  -0.619 -33.243  1.00  0.00     0.040 A 
HETATM   17  C   UNL     1      -5.817  -0.551 -33.537  1.00  0.00     0.004 A 
HETATM   18  C   UNL     1      -5.009   0.407 -32.920  1.00  0.00     0.016 A 
BRANCH  14  19
HETATM   19  O   UNL     1      -7.502   2.118 -30.834  1.00  0.00    -0.357 OA
HETATM   20  H   UNL     1      -8.156   2.623 -31.359  1.00  0.00     0.218 HD
ENDBRANCH  14  19
BRANCH  15  21
HETATM   21  O   UNL     1      -9.063   0.310 -31.947  1.00  0.00    -0.349 OA
BRANCH  21  22
HETATM   22  C   UNL     1     -10.035   0.194 -32.988  1.00  0.00     0.171 C 
HETATM   23  C   UNL     1     -10.306   1.587 -33.528  1.00  0.00     0.034 C 
ENDBRANCH  21  22
ENDBRANCH  15  21
ENDBRANCH  12  13
ENDBRANCH   8  11
ENDBRANCH   1   7
BRANCH   5  24
HETATM   24  C   UNL     1      -0.073   7.464 -28.163  1.00  0.00     0.005 A 
HETATM   25  C   UNL     1      -0.863   7.792 -27.020  1.00  0.00    -0.012 A 
HETATM   26  C   UNL     1      -0.343   8.755 -26.186  1.00  0.00    -0.012 A 
HETATM   27  C   UNL     1      -2.114   7.265 -26.605  1.00  0.00     0.013 A 
HETATM   28  C   UNL     1      -0.962   9.215 -25.038  1.00  0.00    -0.046 A 
HETATM   29  C   UNL     1       0.867   9.392 -26.387  1.00  0.00    -0.046 A 
HETATM   30  C   UNL     1      -2.191   8.717 -24.630  1.00  0.00     0.008 A 
HETATM   31  C   UNL     1      -0.134  10.263 -24.383  1.00  0.00     0.044 A 
HETATM   32  C   UNL     1      -2.758   7.725 -25.438  1.00  0.00     0.001 A 
HETATM   33  C   UNL     1       1.123  10.378 -25.301  1.00  0.00     0.044 A 
HETATM   34  C   UNL     1       1.664   9.097 -27.480  1.00  0.00     0.009 A 
HETATM   35  C   UNL     1       1.171   8.125 -28.364  1.00  0.00     0.015 A 
ENDBRANCH   5  24
TORSDOF 7
ENDMDL
MODEL 7
REMARK VINA RESULT:      -8.3      2.717     11.580
REMARK  7 active torsions:
REMARK  status: ('A' for Active; 'I' for Inactive)
REMARK    1  A    between atoms: C_2  and  O_3 
REMARK    2  A    between atoms: O_3  and  C_4 
REMARK    3  A    between atoms: C_5  and  O_6 
REMARK    4  A    between atoms: C_7  and  C_8 
REMARK    5  A    between atoms: N_9  and  N_10 
REMARK       I    between atoms: N_10  and  C_11 
REMARK    6  A    between atoms: C_11  and  C_12 
REMARK    7  A    between atoms: C_16  and  C_17 
ROOT
HETATM    1  C   UNL     1      -2.724   5.956 -32.204  1.00  0.00     0.121 A 
HETATM    2  N   UNL     1      -2.535   7.221 -32.686  1.00  0.00    -0.272 N 
HETATM    3  H   UNL     1      -2.813   7.569 -33.599  1.00  0.00     0.189 HD
HETATM    4  N   UNL     1      -1.876   8.036 -31.850  1.00  0.00    -0.174 NA
HETATM    5  C   UNL     1      -1.646   7.294 -30.758  1.00  0.00     0.090 A 
HETATM    6  C   UNL     1      -2.185   5.984 -30.933  1.00  0.00     0.071 A 
ENDROOT
BRANCH   1   7
HETATM    7  C   UNL     1      -3.344   4.937 -33.014  1.00  0.00     0.289 C 
HETATM    8  N   UNL     1      -3.652   3.767 -32.336  1.00  0.00    -0.242 N 
HETATM    9  H   UNL     1      -3.438   3.676 -31.351  1.00  0.00     0.192 HD
HETATM   10  O   UNL     1      -3.534   5.112 -34.215  1.00  0.00    -0.264 OA
BRANCH   8  11
HETATM   11  N   UNL     1      -4.048   2.659 -33.028  1.00  0.00    -0.183 NA
HETATM   12  C   UNL     1      -5.304   2.358 -32.922  1.00  0.00     0.153 C 
BRANCH  12  13
HETATM   13  C   UNL     1      -5.865   1.147 -33.551  1.00  0.00     0.019 A 
HETATM   14  C   UNL     1      -5.228  -0.084 -33.392  1.00  0.00     0.110 A 
HETATM   15  C   UNL     1      -5.716  -1.234 -34.030  1.00  0.00     0.102 A 
HETATM   16  C   UNL     1      -6.868  -1.144 -34.814  1.00  0.00     0.040 A 
HETATM   17  C   UNL     1      -7.515   0.086 -34.967  1.00  0.00     0.004 A 
HETATM   18  C   UNL     1      -7.016   1.230 -34.341  1.00  0.00     0.016 A 
BRANCH  14  19
HETATM   19  O   UNL     1      -4.098  -0.190 -32.620  1.00  0.00    -0.357 OA
HETATM   20  H   UNL     1      -4.407  -0.060 -31.700  1.00  0.00     0.218 HD
ENDBRANCH  14  19
BRANCH  15  21
HETATM   21  O   UNL     1      -4.982  -2.372 -33.805  1.00  0.00    -0.349 OA
BRANCH  21  22
HETATM   22  C   UNL     1      -5.150  -3.437 -34.743  1.00  0.00     0.171 C 
HETATM   23  C   UNL     1      -4.488  -4.674 -34.165  1.00  0.00     0.034 C 
ENDBRANCH  21  22
ENDBRANCH  15  21
ENDBRANCH  12  13
ENDBRANCH   8  11
ENDBRANCH   1   7
BRANCH   5  24
HETATM   24  C   UNL     1      -0.885   7.795 -29.605  1.00  0.00     0.005 A 
HETATM   25  C   UNL     1      -1.242   8.987 -28.904  1.00  0.00    -0.012 A 
HETATM   26  C   UNL     1      -0.416   9.343 -27.863  1.00  0.00    -0.012 A 
HETATM   27  C   UNL     1      -2.335   9.867 -29.117  1.00  0.00     0.013 A 
HETATM   28  C   UNL     1      -0.587  10.466 -27.075  1.00  0.00    -0.046 A 
HETATM   29  C   UNL     1       0.698   8.625 -27.470  1.00  0.00    -0.046 A 
HETATM   30  C   UNL     1      -1.644  11.340 -27.281  1.00  0.00     0.008 A 
HETATM   31  C   UNL     1       0.491  10.555 -26.053  1.00  0.00     0.044 A 
HETATM   32  C   UNL     1      -2.523  11.016 -28.322  1.00  0.00     0.001 A 
HETATM   33  C   UNL     1       1.365   9.291 -26.317  1.00  0.00     0.044 A 
HETATM   34  C   UNL     1       1.073   7.461 -28.120  1.00  0.00     0.009 A 
HETATM   35  C   UNL     1       0.263   7.062 -29.195  1.00  0.00     0.015 A 
ENDBRANCH   5  24
TORSDOF 7
ENDMDL
MODEL 8
REMARK VINA RESULT:      -8.3      4.082      5.494
REMARK  7 active torsions:
REMARK  status: ('A' for Active; 'I' for Inactive)
REMARK    1  A    between atoms: C_2  and  O_3 
REMARK    2  A    between atoms: O_3  and  C_4 
REMARK    3  A    between atoms: C_5  and  O_6 
REMARK    4  A    between atoms: C_7  and  C_8 
REMARK    5  A    between atoms: N_9  and  N_10 
REMARK       I    between atoms: N_10  and  C_11 
REMARK    6  A    between atoms: C_11  and  C_12 
REMARK    7  A    between atoms: C_16  and  C_17 
ROOT
HETATM    1  C   UNL     1      -4.450   2.655 -31.509  1.00  0.00     0.121 A 
HETATM    2  N   UNL     1      -3.282   1.944 -31.499  1.00  0.00    -0.272 N 
HETATM    3  H   UNL     1      -2.388   2.254 -31.130  1.00  0.00     0.189 HD
HETATM    4  N   UNL     1      -3.365   0.741 -32.085  1.00  0.00    -0.174 NA
HETATM    5  C   UNL     1      -4.645   0.634 -32.469  1.00  0.00     0.090 A 
HETATM    6  C   UNL     1      -5.366   1.810 -32.103  1.00  0.00     0.071 A 
ENDROOT
BRANCH   1   7
HETATM    7  C   UNL     1      -4.507   3.999 -30.991  1.00  0.00     0.289 C 
HETATM    8  N   UNL     1      -4.959   4.097 -29.684  1.00  0.00    -0.242 N 
HETATM    9  H   UNL     1      -5.223   3.266 -29.171  1.00  0.00     0.192 HD
HETATM   10  O   UNL     1      -4.205   4.961 -31.694  1.00  0.00    -0.264 OA
BRANCH   8  11
HETATM   11  N   UNL     1      -5.253   5.319 -29.151  1.00  0.00    -0.183 NA
HETATM   12  C   UNL     1      -6.507   5.528 -28.900  1.00  0.00     0.153 C 
BRANCH  12  13
HETATM   13  C   UNL     1      -6.989   6.828 -28.393  1.00  0.00     0.019 A 
HETATM   14  C   UNL     1      -8.358   7.078 -28.297  1.00  0.00     0.110 A 
HETATM   15  C   UNL     1      -8.833   8.327 -27.872  1.00  0.00     0.102 A 
HETATM   16  C   UNL     1      -7.919   9.322 -27.519  1.00  0.00     0.040 A 
HETATM   17  C   UNL     1      -6.546   9.071 -27.604  1.00  0.00     0.004 A 
HETATM   18  C   UNL     1      -6.080   7.830 -28.042  1.00  0.00     0.016 A 
BRANCH  14  19
HETATM   19  O   UNL     1      -9.270   6.108 -28.635  1.00  0.00    -0.357 OA
HETATM   20  H   UNL     1      -8.980   5.782 -29.512  1.00  0.00     0.218 HD
ENDBRANCH  14  19
BRANCH  15  21
HETATM   21  O   UNL     1     -10.200   8.444 -27.844  1.00  0.00    -0.349 OA
BRANCH  21  22
HETATM   22  C   UNL     1     -10.767   9.041 -26.676  1.00  0.00     0.171 C 
HETATM   23  C   UNL     1     -10.965   7.946 -25.643  1.00  0.00     0.034 C 
ENDBRANCH  21  22
ENDBRANCH  15  21
ENDBRANCH  12  13
ENDBRANCH   8  11
ENDBRANCH   1   7
BRANCH   5  24
HETATM   24  C   UNL     1      -5.155  -0.526 -33.214  1.00  0.00     0.005 A 
HETATM   25  C   UNL     1      -4.575  -1.826 -33.108  1.00  0.00    -0.012 A 
HETATM   26  C   UNL     1      -5.145  -2.804 -33.889  1.00  0.00    -0.012 A 
HETATM   27  C   UNL     1      -3.491  -2.269 -32.306  1.00  0.00     0.013 A 
HETATM   28  C   UNL     1      -4.719  -4.119 -33.935  1.00  0.00    -0.046 A 
HETATM   29  C   UNL     1      -6.219  -2.600 -34.735  1.00  0.00    -0.046 A 
HETATM   30  C   UNL     1      -3.653  -4.561 -33.166  1.00  0.00     0.008 A 
HETATM   31  C   UNL     1      -5.547  -4.902 -34.892  1.00  0.00     0.044 A 
HETATM   32  C   UNL     1      -3.045  -3.606 -32.342  1.00  0.00     0.001 A 
HETATM   33  C   UNL     1      -6.579  -3.866 -35.433  1.00  0.00     0.044 A 
HETATM   34  C   UNL     1      -6.813  -1.356 -34.860  1.00  0.00     0.009 A 
HETATM   35  C   UNL     1      -6.260  -0.323 -34.087  1.00  0.00     0.015 A 
ENDBRANCH   5  24
TORSDOF 7
ENDMDL
MODEL 9
REMARK VINA RESULT:      -8.2      3.416      4.964
REMARK  7 active torsions:
REMARK  status: ('A' for Active; 'I' for Inactive)
REMARK    1  A    between atoms: C_2  and  O_3 
REMARK    2  A    between atoms: O_3  and  C_4 
REMARK    3  A    between atoms: C_5  and  O_6 
REMARK    4  A    between atoms: C_7  and  C_8 
REMARK    5  A    between atoms: N_9  and  N_10 
REMARK       I    between atoms: N_10  and  C_11 
REMARK    6  A    between atoms: C_11  and  C_12 
REMARK    7  A    between atoms: C_16  and  C_17 
ROOT
HETATM    1  C   UNL     1      -6.364   4.003 -33.109  1.00  0.00     0.121 A 
HETATM    2  N   UNL     1      -5.982   3.050 -34.012  1.00  0.00    -0.272 N 
HETATM    3  H   UNL     1      -5.088   2.995 -34.492  1.00  0.00     0.189 HD
HETATM    4  N   UNL     1      -6.929   2.144 -34.290  1.00  0.00    -0.174 NA
HETATM    5  C   UNL     1      -7.970   2.487 -33.518  1.00  0.00     0.090 A 
HETATM    6  C   UNL     1      -7.645   3.640 -32.743  1.00  0.00     0.071 A 
ENDROOT
BRANCH   1   7
HETATM    7  C   UNL     1      -5.488   5.095 -32.765  1.00  0.00     0.289 C 
HETATM    8  N   UNL     1      -4.163   4.735 -32.571  1.00  0.00    -0.242 N 
HETATM    9  H   UNL     1      -3.877   3.770 -32.670  1.00  0.00     0.192 HD
HETATM   10  O   UNL     1      -5.924   6.235 -32.627  1.00  0.00    -0.264 OA
BRANCH   8  11
HETATM   11  N   UNL     1      -3.280   5.632 -32.044  1.00  0.00    -0.183 NA
HETATM   12  C   UNL     1      -2.347   5.123 -31.303  1.00  0.00     0.153 C 
BRANCH  12  13
HETATM   13  C   UNL     1      -1.364   5.973 -30.603  1.00  0.00     0.019 A 
HETATM   14  C   UNL     1      -1.756   6.739 -29.505  1.00  0.00     0.110 A 
HETATM   15  C   UNL     1      -0.849   7.595 -28.864  1.00  0.00     0.102 A 
HETATM   16  C   UNL     1       0.469   7.660 -29.321  1.00  0.00     0.040 A 
HETATM   17  C   UNL     1       0.869   6.886 -30.415  1.00  0.00     0.004 A 
HETATM   18  C   UNL     1      -0.044   6.047 -31.058  1.00  0.00     0.016 A 
BRANCH  14  19
HETATM   19  O   UNL     1      -3.047   6.681 -29.040  1.00  0.00    -0.357 OA
HETATM   20  H   UNL     1      -3.111   7.401 -28.380  1.00  0.00     0.218 HD
ENDBRANCH  14  19
BRANCH  15  21
HETATM   21  O   UNL     1      -1.372   8.304 -27.812  1.00  0.00    -0.349 OA
BRANCH  21  22
HETATM   22  C   UNL     1      -1.068   9.700 -27.768  1.00  0.00     0.171 C 
HETATM   23  C   UNL     1      -1.991  10.407 -28.743  1.00  0.00     0.034 C 
ENDBRANCH  21  22
ENDBRANCH  15  21
ENDBRANCH  12  13
ENDBRANCH   8  11
ENDBRANCH   1   7
BRANCH   5  24
HETATM   24  C   UNL     1      -9.256   1.777 -33.560  1.00  0.00     0.005 A 
HETATM   25  C   UNL     1     -10.405   2.299 -34.229  1.00  0.00    -0.012 A 
HETATM   26  C   UNL     1     -11.543   1.531 -34.155  1.00  0.00    -0.012 A 
HETATM   27  C   UNL     1     -10.549   3.500 -34.972  1.00  0.00     0.013 A 
HETATM   28  C   UNL     1     -12.756   1.871 -34.727  1.00  0.00    -0.046 A 
HETATM   29  C   UNL     1     -11.627   0.319 -33.497  1.00  0.00    -0.046 A 
HETATM   30  C   UNL     1     -12.913   3.048 -35.444  1.00  0.00     0.008 A 
HETATM   31  C   UNL     1     -13.777   0.826 -34.444  1.00  0.00     0.044 A 
HETATM   32  C   UNL     1     -11.778   3.860 -35.560  1.00  0.00     0.001 A 
HETATM   33  C   UNL     1     -13.002  -0.241 -33.610  1.00  0.00     0.044 A 
HETATM   34  C   UNL     1     -10.534  -0.223 -32.842  1.00  0.00     0.009 A 
HETATM   35  C   UNL     1      -9.349   0.529 -32.884  1.00  0.00     0.015 A 
ENDBRANCH   5  24
TORSDOF 7
ENDMDL
MODEL 10
REMARK VINA RESULT:      -8.2      5.466      8.262
REMARK  7 active torsions:
REMARK  status: ('A' for Active; 'I' for Inactive)
REMARK    1  A    between atoms: C_2  and  O_3 
REMARK    2  A    between atoms: O_3  and  C_4 
REMARK    3  A    between atoms: C_5  and  O_6 
REMARK    4  A    between atoms: C_7  and  C_8 
REMARK    5  A    between atoms: N_9  and  N_10 
REMARK       I    between atoms: N_10  and  C_11 
REMARK    6  A    between atoms: C_11  and  C_12 
REMARK    7  A    between atoms: C_16  and  C_17 
ROOT
HETATM    1  C   UNL     1      -8.618   1.526 -33.386  1.00  0.00     0.121 A 
HETATM    2  N   UNL     1      -9.039   1.211 -34.648  1.00  0.00    -0.272 N 
HETATM    3  H   UNL     1      -8.449   1.003 -35.448  1.00  0.00     0.189 HD
HETATM    4  N   UNL     1     -10.370   1.234 -34.807  1.00  0.00    -0.174 NA
HETATM    5  C   UNL     1     -10.854   1.543 -33.596  1.00  0.00     0.090 A 
HETATM    6  C   UNL     1      -9.783   1.713 -32.668  1.00  0.00     0.071 A 
ENDROOT
BRANCH   1   7
HETATM    7  C   UNL     1      -7.214   1.626 -33.073  1.00  0.00     0.289 C 
HETATM    8  N   UNL     1      -6.748   2.922 -32.915  1.00  0.00    -0.242 N 
HETATM    9  H   UNL     1      -7.376   3.708 -33.024  1.00  0.00     0.192 HD
HETATM   10  O   UNL     1      -6.511   0.622 -32.998  1.00  0.00    -0.264 OA
BRANCH   8  11
HETATM   11  N   UNL     1      -5.407   3.160 -32.824  1.00  0.00    -0.183 NA
HETATM   12  C   UNL     1      -5.023   4.335 -33.213  1.00  0.00     0.153 C 
BRANCH  12  13
HETATM   13  C   UNL     1      -3.597   4.713 -33.244  1.00  0.00     0.019 A 
HETATM   14  C   UNL     1      -2.773   4.429 -32.154  1.00  0.00     0.110 A 
HETATM   15  C   UNL     1      -1.430   4.833 -32.143  1.00  0.00     0.102 A 
HETATM   16  C   UNL     1      -0.911   5.507 -33.250  1.00  0.00     0.040 A 
HETATM   17  C   UNL     1      -1.730   5.785 -34.348  1.00  0.00     0.004 A 
HETATM   18  C   UNL     1      -3.071   5.393 -34.346  1.00  0.00     0.016 A 
BRANCH  14  19
HETATM   19  O   UNL     1      -3.269   3.761 -31.062  1.00  0.00    -0.357 OA
HETATM   20  H   UNL     1      -4.209   4.027 -31.007  1.00  0.00     0.218 HD
ENDBRANCH  14  19
BRANCH  15  21
HETATM   21  O   UNL     1      -0.741   4.507 -31.002  1.00  0.00    -0.349 OA
BRANCH  21  22
HETATM   22  C   UNL     1       0.369   5.342 -30.665  1.00  0.00     0.171 C 
HETATM   23  C   UNL     1       0.127   5.897 -29.273  1.00  0.00     0.034 C 
ENDBRANCH  21  22
ENDBRANCH  15  21
ENDBRANCH  12  13
ENDBRANCH   8  11
ENDBRANCH   1   7
BRANCH   5  24
HETATM   24  C   UNL     1     -12.289   1.730 -33.340  1.00  0.00     0.005 A 
HETATM   25  C   UNL     1     -12.823   2.926 -32.771  1.00  0.00    -0.012 A 
HETATM   26  C   UNL     1     -14.183   2.940 -32.566  1.00  0.00    -0.012 A 
HETATM   27  C   UNL     1     -12.155   4.119 -32.386  1.00  0.00     0.013 A 
HETATM   28  C   UNL     1     -14.882   3.999 -32.016  1.00  0.00    -0.046 A 
HETATM   29  C   UNL     1     -15.031   1.895 -32.881  1.00  0.00    -0.046 A 
HETATM   30  C   UNL     1     -14.240   5.164 -31.625  1.00  0.00     0.008 A 
HETATM   31  C   UNL     1     -16.331   3.676 -31.926  1.00  0.00     0.044 A 
HETATM   32  C   UNL     1     -12.854   5.206 -31.824  1.00  0.00     0.001 A 
HETATM   33  C   UNL     1     -16.435   2.239 -32.525  1.00  0.00     0.044 A 
HETATM   34  C   UNL     1     -14.553   0.722 -33.439  1.00  0.00     0.009 A 
HETATM   35  C   UNL     1     -13.168   0.658 -33.660  1.00  0.00     0.015 A 
ENDBRANCH   5  24
TORSDOF 7
ENDMDL
