MODEL 1
REMARK VINA RESULT:      -9.2      0.000      0.000
REMARK  7 active torsions:
REMARK  status: ('A' for Active; 'I' for Inactive)
REMARK    1  A    between atoms: C_6  and  N_7 
REMARK    2  A    between atoms: C_10  and  C_11 
REMARK       I    between atoms: C_11  and  N_12 
REMARK    3  A    between atoms: N_12  and  C_13 
REMARK    4  A    between atoms: C_16  and  C_17 
REMARK    5  A    between atoms: C_17  and  N_18 
REMARK    6  A    between atoms: C_21  and  C_22 
REMARK       I    between atoms: C_22  and  N_23 
REMARK    7  A    between atoms: C_31  and  C_32 
ROOT
HETATM    1  C   UNL     1      -1.611   4.678 -31.765  1.00  0.00     0.278 C 
HETATM    2  N   UNL     1      -2.677   3.952 -31.264  1.00  0.00    -0.322 N 
HETATM    3  O   UNL     1      -1.354   4.861 -32.948  1.00  0.00    -0.265 OA
HETATM    4  H   UNL     1      -2.709   3.870 -30.251  1.00  0.00     0.169 HD
ENDROOT
BRANCH   2   5
HETATM    5  C   UNL     1      -3.693   3.311 -31.999  1.00  0.00     0.035 A 
HETATM    6  C   UNL     1      -4.656   3.992 -32.744  1.00  0.00     0.030 A 
HETATM    7  C   UNL     1      -5.641   3.294 -33.450  1.00  0.00     0.011 A 
HETATM    8  C   UNL     1      -5.671   1.894 -33.442  1.00  0.00    -0.032 A 
HETATM    9  C   UNL     1      -4.713   1.209 -32.683  1.00  0.00     0.011 A 
HETATM   10  C   UNL     1      -3.739   1.914 -31.963  1.00  0.00     0.030 A 
BRANCH   8  11
HETATM   11  C   UNL     1      -6.712   1.149 -34.233  1.00  0.00     0.273 C 
BRANCH  11  12
HETATM   12  N   UNL     1      -8.082   1.171 -33.578  1.00  0.00    -0.066 N 
HETATM   13  H   UNL     1      -7.940   1.573 -32.644  1.00  0.00     0.280 HD
HETATM   14  C   UNL     1      -9.053   2.078 -34.315  1.00  0.00     0.249 C 
HETATM   15  C   UNL     1     -10.376   2.166 -33.548  1.00  0.00     0.103 C 
HETATM   16  C   UNL     1     -10.957   0.774 -33.286  1.00  0.00     0.017 C 
HETATM   17  C   UNL     1      -9.937  -0.143 -32.617  1.00  0.00     0.029 C 
HETATM   18  C   UNL     1      -8.636  -0.219 -33.403  1.00  0.00     0.235 C 
BRANCH  15  19
HETATM   19  C   UNL     1     -11.330   3.017 -34.361  1.00  0.00     0.221 C 
HETATM   20  N   UNL     1     -10.910   3.364 -35.607  1.00  0.00    -0.370 N 
HETATM   21  H   UNL     1     -11.545   3.908 -36.183  1.00  0.00     0.159 HD
HETATM   22  H   UNL     1     -10.070   3.016 -36.051  1.00  0.00     0.159 HD
HETATM   23  O   UNL     1     -12.422   3.373 -33.936  1.00  0.00    -0.273 OA
ENDBRANCH  15  19
ENDBRANCH  11  12
ENDBRANCH   8  11
ENDBRANCH   2   5
BRANCH   1  24
HETATM   24  C   UNL     1      -0.773   5.250 -30.718  1.00  0.00     0.175 C 
HETATM   25  N   UNL     1       0.236   4.560 -30.110  1.00  0.00    -0.152 NA
HETATM   26  N   UNL     1       0.770   5.348 -29.192  1.00  0.00     0.011 NA
HETATM   27  N   UNL     1       0.040   6.498 -29.120  1.00  0.00    -0.231 N 
HETATM   28  C   UNL     1      -0.820   6.529 -30.196  1.00  0.00     0.174 C 
BRANCH  27  29
HETATM   29  C   UNL     1       0.220   7.374 -28.015  1.00  0.00     0.058 A 
HETATM   30  C   UNL     1      -0.769   7.424 -27.019  1.00  0.00     0.073 A 
HETATM   31  C   UNL     1      -0.623   8.287 -25.937  1.00  0.00     0.118 A 
HETATM   32  C   UNL     1       0.482   9.119 -25.826  1.00  0.00     0.042 A 
HETATM   33  F   UNL     1      -1.566   8.314 -24.986  1.00  0.00    -0.206 F 
HETATM   34  C   UNL     1       1.455   9.098 -26.820  1.00  0.00     0.005 A 
HETATM   35  C   UNL     1       1.324   8.235 -27.916  1.00  0.00     0.031 A 
ENDBRANCH  27  29
BRANCH  28  36
HETATM   36  C   UNL     1      -1.540   7.705 -30.675  1.00  0.00     0.436 C 
HETATM   37  F   UNL     1      -1.279   8.810 -29.934  1.00  0.00    -0.165 F 
HETATM   38  F   UNL     1      -1.193   8.035 -31.943  1.00  0.00    -0.165 F 
HETATM   39  F   UNL     1      -2.881   7.519 -30.656  1.00  0.00    -0.165 F 
ENDBRANCH  28  36
ENDBRANCH   1  24
TORSDOF 7
ENDMDL
MODEL 2
REMARK VINA RESULT:      -8.9      2.867      4.257
REMARK  7 active torsions:
REMARK  status: ('A' for Active; 'I' for Inactive)
REMARK    1  A    between atoms: C_6  and  N_7 
REMARK    2  A    between atoms: C_10  and  C_11 
REMARK       I    between atoms: C_11  and  N_12 
REMARK    3  A    between atoms: N_12  and  C_13 
REMARK    4  A    between atoms: C_16  and  C_17 
REMARK    5  A    between atoms: C_17  and  N_18 
REMARK    6  A    between atoms: C_21  and  C_22 
REMARK       I    between atoms: C_22  and  N_23 
REMARK    7  A    between atoms: C_31  and  C_32 
ROOT
HETATM    1  C   UNL     1      -2.080   4.316 -31.881  1.00  0.00     0.278 C 
HETATM    2  N   UNL     1      -2.802   3.383 -31.158  1.00  0.00    -0.322 N 
HETATM    3  O   UNL     1      -2.175   4.528 -33.083  1.00  0.00    -0.265 OA
HETATM    4  H   UNL     1      -2.559   3.315 -30.173  1.00  0.00     0.169 HD
ENDROOT
BRANCH   2   5
HETATM    5  C   UNL     1      -3.806   2.521 -31.639  1.00  0.00     0.035 A 
HETATM    6  C   UNL     1      -4.717   2.874 -32.636  1.00  0.00     0.030 A 
HETATM    7  C   UNL     1      -5.693   1.971 -33.067  1.00  0.00     0.011 A 
HETATM    8  C   UNL     1      -5.766   0.682 -32.524  1.00  0.00    -0.032 A 
HETATM    9  C   UNL     1      -4.861   0.330 -31.513  1.00  0.00     0.011 A 
HETATM   10  C   UNL     1      -3.897   1.246 -31.072  1.00  0.00     0.030 A 
BRANCH   8  11
HETATM   11  C   UNL     1      -6.796  -0.298 -33.018  1.00  0.00     0.273 C 
BRANCH  11  12
HETATM   12  N   UNL     1      -6.201  -1.400 -33.877  1.00  0.00    -0.066 N 
HETATM   13  H   UNL     1      -5.727  -0.924 -34.654  1.00  0.00     0.280 HD
HETATM   14  C   UNL     1      -5.149  -2.202 -33.131  1.00  0.00     0.249 C 
HETATM   15  C   UNL     1      -4.491  -3.213 -34.075  1.00  0.00     0.103 C 
HETATM   16  C   UNL     1      -5.539  -4.104 -34.747  1.00  0.00     0.017 C 
HETATM   17  C   UNL     1      -6.629  -3.276 -35.422  1.00  0.00     0.029 C 
HETATM   18  C   UNL     1      -7.271  -2.285 -34.462  1.00  0.00     0.235 C 
BRANCH  15  19
HETATM   19  C   UNL     1      -3.508  -4.035 -33.265  1.00  0.00     0.221 C 
HETATM   20  N   UNL     1      -3.138  -5.227 -33.804  1.00  0.00    -0.370 N 
HETATM   21  H   UNL     1      -2.457  -5.783 -33.296  1.00  0.00     0.159 HD
HETATM   22  H   UNL     1      -3.391  -5.546 -34.730  1.00  0.00     0.159 HD
HETATM   23  O   UNL     1      -3.060  -3.656 -32.190  1.00  0.00    -0.273 OA
ENDBRANCH  15  19
ENDBRANCH  11  12
ENDBRANCH   8  11
ENDBRANCH   2   5
BRANCH   1  24
HETATM   24  C   UNL     1      -1.150   5.076 -31.055  1.00  0.00     0.175 C 
HETATM   25  N   UNL     1       0.163   4.734 -30.902  1.00  0.00    -0.152 NA
HETATM   26  N   UNL     1       0.713   5.604 -30.070  1.00  0.00     0.011 NA
HETATM   27  N   UNL     1      -0.260   6.434 -29.594  1.00  0.00    -0.231 N 
HETATM   28  C   UNL     1      -1.400   6.234 -30.341  1.00  0.00     0.174 C 
BRANCH  27  29
HETATM   29  C   UNL     1       0.012   7.256 -28.466  1.00  0.00     0.058 A 
HETATM   30  C   UNL     1      -0.887   7.246 -27.386  1.00  0.00     0.073 A 
HETATM   31  C   UNL     1      -0.651   8.055 -26.279  1.00  0.00     0.118 A 
HETATM   32  C   UNL     1       0.455   8.892 -26.223  1.00  0.00     0.042 A 
HETATM   33  F   UNL     1      -1.507   8.025 -25.249  1.00  0.00    -0.206 F 
HETATM   34  C   UNL     1       1.337   8.931 -27.298  1.00  0.00     0.005 A 
HETATM   35  C   UNL     1       1.115   8.121 -28.421  1.00  0.00     0.031 A 
ENDBRANCH  27  29
BRANCH  28  36
HETATM   36  C   UNL     1      -2.557   7.122 -30.381  1.00  0.00     0.436 C 
HETATM   37  F   UNL     1      -3.226   7.049 -31.559  1.00  0.00    -0.165 F 
HETATM   38  F   UNL     1      -3.473   6.810 -29.431  1.00  0.00    -0.165 F 
HETATM   39  F   UNL     1      -2.207   8.416 -30.200  1.00  0.00    -0.165 F 
ENDBRANCH  28  36
ENDBRANCH   1  24
TORSDOF 7
ENDMDL
MODEL 3
REMARK VINA RESULT:      -8.7      4.468     10.777
REMARK  7 active torsions:
REMARK  status: ('A' for Active; 'I' for Inactive)
REMARK    1  A    between atoms: C_6  and  N_7 
REMARK    2  A    between atoms: C_10  and  C_11 
REMARK       I    between atoms: C_11  and  N_12 
REMARK    3  A    between atoms: N_12  and  C_13 
REMARK    4  A    between atoms: C_16  and  C_17 
REMARK    5  A    between atoms: C_17  and  N_18 
REMARK    6  A    between atoms: C_21  and  C_22 
REMARK       I    between atoms: C_22  and  N_23 
REMARK    7  A    between atoms: C_31  and  C_32 
ROOT
HETATM    1  C   UNL     1      -5.871   2.532 -32.607  1.00  0.00     0.278 C 
HETATM    2  N   UNL     1      -4.714   3.266 -32.793  1.00  0.00    -0.322 N 
HETATM    3  O   UNL     1      -6.789   2.810 -31.846  1.00  0.00    -0.265 OA
HETATM    4  H   UNL     1      -4.039   2.858 -33.436  1.00  0.00     0.169 HD
ENDROOT
BRANCH   2   5
HETATM    5  C   UNL     1      -4.371   4.488 -32.182  1.00  0.00     0.035 A 
HETATM    6  C   UNL     1      -4.628   4.783 -30.843  1.00  0.00     0.030 A 
HETATM    7  C   UNL     1      -4.264   6.018 -30.298  1.00  0.00     0.011 A 
HETATM    8  C   UNL     1      -3.611   6.980 -31.079  1.00  0.00    -0.032 A 
HETATM    9  C   UNL     1      -3.365   6.691 -32.428  1.00  0.00     0.011 A 
HETATM   10  C   UNL     1      -3.748   5.459 -32.973  1.00  0.00     0.030 A 
BRANCH   8  11
HETATM   11  C   UNL     1      -3.189   8.293 -30.477  1.00  0.00     0.273 C 
BRANCH  11  12
HETATM   12  N   UNL     1      -2.118   8.139 -29.412  1.00  0.00    -0.066 N 
HETATM   13  H   UNL     1      -1.756   9.085 -29.240  1.00  0.00     0.280 HD
HETATM   14  C   UNL     1      -2.687   7.630 -28.098  1.00  0.00     0.249 C 
HETATM   15  C   UNL     1      -1.596   7.614 -27.023  1.00  0.00     0.103 C 
HETATM   16  C   UNL     1      -0.378   6.810 -27.485  1.00  0.00     0.017 C 
HETATM   17  C   UNL     1       0.127   7.287 -28.844  1.00  0.00     0.029 C 
HETATM   18  C   UNL     1      -0.973   7.287 -29.895  1.00  0.00     0.235 C 
BRANCH  15  19
HETATM   19  C   UNL     1      -2.195   7.028 -25.760  1.00  0.00     0.221 C 
HETATM   20  N   UNL     1      -2.313   5.674 -25.725  1.00  0.00    -0.370 N 
HETATM   21  H   UNL     1      -2.684   5.256 -24.878  1.00  0.00     0.159 HD
HETATM   22  H   UNL     1      -1.945   5.044 -26.426  1.00  0.00     0.159 HD
HETATM   23  O   UNL     1      -2.550   7.723 -24.816  1.00  0.00    -0.273 OA
ENDBRANCH  15  19
ENDBRANCH  11  12
ENDBRANCH   8  11
ENDBRANCH   2   5
BRANCH   1  24
HETATM   24  C   UNL     1      -5.923   1.335 -33.439  1.00  0.00     0.175 C 
HETATM   25  N   UNL     1      -6.685   1.244 -34.568  1.00  0.00    -0.152 NA
HETATM   26  N   UNL     1      -6.532   0.027 -35.062  1.00  0.00     0.011 NA
HETATM   27  N   UNL     1      -5.771  -0.706 -34.200  1.00  0.00    -0.231 N 
HETATM   28  C   UNL     1      -5.229   0.152 -33.268  1.00  0.00     0.174 C 
BRANCH  27  29
HETATM   29  C   UNL     1      -5.711  -2.120 -34.347  1.00  0.00     0.058 A 
HETATM   30  C   UNL     1      -4.463  -2.759 -34.266  1.00  0.00     0.073 A 
HETATM   31  C   UNL     1      -4.377  -4.139 -34.424  1.00  0.00     0.118 A 
HETATM   32  C   UNL     1      -5.507  -4.904 -34.678  1.00  0.00     0.042 A 
HETATM   33  F   UNL     1      -3.183  -4.738 -34.329  1.00  0.00    -0.206 F 
HETATM   34  C   UNL     1      -6.745  -4.279 -34.788  1.00  0.00     0.005 A 
HETATM   35  C   UNL     1      -6.849  -2.890 -34.630  1.00  0.00     0.031 A 
ENDBRANCH  27  29
BRANCH  28  36
HETATM   36  C   UNL     1      -4.118  -0.157 -32.373  1.00  0.00     0.436 C 
HETATM   37  F   UNL     1      -2.945  -0.309 -33.036  1.00  0.00    -0.165 F 
HETATM   38  F   UNL     1      -3.895   0.835 -31.476  1.00  0.00    -0.165 F 
HETATM   39  F   UNL     1      -4.334  -1.296 -31.674  1.00  0.00    -0.165 F 
ENDBRANCH  28  36
ENDBRANCH   1  24
TORSDOF 7
ENDMDL
MODEL 4
REMARK VINA RESULT:      -8.7     19.267     20.721
REMARK  7 active torsions:
REMARK  status: ('A' for Active; 'I' for Inactive)
REMARK    1  A    between atoms: C_6  and  N_7 
REMARK    2  A    between atoms: C_10  and  C_11 
REMARK       I    between atoms: C_11  and  N_12 
REMARK    3  A    between atoms: N_12  and  C_13 
REMARK    4  A    between atoms: C_16  and  C_17 
REMARK    5  A    between atoms: C_17  and  N_18 
REMARK    6  A    between atoms: C_21  and  C_22 
REMARK       I    between atoms: C_22  and  N_23 
REMARK    7  A    between atoms: C_31  and  C_32 
ROOT
HETATM    1  C   UNL     1      -5.793 -16.094 -31.413  1.00  0.00     0.278 C 
HETATM    2  N   UNL     1      -5.363 -15.220 -32.395  1.00  0.00    -0.322 N 
HETATM    3  O   UNL     1      -6.822 -16.758 -31.437  1.00  0.00    -0.265 OA
HETATM    4  H   UNL     1      -4.503 -14.720 -32.185  1.00  0.00     0.169 HD
ENDROOT
BRANCH   2   5
HETATM    5  C   UNL     1      -5.992 -14.940 -33.623  1.00  0.00     0.035 A 
HETATM    6  C   UNL     1      -6.082 -15.855 -34.673  1.00  0.00     0.030 A 
HETATM    7  C   UNL     1      -6.718 -15.513 -35.870  1.00  0.00     0.011 A 
HETATM    8  C   UNL     1      -7.298 -14.249 -36.036  1.00  0.00    -0.032 A 
HETATM    9  C   UNL     1      -7.196 -13.323 -34.989  1.00  0.00     0.011 A 
HETATM   10  C   UNL     1      -6.542 -13.666 -33.798  1.00  0.00     0.030 A 
BRANCH   8  11
HETATM   11  C   UNL     1      -8.012 -13.899 -37.314  1.00  0.00     0.273 C 
BRANCH  11  12
HETATM   12  N   UNL     1      -7.189 -13.011 -38.229  1.00  0.00    -0.066 N 
HETATM   13  H   UNL     1      -7.405 -12.047 -37.953  1.00  0.00     0.280 HD
HETATM   14  C   UNL     1      -5.696 -13.213 -38.030  1.00  0.00     0.249 C 
HETATM   15  C   UNL     1      -4.912 -12.209 -38.880  1.00  0.00     0.103 C 
HETATM   16  C   UNL     1      -5.323 -12.291 -40.353  1.00  0.00     0.017 C 
HETATM   17  C   UNL     1      -6.834 -12.167 -40.521  1.00  0.00     0.029 C 
HETATM   18  C   UNL     1      -7.589 -13.179 -39.672  1.00  0.00     0.235 C 
BRANCH  15  19
HETATM   19  C   UNL     1      -3.435 -12.502 -38.704  1.00  0.00     0.221 C 
HETATM   20  N   UNL     1      -2.842 -13.208 -39.703  1.00  0.00    -0.370 N 
HETATM   21  H   UNL     1      -1.846 -13.392 -39.623  1.00  0.00     0.159 HD
HETATM   22  H   UNL     1      -3.285 -13.456 -40.577  1.00  0.00     0.159 HD
HETATM   23  O   UNL     1      -2.800 -12.125 -37.727  1.00  0.00    -0.273 OA
ENDBRANCH  15  19
ENDBRANCH  11  12
ENDBRANCH   8  11
ENDBRANCH   2   5
BRANCH   1  24
HETATM   24  C   UNL     1      -4.872 -16.179 -30.286  1.00  0.00     0.175 C 
HETATM   25  N   UNL     1      -5.240 -15.909 -29.000  1.00  0.00    -0.152 NA
HETATM   26  N   UNL     1      -4.169 -16.046 -28.235  1.00  0.00     0.011 NA
HETATM   27  N   UNL     1      -3.088 -16.286 -29.031  1.00  0.00    -0.231 N 
HETATM   28  C   UNL     1      -3.541 -16.554 -30.304  1.00  0.00     0.174 C 
BRANCH  27  29
HETATM   29  C   UNL     1      -1.779 -16.172 -28.487  1.00  0.00     0.058 A 
HETATM   30  C   UNL     1      -0.947 -15.130 -28.929  1.00  0.00     0.073 A 
HETATM   31  C   UNL     1       0.343 -15.008 -28.424  1.00  0.00     0.118 A 
HETATM   32  C   UNL     1       0.839 -15.912 -27.494  1.00  0.00     0.042 A 
HETATM   33  F   UNL     1       1.121 -14.001 -28.842  1.00  0.00    -0.206 F 
HETATM   34  C   UNL     1       0.034 -16.965 -27.069  1.00  0.00     0.005 A 
HETATM   35  C   UNL     1      -1.269 -17.101 -27.567  1.00  0.00     0.031 A 
ENDBRANCH  27  29
BRANCH  28  36
HETATM   36  C   UNL     1      -2.760 -17.167 -31.373  1.00  0.00     0.436 C 
HETATM   37  F   UNL     1      -1.809 -18.011 -30.902  1.00  0.00    -0.165 F 
HETATM   38  F   UNL     1      -3.528 -17.919 -32.200  1.00  0.00    -0.165 F 
HETATM   39  F   UNL     1      -2.131 -16.241 -32.134  1.00  0.00    -0.165 F 
ENDBRANCH  28  36
ENDBRANCH   1  24
TORSDOF 7
ENDMDL
MODEL 5
REMARK VINA RESULT:      -8.7      3.925     11.750
REMARK  7 active torsions:
REMARK  status: ('A' for Active; 'I' for Inactive)
REMARK    1  A    between atoms: C_6  and  N_7 
REMARK    2  A    between atoms: C_10  and  C_11 
REMARK       I    between atoms: C_11  and  N_12 
REMARK    3  A    between atoms: N_12  and  C_13 
REMARK    4  A    between atoms: C_16  and  C_17 
REMARK    5  A    between atoms: C_17  and  N_18 
REMARK    6  A    between atoms: C_21  and  C_22 
REMARK       I    between atoms: C_22  and  N_23 
REMARK    7  A    between atoms: C_31  and  C_32 
ROOT
HETATM    1  C   UNL     1      -2.789   6.604 -30.952  1.00  0.00     0.278 C 
HETATM    2  N   UNL     1      -2.365   6.374 -29.656  1.00  0.00    -0.322 N 
HETATM    3  O   UNL     1      -2.309   7.412 -31.736  1.00  0.00    -0.265 OA
HETATM    4  H   UNL     1      -2.911   5.693 -29.134  1.00  0.00     0.169 HD
ENDROOT
BRANCH   2   5
HETATM    5  C   UNL     1      -1.287   6.987 -28.989  1.00  0.00     0.035 A 
HETATM    6  C   UNL     1      -0.057   6.364 -28.770  1.00  0.00     0.030 A 
HETATM    7  C   UNL     1       0.973   7.029 -28.098  1.00  0.00     0.011 A 
HETATM    8  C   UNL     1       0.802   8.344 -27.647  1.00  0.00    -0.032 A 
HETATM    9  C   UNL     1      -0.437   8.966 -27.853  1.00  0.00     0.011 A 
HETATM   10  C   UNL     1      -1.471   8.288 -28.512  1.00  0.00     0.030 A 
BRANCH   8  11
HETATM   11  C   UNL     1       1.927   9.066 -26.956  1.00  0.00     0.273 C 
BRANCH  11  12
HETATM   12  N   UNL     1       1.671   9.282 -25.475  1.00  0.00    -0.066 N 
HETATM   13  H   UNL     1       0.788   8.799 -25.269  1.00  0.00     0.280 HD
HETATM   14  C   UNL     1       2.745   8.645 -24.609  1.00  0.00     0.249 C 
HETATM   15  C   UNL     1       2.377   8.780 -23.129  1.00  0.00     0.103 C 
HETATM   16  C   UNL     1       2.114  10.241 -22.756  1.00  0.00     0.017 C 
HETATM   17  C   UNL     1       1.091  10.884 -23.688  1.00  0.00     0.029 C 
HETATM   18  C   UNL     1       1.484  10.742 -25.152  1.00  0.00     0.235 C 
BRANCH  15  19
HETATM   19  C   UNL     1       3.513   8.199 -22.311  1.00  0.00     0.221 C 
HETATM   20  N   UNL     1       4.693   8.028 -22.964  1.00  0.00    -0.370 N 
HETATM   21  H   UNL     1       5.479   7.669 -22.430  1.00  0.00     0.159 HD
HETATM   22  H   UNL     1       4.886   8.349 -23.903  1.00  0.00     0.159 HD
HETATM   23  O   UNL     1       3.390   7.902 -21.130  1.00  0.00    -0.273 OA
ENDBRANCH  15  19
ENDBRANCH  11  12
ENDBRANCH   8  11
ENDBRANCH   2   5
BRANCH   1  24
HETATM   24  C   UNL     1      -3.910   5.756 -31.340  1.00  0.00     0.175 C 
HETATM   25  N   UNL     1      -5.207   6.047 -31.031  1.00  0.00    -0.152 NA
HETATM   26  N   UNL     1      -5.964   5.066 -31.496  1.00  0.00     0.011 NA
HETATM   27  N   UNL     1      -5.157   4.088 -31.999  1.00  0.00    -0.231 N 
HETATM   28  C   UNL     1      -3.874   4.585 -32.075  1.00  0.00     0.174 C 
BRANCH  27  29
HETATM   29  C   UNL     1      -5.704   2.806 -32.282  1.00  0.00     0.058 A 
HETATM   30  C   UNL     1      -5.759   1.849 -31.256  1.00  0.00     0.073 A 
HETATM   31  C   UNL     1      -6.274   0.582 -31.514  1.00  0.00     0.118 A 
HETATM   32  C   UNL     1      -6.725   0.234 -32.780  1.00  0.00     0.042 A 
HETATM   33  F   UNL     1      -6.336  -0.317 -30.523  1.00  0.00    -0.206 F 
HETATM   34  C   UNL     1      -6.650   1.166 -33.811  1.00  0.00     0.005 A 
HETATM   35  C   UNL     1      -6.135   2.447 -33.568  1.00  0.00     0.031 A 
ENDBRANCH  27  29
BRANCH  28  36
HETATM   36  C   UNL     1      -2.779   3.998 -32.840  1.00  0.00     0.436 C 
HETATM   37  F   UNL     1      -2.788   4.384 -34.140  1.00  0.00    -0.165 F 
HETATM   38  F   UNL     1      -1.566   4.373 -32.364  1.00  0.00    -0.165 F 
HETATM   39  F   UNL     1      -2.821   2.645 -32.824  1.00  0.00    -0.165 F 
ENDBRANCH  28  36
ENDBRANCH   1  24
TORSDOF 7
ENDMDL
MODEL 6
REMARK VINA RESULT:      -8.6      3.955     11.056
REMARK  7 active torsions:
REMARK  status: ('A' for Active; 'I' for Inactive)
REMARK    1  A    between atoms: C_6  and  N_7 
REMARK    2  A    between atoms: C_10  and  C_11 
REMARK       I    between atoms: C_11  and  N_12 
REMARK    3  A    between atoms: N_12  and  C_13 
REMARK    4  A    between atoms: C_16  and  C_17 
REMARK    5  A    between atoms: C_17  and  N_18 
REMARK    6  A    between atoms: C_21  and  C_22 
REMARK       I    between atoms: C_22  and  N_23 
REMARK    7  A    between atoms: C_31  and  C_32 
ROOT
HETATM    1  C   UNL     1      -6.082   2.655 -33.306  1.00  0.00     0.278 C 
HETATM    2  N   UNL     1      -6.012   3.967 -33.738  1.00  0.00    -0.322 N 
HETATM    3  O   UNL     1      -5.233   2.065 -32.650  1.00  0.00    -0.265 OA
HETATM    4  H   UNL     1      -6.794   4.278 -34.310  1.00  0.00     0.169 HD
ENDROOT
BRANCH   2   5
HETATM    5  C   UNL     1      -4.982   4.894 -33.489  1.00  0.00     0.035 A 
HETATM    6  C   UNL     1      -4.909   5.679 -32.337  1.00  0.00     0.030 A 
HETATM    7  C   UNL     1      -3.859   6.584 -32.152  1.00  0.00     0.011 A 
HETATM    8  C   UNL     1      -2.845   6.709 -33.110  1.00  0.00    -0.032 A 
HETATM    9  C   UNL     1      -2.925   5.934 -34.274  1.00  0.00     0.011 A 
HETATM   10  C   UNL     1      -3.988   5.041 -34.462  1.00  0.00     0.030 A 
BRANCH   8  11
HETATM   11  C   UNL     1      -1.700   7.659 -32.888  1.00  0.00     0.273 C 
BRANCH  11  12
HETATM   12  N   UNL     1      -0.722   7.173 -31.833  1.00  0.00    -0.066 N 
HETATM   13  H   UNL     1       0.148   7.694 -31.995  1.00  0.00     0.280 HD
HETATM   14  C   UNL     1      -1.189   7.501 -30.425  1.00  0.00     0.249 C 
HETATM   15  C   UNL     1      -0.114   7.106 -29.409  1.00  0.00     0.103 C 
HETATM   16  C   UNL     1       0.282   5.636 -29.567  1.00  0.00     0.017 C 
HETATM   17  C   UNL     1       0.671   5.311 -31.006  1.00  0.00     0.029 C 
HETATM   18  C   UNL     1      -0.416   5.706 -31.995  1.00  0.00     0.235 C 
BRANCH  15  19
HETATM   19  C   UNL     1      -0.659   7.383 -28.022  1.00  0.00     0.221 C 
HETATM   20  N   UNL     1      -1.864   6.824 -27.730  1.00  0.00    -0.370 N 
HETATM   21  H   UNL     1      -2.237   6.970 -26.797  1.00  0.00     0.159 HD
HETATM   22  H   UNL     1      -2.357   6.172 -28.324  1.00  0.00     0.159 HD
HETATM   23  O   UNL     1      -0.057   8.064 -27.201  1.00  0.00    -0.273 OA
ENDBRANCH  15  19
ENDBRANCH  11  12
ENDBRANCH   8  11
ENDBRANCH   2   5
BRANCH   1  24
HETATM   24  C   UNL     1      -7.317   1.992 -33.704  1.00  0.00     0.175 C 
HETATM   25  N   UNL     1      -7.379   1.075 -34.714  1.00  0.00    -0.152 NA
HETATM   26  N   UNL     1      -8.641   0.696 -34.840  1.00  0.00     0.011 NA
HETATM   27  N   UNL     1      -9.411   1.446 -34.000  1.00  0.00    -0.231 N 
HETATM   28  C   UNL     1      -8.575   2.135 -33.149  1.00  0.00     0.174 C 
BRANCH  27  29
HETATM   29  C   UNL     1     -10.825   1.446 -34.160  1.00  0.00     0.058 A 
HETATM   30  C   UNL     1     -11.572   0.400 -33.594  1.00  0.00     0.073 A 
HETATM   31  C   UNL     1     -12.955   0.369 -33.752  1.00  0.00     0.118 A 
HETATM   32  C   UNL     1     -13.617   1.351 -34.476  1.00  0.00     0.042 A 
HETATM   33  F   UNL     1     -13.658  -0.625 -33.195  1.00  0.00    -0.206 F 
HETATM   34  C   UNL     1     -12.883   2.377 -35.064  1.00  0.00     0.005 A 
HETATM   35  C   UNL     1     -11.491   2.424 -34.914  1.00  0.00     0.031 A 
ENDBRANCH  27  29
BRANCH  28  36
HETATM   36  C   UNL     1      -8.978   2.793 -31.910  1.00  0.00     0.436 C 
HETATM   37  F   UNL     1      -9.931   3.736 -32.110  1.00  0.00    -0.165 F 
HETATM   38  F   UNL     1      -9.518   1.922 -31.023  1.00  0.00    -0.165 F 
HETATM   39  F   UNL     1      -7.935   3.401 -31.299  1.00  0.00    -0.165 F 
ENDBRANCH  28  36
ENDBRANCH   1  24
TORSDOF 7
ENDMDL
MODEL 7
REMARK VINA RESULT:      -8.6      3.800     11.879
REMARK  7 active torsions:
REMARK  status: ('A' for Active; 'I' for Inactive)
REMARK    1  A    between atoms: C_6  and  N_7 
REMARK    2  A    between atoms: C_10  and  C_11 
REMARK       I    between atoms: C_11  and  N_12 
REMARK    3  A    between atoms: N_12  and  C_13 
REMARK    4  A    between atoms: C_16  and  C_17 
REMARK    5  A    between atoms: C_17  and  N_18 
REMARK    6  A    between atoms: C_21  and  C_22 
REMARK       I    between atoms: C_22  and  N_23 
REMARK    7  A    between atoms: C_31  and  C_32 
ROOT
HETATM    1  C   UNL     1      -2.400   6.093 -30.835  1.00  0.00     0.278 C 
HETATM    2  N   UNL     1      -1.564   5.923 -29.746  1.00  0.00    -0.322 N 
HETATM    3  O   UNL     1      -2.756   7.162 -31.312  1.00  0.00    -0.265 OA
HETATM    4  H   UNL     1      -1.411   4.958 -29.463  1.00  0.00     0.169 HD
ENDROOT
BRANCH   2   5
HETATM    5  C   UNL     1      -0.931   6.928 -28.991  1.00  0.00     0.035 A 
HETATM    6  C   UNL     1       0.440   7.185 -29.040  1.00  0.00     0.030 A 
HETATM    7  C   UNL     1       1.008   8.198 -28.261  1.00  0.00     0.011 A 
HETATM    8  C   UNL     1       0.210   8.994 -27.430  1.00  0.00    -0.032 A 
HETATM    9  C   UNL     1      -1.165   8.729 -27.369  1.00  0.00     0.011 A 
HETATM   10  C   UNL     1      -1.725   7.701 -28.138  1.00  0.00     0.030 A 
BRANCH   8  11
HETATM   11  C   UNL     1       0.822  10.107 -26.623  1.00  0.00     0.273 C 
BRANCH  11  12
HETATM   12  N   UNL     1       1.188   9.683 -25.211  1.00  0.00    -0.066 N 
HETATM   13  H   UNL     1       0.793   8.743 -25.090  1.00  0.00     0.280 HD
HETATM   14  C   UNL     1       2.691   9.568 -25.020  1.00  0.00     0.249 C 
HETATM   15  C   UNL     1       3.003   9.017 -23.626  1.00  0.00     0.103 C 
HETATM   16  C   UNL     1       2.337   9.860 -22.536  1.00  0.00     0.017 C 
HETATM   17  C   UNL     1       0.842  10.028 -22.792  1.00  0.00     0.029 C 
HETATM   18  C   UNL     1       0.559  10.584 -24.180  1.00  0.00     0.235 C 
BRANCH  15  19
HETATM   19  C   UNL     1       4.510   8.994 -23.461  1.00  0.00     0.221 C 
HETATM   20  N   UNL     1       5.215   9.810 -24.289  1.00  0.00    -0.370 N 
HETATM   21  H   UNL     1       6.224   9.836 -24.178  1.00  0.00     0.159 HD
HETATM   22  H   UNL     1       4.805  10.486 -24.920  1.00  0.00     0.159 HD
HETATM   23  O   UNL     1       5.071   8.291 -22.630  1.00  0.00    -0.273 OA
ENDBRANCH  15  19
ENDBRANCH  11  12
ENDBRANCH   8  11
ENDBRANCH   2   5
BRANCH   1  24
HETATM   24  C   UNL     1      -2.843   4.829 -31.412  1.00  0.00     0.175 C 
HETATM   25  N   UNL     1      -2.045   4.047 -32.197  1.00  0.00    -0.152 NA
HETATM   26  N   UNL     1      -2.757   2.999 -32.580  1.00  0.00     0.011 NA
HETATM   27  N   UNL     1      -4.040   3.156 -32.146  1.00  0.00    -0.231 N 
HETATM   28  C   UNL     1      -4.068   4.208 -31.256  1.00  0.00     0.174 C 
BRANCH  27  29
HETATM   29  C   UNL     1      -5.065   2.325 -32.677  1.00  0.00     0.058 A 
HETATM   30  C   UNL     1      -5.103   0.972 -32.305  1.00  0.00     0.073 A 
HETATM   31  C   UNL     1      -6.087   0.136 -32.825  1.00  0.00     0.118 A 
HETATM   32  C   UNL     1      -7.031   0.610 -33.724  1.00  0.00     0.042 A 
HETATM   33  F   UNL     1      -6.122  -1.150 -32.451  1.00  0.00    -0.206 F 
HETATM   34  C   UNL     1      -6.987   1.943 -34.121  1.00  0.00     0.005 A 
HETATM   35  C   UNL     1      -6.004   2.800 -33.605  1.00  0.00     0.031 A 
ENDBRANCH  27  29
BRANCH  28  36
HETATM   36  C   UNL     1      -5.153   4.507 -30.327  1.00  0.00     0.436 C 
HETATM   37  F   UNL     1      -6.275   4.931 -30.961  1.00  0.00    -0.165 F 
HETATM   38  F   UNL     1      -5.535   3.416 -29.619  1.00  0.00    -0.165 F 
HETATM   39  F   UNL     1      -4.808   5.469 -29.440  1.00  0.00    -0.165 F 
ENDBRANCH  28  36
ENDBRANCH   1  24
TORSDOF 7
ENDMDL
MODEL 8
REMARK VINA RESULT:      -8.6     19.603     20.758
REMARK  7 active torsions:
REMARK  status: ('A' for Active; 'I' for Inactive)
REMARK    1  A    between atoms: C_6  and  N_7 
REMARK    2  A    between atoms: C_10  and  C_11 
REMARK       I    between atoms: C_11  and  N_12 
REMARK    3  A    between atoms: N_12  and  C_13 
REMARK    4  A    between atoms: C_16  and  C_17 
REMARK    5  A    between atoms: C_17  and  N_18 
REMARK    6  A    between atoms: C_21  and  C_22 
REMARK       I    between atoms: C_22  and  N_23 
REMARK    7  A    between atoms: C_31  and  C_32 
ROOT
HETATM    1  C   UNL     1      -5.389 -15.926 -31.521  1.00  0.00     0.278 C 
HETATM    2  N   UNL     1      -4.856 -14.933 -32.322  1.00  0.00    -0.322 N 
HETATM    3  O   UNL     1      -6.390 -16.589 -31.762  1.00  0.00    -0.265 OA
HETATM    4  H   UNL     1      -4.042 -14.457 -31.940  1.00  0.00     0.169 HD
ENDROOT
BRANCH   2   5
HETATM    5  C   UNL     1      -5.325 -14.507 -33.580  1.00  0.00     0.035 A 
HETATM    6  C   UNL     1      -6.523 -13.816 -33.766  1.00  0.00     0.030 A 
HETATM    7  C   UNL     1      -6.933 -13.424 -35.044  1.00  0.00     0.011 A 
HETATM    8  C   UNL     1      -6.139 -13.696 -36.165  1.00  0.00    -0.032 A 
HETATM    9  C   UNL     1      -4.943 -14.402 -35.982  1.00  0.00     0.011 A 
HETATM   10  C   UNL     1      -4.546 -14.808 -34.702  1.00  0.00     0.030 A 
BRANCH   8  11
HETATM   11  C   UNL     1      -6.569 -13.239 -37.533  1.00  0.00     0.273 C 
BRANCH  11  12
HETATM   12  N   UNL     1      -7.884 -13.855 -37.978  1.00  0.00    -0.066 N 
HETATM   13  H   UNL     1      -8.443 -13.968 -37.124  1.00  0.00     0.280 HD
HETATM   14  C   UNL     1      -8.660 -12.937 -38.907  1.00  0.00     0.249 C 
HETATM   15  C   UNL     1     -10.029 -13.545 -39.224  1.00  0.00     0.103 C 
HETATM   16  C   UNL     1      -9.888 -14.963 -39.785  1.00  0.00     0.017 C 
HETATM   17  C   UNL     1      -9.037 -15.844 -38.874  1.00  0.00     0.029 C 
HETATM   18  C   UNL     1      -7.680 -15.221 -38.580  1.00  0.00     0.235 C 
BRANCH  15  19
HETATM   19  C   UNL     1     -10.728 -12.631 -40.210  1.00  0.00     0.221 C 
HETATM   20  N   UNL     1     -11.833 -13.139 -40.819  1.00  0.00    -0.370 N 
HETATM   21  H   UNL     1     -12.337 -12.535 -41.461  1.00  0.00     0.159 HD
HETATM   22  H   UNL     1     -12.264 -14.024 -40.587  1.00  0.00     0.159 HD
HETATM   23  O   UNL     1     -10.335 -11.496 -40.450  1.00  0.00    -0.273 OA
ENDBRANCH  15  19
ENDBRANCH  11  12
ENDBRANCH   8  11
ENDBRANCH   2   5
BRANCH   1  24
HETATM   24  C   UNL     1      -4.621 -16.143 -30.301  1.00  0.00     0.175 C 
HETATM   25  N   UNL     1      -5.096 -15.842 -29.057  1.00  0.00    -0.152 NA
HETATM   26  N   UNL     1      -4.145 -16.126 -28.181  1.00  0.00     0.011 NA
HETATM   27  N   UNL     1      -3.021 -16.498 -28.857  1.00  0.00    -0.231 N 
HETATM   28  C   UNL     1      -3.357 -16.690 -30.180  1.00  0.00     0.174 C 
BRANCH  27  29
HETATM   29  C   UNL     1      -1.778 -16.563 -28.167  1.00  0.00     0.058 A 
HETATM   30  C   UNL     1      -0.825 -15.556 -28.389  1.00  0.00     0.073 A 
HETATM   31  C   UNL     1       0.405 -15.608 -27.739  1.00  0.00     0.118 A 
HETATM   32  C   UNL     1       0.719 -16.651 -26.879  1.00  0.00     0.042 A 
HETATM   33  F   UNL     1       1.300 -14.633 -27.947  1.00  0.00    -0.206 F 
HETATM   34  C   UNL     1      -0.207 -17.668 -26.673  1.00  0.00     0.005 A 
HETATM   35  C   UNL     1      -1.451 -17.631 -27.319  1.00  0.00     0.031 A 
ENDBRANCH  27  29
BRANCH  28  36
HETATM   36  C   UNL     1      -2.544 -17.388 -31.170  1.00  0.00     0.436 C 
HETATM   37  F   UNL     1      -1.726 -16.550 -31.854  1.00  0.00    -0.165 F 
HETATM   38  F   UNL     1      -1.722 -18.305 -30.602  1.00  0.00    -0.165 F 
HETATM   39  F   UNL     1      -3.306 -18.035 -32.083  1.00  0.00    -0.165 F 
ENDBRANCH  28  36
ENDBRANCH   1  24
TORSDOF 7
ENDMDL
MODEL 9
REMARK VINA RESULT:      -8.6      3.398      4.632
REMARK  7 active torsions:
REMARK  status: ('A' for Active; 'I' for Inactive)
REMARK    1  A    between atoms: C_6  and  N_7 
REMARK    2  A    between atoms: C_10  and  C_11 
REMARK       I    between atoms: C_11  and  N_12 
REMARK    3  A    between atoms: N_12  and  C_13 
REMARK    4  A    between atoms: C_16  and  C_17 
REMARK    5  A    between atoms: C_17  and  N_18 
REMARK    6  A    between atoms: C_21  and  C_22 
REMARK       I    between atoms: C_22  and  N_23 
REMARK    7  A    between atoms: C_31  and  C_32 
ROOT
HETATM    1  C   UNL     1      -4.267   6.508 -29.764  1.00  0.00     0.278 C 
HETATM    2  N   UNL     1      -3.870   5.269 -30.234  1.00  0.00    -0.322 N 
HETATM    3  O   UNL     1      -5.417   6.923 -29.704  1.00  0.00    -0.265 OA
HETATM    4  H   UNL     1      -2.865   5.111 -30.249  1.00  0.00     0.169 HD
ENDROOT
BRANCH   2   5
HETATM    5  C   UNL     1      -4.696   4.228 -30.701  1.00  0.00     0.035 A 
HETATM    6  C   UNL     1      -5.472   3.423 -29.866  1.00  0.00     0.030 A 
HETATM    7  C   UNL     1      -6.270   2.403 -30.395  1.00  0.00     0.011 A 
HETATM    8  C   UNL     1      -6.325   2.181 -31.776  1.00  0.00    -0.032 A 
HETATM    9  C   UNL     1      -5.535   2.979 -32.614  1.00  0.00     0.011 A 
HETATM   10  C   UNL     1      -4.724   3.987 -32.078  1.00  0.00     0.030 A 
BRANCH   8  11
HETATM   11  C   UNL     1      -7.214   1.105 -32.341  1.00  0.00     0.273 C 
BRANCH  11  12
HETATM   12  N   UNL     1      -6.464   0.115 -33.215  1.00  0.00    -0.066 N 
HETATM   13  H   UNL     1      -5.978   0.678 -33.923  1.00  0.00     0.280 HD
HETATM   14  C   UNL     1      -5.402  -0.644 -32.437  1.00  0.00     0.249 C 
HETATM   15  C   UNL     1      -4.591  -1.533 -33.384  1.00  0.00     0.103 C 
HETATM   16  C   UNL     1      -5.505  -2.462 -34.188  1.00  0.00     0.017 C 
HETATM   17  C   UNL     1      -6.612  -1.686 -34.896  1.00  0.00     0.029 C 
HETATM   18  C   UNL     1      -7.406  -0.816 -33.932  1.00  0.00     0.235 C 
BRANCH  15  19
HETATM   19  C   UNL     1      -3.601  -2.321 -32.550  1.00  0.00     0.221 C 
HETATM   20  N   UNL     1      -2.957  -1.629 -31.573  1.00  0.00    -0.370 N 
HETATM   21  H   UNL     1      -2.311  -2.142 -30.981  1.00  0.00     0.159 HD
HETATM   22  H   UNL     1      -3.164  -0.675 -31.309  1.00  0.00     0.159 HD
HETATM   23  O   UNL     1      -3.389  -3.514 -32.731  1.00  0.00    -0.273 OA
ENDBRANCH  15  19
ENDBRANCH  11  12
ENDBRANCH   8  11
ENDBRANCH   2   5
BRANCH   1  24
HETATM   24  C   UNL     1      -3.148   7.327 -29.312  1.00  0.00     0.175 C 
HETATM   25  N   UNL     1      -2.452   8.160 -30.139  1.00  0.00    -0.152 NA
HETATM   26  N   UNL     1      -1.489   8.725 -29.428  1.00  0.00     0.011 NA
HETATM   27  N   UNL     1      -1.485   8.176 -28.179  1.00  0.00    -0.231 N 
HETATM   28  C   UNL     1      -2.634   7.430 -28.032  1.00  0.00     0.174 C 
BRANCH  27  29
HETATM   29  C   UNL     1      -0.368   8.389 -27.324  1.00  0.00     0.058 A 
HETATM   30  C   UNL     1      -0.306   9.572 -26.570  1.00  0.00     0.073 A 
HETATM   31  C   UNL     1       0.785   9.810 -25.740  1.00  0.00     0.118 A 
HETATM   32  C   UNL     1       1.832   8.904 -25.651  1.00  0.00     0.042 A 
HETATM   33  F   UNL     1       0.825  10.935 -25.014  1.00  0.00    -0.206 F 
HETATM   34  C   UNL     1       1.794   7.741 -26.414  1.00  0.00     0.005 A 
HETATM   35  C   UNL     1       0.702   7.484 -27.254  1.00  0.00     0.031 A 
ENDBRANCH  27  29
BRANCH  28  36
HETATM   36  C   UNL     1      -3.177   6.944 -26.768  1.00  0.00     0.436 C 
HETATM   37  F   UNL     1      -4.282   6.175 -26.940  1.00  0.00    -0.165 F 
HETATM   38  F   UNL     1      -2.295   6.158 -26.103  1.00  0.00    -0.165 F 
HETATM   39  F   UNL     1      -3.521   7.959 -25.942  1.00  0.00    -0.165 F 
ENDBRANCH  28  36
ENDBRANCH   1  24
TORSDOF 7
ENDMDL
MODEL 10
REMARK VINA RESULT:      -8.4      4.371     11.011
REMARK  7 active torsions:
REMARK  status: ('A' for Active; 'I' for Inactive)
REMARK    1  A    between atoms: C_6  and  N_7 
REMARK    2  A    between atoms: C_10  and  C_11 
REMARK       I    between atoms: C_11  and  N_12 
REMARK    3  A    between atoms: N_12  and  C_13 
REMARK    4  A    between atoms: C_16  and  C_17 
REMARK    5  A    between atoms: C_17  and  N_18 
REMARK    6  A    between atoms: C_21  and  C_22 
REMARK       I    between atoms: C_22  and  N_23 
REMARK    7  A    between atoms: C_31  and  C_32 
ROOT
HETATM    1  C   UNL     1      -6.320   2.926 -31.953  1.00  0.00     0.278 C 
HETATM    2  N   UNL     1      -5.121   3.340 -31.402  1.00  0.00    -0.322 N 
HETATM    3  O   UNL     1      -7.238   3.652 -32.315  1.00  0.00    -0.265 OA
HETATM    4  H   UNL     1      -4.492   2.593 -31.120  1.00  0.00     0.169 HD
ENDROOT
BRANCH   2   5
HETATM    5  C   UNL     1      -4.697   4.664 -31.177  1.00  0.00     0.035 A 
HETATM    6  C   UNL     1      -5.148   5.452 -30.117  1.00  0.00     0.030 A 
HETATM    7  C   UNL     1      -4.688   6.763 -29.952  1.00  0.00     0.011 A 
HETATM    8  C   UNL     1      -3.748   7.307 -30.835  1.00  0.00    -0.032 A 
HETATM    9  C   UNL     1      -3.304   6.523 -31.908  1.00  0.00     0.011 A 
HETATM   10  C   UNL     1      -3.782   5.217 -32.079  1.00  0.00     0.030 A 
BRANCH   8  11
HETATM   11  C   UNL     1      -3.230   8.706 -30.631  1.00  0.00     0.273 C 
BRANCH  11  12
HETATM   12  N   UNL     1      -2.521   8.886 -29.301  1.00  0.00    -0.066 N 
HETATM   13  H   UNL     1      -3.241   8.759 -28.580  1.00  0.00     0.280 HD
HETATM   14  C   UNL     1      -1.459   7.825 -29.069  1.00  0.00     0.249 C 
HETATM   15  C   UNL     1      -0.864   7.973 -27.666  1.00  0.00     0.103 C 
HETATM   16  C   UNL     1      -0.334   9.390 -27.438  1.00  0.00     0.017 C 
HETATM   17  C   UNL     1      -1.392  10.443 -27.753  1.00  0.00     0.029 C 
HETATM   18  C   UNL     1      -1.963  10.278 -29.154  1.00  0.00     0.235 C 
BRANCH  15  19
HETATM   19  C   UNL     1       0.238   6.942 -27.516  1.00  0.00     0.221 C 
HETATM   20  N   UNL     1       0.023   5.744 -28.121  1.00  0.00    -0.370 N 
HETATM   21  H   UNL     1       0.759   5.047 -28.061  1.00  0.00     0.159 HD
HETATM   22  H   UNL     1      -0.757   5.537 -28.732  1.00  0.00     0.159 HD
HETATM   23  O   UNL     1       1.269   7.165 -26.894  1.00  0.00    -0.273 OA
ENDBRANCH  15  19
ENDBRANCH  11  12
ENDBRANCH   8  11
ENDBRANCH   2   5
BRANCH   1  24
HETATM   24  C   UNL     1      -6.412   1.477 -32.087  1.00  0.00     0.175 C 
HETATM   25  N   UNL     1      -6.380   0.626 -31.020  1.00  0.00    -0.152 NA
HETATM   26  N   UNL     1      -6.450  -0.610 -31.486  1.00  0.00     0.011 NA
HETATM   27  N   UNL     1      -6.409  -0.570 -32.848  1.00  0.00    -0.231 N 
HETATM   28  C   UNL     1      -6.570   0.740 -33.245  1.00  0.00     0.174 C 
BRANCH  27  29
HETATM   29  C   UNL     1      -6.167  -1.767 -33.577  1.00  0.00     0.058 A 
HETATM   30  C   UNL     1      -4.849  -2.240 -33.690  1.00  0.00     0.073 A 
HETATM   31  C   UNL     1      -4.586  -3.399 -34.412  1.00  0.00     0.118 A 
HETATM   32  C   UNL     1      -5.605  -4.098 -35.045  1.00  0.00     0.042 A 
HETATM   33  F   UNL     1      -3.327  -3.848 -34.499  1.00  0.00    -0.206 F 
HETATM   34  C   UNL     1      -6.910  -3.624 -34.964  1.00  0.00     0.005 A 
HETATM   35  C   UNL     1      -7.193  -2.458 -34.239  1.00  0.00     0.031 A 
ENDBRANCH  27  29
BRANCH  28  36
HETATM   36  C   UNL     1      -6.903   1.184 -34.595  1.00  0.00     0.436 C 
HETATM   37  F   UNL     1      -6.554   0.277 -35.540  1.00  0.00    -0.165 F 
HETATM   38  F   UNL     1      -8.236   1.372 -34.755  1.00  0.00    -0.165 F 
HETATM   39  F   UNL     1      -6.287   2.348 -34.910  1.00  0.00    -0.165 F 
ENDBRANCH  28  36
ENDBRANCH   1  24
TORSDOF 7
ENDMDL
