MODEL 1
REMARK VINA RESULT:      -8.7      0.000      0.000
REMARK  3 active torsions:
REMARK  status: ('A' for Active; 'I' for Inactive)
REMARK    1  A    between atoms: C_8  and  C_9 
REMARK    2  A    between atoms: C_14  and  C_15 
REMARK    3  A    between atoms: C_17  and  O_18 
ROOT
HETATM    1  C   UNL     1      -6.871   4.009 -29.902  1.00  0.00     0.143 A 
HETATM    2  N   UNL     1      -6.062   4.177 -30.923  1.00  0.00    -0.223 NA
HETATM    3  C   UNL     1      -5.497   2.943 -31.208  1.00  0.00     0.149 A 
HETATM    4  C   UNL     1      -6.008   1.993 -30.334  1.00  0.00     0.046 A 
HETATM    5  C   UNL     1      -5.793   0.535 -30.111  1.00  0.00     0.070 C 
HETATM    6  C   UNL     1      -4.727  -0.162 -30.976  1.00  0.00     0.042 C 
HETATM    7  C   UNL     1      -3.502   0.723 -31.253  1.00  0.00     0.132 C 
HETATM    8  N   UNL     1      -3.695   1.700 -32.300  1.00  0.00    -0.355 N 
HETATM    9  C   UNL     1      -4.527   2.789 -32.298  1.00  0.00     0.272 C 
HETATM   10  O   UNL     1      -4.422   3.600 -33.218  1.00  0.00    -0.266 OA
HETATM   11  N   UNL     1      -6.889   2.693 -29.538  1.00  0.00    -0.341 N 
HETATM   12  H   UNL     1      -7.439   2.308 -28.786  1.00  0.00     0.167 HD
HETATM   13  H   UNL     1      -3.071   1.694 -33.098  1.00  0.00     0.162 HD
ENDROOT
BRANCH   1  14
HETATM   14  C   UNL     1      -7.627   5.110 -29.248  1.00  0.00     0.059 A 
HETATM   15  C   UNL     1      -8.918   5.530 -29.507  1.00  0.00     0.040 A 
HETATM   16  C   UNL     1      -9.967   5.103 -30.460  1.00  0.00     0.071 C 
HETATM   17  N   UNL     1      -9.139   6.559 -28.629  1.00  0.00    -0.281 N 
HETATM   18  H   UNL     1      -9.978   7.119 -28.521  1.00  0.00     0.189 HD
HETATM   19  N   UNL     1      -8.103   6.832 -27.828  1.00  0.00    -0.179 NA
HETATM   20  C   UNL     1      -7.165   5.948 -28.199  1.00  0.00     0.067 A 
HETATM   21  C   UNL     1      -5.844   5.935 -27.521  1.00  0.00     0.073 C 
ENDBRANCH   1  14
BRANCH   6  22
HETATM   22  C   UNL     1      -5.234  -0.861 -32.234  1.00  0.00    -0.049 A 
HETATM   23  C   UNL     1      -4.406  -1.818 -32.859  1.00  0.00     0.044 A 
HETATM   24  C   UNL     1      -4.810  -2.476 -34.022  1.00  0.00     0.068 A 
HETATM   25  C   UNL     1      -6.056  -2.178 -34.572  1.00  0.00     0.037 A 
HETATM   26  C   UNL     1      -6.885  -1.230 -33.974  1.00  0.00     0.003 A 
HETATM   27  C   UNL     1      -6.477  -0.572 -32.813  1.00  0.00     0.007 A 
BRANCH  24  28
HETATM   28  O   UNL     1      -4.091  -3.416 -34.708  1.00  0.00    -0.356 OA
HETATM   29  C   UNL     1      -3.651  -4.553 -33.976  1.00  0.00     0.210 C 
ENDBRANCH  24  28
ENDBRANCH   6  22
TORSDOF 3
ENDMDL
MODEL 2
REMARK VINA RESULT:      -8.4      3.460      4.421
REMARK  3 active torsions:
REMARK  status: ('A' for Active; 'I' for Inactive)
REMARK    1  A    between atoms: C_8  and  C_9 
REMARK    2  A    between atoms: C_14  and  C_15 
REMARK    3  A    between atoms: C_17  and  O_18 
ROOT
HETATM    1  C   UNL     1     -10.412   2.494 -32.833  1.00  0.00     0.143 A 
HETATM    2  N   UNL     1      -9.345   3.086 -33.321  1.00  0.00    -0.223 NA
HETATM    3  C   UNL     1      -8.238   2.422 -32.812  1.00  0.00     0.149 A 
HETATM    4  C   UNL     1      -8.663   1.376 -32.005  1.00  0.00     0.046 A 
HETATM    5  C   UNL     1      -7.988   0.337 -31.176  1.00  0.00     0.070 C 
HETATM    6  C   UNL     1      -6.452   0.389 -31.091  1.00  0.00     0.042 C 
HETATM    7  C   UNL     1      -5.898   1.822 -31.059  1.00  0.00     0.132 C 
HETATM    8  N   UNL     1      -5.836   2.468 -32.350  1.00  0.00    -0.355 N 
HETATM    9  C   UNL     1      -6.878   2.849 -33.156  1.00  0.00     0.272 C 
HETATM   10  O   UNL     1      -6.624   3.541 -34.142  1.00  0.00    -0.266 OA
HETATM   11  N   UNL     1     -10.040   1.434 -32.058  1.00  0.00    -0.341 N 
HETATM   12  H   UNL     1     -10.676   0.816 -31.578  1.00  0.00     0.167 HD
HETATM   13  H   UNL     1      -4.945   2.814 -32.683  1.00  0.00     0.162 HD
ENDROOT
BRANCH   1  14
HETATM   14  C   UNL     1     -11.806   2.946 -33.090  1.00  0.00     0.059 A 
HETATM   15  C   UNL     1     -12.611   2.654 -34.176  1.00  0.00     0.040 A 
HETATM   16  C   UNL     1     -12.424   1.861 -35.410  1.00  0.00     0.071 C 
HETATM   17  N   UNL     1     -13.794   3.298 -33.922  1.00  0.00    -0.281 N 
HETATM   18  H   UNL     1     -14.631   3.317 -34.496  1.00  0.00     0.189 HD
HETATM   19  N   UNL     1     -13.817   3.973 -32.768  1.00  0.00    -0.179 NA
HETATM   20  C   UNL     1     -12.599   3.766 -32.246  1.00  0.00     0.067 A 
HETATM   21  C   UNL     1     -12.238   4.365 -30.935  1.00  0.00     0.073 C 
ENDBRANCH   1  14
BRANCH   6  22
HETATM   22  C   UNL     1      -5.694  -0.504 -32.068  1.00  0.00    -0.049 A 
HETATM   23  C   UNL     1      -6.407  -1.116 -33.121  1.00  0.00     0.044 A 
HETATM   24  C   UNL     1      -5.768  -1.958 -34.034  1.00  0.00     0.068 A 
HETATM   25  C   UNL     1      -4.401  -2.194 -33.898  1.00  0.00     0.037 A 
HETATM   26  C   UNL     1      -3.681  -1.606 -32.859  1.00  0.00     0.003 A 
HETATM   27  C   UNL     1      -4.323  -0.768 -31.947  1.00  0.00     0.007 A 
BRANCH  24  28
HETATM   28  O   UNL     1      -6.359  -2.600 -35.088  1.00  0.00    -0.356 OA
HETATM   29  C   UNL     1      -6.586  -3.996 -34.948  1.00  0.00     0.210 C 
ENDBRANCH  24  28
ENDBRANCH   6  22
TORSDOF 3
ENDMDL
MODEL 3
REMARK VINA RESULT:      -8.4      1.092      1.947
REMARK  3 active torsions:
REMARK  status: ('A' for Active; 'I' for Inactive)
REMARK    1  A    between atoms: C_8  and  C_9 
REMARK    2  A    between atoms: C_14  and  C_15 
REMARK    3  A    between atoms: C_17  and  O_18 
ROOT
HETATM    1  C   UNL     1      -6.736   3.876 -29.897  1.00  0.00     0.143 A 
HETATM    2  N   UNL     1      -5.810   4.065 -30.810  1.00  0.00    -0.223 NA
HETATM    3  C   UNL     1      -5.290   2.820 -31.132  1.00  0.00     0.149 A 
HETATM    4  C   UNL     1      -5.950   1.845 -30.397  1.00  0.00     0.046 A 
HETATM    5  C   UNL     1      -5.847   0.362 -30.273  1.00  0.00     0.070 C 
HETATM    6  C   UNL     1      -4.735  -0.338 -31.073  1.00  0.00     0.042 C 
HETATM    7  C   UNL     1      -3.437   0.481 -31.146  1.00  0.00     0.132 C 
HETATM    8  N   UNL     1      -3.454   1.544 -32.124  1.00  0.00    -0.355 N 
HETATM    9  C   UNL     1      -4.216   2.683 -32.122  1.00  0.00     0.272 C 
HETATM   10  O   UNL     1      -3.962   3.551 -32.957  1.00  0.00    -0.266 OA
HETATM   11  N   UNL     1      -6.872   2.541 -29.646  1.00  0.00    -0.341 N 
HETATM   12  H   UNL     1      -7.524   2.139 -28.990  1.00  0.00     0.167 HD
HETATM   13  H   UNL     1      -2.747   1.555 -32.849  1.00  0.00     0.162 HD
ENDROOT
BRANCH   1  14
HETATM   14  C   UNL     1      -7.495   4.974 -29.240  1.00  0.00     0.059 A 
HETATM   15  C   UNL     1      -8.787   5.392 -29.498  1.00  0.00     0.040 A 
HETATM   16  C   UNL     1      -9.834   4.965 -30.452  1.00  0.00     0.071 C 
HETATM   17  N   UNL     1      -9.010   6.417 -28.617  1.00  0.00    -0.281 N 
HETATM   18  H   UNL     1      -9.850   6.976 -28.507  1.00  0.00     0.189 HD
HETATM   19  N   UNL     1      -7.974   6.690 -27.815  1.00  0.00    -0.179 NA
HETATM   20  C   UNL     1      -7.035   5.809 -28.189  1.00  0.00     0.067 A 
HETATM   21  C   UNL     1      -5.713   5.796 -27.510  1.00  0.00     0.073 C 
ENDBRANCH   1  14
BRANCH   6  22
HETATM   22  C   UNL     1      -5.139  -0.906 -32.430  1.00  0.00    -0.049 A 
HETATM   23  C   UNL     1      -6.277  -0.378 -33.075  1.00  0.00     0.044 A 
HETATM   24  C   UNL     1      -6.704  -0.871 -34.310  1.00  0.00     0.068 A 
HETATM   25  C   UNL     1      -5.988  -1.905 -34.912  1.00  0.00     0.037 A 
HETATM   26  C   UNL     1      -4.865  -2.445 -34.287  1.00  0.00     0.003 A 
HETATM   27  C   UNL     1      -4.443  -1.952 -33.052  1.00  0.00     0.007 A 
BRANCH  24  28
HETATM   28  O   UNL     1      -7.789  -0.436 -35.020  1.00  0.00    -0.356 OA
HETATM   29  C   UNL     1      -8.611   0.548 -34.406  1.00  0.00     0.210 C 
ENDBRANCH  24  28
ENDBRANCH   6  22
TORSDOF 3
ENDMDL
MODEL 4
REMARK VINA RESULT:      -8.3      3.338      4.680
REMARK  3 active torsions:
REMARK  status: ('A' for Active; 'I' for Inactive)
REMARK    1  A    between atoms: C_8  and  C_9 
REMARK    2  A    between atoms: C_14  and  C_15 
REMARK    3  A    between atoms: C_17  and  O_18 
ROOT
HETATM    1  C   UNL     1      -3.092   4.182 -32.412  1.00  0.00     0.143 A 
HETATM    2  N   UNL     1      -2.607   3.139 -31.778  1.00  0.00    -0.223 NA
HETATM    3  C   UNL     1      -3.607   2.179 -31.739  1.00  0.00     0.149 A 
HETATM    4  C   UNL     1      -4.730   2.661 -32.398  1.00  0.00     0.046 A 
HETATM    5  C   UNL     1      -6.099   2.140 -32.676  1.00  0.00     0.070 C 
HETATM    6  C   UNL     1      -6.467   0.768 -32.085  1.00  0.00     0.042 C 
HETATM    7  C   UNL     1      -5.864   0.531 -30.691  1.00  0.00     0.132 C 
HETATM    8  N   UNL     1      -4.473   0.141 -30.699  1.00  0.00    -0.355 N 
HETATM    9  C   UNL     1      -3.388   0.885 -31.083  1.00  0.00     0.272 C 
HETATM   10  O   UNL     1      -2.266   0.434 -30.854  1.00  0.00    -0.266 OA
HETATM   11  N   UNL     1      -4.365   3.918 -32.831  1.00  0.00    -0.341 N 
HETATM   12  H   UNL     1      -4.949   4.557 -33.348  1.00  0.00     0.167 HD
HETATM   13  H   UNL     1      -4.206  -0.732 -30.261  1.00  0.00     0.162 HD
ENDROOT
BRANCH   1  14
HETATM   14  C   UNL     1      -2.350   5.456 -32.611  1.00  0.00     0.059 A 
HETATM   15  C   UNL     1      -2.188   6.497 -31.716  1.00  0.00     0.040 A 
HETATM   16  C   UNL     1      -2.652   6.748 -30.334  1.00  0.00     0.071 C 
HETATM   17  N   UNL     1      -1.417   7.416 -32.380  1.00  0.00    -0.281 N 
HETATM   18  H   UNL     1      -1.089   8.316 -32.044  1.00  0.00     0.189 HD
HETATM   19  N   UNL     1      -1.072   7.053 -33.620  1.00  0.00    -0.179 NA
HETATM   20  C   UNL     1      -1.640   5.848 -33.776  1.00  0.00     0.067 A 
HETATM   21  C   UNL     1      -1.473   5.105 -35.050  1.00  0.00     0.073 C 
ENDBRANCH   1  14
BRANCH   6  22
HETATM   22  C   UNL     1      -6.283  -0.433 -33.008  1.00  0.00    -0.049 A 
HETATM   23  C   UNL     1      -5.098  -1.192 -32.906  1.00  0.00     0.044 A 
HETATM   24  C   UNL     1      -4.869  -2.291 -33.737  1.00  0.00     0.068 A 
HETATM   25  C   UNL     1      -5.832  -2.640 -34.682  1.00  0.00     0.037 A 
HETATM   26  C   UNL     1      -7.006  -1.897 -34.804  1.00  0.00     0.003 A 
HETATM   27  C   UNL     1      -7.230  -0.798 -33.974  1.00  0.00     0.007 A 
BRANCH  24  28
HETATM   28  O   UNL     1      -3.761  -3.093 -33.724  1.00  0.00    -0.356 OA
HETATM   29  C   UNL     1      -3.327  -3.575 -32.459  1.00  0.00     0.210 C 
ENDBRANCH  24  28
ENDBRANCH   6  22
TORSDOF 3
ENDMDL
MODEL 5
REMARK VINA RESULT:      -8.2      2.684      3.811
REMARK  3 active torsions:
REMARK  status: ('A' for Active; 'I' for Inactive)
REMARK    1  A    between atoms: C_8  and  C_9 
REMARK    2  A    between atoms: C_14  and  C_15 
REMARK    3  A    between atoms: C_17  and  O_18 
ROOT
HETATM    1  C   UNL     1      -4.593   4.266 -31.191  1.00  0.00     0.143 A 
HETATM    2  N   UNL     1      -4.963   3.320 -30.358  1.00  0.00    -0.223 NA
HETATM    3  C   UNL     1      -5.640   2.362 -31.098  1.00  0.00     0.149 A 
HETATM    4  C   UNL     1      -5.655   2.742 -32.433  1.00  0.00     0.046 A 
HETATM    5  C   UNL     1      -6.225   2.174 -33.689  1.00  0.00     0.070 C 
HETATM    6  C   UNL     1      -7.060   0.887 -33.567  1.00  0.00     0.042 C 
HETATM    7  C   UNL     1      -7.914   0.841 -32.291  1.00  0.00     0.132 C 
HETATM    8  N   UNL     1      -7.189   0.468 -31.098  1.00  0.00    -0.355 N 
HETATM    9  C   UNL     1      -6.201   1.168 -30.455  1.00  0.00     0.272 C 
HETATM   10  O   UNL     1      -5.825   0.763 -29.356  1.00  0.00    -0.266 OA
HETATM   11  N   UNL     1      -4.966   3.935 -32.463  1.00  0.00    -0.341 N 
HETATM   12  H   UNL     1      -4.789   4.495 -33.282  1.00  0.00     0.167 HD
HETATM   13  H   UNL     1      -7.498  -0.337 -30.567  1.00  0.00     0.162 HD
ENDROOT
BRANCH   1  14
HETATM   14  C   UNL     1      -3.890   5.511 -30.780  1.00  0.00     0.059 A 
HETATM   15  C   UNL     1      -4.407   6.596 -30.095  1.00  0.00     0.040 A 
HETATM   16  C   UNL     1      -5.743   6.930 -29.557  1.00  0.00     0.071 C 
HETATM   17  N   UNL     1      -3.353   7.461 -29.957  1.00  0.00    -0.281 N 
HETATM   18  H   UNL     1      -3.346   8.370 -29.506  1.00  0.00     0.189 HD
HETATM   19  N   UNL     1      -2.207   7.023 -30.491  1.00  0.00    -0.179 NA
HETATM   20  C   UNL     1      -2.524   5.825 -31.002  1.00  0.00     0.067 A 
HETATM   21  C   UNL     1      -1.489   5.009 -31.687  1.00  0.00     0.073 C 
ENDBRANCH   1  14
BRANCH   6  22
HETATM   22  C   UNL     1      -6.317  -0.422 -33.815  1.00  0.00    -0.049 A 
HETATM   23  C   UNL     1      -7.056  -1.557 -34.213  1.00  0.00     0.044 A 
HETATM   24  C   UNL     1      -6.431  -2.785 -34.437  1.00  0.00     0.068 A 
HETATM   25  C   UNL     1      -5.052  -2.888 -34.262  1.00  0.00     0.037 A 
HETATM   26  C   UNL     1      -4.305  -1.780 -33.860  1.00  0.00     0.003 A 
HETATM   27  C   UNL     1      -4.934  -0.555 -33.635  1.00  0.00     0.007 A 
BRANCH  24  28
HETATM   28  O   UNL     1      -7.047  -3.944 -34.824  1.00  0.00    -0.356 OA
HETATM   29  C   UNL     1      -6.275  -4.863 -35.586  1.00  0.00     0.210 C 
ENDBRANCH  24  28
ENDBRANCH   6  22
TORSDOF 3
ENDMDL
MODEL 6
REMARK VINA RESULT:      -8.1      3.511      7.978
REMARK  3 active torsions:
REMARK  status: ('A' for Active; 'I' for Inactive)
REMARK    1  A    between atoms: C_8  and  C_9 
REMARK    2  A    between atoms: C_14  and  C_15 
REMARK    3  A    between atoms: C_17  and  O_18 
ROOT
HETATM    1  C   UNL     1      -5.085  -1.927 -33.487  1.00  0.00     0.143 A 
HETATM    2  N   UNL     1      -5.808  -1.280 -34.373  1.00  0.00    -0.223 NA
HETATM    3  C   UNL     1      -6.083  -0.028 -33.844  1.00  0.00     0.149 A 
HETATM    4  C   UNL     1      -5.479   0.086 -32.599  1.00  0.00     0.046 A 
HETATM    5  C   UNL     1      -5.418   1.139 -31.545  1.00  0.00     0.070 C 
HETATM    6  C   UNL     1      -6.232   2.423 -31.781  1.00  0.00     0.042 C 
HETATM    7  C   UNL     1      -7.577   2.166 -32.479  1.00  0.00     0.132 C 
HETATM    8  N   UNL     1      -7.483   1.977 -33.908  1.00  0.00    -0.355 N 
HETATM    9  C   UNL     1      -6.890   0.945 -34.588  1.00  0.00     0.272 C 
HETATM   10  O   UNL     1      -7.065   0.877 -35.804  1.00  0.00    -0.266 OA
HETATM   11  N   UNL     1      -4.838  -1.120 -32.413  1.00  0.00    -0.341 N 
HETATM   12  H   UNL     1      -4.298  -1.383 -31.603  1.00  0.00     0.167 HD
HETATM   13  H   UNL     1      -8.011   2.588 -34.519  1.00  0.00     0.162 HD
ENDROOT
BRANCH   1  14
HETATM   14  C   UNL     1      -4.633  -3.335 -33.647  1.00  0.00     0.059 A 
HETATM   15  C   UNL     1      -5.116  -4.292 -34.520  1.00  0.00     0.040 A 
HETATM   16  C   UNL     1      -6.185  -4.305 -35.543  1.00  0.00     0.071 C 
HETATM   17  N   UNL     1      -4.356  -5.407 -34.279  1.00  0.00    -0.281 N 
HETATM   18  H   UNL     1      -4.418  -6.314 -34.729  1.00  0.00     0.189 HD
HETATM   19  N   UNL     1      -3.428  -5.246 -33.330  1.00  0.00    -0.179 NA
HETATM   20  C   UNL     1      -3.588  -3.975 -32.931  1.00  0.00     0.067 A 
HETATM   21  C   UNL     1      -2.716  -3.412 -31.869  1.00  0.00     0.073 C 
ENDBRANCH   1  14
BRANCH   6  22
HETATM   22  C   UNL     1      -5.475   3.596 -32.397  1.00  0.00    -0.049 A 
HETATM   23  C   UNL     1      -4.127   3.411 -32.772  1.00  0.00     0.044 A 
HETATM   24  C   UNL     1      -3.379   4.454 -33.324  1.00  0.00     0.068 A 
HETATM   25  C   UNL     1      -3.981   5.698 -33.506  1.00  0.00     0.037 A 
HETATM   26  C   UNL     1      -5.310   5.903 -33.134  1.00  0.00     0.003 A 
HETATM   27  C   UNL     1      -6.052   4.859 -32.581  1.00  0.00     0.007 A 
BRANCH  24  28
HETATM   28  O   UNL     1      -2.072   4.386 -33.720  1.00  0.00    -0.356 OA
HETATM   29  C   UNL     1      -1.685   5.210 -34.812  1.00  0.00     0.210 C 
ENDBRANCH  24  28
ENDBRANCH   6  22
TORSDOF 3
ENDMDL
MODEL 7
REMARK VINA RESULT:      -8.1      1.353      2.314
REMARK  3 active torsions:
REMARK  status: ('A' for Active; 'I' for Inactive)
REMARK    1  A    between atoms: C_8  and  C_9 
REMARK    2  A    between atoms: C_14  and  C_15 
REMARK    3  A    between atoms: C_17  and  O_18 
ROOT
HETATM    1  C   UNL     1      -8.426   3.616 -31.047  1.00  0.00     0.143 A 
HETATM    2  N   UNL     1      -7.464   3.858 -31.908  1.00  0.00    -0.223 NA
HETATM    3  C   UNL     1      -6.673   2.721 -31.972  1.00  0.00     0.149 A 
HETATM    4  C   UNL     1      -7.199   1.750 -31.131  1.00  0.00     0.046 A 
HETATM    5  C   UNL     1      -6.814   0.362 -30.746  1.00  0.00     0.070 C 
HETATM    6  C   UNL     1      -5.504  -0.196 -31.330  1.00  0.00     0.042 C 
HETATM    7  C   UNL     1      -4.397   0.863 -31.447  1.00  0.00     0.132 C 
HETATM    8  N   UNL     1      -4.521   1.735 -32.593  1.00  0.00    -0.355 N 
HETATM    9  C   UNL     1      -5.493   2.669 -32.842  1.00  0.00     0.272 C 
HETATM   10  O   UNL     1      -5.330   3.434 -33.793  1.00  0.00    -0.266 OA
HETATM   11  N   UNL     1      -8.317   2.337 -30.580  1.00  0.00    -0.341 N 
HETATM   12  H   UNL     1      -8.942   1.909 -29.914  1.00  0.00     0.167 HD
HETATM   13  H   UNL     1      -3.757   1.787 -33.255  1.00  0.00     0.162 HD
ENDROOT
BRANCH   1  14
HETATM   14  C   UNL     1      -9.456   4.611 -30.645  1.00  0.00     0.059 A 
HETATM   15  C   UNL     1      -9.335   5.642 -29.731  1.00  0.00     0.040 A 
HETATM   16  C   UNL     1      -8.241   6.118 -28.857  1.00  0.00     0.071 C 
HETATM   17  N   UNL     1     -10.555   6.266 -29.740  1.00  0.00    -0.281 N 
HETATM   18  H   UNL     1     -10.849   7.070 -29.195  1.00  0.00     0.189 HD
HETATM   19  N   UNL     1     -11.444   5.727 -30.581  1.00  0.00    -0.179 NA
HETATM   20  C   UNL     1     -10.781   4.707 -31.144  1.00  0.00     0.067 A 
HETATM   21  C   UNL     1     -11.449   3.853 -32.159  1.00  0.00     0.073 C 
ENDBRANCH   1  14
BRANCH   6  22
HETATM   22  C   UNL     1      -5.637  -1.038 -32.595  1.00  0.00    -0.049 A 
HETATM   23  C   UNL     1      -4.596  -1.931 -32.928  1.00  0.00     0.044 A 
HETATM   24  C   UNL     1      -4.656  -2.714 -34.083  1.00  0.00     0.068 A 
HETATM   25  C   UNL     1      -5.766  -2.607 -34.919  1.00  0.00     0.037 A 
HETATM   26  C   UNL     1      -6.801  -1.724 -34.612  1.00  0.00     0.003 A 
HETATM   27  C   UNL     1      -6.736  -0.942 -33.458  1.00  0.00     0.007 A 
BRANCH  24  28
HETATM   28  O   UNL     1      -3.708  -3.608 -34.501  1.00  0.00    -0.356 OA
HETATM   29  C   UNL     1      -3.497  -4.753 -33.685  1.00  0.00     0.210 C 
ENDBRANCH  24  28
ENDBRANCH   6  22
TORSDOF 3
ENDMDL
MODEL 8
REMARK VINA RESULT:      -8.1      0.649      1.721
REMARK  3 active torsions:
REMARK  status: ('A' for Active; 'I' for Inactive)
REMARK    1  A    between atoms: C_8  and  C_9 
REMARK    2  A    between atoms: C_14  and  C_15 
REMARK    3  A    between atoms: C_17  and  O_18 
ROOT
HETATM    1  C   UNL     1      -6.707   4.105 -29.784  1.00  0.00     0.143 A 
HETATM    2  N   UNL     1      -5.844   4.215 -30.768  1.00  0.00    -0.223 NA
HETATM    3  C   UNL     1      -5.454   2.931 -31.118  1.00  0.00     0.149 A 
HETATM    4  C   UNL     1      -6.130   2.015 -30.324  1.00  0.00     0.046 A 
HETATM    5  C   UNL     1      -6.137   0.530 -30.193  1.00  0.00     0.070 C 
HETATM    6  C   UNL     1      -5.151  -0.262 -31.071  1.00  0.00     0.042 C 
HETATM    7  C   UNL     1      -3.801   0.449 -31.254  1.00  0.00     0.132 C 
HETATM    8  N   UNL     1      -3.810   1.507 -32.239  1.00  0.00    -0.355 N 
HETATM    9  C   UNL     1      -4.476   2.704 -32.188  1.00  0.00     0.272 C 
HETATM   10  O   UNL     1      -4.220   3.545 -33.048  1.00  0.00    -0.266 OA
HETATM   11  N   UNL     1      -6.930   2.786 -29.508  1.00  0.00    -0.341 N 
HETATM   12  H   UNL     1      -7.558   2.440 -28.800  1.00  0.00     0.167 HD
HETATM   13  H   UNL     1      -3.165   1.458 -33.017  1.00  0.00     0.162 HD
ENDROOT
BRANCH   1  14
HETATM   14  C   UNL     1      -7.320   5.263 -29.079  1.00  0.00     0.059 A 
HETATM   15  C   UNL     1      -6.756   6.062 -28.102  1.00  0.00     0.040 A 
HETATM   16  C   UNL     1      -5.445   6.080 -27.418  1.00  0.00     0.071 C 
HETATM   17  N   UNL     1      -7.724   6.985 -27.799  1.00  0.00    -0.281 N 
HETATM   18  H   UNL     1      -7.677   7.740 -27.122  1.00  0.00     0.189 HD
HETATM   19  N   UNL     1      -8.855   6.847 -28.498  1.00  0.00    -0.179 NA
HETATM   20  C   UNL     1      -8.621   5.790 -29.289  1.00  0.00     0.067 A 
HETATM   21  C   UNL     1      -9.665   5.322 -30.236  1.00  0.00     0.073 C 
ENDBRANCH   1  14
BRANCH   6  22
HETATM   22  C   UNL     1      -5.706  -0.800 -32.387  1.00  0.00    -0.049 A 
HETATM   23  C   UNL     1      -5.039  -1.872 -33.017  1.00  0.00     0.044 A 
HETATM   24  C   UNL     1      -5.491  -2.393 -34.231  1.00  0.00     0.068 A 
HETATM   25  C   UNL     1      -6.623  -1.840 -34.827  1.00  0.00     0.037 A 
HETATM   26  C   UNL     1      -7.292  -0.775 -34.224  1.00  0.00     0.003 A 
HETATM   27  C   UNL     1      -6.835  -0.255 -33.013  1.00  0.00     0.007 A 
BRANCH  24  28
HETATM   28  O   UNL     1      -4.924  -3.425 -34.926  1.00  0.00    -0.356 OA
HETATM   29  C   UNL     1      -5.737  -4.566 -35.166  1.00  0.00     0.210 C 
ENDBRANCH  24  28
ENDBRANCH   6  22
TORSDOF 3
ENDMDL
MODEL 9
REMARK VINA RESULT:      -8.0      3.502      8.173
REMARK  3 active torsions:
REMARK  status: ('A' for Active; 'I' for Inactive)
REMARK    1  A    between atoms: C_8  and  C_9 
REMARK    2  A    between atoms: C_14  and  C_15 
REMARK    3  A    between atoms: C_17  and  O_18 
ROOT
HETATM    1  C   UNL     1      -5.406   0.821 -33.418  1.00  0.00     0.143 A 
HETATM    2  N   UNL     1      -6.092   1.885 -33.765  1.00  0.00    -0.223 NA
HETATM    3  C   UNL     1      -5.542   2.967 -33.093  1.00  0.00     0.149 A 
HETATM    4  C   UNL     1      -4.468   2.532 -32.329  1.00  0.00     0.046 A 
HETATM    5  C   UNL     1      -3.505   3.178 -31.391  1.00  0.00     0.070 C 
HETATM    6  C   UNL     1      -3.704   4.675 -31.094  1.00  0.00     0.042 C 
HETATM    7  C   UNL     1      -5.184   5.083 -31.018  1.00  0.00     0.132 C 
HETATM    8  N   UNL     1      -5.821   5.265 -32.302  1.00  0.00    -0.355 N 
HETATM    9  C   UNL     1      -6.093   4.317 -33.254  1.00  0.00     0.272 C 
HETATM   10  O   UNL     1      -6.797   4.641 -34.209  1.00  0.00    -0.266 OA
HETATM   11  N   UNL     1      -4.393   1.177 -32.574  1.00  0.00    -0.341 N 
HETATM   12  H   UNL     1      -3.721   0.541 -32.174  1.00  0.00     0.167 HD
HETATM   13  H   UNL     1      -6.248   6.158 -32.515  1.00  0.00     0.162 HD
ENDROOT
BRANCH   1  14
HETATM   14  C   UNL     1      -5.720  -0.560 -33.876  1.00  0.00     0.059 A 
HETATM   15  C   UNL     1      -5.038  -1.728 -33.593  1.00  0.00     0.040 A 
HETATM   16  C   UNL     1      -3.828  -2.047 -32.805  1.00  0.00     0.071 C 
HETATM   17  N   UNL     1      -5.739  -2.712 -34.240  1.00  0.00    -0.281 N 
HETATM   18  H   UNL     1      -5.541  -3.708 -34.265  1.00  0.00     0.189 HD
HETATM   19  N   UNL     1      -6.811  -2.276 -34.909  1.00  0.00    -0.179 NA
HETATM   20  C   UNL     1      -6.811  -0.952 -34.695  1.00  0.00     0.067 A 
HETATM   21  C   UNL     1      -7.875  -0.101 -35.286  1.00  0.00     0.073 C 
ENDBRANCH   1  14
BRANCH   6  22
HETATM   22  C   UNL     1      -2.879   5.643 -31.936  1.00  0.00    -0.049 A 
HETATM   23  C   UNL     1      -2.818   6.998 -31.548  1.00  0.00     0.044 A 
HETATM   24  C   UNL     1      -2.093   7.932 -32.290  1.00  0.00     0.068 A 
HETATM   25  C   UNL     1      -1.417   7.512 -33.435  1.00  0.00     0.037 A 
HETATM   26  C   UNL     1      -1.472   6.179 -33.840  1.00  0.00     0.003 A 
HETATM   27  C   UNL     1      -2.200   5.249 -33.098  1.00  0.00     0.007 A 
BRANCH  24  28
HETATM   28  O   UNL     1      -1.967   9.264 -32.007  1.00  0.00    -0.356 OA
HETATM   29  C   UNL     1      -2.537   9.722 -30.788  1.00  0.00     0.210 C 
ENDBRANCH  24  28
ENDBRANCH   6  22
TORSDOF 3
ENDMDL
MODEL 10
REMARK VINA RESULT:      -7.9      2.610      3.903
REMARK  3 active torsions:
REMARK  status: ('A' for Active; 'I' for Inactive)
REMARK    1  A    between atoms: C_8  and  C_9 
REMARK    2  A    between atoms: C_14  and  C_15 
REMARK    3  A    between atoms: C_17  and  O_18 
ROOT
HETATM    1  C   UNL     1      -4.608   4.146 -31.259  1.00  0.00     0.143 A 
HETATM    2  N   UNL     1      -5.006   3.226 -30.410  1.00  0.00    -0.223 NA
HETATM    3  C   UNL     1      -5.705   2.272 -31.135  1.00  0.00     0.149 A 
HETATM    4  C   UNL     1      -5.705   2.626 -32.477  1.00  0.00     0.046 A 
HETATM    5  C   UNL     1      -6.284   2.050 -33.724  1.00  0.00     0.070 C 
HETATM    6  C   UNL     1      -7.153   0.787 -33.582  1.00  0.00     0.042 C 
HETATM    7  C   UNL     1      -8.014   0.788 -32.309  1.00  0.00     0.132 C 
HETATM    8  N   UNL     1      -7.303   0.420 -31.106  1.00  0.00    -0.355 N 
HETATM    9  C   UNL     1      -6.300   1.106 -30.472  1.00  0.00     0.272 C 
HETATM   10  O   UNL     1      -5.939   0.712 -29.364  1.00  0.00    -0.266 OA
HETATM   11  N   UNL     1      -4.984   3.800 -32.526  1.00  0.00    -0.341 N 
HETATM   12  H   UNL     1      -4.789   4.340 -33.355  1.00  0.00     0.167 HD
HETATM   13  H   UNL     1      -7.636  -0.366 -30.561  1.00  0.00     0.162 HD
ENDROOT
BRANCH   1  14
HETATM   14  C   UNL     1      -3.875   5.380 -30.869  1.00  0.00     0.059 A 
HETATM   15  C   UNL     1      -2.544   5.685 -31.086  1.00  0.00     0.040 A 
HETATM   16  C   UNL     1      -1.415   4.972 -31.722  1.00  0.00     0.071 C 
HETATM   17  N   UNL     1      -2.376   6.935 -30.549  1.00  0.00    -0.281 N 
HETATM   18  H   UNL     1      -1.529   7.494 -30.517  1.00  0.00     0.189 HD
HETATM   19  N   UNL     1      -3.484   7.456 -30.010  1.00  0.00    -0.179 NA
HETATM   20  C   UNL     1      -4.414   6.509 -30.199  1.00  0.00     0.067 A 
HETATM   21  C   UNL     1      -5.806   6.727 -29.730  1.00  0.00     0.073 C 
ENDBRANCH   1  14
BRANCH   6  22
HETATM   22  C   UNL     1      -6.444  -0.546 -33.801  1.00  0.00    -0.049 A 
HETATM   23  C   UNL     1      -5.238  -0.794 -33.111  1.00  0.00     0.044 A 
HETATM   24  C   UNL     1      -4.536  -1.989 -33.287  1.00  0.00     0.068 A 
HETATM   25  C   UNL     1      -5.041  -2.950 -34.161  1.00  0.00     0.037 A 
HETATM   26  C   UNL     1      -6.227  -2.719 -34.859  1.00  0.00     0.003 A 
HETATM   27  C   UNL     1      -6.923  -1.524 -34.683  1.00  0.00     0.007 A 
BRANCH  24  28
HETATM   28  O   UNL     1      -3.364  -2.332 -32.672  1.00  0.00    -0.356 OA
HETATM   29  C   UNL     1      -2.687  -1.309 -31.954  1.00  0.00     0.210 C 
ENDBRANCH  24  28
ENDBRANCH   6  22
TORSDOF 3
ENDMDL
