MODEL 1
REMARK VINA RESULT:      -8.8      0.000      0.000
REMARK  5 active torsions:
REMARK  status: ('A' for Active; 'I' for Inactive)
REMARK    1  A    between atoms: C_9  and  C_10 
REMARK       I    between atoms: C_10  and  N_11 
REMARK    2  A    between atoms: N_11  and  C_12 
REMARK    3  A    between atoms: C_12  and  C_13 
REMARK    4  A    between atoms: C_16  and  N_17 
REMARK       I    between atoms: N_17  and  C_18 
REMARK    5  A    between atoms: C_18  and  C_19 
ROOT
HETATM    1  C   UNL     1      -3.713   2.326 -31.585  1.00  0.00     0.273 C 
HETATM    2  N   UNL     1      -2.968   3.093 -32.452  1.00  0.00    -0.351 N 
HETATM    3  O   UNL     1      -4.508   2.807 -30.781  1.00  0.00    -0.266 OA
HETATM    4  H   UNL     1      -2.429   2.580 -33.146  1.00  0.00     0.163 HD
ENDROOT
BRANCH   2   5
HETATM    5  C   UNL     1      -3.200   4.504 -32.589  1.00  0.00     0.161 C 
BRANCH   5   6
HETATM    6  C   UNL     1      -2.284   5.302 -31.702  1.00  0.00    -0.040 A 
HETATM    7  C   UNL     1      -0.895   5.212 -31.848  1.00  0.00     0.011 A 
HETATM    8  C   UNL     1      -0.040   5.960 -31.030  1.00  0.00     0.030 A 
HETATM    9  C   UNL     1      -0.557   6.806 -30.048  1.00  0.00     0.034 A 
HETATM   10  C   UNL     1      -1.946   6.878 -29.886  1.00  0.00     0.030 A 
HETATM   11  C   UNL     1      -2.803   6.129 -30.700  1.00  0.00     0.011 A 
BRANCH   9  12
HETATM   12  N   UNL     1       0.232   7.609 -29.199  1.00  0.00    -0.327 N 
HETATM   13  C   UNL     1       0.694   7.302 -27.928  1.00  0.00     0.225 C 
HETATM   14  O   UNL     1       0.479   6.262 -27.314  1.00  0.00    -0.273 OA
HETATM   15  H   UNL     1       0.506   8.507 -29.577  1.00  0.00     0.169 HD
BRANCH  13  16
HETATM   16  C   UNL     1       1.543   8.430 -27.329  1.00  0.00     0.070 C 
HETATM   17  C   UNL     1       0.749   9.734 -27.268  1.00  0.00     0.019 C 
HETATM   18  C   UNL     1       2.050   8.057 -25.937  1.00  0.00     0.019 C 
ENDBRANCH  13  16
ENDBRANCH   9  12
ENDBRANCH   5   6
ENDBRANCH   2   5
BRANCH   1  19
HETATM   19  C   UNL     1      -3.479   0.881 -31.730  1.00  0.00     0.157 A 
HETATM   20  C   UNL     1      -4.209  -0.033 -32.548  1.00  0.00     0.029 A 
HETATM   21  C   UNL     1      -5.307   0.045 -33.428  1.00  0.00     0.023 A 
HETATM   22  C   UNL     1      -3.597  -1.265 -32.349  1.00  0.00     0.063 A 
HETATM   23  C   UNL     1      -5.755  -1.114 -34.083  1.00  0.00    -0.061 A 
HETATM   24  C   UNL     1      -6.920  -1.053 -35.027  1.00  0.00     0.048 C 
HETATM   25  C   UNL     1      -5.109  -2.336 -33.853  1.00  0.00     0.009 A 
HETATM   26  C   UNL     1      -4.018  -2.437 -32.982  1.00  0.00     0.032 A 
HETATM   27  N   UNL     1      -2.584  -1.025 -31.464  1.00  0.00    -0.277 N 
HETATM   28  H   UNL     1      -1.925  -1.698 -31.091  1.00  0.00     0.189 HD
HETATM   29  N   UNL     1      -2.477   0.257 -31.071  1.00  0.00    -0.168 NA
ENDBRANCH   1  19
TORSDOF 5
ENDMDL
MODEL 2
REMARK VINA RESULT:      -8.6      5.748      9.563
REMARK  5 active torsions:
REMARK  status: ('A' for Active; 'I' for Inactive)
REMARK    1  A    between atoms: C_9  and  C_10 
REMARK       I    between atoms: C_10  and  N_11 
REMARK    2  A    between atoms: N_11  and  C_12 
REMARK    3  A    between atoms: C_12  and  C_13 
REMARK    4  A    between atoms: C_16  and  N_17 
REMARK       I    between atoms: N_17  and  C_18 
REMARK    5  A    between atoms: C_18  and  C_19 
ROOT
HETATM    1  C   UNL     1      -5.128   1.409 -31.860  1.00  0.00     0.273 C 
HETATM    2  N   UNL     1      -5.396   1.896 -33.120  1.00  0.00    -0.351 N 
HETATM    3  O   UNL     1      -5.549   1.939 -30.834  1.00  0.00    -0.266 OA
HETATM    4  H   UNL     1      -5.091   1.314 -33.894  1.00  0.00     0.163 HD
ENDROOT
BRANCH   2   5
HETATM    5  C   UNL     1      -6.332   2.967 -33.322  1.00  0.00     0.161 C 
BRANCH   5   6
HETATM    6  C   UNL     1      -7.743   2.456 -33.416  1.00  0.00    -0.040 A 
HETATM    7  C   UNL     1      -8.037   1.310 -34.164  1.00  0.00     0.011 A 
HETATM    8  C   UNL     1      -9.348   0.827 -34.248  1.00  0.00     0.030 A 
HETATM    9  C   UNL     1     -10.390   1.482 -33.591  1.00  0.00     0.034 A 
HETATM   10  C   UNL     1     -10.100   2.642 -32.861  1.00  0.00     0.030 A 
HETATM   11  C   UNL     1      -8.791   3.128 -32.778  1.00  0.00     0.011 A 
BRANCH   9  12
HETATM   12  N   UNL     1     -11.732   1.050 -33.604  1.00  0.00    -0.327 N 
HETATM   13  C   UNL     1     -12.677   1.248 -34.599  1.00  0.00     0.225 C 
HETATM   14  O   UNL     1     -12.501   1.854 -35.651  1.00  0.00    -0.273 OA
HETATM   15  H   UNL     1     -12.027   0.515 -32.797  1.00  0.00     0.169 HD
BRANCH  13  16
HETATM   16  C   UNL     1     -14.026   0.606 -34.255  1.00  0.00     0.070 C 
HETATM   17  C   UNL     1     -13.827  -0.740 -33.560  1.00  0.00     0.019 C 
HETATM   18  C   UNL     1     -14.869   1.531 -33.378  1.00  0.00     0.019 C 
ENDBRANCH  13  16
ENDBRANCH   9  12
ENDBRANCH   5   6
ENDBRANCH   2   5
BRANCH   1  19
HETATM   19  C   UNL     1      -4.311   0.186 -31.867  1.00  0.00     0.157 A 
HETATM   20  C   UNL     1      -4.537  -0.999 -32.628  1.00  0.00     0.029 A 
HETATM   21  C   UNL     1      -5.501  -1.441 -33.556  1.00  0.00     0.023 A 
HETATM   22  C   UNL     1      -3.489  -1.850 -32.295  1.00  0.00     0.063 A 
HETATM   23  C   UNL     1      -5.383  -2.721 -34.123  1.00  0.00    -0.061 A 
HETATM   24  C   UNL     1      -6.397  -3.211 -35.116  1.00  0.00     0.048 C 
HETATM   25  C   UNL     1      -4.311  -3.547 -33.758  1.00  0.00     0.009 A 
HETATM   26  C   UNL     1      -3.343  -3.129 -32.838  1.00  0.00     0.032 A 
HETATM   27  N   UNL     1      -2.734  -1.154 -31.394  1.00  0.00    -0.277 N 
HETATM   28  H   UNL     1      -1.886  -1.466 -30.936  1.00  0.00     0.189 HD
HETATM   29  N   UNL     1      -3.193   0.079 -31.114  1.00  0.00    -0.168 NA
ENDBRANCH   1  19
TORSDOF 5
ENDMDL
MODEL 3
REMARK VINA RESULT:      -8.4      2.266      9.918
REMARK  5 active torsions:
REMARK  status: ('A' for Active; 'I' for Inactive)
REMARK    1  A    between atoms: C_9  and  C_10 
REMARK       I    between atoms: C_10  and  N_11 
REMARK    2  A    between atoms: N_11  and  C_12 
REMARK    3  A    between atoms: C_12  and  C_13 
REMARK    4  A    between atoms: C_16  and  N_17 
REMARK       I    between atoms: N_17  and  C_18 
REMARK    5  A    between atoms: C_18  and  C_19 
ROOT
HETATM    1  C   UNL     1      -2.329   5.060 -31.534  1.00  0.00     0.273 C 
HETATM    2  N   UNL     1      -3.219   4.131 -31.041  1.00  0.00    -0.351 N 
HETATM    3  O   UNL     1      -2.486   5.629 -32.612  1.00  0.00    -0.266 OA
HETATM    4  H   UNL     1      -3.044   3.812 -30.092  1.00  0.00     0.163 HD
ENDROOT
BRANCH   2   5
HETATM    5  C   UNL     1      -4.482   3.893 -31.682  1.00  0.00     0.161 C 
BRANCH   5   6
HETATM    6  C   UNL     1      -4.569   2.495 -32.228  1.00  0.00    -0.040 A 
HETATM    7  C   UNL     1      -5.738   2.044 -32.850  1.00  0.00     0.011 A 
HETATM    8  C   UNL     1      -5.820   0.745 -33.365  1.00  0.00     0.030 A 
HETATM    9  C   UNL     1      -4.736  -0.129 -33.264  1.00  0.00     0.034 A 
HETATM   10  C   UNL     1      -3.574   0.314 -32.621  1.00  0.00     0.030 A 
HETATM   11  C   UNL     1      -3.491   1.611 -32.102  1.00  0.00     0.011 A 
BRANCH   9  12
HETATM   12  N   UNL     1      -4.727  -1.442 -33.776  1.00  0.00    -0.327 N 
HETATM   13  C   UNL     1      -5.702  -2.060 -34.546  1.00  0.00     0.225 C 
HETATM   14  O   UNL     1      -6.761  -1.557 -34.908  1.00  0.00    -0.273 OA
HETATM   15  H   UNL     1      -3.900  -1.986 -33.570  1.00  0.00     0.169 HD
BRANCH  13  16
HETATM   16  C   UNL     1      -5.318  -3.494 -34.929  1.00  0.00     0.070 C 
HETATM   17  C   UNL     1      -4.166  -3.999 -34.062  1.00  0.00     0.019 C 
HETATM   18  C   UNL     1      -6.517  -4.434 -34.809  1.00  0.00     0.019 C 
ENDBRANCH  13  16
ENDBRANCH   9  12
ENDBRANCH   5   6
ENDBRANCH   2   5
BRANCH   1  19
HETATM   19  C   UNL     1      -1.192   5.316 -30.638  1.00  0.00     0.157 A 
HETATM   20  C   UNL     1      -0.953   6.488 -29.860  1.00  0.00     0.029 A 
HETATM   21  C   UNL     1      -1.605   7.721 -29.655  1.00  0.00     0.023 A 
HETATM   22  C   UNL     1       0.234   6.237 -29.182  1.00  0.00     0.063 A 
HETATM   23  C   UNL     1      -1.047   8.662 -28.773  1.00  0.00    -0.061 A 
HETATM   24  C   UNL     1      -1.727   9.979 -28.537  1.00  0.00     0.048 C 
HETATM   25  C   UNL     1       0.152   8.368 -28.110  1.00  0.00     0.009 A 
HETATM   26  C   UNL     1       0.816   7.151 -28.300  1.00  0.00     0.032 A 
HETATM   27  N   UNL     1       0.617   4.987 -29.578  1.00  0.00    -0.277 N 
HETATM   28  H   UNL     1       1.441   4.476 -29.281  1.00  0.00     0.189 HD
HETATM   29  N   UNL     1      -0.219   4.396 -30.451  1.00  0.00    -0.168 NA
ENDBRANCH   1  19
TORSDOF 5
ENDMDL
MODEL 4
REMARK VINA RESULT:      -8.1      2.619      3.495
REMARK  5 active torsions:
REMARK  status: ('A' for Active; 'I' for Inactive)
REMARK    1  A    between atoms: C_9  and  C_10 
REMARK       I    between atoms: C_10  and  N_11 
REMARK    2  A    between atoms: N_11  and  C_12 
REMARK    3  A    between atoms: C_12  and  C_13 
REMARK    4  A    between atoms: C_16  and  N_17 
REMARK       I    between atoms: N_17  and  C_18 
REMARK    5  A    between atoms: C_18  and  C_19 
ROOT
HETATM    1  C   UNL     1      -6.975   2.641 -33.539  1.00  0.00     0.273 C 
HETATM    2  N   UNL     1      -5.989   3.408 -34.119  1.00  0.00    -0.351 N 
HETATM    3  O   UNL     1      -7.706   3.056 -32.643  1.00  0.00    -0.266 OA
HETATM    4  H   UNL     1      -5.525   2.998 -34.924  1.00  0.00     0.163 HD
ENDROOT
BRANCH   2   5
HETATM    5  C   UNL     1      -5.866   4.809 -33.827  1.00  0.00     0.161 C 
BRANCH   5   6
HETATM    6  C   UNL     1      -4.699   5.083 -32.919  1.00  0.00    -0.040 A 
HETATM    7  C   UNL     1      -3.578   4.245 -32.928  1.00  0.00     0.011 A 
HETATM    8  C   UNL     1      -2.486   4.501 -32.090  1.00  0.00     0.030 A 
HETATM    9  C   UNL     1      -2.498   5.596 -31.224  1.00  0.00     0.034 A 
HETATM   10  C   UNL     1      -3.629   6.421 -31.199  1.00  0.00     0.030 A 
HETATM   11  C   UNL     1      -4.722   6.165 -32.033  1.00  0.00     0.011 A 
BRANCH   9  12
HETATM   12  N   UNL     1      -1.432   5.938 -30.366  1.00  0.00    -0.327 N 
HETATM   13  C   UNL     1      -0.279   6.640 -30.683  1.00  0.00     0.225 C 
HETATM   14  O   UNL     1       0.016   7.081 -31.790  1.00  0.00    -0.273 OA
HETATM   15  H   UNL     1      -1.538   5.651 -29.402  1.00  0.00     0.169 HD
BRANCH  13  16
HETATM   16  C   UNL     1       0.637   6.832 -29.469  1.00  0.00     0.070 C 
HETATM   17  C   UNL     1       0.201   8.042 -28.644  1.00  0.00     0.019 C 
HETATM   18  C   UNL     1       0.662   5.580 -28.594  1.00  0.00     0.019 C 
ENDBRANCH  13  16
ENDBRANCH   9  12
ENDBRANCH   5   6
ENDBRANCH   2   5
BRANCH   1  19
HETATM   19  C   UNL     1      -7.078   1.289 -34.110  1.00  0.00     0.157 A 
HETATM   20  C   UNL     1      -6.219   0.178 -33.858  1.00  0.00     0.029 A 
HETATM   21  C   UNL     1      -5.072  -0.062 -33.075  1.00  0.00     0.023 A 
HETATM   22  C   UNL     1      -6.740  -0.863 -34.617  1.00  0.00     0.063 A 
HETATM   23  C   UNL     1      -4.484  -1.338 -33.078  1.00  0.00    -0.061 A 
HETATM   24  C   UNL     1      -3.264  -1.616 -32.249  1.00  0.00     0.048 C 
HETATM   25  C   UNL     1      -5.042  -2.359 -33.859  1.00  0.00     0.009 A 
HETATM   26  C   UNL     1      -6.180  -2.142 -34.644  1.00  0.00     0.032 A 
HETATM   27  N   UNL     1      -7.829  -0.334 -35.251  1.00  0.00    -0.277 N 
HETATM   28  H   UNL     1      -8.456  -0.810 -35.890  1.00  0.00     0.189 HD
HETATM   29  N   UNL     1      -8.069   0.958 -34.967  1.00  0.00    -0.168 NA
ENDBRANCH   1  19
TORSDOF 5
ENDMDL
MODEL 5
REMARK VINA RESULT:      -7.9      2.446      3.201
REMARK  5 active torsions:
REMARK  status: ('A' for Active; 'I' for Inactive)
REMARK    1  A    between atoms: C_9  and  C_10 
REMARK       I    between atoms: C_10  and  N_11 
REMARK    2  A    between atoms: N_11  and  C_12 
REMARK    3  A    between atoms: C_12  and  C_13 
REMARK    4  A    between atoms: C_16  and  N_17 
REMARK       I    between atoms: N_17  and  C_18 
REMARK    5  A    between atoms: C_18  and  C_19 
ROOT
HETATM    1  C   UNL     1      -5.232   0.223 -32.347  1.00  0.00     0.273 C 
HETATM    2  N   UNL     1      -4.535   1.357 -32.698  1.00  0.00    -0.351 N 
HETATM    3  O   UNL     1      -6.438   0.226 -32.110  1.00  0.00    -0.266 OA
HETATM    4  H   UNL     1      -3.568   1.213 -32.978  1.00  0.00     0.163 HD
ENDROOT
BRANCH   2   5
HETATM    5  C   UNL     1      -5.212   2.593 -32.978  1.00  0.00     0.161 C 
BRANCH   5   6
HETATM    6  C   UNL     1      -4.554   3.752 -32.282  1.00  0.00    -0.040 A 
HETATM    7  C   UNL     1      -3.160   3.823 -32.179  1.00  0.00     0.011 A 
HETATM    8  C   UNL     1      -2.543   4.905 -31.539  1.00  0.00     0.030 A 
HETATM    9  C   UNL     1      -3.309   5.932 -30.986  1.00  0.00     0.034 A 
HETATM   10  C   UNL     1      -4.704   5.850 -31.068  1.00  0.00     0.030 A 
HETATM   11  C   UNL     1      -5.322   4.768 -31.704  1.00  0.00     0.011 A 
BRANCH   9  12
HETATM   12  N   UNL     1      -2.768   7.066 -30.346  1.00  0.00    -0.327 N 
HETATM   13  C   UNL     1      -2.420   8.279 -30.921  1.00  0.00     0.225 C 
HETATM   14  O   UNL     1      -2.516   8.569 -32.109  1.00  0.00    -0.273 OA
HETATM   15  H   UNL     1      -2.641   6.985 -29.346  1.00  0.00     0.169 HD
BRANCH  13  16
HETATM   16  C   UNL     1      -1.881   9.278 -29.890  1.00  0.00     0.070 C 
HETATM   17  C   UNL     1      -2.878  10.412 -29.659  1.00  0.00     0.019 C 
HETATM   18  C   UNL     1      -1.559   8.584 -28.567  1.00  0.00     0.019 C 
ENDBRANCH  13  16
ENDBRANCH   9  12
ENDBRANCH   5   6
ENDBRANCH   2   5
BRANCH   1  19
HETATM   19  C   UNL     1      -4.399  -0.988 -32.303  1.00  0.00     0.157 A 
HETATM   20  C   UNL     1      -4.584  -2.191 -33.049  1.00  0.00     0.029 A 
HETATM   21  C   UNL     1      -5.512  -2.663 -33.999  1.00  0.00     0.023 A 
HETATM   22  C   UNL     1      -3.537  -3.020 -32.666  1.00  0.00     0.063 A 
HETATM   23  C   UNL     1      -5.358  -3.952 -34.536  1.00  0.00    -0.061 A 
HETATM   24  C   UNL     1      -6.332  -4.474 -35.552  1.00  0.00     0.048 C 
HETATM   25  C   UNL     1      -4.287  -4.756 -34.122  1.00  0.00     0.009 A 
HETATM   26  C   UNL     1      -3.356  -4.306 -33.179  1.00  0.00     0.032 A 
HETATM   27  N   UNL     1      -2.821  -2.296 -31.754  1.00  0.00    -0.277 N 
HETATM   28  H   UNL     1      -1.984  -2.588 -31.263  1.00  0.00     0.189 HD
HETATM   29  N   UNL     1      -3.305  -1.065 -31.512  1.00  0.00    -0.168 NA
ENDBRANCH   1  19
TORSDOF 5
ENDMDL
MODEL 6
REMARK VINA RESULT:      -7.8      4.433      6.276
REMARK  5 active torsions:
REMARK  status: ('A' for Active; 'I' for Inactive)
REMARK    1  A    between atoms: C_9  and  C_10 
REMARK       I    between atoms: C_10  and  N_11 
REMARK    2  A    between atoms: N_11  and  C_12 
REMARK    3  A    between atoms: C_12  and  C_13 
REMARK    4  A    between atoms: C_16  and  N_17 
REMARK       I    between atoms: N_17  and  C_18 
REMARK    5  A    between atoms: C_18  and  C_19 
ROOT
HETATM    1  C   UNL     1      -7.995   0.365 -32.902  1.00  0.00     0.273 C 
HETATM    2  N   UNL     1      -7.574   0.815 -31.670  1.00  0.00    -0.351 N 
HETATM    3  O   UNL     1      -7.232  -0.130 -33.729  1.00  0.00    -0.266 OA
HETATM    4  H   UNL     1      -8.309   1.100 -31.028  1.00  0.00     0.163 HD
ENDROOT
BRANCH   2   5
HETATM    5  C   UNL     1      -6.236   0.577 -31.206  1.00  0.00     0.161 C 
BRANCH   5   6
HETATM    6  C   UNL     1      -5.373   1.799 -31.359  1.00  0.00    -0.040 A 
HETATM    7  C   UNL     1      -5.599   2.934 -30.571  1.00  0.00     0.011 A 
HETATM    8  C   UNL     1      -4.793   4.070 -30.705  1.00  0.00     0.030 A 
HETATM    9  C   UNL     1      -3.751   4.096 -31.633  1.00  0.00     0.034 A 
HETATM   10  C   UNL     1      -3.539   2.969 -32.437  1.00  0.00     0.030 A 
HETATM   11  C   UNL     1      -4.345   1.834 -32.307  1.00  0.00     0.011 A 
BRANCH   9  12
HETATM   12  N   UNL     1      -2.879   5.189 -31.815  1.00  0.00    -0.327 N 
HETATM   13  C   UNL     1      -1.546   5.283 -31.444  1.00  0.00     0.225 C 
HETATM   14  O   UNL     1      -0.893   4.415 -30.874  1.00  0.00    -0.273 OA
HETATM   15  H   UNL     1      -3.275   5.989 -32.291  1.00  0.00     0.169 HD
BRANCH  13  16
HETATM   16  C   UNL     1      -0.928   6.631 -31.832  1.00  0.00     0.070 C 
HETATM   17  C   UNL     1       0.495   6.753 -31.288  1.00  0.00     0.019 C 
HETATM   18  C   UNL     1      -0.928   6.821 -33.348  1.00  0.00     0.019 C 
ENDBRANCH  13  16
ENDBRANCH   9  12
ENDBRANCH   5   6
ENDBRANCH   2   5
BRANCH   1  19
HETATM   19  C   UNL     1      -9.442   0.516 -33.118  1.00  0.00     0.157 A 
HETATM   20  C   UNL     1     -10.113   1.619 -33.725  1.00  0.00     0.029 A 
HETATM   21  C   UNL     1      -9.734   2.854 -34.287  1.00  0.00     0.023 A 
HETATM   22  C   UNL     1     -11.460   1.278 -33.706  1.00  0.00     0.063 A 
HETATM   23  C   UNL     1     -10.717   3.708 -34.813  1.00  0.00    -0.061 A 
HETATM   24  C   UNL     1     -10.335   5.027 -35.419  1.00  0.00     0.048 C 
HETATM   25  C   UNL     1     -12.065   3.326 -34.772  1.00  0.00     0.009 A 
HETATM   26  C   UNL     1     -12.463   2.104 -34.219  1.00  0.00     0.032 A 
HETATM   27  N   UNL     1     -11.511   0.048 -33.114  1.00  0.00    -0.277 N 
HETATM   28  H   UNL     1     -12.338  -0.511 -32.933  1.00  0.00     0.189 HD
HETATM   29  N   UNL     1     -10.315  -0.448 -32.750  1.00  0.00    -0.168 NA
ENDBRANCH   1  19
TORSDOF 5
ENDMDL
MODEL 7
REMARK VINA RESULT:      -7.8      3.358      4.551
REMARK  5 active torsions:
REMARK  status: ('A' for Active; 'I' for Inactive)
REMARK    1  A    between atoms: C_9  and  C_10 
REMARK       I    between atoms: C_10  and  N_11 
REMARK    2  A    between atoms: N_11  and  C_12 
REMARK    3  A    between atoms: C_12  and  C_13 
REMARK    4  A    between atoms: C_16  and  N_17 
REMARK       I    between atoms: N_17  and  C_18 
REMARK    5  A    between atoms: C_18  and  C_19 
ROOT
HETATM    1  C   UNL     1      -8.031   4.080 -33.483  1.00  0.00     0.273 C 
HETATM    2  N   UNL     1      -8.049   4.243 -32.116  1.00  0.00    -0.351 N 
HETATM    3  O   UNL     1      -7.836   5.007 -34.265  1.00  0.00    -0.266 OA
HETATM    4  H   UNL     1      -8.107   3.389 -31.568  1.00  0.00     0.163 HD
ENDROOT
BRANCH   2   5
HETATM    5  C   UNL     1      -7.670   5.489 -31.509  1.00  0.00     0.161 C 
BRANCH   5   6
HETATM    6  C   UNL     1      -6.190   5.550 -31.252  1.00  0.00    -0.040 A 
HETATM    7  C   UNL     1      -5.443   4.375 -31.105  1.00  0.00     0.011 A 
HETATM    8  C   UNL     1      -4.064   4.428 -30.874  1.00  0.00     0.030 A 
HETATM    9  C   UNL     1      -3.406   5.655 -30.780  1.00  0.00     0.034 A 
HETATM   10  C   UNL     1      -4.157   6.831 -30.905  1.00  0.00     0.030 A 
HETATM   11  C   UNL     1      -5.536   6.781 -31.133  1.00  0.00     0.011 A 
BRANCH   9  12
HETATM   12  N   UNL     1      -2.019   5.797 -30.573  1.00  0.00    -0.327 N 
HETATM   13  C   UNL     1      -0.989   5.302 -31.359  1.00  0.00     0.225 C 
HETATM   14  O   UNL     1      -1.117   4.636 -32.381  1.00  0.00    -0.273 OA
HETATM   15  H   UNL     1      -1.751   6.342 -29.764  1.00  0.00     0.169 HD
BRANCH  13  16
HETATM   16  C   UNL     1       0.393   5.684 -30.814  1.00  0.00     0.070 C 
HETATM   17  C   UNL     1       0.379   7.099 -30.238  1.00  0.00     0.019 C 
HETATM   18  C   UNL     1       0.860   4.689 -29.753  1.00  0.00     0.019 C 
ENDBRANCH  13  16
ENDBRANCH   9  12
ENDBRANCH   5   6
ENDBRANCH   2   5
BRANCH   1  19
HETATM   19  C   UNL     1      -8.246   2.689 -33.910  1.00  0.00     0.157 A 
HETATM   20  C   UNL     1      -7.326   1.602 -33.806  1.00  0.00     0.029 A 
HETATM   21  C   UNL     1      -6.012   1.427 -33.328  1.00  0.00     0.023 A 
HETATM   22  C   UNL     1      -8.000   0.506 -34.330  1.00  0.00     0.063 A 
HETATM   23  C   UNL     1      -5.416   0.156 -33.390  1.00  0.00    -0.061 A 
HETATM   24  C   UNL     1      -4.018  -0.054 -32.883  1.00  0.00     0.048 C 
HETATM   25  C   UNL     1      -6.131  -0.923 -33.927  1.00  0.00     0.009 A 
HETATM   26  C   UNL     1      -7.436  -0.770 -34.407  1.00  0.00     0.032 A 
HETATM   27  N   UNL     1      -9.226   0.981 -34.700  1.00  0.00    -0.277 N 
HETATM   28  H   UNL     1      -9.985   0.456 -35.121  1.00  0.00     0.189 HD
HETATM   29  N   UNL     1      -9.415   2.290 -34.458  1.00  0.00    -0.168 NA
ENDBRANCH   1  19
TORSDOF 5
ENDMDL
MODEL 8
REMARK VINA RESULT:      -7.7      2.746      4.076
REMARK  5 active torsions:
REMARK  status: ('A' for Active; 'I' for Inactive)
REMARK    1  A    between atoms: C_9  and  C_10 
REMARK       I    between atoms: C_10  and  N_11 
REMARK    2  A    between atoms: N_11  and  C_12 
REMARK    3  A    between atoms: C_12  and  C_13 
REMARK    4  A    between atoms: C_16  and  N_17 
REMARK       I    between atoms: N_17  and  C_18 
REMARK    5  A    between atoms: C_18  and  C_19 
ROOT
HETATM    1  C   UNL     1      -6.699   0.749 -32.829  1.00  0.00     0.273 C 
HETATM    2  N   UNL     1      -6.716   1.942 -33.516  1.00  0.00    -0.351 N 
HETATM    3  O   UNL     1      -6.876   0.673 -31.615  1.00  0.00    -0.266 OA
HETATM    4  H   UNL     1      -6.670   1.871 -34.529  1.00  0.00     0.163 HD
ENDROOT
BRANCH   2   5
HETATM    5  C   UNL     1      -7.111   3.166 -32.876  1.00  0.00     0.161 C 
BRANCH   5   6
HETATM    6  C   UNL     1      -5.930   3.890 -32.292  1.00  0.00    -0.040 A 
HETATM    7  C   UNL     1      -5.888   4.202 -30.929  1.00  0.00     0.011 A 
HETATM    8  C   UNL     1      -4.787   4.870 -30.381  1.00  0.00     0.030 A 
HETATM    9  C   UNL     1      -3.710   5.243 -31.186  1.00  0.00     0.034 A 
HETATM   10  C   UNL     1      -3.762   4.951 -32.555  1.00  0.00     0.030 A 
HETATM   11  C   UNL     1      -4.863   4.287 -33.105  1.00  0.00     0.011 A 
BRANCH   9  12
HETATM   12  N   UNL     1      -2.554   5.896 -30.711  1.00  0.00    -0.327 N 
HETATM   13  C   UNL     1      -1.260   5.399 -30.658  1.00  0.00     0.225 C 
HETATM   14  O   UNL     1      -0.901   4.282 -31.014  1.00  0.00    -0.273 OA
HETATM   15  H   UNL     1      -2.689   6.846 -30.391  1.00  0.00     0.169 HD
BRANCH  13  16
HETATM   16  C   UNL     1      -0.267   6.422 -30.093  1.00  0.00     0.070 C 
HETATM   17  C   UNL     1       0.532   5.822 -28.937  1.00  0.00     0.019 C 
HETATM   18  C   UNL     1       0.680   6.929 -31.180  1.00  0.00     0.019 C 
ENDBRANCH  13  16
ENDBRANCH   9  12
ENDBRANCH   5   6
ENDBRANCH   2   5
BRANCH   1  19
HETATM   19  C   UNL     1      -6.472  -0.421 -33.692  1.00  0.00     0.157 A 
HETATM   20  C   UNL     1      -5.512  -1.460 -33.502  1.00  0.00     0.029 A 
HETATM   21  C   UNL     1      -4.515  -1.760 -32.552  1.00  0.00     0.023 A 
HETATM   22  C   UNL     1      -5.702  -2.328 -34.570  1.00  0.00     0.063 A 
HETATM   23  C   UNL     1      -3.742  -2.923 -32.702  1.00  0.00    -0.061 A 
HETATM   24  C   UNL     1      -2.677  -3.264 -31.700  1.00  0.00     0.048 C 
HETATM   25  C   UNL     1      -3.966  -3.771 -33.794  1.00  0.00     0.009 A 
HETATM   26  C   UNL     1      -4.950  -3.492 -34.750  1.00  0.00     0.032 A 
HETATM   27  N   UNL     1      -6.717  -1.781 -35.302  1.00  0.00    -0.277 N 
HETATM   28  H   UNL     1      -7.124  -2.148 -36.155  1.00  0.00     0.189 HD
HETATM   29  N   UNL     1      -7.212  -0.634 -34.803  1.00  0.00    -0.168 NA
ENDBRANCH   1  19
TORSDOF 5
ENDMDL
MODEL 9
REMARK VINA RESULT:      -7.7      7.404     10.225
REMARK  5 active torsions:
REMARK  status: ('A' for Active; 'I' for Inactive)
REMARK    1  A    between atoms: C_9  and  C_10 
REMARK       I    between atoms: C_10  and  N_11 
REMARK    2  A    between atoms: N_11  and  C_12 
REMARK    3  A    between atoms: C_12  and  C_13 
REMARK    4  A    between atoms: C_16  and  N_17 
REMARK       I    between atoms: N_17  and  C_18 
REMARK    5  A    between atoms: C_18  and  C_19 
ROOT
HETATM    1  C   UNL     1      -8.520   0.436 -32.419  1.00  0.00     0.273 C 
HETATM    2  N   UNL     1      -9.370   0.284 -33.492  1.00  0.00    -0.351 N 
HETATM    3  O   UNL     1      -8.911   0.735 -31.292  1.00  0.00    -0.266 OA
HETATM    4  H   UNL     1      -8.947  -0.073 -34.344  1.00  0.00     0.163 HD
ENDROOT
BRANCH   2   5
HETATM    5  C   UNL     1     -10.796   0.299 -33.321  1.00  0.00     0.161 C 
BRANCH   5   6
HETATM    6  C   UNL     1     -11.403   1.564 -33.861  1.00  0.00    -0.040 A 
HETATM    7  C   UNL     1     -10.622   2.481 -34.575  1.00  0.00     0.011 A 
HETATM    8  C   UNL     1     -11.185   3.656 -35.086  1.00  0.00     0.030 A 
HETATM    9  C   UNL     1     -12.537   3.939 -34.888  1.00  0.00     0.034 A 
HETATM   10  C   UNL     1     -13.314   3.034 -34.154  1.00  0.00     0.030 A 
HETATM   11  C   UNL     1     -12.752   1.861 -33.640  1.00  0.00     0.011 A 
BRANCH   9  12
HETATM   12  N   UNL     1     -13.188   5.086 -35.388  1.00  0.00    -0.327 N 
HETATM   13  C   UNL     1     -12.987   6.406 -35.013  1.00  0.00     0.225 C 
HETATM   14  O   UNL     1     -12.201   6.802 -34.158  1.00  0.00    -0.273 OA
HETATM   15  H   UNL     1     -13.865   4.921 -36.121  1.00  0.00     0.169 HD
BRANCH  13  16
HETATM   16  C   UNL     1     -13.874   7.376 -35.803  1.00  0.00     0.070 C 
HETATM   17  C   UNL     1     -13.247   8.769 -35.851  1.00  0.00     0.019 C 
HETATM   18  C   UNL     1     -14.125   6.863 -37.220  1.00  0.00     0.019 C 
ENDBRANCH  13  16
ENDBRANCH   9  12
ENDBRANCH   5   6
ENDBRANCH   2   5
BRANCH   1  19
HETATM   19  C   UNL     1      -7.108   0.187 -32.749  1.00  0.00     0.157 A 
HETATM   20  C   UNL     1      -6.568  -0.945 -33.429  1.00  0.00     0.029 A 
HETATM   21  C   UNL     1      -7.079  -2.135 -33.985  1.00  0.00     0.023 A 
HETATM   22  C   UNL     1      -5.202  -0.703 -33.506  1.00  0.00     0.063 A 
HETATM   23  C   UNL     1      -6.204  -3.043 -34.603  1.00  0.00    -0.061 A 
HETATM   24  C   UNL     1      -6.728  -4.315 -35.206  1.00  0.00     0.048 C 
HETATM   25  C   UNL     1      -4.833  -2.761 -34.658  1.00  0.00     0.009 A 
HETATM   26  C   UNL     1      -4.304  -1.586 -34.111  1.00  0.00     0.032 A 
HETATM   27  N   UNL     1      -5.015   0.504 -32.894  1.00  0.00    -0.277 N 
HETATM   28  H   UNL     1      -4.138   0.996 -32.766  1.00  0.00     0.189 HD
HETATM   29  N   UNL     1      -6.140   1.075 -32.429  1.00  0.00    -0.168 NA
ENDBRANCH   1  19
TORSDOF 5
ENDMDL
MODEL 10
REMARK VINA RESULT:      -7.6      2.634      2.970
REMARK  5 active torsions:
REMARK  status: ('A' for Active; 'I' for Inactive)
REMARK    1  A    between atoms: C_9  and  C_10 
REMARK       I    between atoms: C_10  and  N_11 
REMARK    2  A    between atoms: N_11  and  C_12 
REMARK    3  A    between atoms: C_12  and  C_13 
REMARK    4  A    between atoms: C_16  and  N_17 
REMARK       I    between atoms: N_17  and  C_18 
REMARK    5  A    between atoms: C_18  and  C_19 
ROOT
HETATM    1  C   UNL     1      -5.647   4.430 -32.302  1.00  0.00     0.273 C 
HETATM    2  N   UNL     1      -4.341   3.992 -32.279  1.00  0.00    -0.351 N 
HETATM    3  O   UNL     1      -5.979   5.518 -32.765  1.00  0.00    -0.266 OA
HETATM    4  H   UNL     1      -4.201   3.033 -31.976  1.00  0.00     0.163 HD
ENDROOT
BRANCH   2   5
HETATM    5  C   UNL     1      -3.300   4.716 -32.954  1.00  0.00     0.161 C 
BRANCH   5   6
HETATM    6  C   UNL     1      -2.320   5.309 -31.980  1.00  0.00    -0.040 A 
HETATM    7  C   UNL     1      -0.946   5.081 -32.123  1.00  0.00     0.011 A 
HETATM    8  C   UNL     1      -0.030   5.638 -31.223  1.00  0.00     0.030 A 
HETATM    9  C   UNL     1      -0.470   6.429 -30.161  1.00  0.00     0.034 A 
HETATM   10  C   UNL     1      -1.846   6.639 -30.004  1.00  0.00     0.030 A 
HETATM   11  C   UNL     1      -2.763   6.081 -30.901  1.00  0.00     0.011 A 
BRANCH   9  12
HETATM   12  N   UNL     1       0.385   7.045 -29.225  1.00  0.00    -0.327 N 
HETATM   13  C   UNL     1       0.491   6.780 -27.868  1.00  0.00     0.225 C 
HETATM   14  O   UNL     1      -0.164   5.954 -27.242  1.00  0.00    -0.273 OA
HETATM   15  H   UNL     1       1.007   7.750 -29.599  1.00  0.00     0.169 HD
BRANCH  13  16
HETATM   16  C   UNL     1       1.555   7.649 -27.187  1.00  0.00     0.070 C 
HETATM   17  C   UNL     1       1.634   9.026 -27.842  1.00  0.00     0.019 C 
HETATM   18  C   UNL     1       1.272   7.793 -25.692  1.00  0.00     0.019 C 
ENDBRANCH  13  16
ENDBRANCH   9  12
ENDBRANCH   5   6
ENDBRANCH   2   5
BRANCH   1  19
HETATM   19  C   UNL     1      -6.599   3.460 -31.739  1.00  0.00     0.157 A 
HETATM   20  C   UNL     1      -7.162   2.324 -32.394  1.00  0.00     0.029 A 
HETATM   21  C   UNL     1      -7.064   1.737 -33.672  1.00  0.00     0.023 A 
HETATM   22  C   UNL     1      -7.984   1.729 -31.445  1.00  0.00     0.063 A 
HETATM   23  C   UNL     1      -7.794   0.570 -33.956  1.00  0.00    -0.061 A 
HETATM   24  C   UNL     1      -7.702  -0.074 -35.309  1.00  0.00     0.048 C 
HETATM   25  C   UNL     1      -8.611   0.003 -32.969  1.00  0.00     0.009 A 
HETATM   26  C   UNL     1      -8.723   0.570 -31.695  1.00  0.00     0.032 A 
HETATM   27  N   UNL     1      -7.870   2.511 -30.330  1.00  0.00    -0.277 N 
HETATM   28  H   UNL     1      -8.332   2.376 -29.438  1.00  0.00     0.189 HD
HETATM   29  N   UNL     1      -7.041   3.561 -30.466  1.00  0.00    -0.168 NA
ENDBRANCH   1  19
TORSDOF 5
ENDMDL
