MODEL 1
REMARK VINA RESULT:      -7.1      0.000      0.000
REMARK  5 active torsions:
REMARK  status: ('A' for Active; 'I' for Inactive)
REMARK    1  A    between atoms: C_3  and  N_4 
REMARK       I    between atoms: N_4  and  C_5 
REMARK       I    between atoms: C_5  and  N_6 
REMARK    2  A    between atoms: N_6  and  C_7 
REMARK    3  A    between atoms: C_8  and  O_9 
REMARK    4  A    between atoms: O_9  and  C_10 
REMARK    5  A    between atoms: C_10  and  C_11 
ROOT
HETATM    1  N   UNL     1      -9.732   1.496 -34.521  1.00  0.00    -0.307 N 
HETATM    2  C   UNL     1      -8.974   0.513 -33.907  1.00  0.00     0.325 C 
HETATM    3  N   UNL     1      -7.858   0.249 -34.677  1.00  0.00    -0.306 N 
HETATM    4  O   UNL     1      -9.245  -0.029 -32.846  1.00  0.00    -0.247 OA
HETATM    5  H   UNL     1      -9.170   2.163 -35.031  1.00  0.00     0.170 HD
HETATM    6  H   UNL     1      -7.802   0.698 -35.583  1.00  0.00     0.171 HD
ENDROOT
BRANCH   3   7
HETATM    7  C   UNL     1      -6.850  -0.719 -34.483  1.00  0.00     0.069 A 
HETATM    8  C   UNL     1      -5.641  -0.253 -33.923  1.00  0.00     0.095 A 
HETATM    9  C   UNL     1      -4.579  -1.137 -33.717  1.00  0.00     0.039 A 
HETATM   10  C   UNL     1      -4.716  -2.480 -34.073  1.00  0.00     0.003 A 
HETATM   11  C   UNL     1      -5.910  -2.940 -34.626  1.00  0.00     0.002 A 
HETATM   12  C   UNL     1      -6.979  -2.063 -34.830  1.00  0.00     0.032 A 
BRANCH   8  13
HETATM   13  O   UNL     1      -5.625   1.081 -33.590  1.00  0.00    -0.348 OA
BRANCH  13  14
HETATM   14  C   UNL     1      -5.171   1.412 -32.278  1.00  0.00     0.180 C 
BRANCH  14  15
HETATM   15  C   UNL     1      -6.278   1.207 -31.279  1.00  0.00     0.010 A 
HETATM   16  C   UNL     1      -6.434  -0.068 -30.485  1.00  0.00     0.007 A 
HETATM   17  C   UNL     1      -5.996   1.198 -29.797  1.00  0.00     0.007 A 
ENDBRANCH  14  15
ENDBRANCH  13  14
ENDBRANCH   8  13
ENDBRANCH   3   7
BRANCH   1  18
HETATM   18  C   UNL     1     -11.069   1.883 -34.276  1.00  0.00     0.059 A 
HETATM   19  C   UNL     1     -11.541   2.702 -33.239  1.00  0.00    -0.032 A 
HETATM   20  C   UNL     1     -10.689   3.329 -32.174  1.00  0.00     0.050 C 
HETATM   21  C   UNL     1     -12.926   2.946 -33.165  1.00  0.00     0.028 A 
HETATM   22  C   UNL     1     -13.785   2.342 -34.068  1.00  0.00     0.117 A 
HETATM   23  N   UNL     1     -13.372   1.517 -35.044  1.00  0.00    -0.271 NA
HETATM   24  C   UNL     1     -12.034   1.314 -35.120  1.00  0.00     0.146 A 
ENDBRANCH   1  18
TORSDOF 5
ENDMDL
MODEL 2
REMARK VINA RESULT:      -6.9      1.742      2.477
REMARK  5 active torsions:
REMARK  status: ('A' for Active; 'I' for Inactive)
REMARK    1  A    between atoms: C_3  and  N_4 
REMARK       I    between atoms: N_4  and  C_5 
REMARK       I    between atoms: C_5  and  N_6 
REMARK    2  A    between atoms: N_6  and  C_7 
REMARK    3  A    between atoms: C_8  and  O_9 
REMARK    4  A    between atoms: O_9  and  C_10 
REMARK    5  A    between atoms: C_10  and  C_11 
ROOT
HETATM    1  N   UNL     1      -7.996   0.680 -34.546  1.00  0.00    -0.307 N 
HETATM    2  C   UNL     1      -7.432  -0.417 -33.918  1.00  0.00     0.325 C 
HETATM    3  N   UNL     1      -6.772  -1.190 -34.854  1.00  0.00    -0.306 N 
HETATM    4  O   UNL     1      -7.500  -0.659 -32.722  1.00  0.00    -0.247 OA
HETATM    5  H   UNL     1      -7.451   1.006 -35.332  1.00  0.00     0.170 HD
HETATM    6  H   UNL     1      -6.875  -0.929 -35.827  1.00  0.00     0.171 HD
ENDROOT
BRANCH   3   7
HETATM    7  C   UNL     1      -6.117  -2.428 -34.685  1.00  0.00     0.069 A 
HETATM    8  C   UNL     1      -4.802  -2.371 -34.175  1.00  0.00     0.095 A 
HETATM    9  C   UNL     1      -4.069  -3.547 -33.997  1.00  0.00     0.039 A 
HETATM   10  C   UNL     1      -4.639  -4.776 -34.332  1.00  0.00     0.003 A 
HETATM   11  C   UNL     1      -5.937  -4.833 -34.836  1.00  0.00     0.002 A 
HETATM   12  C   UNL     1      -6.679  -3.662 -35.011  1.00  0.00     0.032 A 
BRANCH   8  13
HETATM   13  O   UNL     1      -4.350  -1.111 -33.859  1.00  0.00    -0.348 OA
BRANCH  13  14
HETATM   14  C   UNL     1      -3.599  -0.980 -32.652  1.00  0.00     0.180 C 
BRANCH  14  15
HETATM   15  C   UNL     1      -4.159   0.134 -31.810  1.00  0.00     0.010 A 
HETATM   16  C   UNL     1      -3.402   1.411 -31.539  1.00  0.00     0.007 A 
HETATM   17  C   UNL     1      -4.612   1.430 -32.436  1.00  0.00     0.007 A 
ENDBRANCH  14  15
ENDBRANCH  13  14
ENDBRANCH   8  13
ENDBRANCH   3   7
BRANCH   1  18
HETATM   18  C   UNL     1      -8.985   1.574 -34.076  1.00  0.00     0.059 A 
HETATM   19  C   UNL     1      -8.795   2.881 -33.606  1.00  0.00    -0.032 A 
HETATM   20  C   UNL     1      -7.472   3.586 -33.512  1.00  0.00     0.050 C 
HETATM   21  C   UNL     1      -9.923   3.597 -33.160  1.00  0.00     0.028 A 
HETATM   22  C   UNL     1     -11.168   2.988 -33.146  1.00  0.00     0.117 A 
HETATM   23  N   UNL     1     -11.377   1.724 -33.547  1.00  0.00    -0.271 NA
HETATM   24  C   UNL     1     -10.288   1.058 -33.998  1.00  0.00     0.146 A 
ENDBRANCH   1  18
TORSDOF 5
ENDMDL
MODEL 3
REMARK VINA RESULT:      -6.9      1.629      3.665
REMARK  5 active torsions:
REMARK  status: ('A' for Active; 'I' for Inactive)
REMARK    1  A    between atoms: C_3  and  N_4 
REMARK       I    between atoms: N_4  and  C_5 
REMARK       I    between atoms: C_5  and  N_6 
REMARK    2  A    between atoms: N_6  and  C_7 
REMARK    3  A    between atoms: C_8  and  O_9 
REMARK    4  A    between atoms: O_9  and  C_10 
REMARK    5  A    between atoms: C_10  and  C_11 
ROOT
HETATM    1  N   UNL     1     -10.116   0.950 -32.942  1.00  0.00    -0.307 N 
HETATM    2  C   UNL     1      -8.814   0.885 -33.407  1.00  0.00     0.325 C 
HETATM    3  N   UNL     1      -7.982   0.478 -32.381  1.00  0.00    -0.306 N 
HETATM    4  O   UNL     1      -8.457   1.139 -34.548  1.00  0.00    -0.247 OA
HETATM    5  H   UNL     1     -10.314   0.258 -32.233  1.00  0.00     0.170 HD
HETATM    6  H   UNL     1      -8.390   0.395 -31.458  1.00  0.00     0.171 HD
ENDROOT
BRANCH   3   7
HETATM    7  C   UNL     1      -6.578   0.343 -32.373  1.00  0.00     0.069 A 
HETATM    8  C   UNL     1      -6.065  -0.843 -32.942  1.00  0.00     0.095 A 
HETATM    9  C   UNL     1      -4.687  -1.073 -32.957  1.00  0.00     0.039 A 
HETATM   10  C   UNL     1      -3.821  -0.130 -32.401  1.00  0.00     0.003 A 
HETATM   11  C   UNL     1      -4.327   1.041 -31.839  1.00  0.00     0.002 A 
HETATM   12  C   UNL     1      -5.704   1.281 -31.826  1.00  0.00     0.032 A 
BRANCH   8  13
HETATM   13  O   UNL     1      -7.006  -1.690 -33.478  1.00  0.00    -0.348 OA
BRANCH  13  14
HETATM   14  C   UNL     1      -6.688  -2.295 -34.731  1.00  0.00     0.180 C 
BRANCH  14  15
HETATM   15  C   UNL     1      -6.758  -3.794 -34.617  1.00  0.00     0.010 A 
HETATM   16  C   UNL     1      -6.443  -4.716 -35.770  1.00  0.00     0.007 A 
HETATM   17  C   UNL     1      -5.503  -4.632 -34.597  1.00  0.00     0.007 A 
ENDBRANCH  14  15
ENDBRANCH  13  14
ENDBRANCH   8  13
ENDBRANCH   3   7
BRANCH   1  18
HETATM   18  C   UNL     1     -11.245   1.576 -33.517  1.00  0.00     0.059 A 
HETATM   19  C   UNL     1     -12.478   0.985 -33.830  1.00  0.00    -0.032 A 
HETATM   20  C   UNL     1     -12.830  -0.457 -33.606  1.00  0.00     0.050 C 
HETATM   21  C   UNL     1     -13.469   1.791 -34.423  1.00  0.00     0.028 A 
HETATM   22  C   UNL     1     -13.193   3.114 -34.729  1.00  0.00     0.117 A 
HETATM   23  N   UNL     1     -12.009   3.699 -34.486  1.00  0.00    -0.271 NA
HETATM   24  C   UNL     1     -11.076   2.918 -33.890  1.00  0.00     0.146 A 
ENDBRANCH   1  18
TORSDOF 5
ENDMDL
MODEL 4
REMARK VINA RESULT:      -6.9      1.769      3.606
REMARK  5 active torsions:
REMARK  status: ('A' for Active; 'I' for Inactive)
REMARK    1  A    between atoms: C_3  and  N_4 
REMARK       I    between atoms: N_4  and  C_5 
REMARK       I    between atoms: C_5  and  N_6 
REMARK    2  A    between atoms: N_6  and  C_7 
REMARK    3  A    between atoms: C_8  and  O_9 
REMARK    4  A    between atoms: O_9  and  C_10 
REMARK    5  A    between atoms: C_10  and  C_11 
ROOT
HETATM    1  N   UNL     1      -9.567   2.003 -34.646  1.00  0.00    -0.307 N 
HETATM    2  C   UNL     1      -8.667   2.560 -33.754  1.00  0.00     0.325 C 
HETATM    3  N   UNL     1      -7.386   2.427 -34.255  1.00  0.00    -0.306 N 
HETATM    4  O   UNL     1      -8.960   3.095 -32.695  1.00  0.00    -0.247 OA
HETATM    5  H   UNL     1      -9.275   2.096 -35.609  1.00  0.00     0.170 HD
HETATM    6  H   UNL     1      -7.272   1.878 -35.097  1.00  0.00     0.171 HD
ENDROOT
BRANCH   3   7
HETATM    7  C   UNL     1      -6.157   2.781 -33.661  1.00  0.00     0.069 A 
HETATM    8  C   UNL     1      -5.613   1.847 -32.753  1.00  0.00     0.095 A 
HETATM    9  C   UNL     1      -4.410   2.124 -32.099  1.00  0.00     0.039 A 
HETATM   10  C   UNL     1      -3.752   3.331 -32.341  1.00  0.00     0.003 A 
HETATM   11  C   UNL     1      -4.288   4.254 -33.237  1.00  0.00     0.002 A 
HETATM   12  C   UNL     1      -5.488   3.981 -33.899  1.00  0.00     0.032 A 
BRANCH   8  13
HETATM   13  O   UNL     1      -6.334   0.684 -32.608  1.00  0.00    -0.348 OA
BRANCH  13  14
HETATM   14  C   UNL     1      -5.619  -0.540 -32.771  1.00  0.00     0.180 C 
BRANCH  14  15
HETATM   15  C   UNL     1      -5.819  -1.077 -34.163  1.00  0.00     0.010 A 
HETATM   16  C   UNL     1      -6.592  -2.342 -34.445  1.00  0.00     0.007 A 
HETATM   17  C   UNL     1      -7.167  -1.007 -34.836  1.00  0.00     0.007 A 
ENDBRANCH  14  15
ENDBRANCH  13  14
ENDBRANCH   8  13
ENDBRANCH   3   7
BRANCH   1  18
HETATM   18  C   UNL     1     -10.921   1.645 -34.450  1.00  0.00     0.059 A 
HETATM   19  C   UNL     1     -11.418   0.608 -33.648  1.00  0.00    -0.032 A 
HETATM   20  C   UNL     1     -10.581  -0.335 -32.832  1.00  0.00     0.050 C 
HETATM   21  C   UNL     1     -12.811   0.406 -33.612  1.00  0.00     0.028 A 
HETATM   22  C   UNL     1     -13.644   1.188 -34.396  1.00  0.00     0.117 A 
HETATM   23  N   UNL     1     -13.198   2.158 -35.209  1.00  0.00    -0.271 NA
HETATM   24  C   UNL     1     -11.858   2.358 -35.212  1.00  0.00     0.146 A 
ENDBRANCH   1  18
TORSDOF 5
ENDMDL
MODEL 5
REMARK VINA RESULT:      -6.9      1.791      2.446
REMARK  5 active torsions:
REMARK  status: ('A' for Active; 'I' for Inactive)
REMARK    1  A    between atoms: C_3  and  N_4 
REMARK       I    between atoms: N_4  and  C_5 
REMARK       I    between atoms: C_5  and  N_6 
REMARK    2  A    between atoms: N_6  and  C_7 
REMARK    3  A    between atoms: C_8  and  O_9 
REMARK    4  A    between atoms: O_9  and  C_10 
REMARK    5  A    between atoms: C_10  and  C_11 
ROOT
HETATM    1  N   UNL     1      -9.016   0.849 -33.852  1.00  0.00    -0.307 N 
HETATM    2  C   UNL     1      -8.024   0.146 -34.514  1.00  0.00     0.325 C 
HETATM    3  N   UNL     1      -7.677  -0.965 -33.769  1.00  0.00    -0.306 N 
HETATM    4  O   UNL     1      -7.540   0.454 -35.593  1.00  0.00    -0.247 OA
HETATM    5  H   UNL     1      -9.634   0.251 -33.322  1.00  0.00     0.170 HD
HETATM    6  H   UNL     1      -8.085  -1.051 -32.847  1.00  0.00     0.171 HD
ENDROOT
BRANCH   3   7
HETATM    7  C   UNL     1      -6.670  -1.922 -34.015  1.00  0.00     0.069 A 
HETATM    8  C   UNL     1      -5.368  -1.578 -33.593  1.00  0.00     0.095 A 
HETATM    9  C   UNL     1      -4.305  -2.455 -33.817  1.00  0.00     0.039 A 
HETATM   10  C   UNL     1      -4.533  -3.670 -34.466  1.00  0.00     0.003 A 
HETATM   11  C   UNL     1      -5.819  -4.011 -34.883  1.00  0.00     0.002 A 
HETATM   12  C   UNL     1      -6.889  -3.141 -34.657  1.00  0.00     0.032 A 
BRANCH   8  13
HETATM   13  O   UNL     1      -5.263  -0.369 -32.947  1.00  0.00    -0.348 OA
BRANCH  13  14
HETATM   14  C   UNL     1      -4.868  -0.404 -31.576  1.00  0.00     0.180 C 
BRANCH  14  15
HETATM   15  C   UNL     1      -6.024  -0.021 -30.692  1.00  0.00     0.010 A 
HETATM   16  C   UNL     1      -5.964   1.138 -29.726  1.00  0.00     0.007 A 
HETATM   17  C   UNL     1      -6.825   1.230 -30.958  1.00  0.00     0.007 A 
ENDBRANCH  14  15
ENDBRANCH  13  14
ENDBRANCH   8  13
ENDBRANCH   3   7
BRANCH   1  18
HETATM   18  C   UNL     1      -9.476   2.169 -34.064  1.00  0.00     0.059 A 
HETATM   19  C   UNL     1     -10.735   2.564 -34.538  1.00  0.00    -0.032 A 
HETATM   20  C   UNL     1     -11.851   1.633 -34.916  1.00  0.00     0.050 C 
HETATM   21  C   UNL     1     -10.982   3.941 -34.698  1.00  0.00     0.028 A 
HETATM   22  C   UNL     1      -9.977   4.859 -34.440  1.00  0.00     0.117 A 
HETATM   23  N   UNL     1      -8.746   4.512 -34.029  1.00  0.00    -0.271 NA
HETATM   24  C   UNL     1      -8.533   3.186 -33.853  1.00  0.00     0.146 A 
ENDBRANCH   1  18
TORSDOF 5
ENDMDL
MODEL 6
REMARK VINA RESULT:      -6.9      2.362      7.044
REMARK  5 active torsions:
REMARK  status: ('A' for Active; 'I' for Inactive)
REMARK    1  A    between atoms: C_3  and  N_4 
REMARK       I    between atoms: N_4  and  C_5 
REMARK       I    between atoms: C_5  and  N_6 
REMARK    2  A    between atoms: N_6  and  C_7 
REMARK    3  A    between atoms: C_8  and  O_9 
REMARK    4  A    between atoms: O_9  and  C_10 
REMARK    5  A    between atoms: C_10  and  C_11 
ROOT
HETATM    1  N   UNL     1      -6.754  -1.355 -34.810  1.00  0.00    -0.307 N 
HETATM    2  C   UNL     1      -7.146  -0.367 -33.923  1.00  0.00     0.325 C 
HETATM    3  N   UNL     1      -7.562   0.744 -34.632  1.00  0.00    -0.306 N 
HETATM    4  O   UNL     1      -7.136  -0.466 -32.705  1.00  0.00    -0.247 OA
HETATM    5  H   UNL     1      -7.283  -1.342 -35.671  1.00  0.00     0.170 HD
HETATM    6  H   UNL     1      -7.428   0.732 -35.635  1.00  0.00     0.171 HD
ENDROOT
BRANCH   3   7
HETATM    7  C   UNL     1      -7.976   2.004 -34.150  1.00  0.00     0.069 A 
HETATM    8  C   UNL     1      -9.370   2.194 -34.024  1.00  0.00     0.095 A 
HETATM    9  C   UNL     1      -9.871   3.418 -33.577  1.00  0.00     0.039 A 
HETATM   10  C   UNL     1      -8.991   4.454 -33.262  1.00  0.00     0.003 A 
HETATM   11  C   UNL     1      -7.615   4.268 -33.386  1.00  0.00     0.002 A 
HETATM   12  C   UNL     1      -7.106   3.044 -33.827  1.00  0.00     0.032 A 
BRANCH   8  13
HETATM   13  O   UNL     1     -10.140   1.100 -34.340  1.00  0.00    -0.348 OA
BRANCH  13  14
HETATM   14  C   UNL     1     -10.993   0.594 -33.312  1.00  0.00     0.180 C 
BRANCH  14  15
HETATM   15  C   UNL     1     -12.417   0.545 -33.797  1.00  0.00     0.010 A 
HETATM   16  C   UNL     1     -13.437   1.598 -33.437  1.00  0.00     0.007 A 
HETATM   17  C   UNL     1     -12.915   1.507 -34.847  1.00  0.00     0.007 A 
ENDBRANCH  14  15
ENDBRANCH  13  14
ENDBRANCH   8  13
ENDBRANCH   3   7
BRANCH   1  18
HETATM   18  C   UNL     1      -6.001  -2.527 -34.574  1.00  0.00     0.059 A 
HETATM   19  C   UNL     1      -4.705  -2.613 -34.044  1.00  0.00    -0.032 A 
HETATM   20  C   UNL     1      -3.861  -1.445 -33.624  1.00  0.00     0.050 C 
HETATM   21  C   UNL     1      -4.126  -3.890 -33.912  1.00  0.00     0.028 A 
HETATM   22  C   UNL     1      -4.814  -5.011 -34.347  1.00  0.00     0.117 A 
HETATM   23  N   UNL     1      -6.037  -4.960 -34.899  1.00  0.00    -0.271 NA
HETATM   24  C   UNL     1      -6.592  -3.728 -34.995  1.00  0.00     0.146 A 
ENDBRANCH   1  18
TORSDOF 5
ENDMDL
MODEL 7
REMARK VINA RESULT:      -6.8      3.493      5.293
REMARK  5 active torsions:
REMARK  status: ('A' for Active; 'I' for Inactive)
REMARK    1  A    between atoms: C_3  and  N_4 
REMARK       I    between atoms: N_4  and  C_5 
REMARK       I    between atoms: C_5  and  N_6 
REMARK    2  A    between atoms: N_6  and  C_7 
REMARK    3  A    between atoms: C_8  and  O_9 
REMARK    4  A    between atoms: O_9  and  C_10 
REMARK    5  A    between atoms: C_10  and  C_11 
ROOT
HETATM    1  N   UNL     1      -4.525   1.138 -32.528  1.00  0.00    -0.307 N 
HETATM    2  C   UNL     1      -4.828  -0.202 -32.354  1.00  0.00     0.325 C 
HETATM    3  N   UNL     1      -4.234  -0.938 -33.361  1.00  0.00    -0.306 N 
HETATM    4  O   UNL     1      -5.506  -0.661 -31.447  1.00  0.00    -0.247 OA
HETATM    5  H   UNL     1      -3.612   1.284 -32.935  1.00  0.00     0.170 HD
HETATM    6  H   UNL     1      -3.781  -0.425 -34.106  1.00  0.00     0.171 HD
ENDROOT
BRANCH   3   7
HETATM    7  C   UNL     1      -4.328  -2.321 -33.627  1.00  0.00     0.069 A 
HETATM    8  C   UNL     1      -5.325  -2.711 -34.547  1.00  0.00     0.095 A 
HETATM    9  C   UNL     1      -5.505  -4.062 -34.852  1.00  0.00     0.039 A 
HETATM   10  C   UNL     1      -4.701  -5.024 -34.239  1.00  0.00     0.003 A 
HETATM   11  C   UNL     1      -3.716  -4.640 -33.331  1.00  0.00     0.002 A 
HETATM   12  C   UNL     1      -3.526  -3.290 -33.025  1.00  0.00     0.032 A 
BRANCH   8  13
HETATM   13  O   UNL     1      -6.043  -1.679 -35.105  1.00  0.00    -0.348 OA
BRANCH  13  14
HETATM   14  C   UNL     1      -7.374  -1.488 -34.626  1.00  0.00     0.180 C 
BRANCH  14  15
HETATM   15  C   UNL     1      -7.630  -0.026 -34.376  1.00  0.00     0.010 A 
HETATM   16  C   UNL     1      -9.010   0.583 -34.448  1.00  0.00     0.007 A 
HETATM   17  C   UNL     1      -8.321   0.437 -33.117  1.00  0.00     0.007 A 
ENDBRANCH  14  15
ENDBRANCH  13  14
ENDBRANCH   8  13
ENDBRANCH   3   7
BRANCH   1  18
HETATM   18  C   UNL     1      -5.123   2.277 -31.942  1.00  0.00     0.059 A 
HETATM   19  C   UNL     1      -5.848   3.285 -32.593  1.00  0.00    -0.032 A 
HETATM   20  C   UNL     1      -6.127   3.339 -34.068  1.00  0.00     0.050 C 
HETATM   21  C   UNL     1      -6.342   4.352 -31.819  1.00  0.00     0.028 A 
HETATM   22  C   UNL     1      -6.063   4.412 -30.463  1.00  0.00     0.117 A 
HETATM   23  N   UNL     1      -5.333   3.488 -29.817  1.00  0.00    -0.271 NA
HETATM   24  C   UNL     1      -4.888   2.453 -30.570  1.00  0.00     0.146 A 
ENDBRANCH   1  18
TORSDOF 5
ENDMDL
MODEL 8
REMARK VINA RESULT:      -6.8      1.636      3.522
REMARK  5 active torsions:
REMARK  status: ('A' for Active; 'I' for Inactive)
REMARK    1  A    between atoms: C_3  and  N_4 
REMARK       I    between atoms: N_4  and  C_5 
REMARK       I    between atoms: C_5  and  N_6 
REMARK    2  A    between atoms: N_6  and  C_7 
REMARK    3  A    between atoms: C_8  and  O_9 
REMARK    4  A    between atoms: O_9  and  C_10 
REMARK    5  A    between atoms: C_10  and  C_11 
ROOT
HETATM    1  N   UNL     1      -8.306   2.129 -33.262  1.00  0.00    -0.307 N 
HETATM    2  C   UNL     1      -7.506   1.332 -32.462  1.00  0.00     0.325 C 
HETATM    3  N   UNL     1      -6.238   1.264 -33.009  1.00  0.00    -0.306 N 
HETATM    4  O   UNL     1      -7.861   0.783 -31.430  1.00  0.00    -0.247 OA
HETATM    5  H   UNL     1      -7.794   2.875 -33.711  1.00  0.00     0.170 HD
HETATM    6  H   UNL     1      -6.102   1.685 -33.919  1.00  0.00     0.171 HD
ENDROOT
BRANCH   3   7
HETATM    7  C   UNL     1      -5.123   0.516 -32.579  1.00  0.00     0.069 A 
HETATM    8  C   UNL     1      -4.885  -0.695 -33.264  1.00  0.00     0.095 A 
HETATM    9  C   UNL     1      -3.816  -1.513 -32.891  1.00  0.00     0.039 A 
HETATM   10  C   UNL     1      -2.989  -1.132 -31.833  1.00  0.00     0.003 A 
HETATM   11  C   UNL     1      -3.223   0.063 -31.155  1.00  0.00     0.002 A 
HETATM   12  C   UNL     1      -4.287   0.889 -31.527  1.00  0.00     0.032 A 
BRANCH   8  13
HETATM   13  O   UNL     1      -5.747  -0.959 -34.302  1.00  0.00    -0.348 OA
BRANCH  13  14
HETATM   14  C   UNL     1      -6.519  -2.157 -34.210  1.00  0.00     0.180 C 
BRANCH  14  15
HETATM   15  C   UNL     1      -5.954  -3.210 -35.124  1.00  0.00     0.010 A 
HETATM   16  C   UNL     1      -5.363  -4.502 -34.613  1.00  0.00     0.007 A 
HETATM   17  C   UNL     1      -6.678  -4.515 -35.347  1.00  0.00     0.007 A 
ENDBRANCH  14  15
ENDBRANCH  13  14
ENDBRANCH   8  13
ENDBRANCH   3   7
BRANCH   1  18
HETATM   18  C   UNL     1      -9.714   2.259 -33.278  1.00  0.00     0.059 A 
HETATM   19  C   UNL     1     -10.481   3.275 -32.690  1.00  0.00    -0.032 A 
HETATM   20  C   UNL     1      -9.932   4.438 -31.914  1.00  0.00     0.050 C 
HETATM   21  C   UNL     1     -11.882   3.201 -32.807  1.00  0.00     0.028 A 
HETATM   22  C   UNL     1     -12.467   2.119 -33.445  1.00  0.00     0.117 A 
HETATM   23  N   UNL     1     -11.765   1.107 -33.979  1.00  0.00    -0.271 NA
HETATM   24  C   UNL     1     -10.417   1.206 -33.882  1.00  0.00     0.146 A 
ENDBRANCH   1  18
TORSDOF 5
ENDMDL
MODEL 9
REMARK VINA RESULT:      -6.7      1.918      6.256
REMARK  5 active torsions:
REMARK  status: ('A' for Active; 'I' for Inactive)
REMARK    1  A    between atoms: C_3  and  N_4 
REMARK       I    between atoms: N_4  and  C_5 
REMARK       I    between atoms: C_5  and  N_6 
REMARK    2  A    between atoms: N_6  and  C_7 
REMARK    3  A    between atoms: C_8  and  O_9 
REMARK    4  A    between atoms: O_9  and  C_10 
REMARK    5  A    between atoms: C_10  and  C_11 
ROOT
HETATM    1  N   UNL     1      -6.798  -1.533 -34.955  1.00  0.00    -0.307 N 
HETATM    2  C   UNL     1      -7.523  -0.710 -34.111  1.00  0.00     0.325 C 
HETATM    3  N   UNL     1      -7.911   0.424 -34.799  1.00  0.00    -0.306 N 
HETATM    4  O   UNL     1      -7.788  -0.953 -32.943  1.00  0.00    -0.247 OA
HETATM    5  H   UNL     1      -7.104  -1.476 -35.917  1.00  0.00     0.170 HD
HETATM    6  H   UNL     1      -7.542   0.548 -35.733  1.00  0.00     0.171 HD
ENDROOT
BRANCH   3   7
HETATM    7  C   UNL     1      -8.599   1.561 -34.326  1.00  0.00     0.069 A 
HETATM    8  C   UNL     1      -7.800   2.673 -33.983  1.00  0.00     0.095 A 
HETATM    9  C   UNL     1      -8.394   3.834 -33.484  1.00  0.00     0.039 A 
HETATM   10  C   UNL     1      -9.779   3.888 -33.318  1.00  0.00     0.003 A 
HETATM   11  C   UNL     1     -10.569   2.790 -33.655  1.00  0.00     0.002 A 
HETATM   12  C   UNL     1      -9.982   1.627 -34.161  1.00  0.00     0.032 A 
BRANCH   8  13
HETATM   13  O   UNL     1      -6.452   2.518 -34.208  1.00  0.00    -0.348 OA
BRANCH  13  14
HETATM   14  C   UNL     1      -5.576   2.867 -33.137  1.00  0.00     0.180 C 
BRANCH  14  15
HETATM   15  C   UNL     1      -5.396   1.695 -32.210  1.00  0.00     0.010 A 
HETATM   16  C   UNL     1      -4.723   1.815 -30.864  1.00  0.00     0.007 A 
HETATM   17  C   UNL     1      -6.207   1.572 -30.944  1.00  0.00     0.007 A 
ENDBRANCH  14  15
ENDBRANCH  13  14
ENDBRANCH   8  13
ENDBRANCH   3   7
BRANCH   1  18
HETATM   18  C   UNL     1      -5.966  -2.632 -34.643  1.00  0.00     0.059 A 
HETATM   19  C   UNL     1      -4.701  -2.596 -34.040  1.00  0.00    -0.032 A 
HETATM   20  C   UNL     1      -3.981  -1.351 -33.608  1.00  0.00     0.050 C 
HETATM   21  C   UNL     1      -4.027  -3.816 -33.838  1.00  0.00     0.028 A 
HETATM   22  C   UNL     1      -4.594  -5.001 -34.278  1.00  0.00     0.117 A 
HETATM   23  N   UNL     1      -5.782  -5.066 -34.899  1.00  0.00    -0.271 NA
HETATM   24  C   UNL     1      -6.430  -3.888 -35.062  1.00  0.00     0.146 A 
ENDBRANCH   1  18
TORSDOF 5
ENDMDL
MODEL 10
REMARK VINA RESULT:      -6.7      3.963      7.423
REMARK  5 active torsions:
REMARK  status: ('A' for Active; 'I' for Inactive)
REMARK    1  A    between atoms: C_3  and  N_4 
REMARK       I    between atoms: N_4  and  C_5 
REMARK       I    between atoms: C_5  and  N_6 
REMARK    2  A    between atoms: N_6  and  C_7 
REMARK    3  A    between atoms: C_8  and  O_9 
REMARK    4  A    between atoms: O_9  and  C_10 
REMARK    5  A    between atoms: C_10  and  C_11 
ROOT
HETATM    1  N   UNL     1      -4.653  -0.648 -33.209  1.00  0.00    -0.307 N 
HETATM    2  C   UNL     1      -5.430   0.020 -32.280  1.00  0.00     0.325 C 
HETATM    3  N   UNL     1      -5.287   1.383 -32.459  1.00  0.00    -0.306 N 
HETATM    4  O   UNL     1      -6.139  -0.512 -31.438  1.00  0.00    -0.247 OA
HETATM    5  H   UNL     1      -4.576  -0.152 -34.087  1.00  0.00     0.170 HD
HETATM    6  H   UNL     1      -4.593   1.692 -33.128  1.00  0.00     0.171 HD
ENDROOT
BRANCH   3   7
HETATM    7  C   UNL     1      -5.829   2.442 -31.702  1.00  0.00     0.069 A 
HETATM    8  C   UNL     1      -4.906   3.218 -30.967  1.00  0.00     0.095 A 
HETATM    9  C   UNL     1      -5.355   4.273 -30.171  1.00  0.00     0.039 A 
HETATM   10  C   UNL     1      -6.721   4.553 -30.098  1.00  0.00     0.003 A 
HETATM   11  C   UNL     1      -7.633   3.788 -30.823  1.00  0.00     0.002 A 
HETATM   12  C   UNL     1      -7.190   2.734 -31.627  1.00  0.00     0.032 A 
BRANCH   8  13
HETATM   13  O   UNL     1      -3.586   2.867 -31.131  1.00  0.00    -0.348 OA
BRANCH  13  14
HETATM   14  C   UNL     1      -2.695   3.895 -31.561  1.00  0.00     0.180 C 
BRANCH  14  15
HETATM   15  C   UNL     1      -2.703   3.995 -33.063  1.00  0.00     0.010 A 
HETATM   16  C   UNL     1      -3.339   5.148 -33.800  1.00  0.00     0.007 A 
HETATM   17  C   UNL     1      -1.840   5.003 -33.780  1.00  0.00     0.007 A 
ENDBRANCH  14  15
ENDBRANCH  13  14
ENDBRANCH   8  13
ENDBRANCH   3   7
BRANCH   1  18
HETATM   18  C   UNL     1      -4.250  -2.003 -33.237  1.00  0.00     0.059 A 
HETATM   19  C   UNL     1      -4.664  -2.994 -34.139  1.00  0.00    -0.032 A 
HETATM   20  C   UNL     1      -5.635  -2.791 -35.266  1.00  0.00     0.050 C 
HETATM   21  C   UNL     1      -4.154  -4.296 -33.973  1.00  0.00     0.028 A 
HETATM   22  C   UNL     1      -3.311  -4.580 -32.911  1.00  0.00     0.117 A 
HETATM   23  N   UNL     1      -2.931  -3.666 -32.004  1.00  0.00    -0.271 NA
HETATM   24  C   UNL     1      -3.408  -2.412 -32.192  1.00  0.00     0.146 A 
ENDBRANCH   1  18
TORSDOF 5
ENDMDL
