MODEL 1
REMARK VINA RESULT:      -9.6      0.000      0.000
REMARK  3 active torsions:
REMARK  status: ('A' for Active; 'I' for Inactive)
REMARK    1  A    between atoms: C_9  and  C_10 
REMARK       I    between atoms: C_10  and  N_11 
REMARK    2  A    between atoms: N_11  and  C_12 
REMARK    3  A    between atoms: C_12  and  C_13 
ROOT
HETATM    1  C   UNL     1      -4.573   0.579 -32.547  1.00  0.00     0.273 C 
HETATM    2  N   UNL     1      -5.937   0.571 -32.355  1.00  0.00    -0.347 N 
HETATM    3  O   UNL     1      -3.931   1.591 -32.811  1.00  0.00    -0.266 OA
HETATM    4  H   UNL     1      -6.350  -0.350 -32.241  1.00  0.00     0.163 HD
ENDROOT
BRANCH   2   5
HETATM    5  C   UNL     1      -6.764   1.747 -32.495  1.00  0.00     0.114 C 
HETATM    6  C   UNL     1      -6.709   2.589 -31.219  1.00  0.00     0.037 C 
BRANCH   5   7
HETATM    7  C   UNL     1      -8.188   1.372 -32.866  1.00  0.00    -0.034 A 
HETATM    8  C   UNL     1      -8.868   2.115 -33.846  1.00  0.00     0.041 A 
HETATM    9  C   UNL     1     -10.192   1.814 -34.171  1.00  0.00     0.069 A 
HETATM   10  C   UNL     1     -10.851   0.759 -33.540  1.00  0.00     0.096 A 
HETATM   11  N   UNL     1     -10.846   2.565 -35.147  1.00  0.00    -0.323 N 
HETATM   12  O   UNL     1     -12.135   0.385 -33.825  1.00  0.00    -0.340 OA
HETATM   13  C   UNL     1     -10.175  -0.010 -32.595  1.00  0.00     0.040 A 
HETATM   14  C   UNL     1     -12.881   1.345 -34.557  1.00  0.00     0.278 C 
HETATM   15  C   UNL     1     -12.164   2.364 -35.443  1.00  0.00     0.246 C 
HETATM   16  O   UNL     1     -12.734   3.014 -36.316  1.00  0.00    -0.271 OA
HETATM   17  C   UNL     1      -8.854   0.295 -32.257  1.00  0.00     0.012 A 
HETATM   18  H   UNL     1     -10.357   3.278 -35.673  1.00  0.00     0.169 HD
ENDBRANCH   5   7
ENDBRANCH   2   5
BRANCH   1  19
HETATM   19  C   UNL     1      -3.966  -0.752 -32.376  1.00  0.00     0.157 A 
HETATM   20  C   UNL     1      -4.298  -1.955 -33.066  1.00  0.00     0.029 A 
HETATM   21  C   UNL     1      -5.235  -2.338 -34.047  1.00  0.00     0.023 A 
HETATM   22  C   UNL     1      -3.415  -2.909 -32.576  1.00  0.00     0.063 A 
HETATM   23  C   UNL     1      -5.256  -3.668 -34.503  1.00  0.00    -0.061 A 
HETATM   24  C   UNL     1      -6.243  -4.099 -35.548  1.00  0.00     0.048 C 
HETATM   25  C   UNL     1      -4.339  -4.594 -33.990  1.00  0.00     0.009 A 
HETATM   26  C   UNL     1      -3.400  -4.235 -33.015  1.00  0.00     0.032 A 
HETATM   27  N   UNL     1      -2.649  -2.252 -31.653  1.00  0.00    -0.277 N 
HETATM   28  H   UNL     1      -1.896  -2.639 -31.096  1.00  0.00     0.189 HD
HETATM   29  N   UNL     1      -2.954  -0.951 -31.498  1.00  0.00    -0.168 NA
ENDBRANCH   1  19
TORSDOF 3
ENDMDL
MODEL 2
REMARK VINA RESULT:      -9.5      4.209      7.596
REMARK  3 active torsions:
REMARK  status: ('A' for Active; 'I' for Inactive)
REMARK    1  A    between atoms: C_9  and  C_10 
REMARK       I    between atoms: C_10  and  N_11 
REMARK    2  A    between atoms: N_11  and  C_12 
REMARK    3  A    between atoms: C_12  and  C_13 
ROOT
HETATM    1  C   UNL     1      -5.400   3.466 -33.083  1.00  0.00     0.273 C 
HETATM    2  N   UNL     1      -4.845   2.253 -32.740  1.00  0.00    -0.347 N 
HETATM    3  O   UNL     1      -6.566   3.771 -32.845  1.00  0.00    -0.266 OA
HETATM    4  H   UNL     1      -3.903   2.098 -33.085  1.00  0.00     0.163 HD
ENDROOT
BRANCH   2   5
HETATM    5  C   UNL     1      -5.592   1.190 -32.108  1.00  0.00     0.114 C 
HETATM    6  C   UNL     1      -5.570   1.356 -30.588  1.00  0.00     0.037 C 
BRANCH   5   7
HETATM    7  C   UNL     1      -5.075  -0.172 -32.538  1.00  0.00    -0.034 A 
HETATM    8  C   UNL     1      -5.846  -0.967 -33.402  1.00  0.00     0.041 A 
HETATM    9  C   UNL     1      -5.408  -2.239 -33.775  1.00  0.00     0.069 A 
HETATM   10  C   UNL     1      -4.189  -2.730 -33.309  1.00  0.00     0.096 A 
HETATM   11  N   UNL     1      -6.192  -3.009 -34.634  1.00  0.00    -0.323 N 
HETATM   12  O   UNL     1      -3.679  -3.951 -33.652  1.00  0.00    -0.340 OA
HETATM   13  C   UNL     1      -3.396  -1.936 -32.483  1.00  0.00     0.040 A 
HETATM   14  C   UNL     1      -4.618  -4.839 -34.239  1.00  0.00     0.278 C 
HETATM   15  C   UNL     1      -5.848  -4.289 -34.963  1.00  0.00     0.246 C 
HETATM   16  O   UNL     1      -6.529  -4.960 -35.734  1.00  0.00    -0.271 OA
HETATM   17  C   UNL     1      -3.836  -0.667 -32.097  1.00  0.00     0.012 A 
HETATM   18  H   UNL     1      -7.036  -2.636 -35.047  1.00  0.00     0.169 HD
ENDBRANCH   5   7
ENDBRANCH   2   5
BRANCH   1  19
HETATM   19  C   UNL     1      -4.439   4.366 -33.741  1.00  0.00     0.157 A 
HETATM   20  C   UNL     1      -3.200   4.847 -33.221  1.00  0.00     0.029 A 
HETATM   21  C   UNL     1      -2.481   4.708 -32.017  1.00  0.00     0.023 A 
HETATM   22  C   UNL     1      -2.656   5.621 -34.239  1.00  0.00     0.063 A 
HETATM   23  C   UNL     1      -1.241   5.353 -31.872  1.00  0.00    -0.061 A 
HETATM   24  C   UNL     1      -0.456   5.218 -30.599  1.00  0.00     0.048 C 
HETATM   25  C   UNL     1      -0.725   6.114 -32.929  1.00  0.00     0.009 A 
HETATM   26  C   UNL     1      -1.422   6.265 -34.133  1.00  0.00     0.032 A 
HETATM   27  N   UNL     1      -3.568   5.571 -35.257  1.00  0.00    -0.277 N 
HETATM   28  H   UNL     1      -3.499   6.021 -36.162  1.00  0.00     0.189 HD
HETATM   29  N   UNL     1      -4.659   4.830 -34.994  1.00  0.00    -0.168 NA
ENDBRANCH   1  19
TORSDOF 3
ENDMDL
MODEL 3
REMARK VINA RESULT:      -9.3      2.543      7.424
REMARK  3 active torsions:
REMARK  status: ('A' for Active; 'I' for Inactive)
REMARK    1  A    between atoms: C_9  and  C_10 
REMARK       I    between atoms: C_10  and  N_11 
REMARK    2  A    between atoms: N_11  and  C_12 
REMARK    3  A    between atoms: C_12  and  C_13 
ROOT
HETATM    1  C   UNL     1      -8.458   2.124 -32.442  1.00  0.00     0.273 C 
HETATM    2  N   UNL     1      -7.196   1.858 -32.926  1.00  0.00    -0.347 N 
HETATM    3  O   UNL     1      -8.764   2.031 -31.256  1.00  0.00    -0.266 OA
HETATM    4  H   UNL     1      -7.110   1.880 -33.938  1.00  0.00     0.163 HD
ENDROOT
BRANCH   2   5
HETATM    5  C   UNL     1      -6.110   1.393 -32.095  1.00  0.00     0.114 C 
HETATM    6  C   UNL     1      -5.053   2.488 -31.939  1.00  0.00     0.037 C 
BRANCH   5   7
HETATM    7  C   UNL     1      -5.517   0.106 -32.642  1.00  0.00    -0.034 A 
HETATM    8  C   UNL     1      -6.333  -0.785 -33.358  1.00  0.00     0.041 A 
HETATM    9  C   UNL     1      -5.818  -1.993 -33.832  1.00  0.00     0.069 A 
HETATM   10  C   UNL     1      -4.480  -2.322 -33.616  1.00  0.00     0.096 A 
HETATM   11  N   UNL     1      -6.648  -2.861 -34.541  1.00  0.00    -0.323 N 
HETATM   12  O   UNL     1      -3.895  -3.470 -34.074  1.00  0.00    -0.340 OA
HETATM   13  C   UNL     1      -3.650  -1.430 -32.941  1.00  0.00     0.040 A 
HETATM   14  C   UNL     1      -4.811  -4.473 -34.489  1.00  0.00     0.278 C 
HETATM   15  C   UNL     1      -6.215  -4.088 -34.955  1.00  0.00     0.246 C 
HETATM   16  O   UNL     1      -6.941  -4.845 -35.595  1.00  0.00    -0.271 OA
HETATM   17  C   UNL     1      -4.164  -0.225 -32.454  1.00  0.00     0.012 A 
HETATM   18  H   UNL     1      -7.596  -2.601 -34.779  1.00  0.00     0.169 HD
ENDBRANCH   5   7
ENDBRANCH   2   5
BRANCH   1  19
HETATM   19  C   UNL     1      -9.393   2.556 -33.495  1.00  0.00     0.157 A 
HETATM   20  C   UNL     1     -10.648   1.970 -33.837  1.00  0.00     0.029 A 
HETATM   21  C   UNL     1     -11.409   0.868 -33.398  1.00  0.00     0.023 A 
HETATM   22  C   UNL     1     -11.153   2.767 -34.857  1.00  0.00     0.063 A 
HETATM   23  C   UNL     1     -12.652   0.602 -33.997  1.00  0.00    -0.061 A 
HETATM   24  C   UNL     1     -13.481  -0.565 -33.544  1.00  0.00     0.048 C 
HETATM   25  C   UNL     1     -13.128   1.439 -35.014  1.00  0.00     0.009 A 
HETATM   26  C   UNL     1     -12.389   2.538 -35.466  1.00  0.00     0.032 A 
HETATM   27  N   UNL     1     -10.206   3.732 -35.064  1.00  0.00    -0.277 N 
HETATM   28  H   UNL     1     -10.241   4.489 -35.736  1.00  0.00     0.189 HD
HETATM   29  N   UNL     1      -9.127   3.636 -34.266  1.00  0.00    -0.168 NA
ENDBRANCH   1  19
TORSDOF 3
ENDMDL
MODEL 4
REMARK VINA RESULT:      -9.2      3.832      7.056
REMARK  3 active torsions:
REMARK  status: ('A' for Active; 'I' for Inactive)
REMARK    1  A    between atoms: C_9  and  C_10 
REMARK       I    between atoms: C_10  and  N_11 
REMARK    2  A    between atoms: N_11  and  C_12 
REMARK    3  A    between atoms: C_12  and  C_13 
ROOT
HETATM    1  C   UNL     1      -5.307   0.455 -32.313  1.00  0.00     0.273 C 
HETATM    2  N   UNL     1      -4.606   1.568 -32.722  1.00  0.00    -0.347 N 
HETATM    3  O   UNL     1      -6.504   0.470 -32.040  1.00  0.00    -0.266 OA
HETATM    4  H   UNL     1      -3.604   1.433 -32.819  1.00  0.00     0.163 HD
ENDROOT
BRANCH   2   5
HETATM    5  C   UNL     1      -5.195   2.883 -32.824  1.00  0.00     0.114 C 
HETATM    6  C   UNL     1      -6.017   2.999 -34.109  1.00  0.00     0.037 C 
BRANCH   5   7
HETATM    7  C   UNL     1      -4.133   3.966 -32.730  1.00  0.00    -0.034 A 
HETATM    8  C   UNL     1      -3.134   3.875 -31.746  1.00  0.00     0.041 A 
HETATM    9  C   UNL     1      -2.175   4.881 -31.616  1.00  0.00     0.069 A 
HETATM   10  C   UNL     1      -2.185   5.981 -32.473  1.00  0.00     0.096 A 
HETATM   11  N   UNL     1      -1.194   4.769 -30.632  1.00  0.00    -0.323 N 
HETATM   12  O   UNL     1      -1.264   6.990 -32.428  1.00  0.00    -0.340 OA
HETATM   13  C   UNL     1      -3.146   6.063 -33.479  1.00  0.00     0.040 A 
HETATM   14  C   UNL     1      -0.494   7.032 -31.237  1.00  0.00     0.278 C 
HETATM   15  C   UNL     1      -0.284   5.763 -30.411  1.00  0.00     0.246 C 
HETATM   16  O   UNL     1       0.592   5.655 -29.556  1.00  0.00    -0.271 OA
HETATM   17  C   UNL     1      -4.117   5.065 -33.605  1.00  0.00     0.012 A 
HETATM   18  H   UNL     1      -1.122   3.940 -30.057  1.00  0.00     0.169 HD
ENDBRANCH   5   7
ENDBRANCH   2   5
BRANCH   1  19
HETATM   19  C   UNL     1      -4.474  -0.757 -32.264  1.00  0.00     0.157 A 
HETATM   20  C   UNL     1      -4.643  -1.960 -33.013  1.00  0.00     0.029 A 
HETATM   21  C   UNL     1      -5.564  -2.444 -33.964  1.00  0.00     0.023 A 
HETATM   22  C   UNL     1      -3.580  -2.772 -32.637  1.00  0.00     0.063 A 
HETATM   23  C   UNL     1      -5.389  -3.730 -34.505  1.00  0.00    -0.061 A 
HETATM   24  C   UNL     1      -6.356  -4.265 -35.521  1.00  0.00     0.048 C 
HETATM   25  C   UNL     1      -4.297  -4.510 -34.106  1.00  0.00     0.009 A 
HETATM   26  C   UNL     1      -3.370  -4.049 -33.164  1.00  0.00     0.032 A 
HETATM   27  N   UNL     1      -2.878  -2.045 -31.717  1.00  0.00    -0.277 N 
HETATM   28  H   UNL     1      -2.035  -2.327 -31.229  1.00  0.00     0.189 HD
HETATM   29  N   UNL     1      -3.387  -0.827 -31.460  1.00  0.00    -0.168 NA
ENDBRANCH   1  19
TORSDOF 3
ENDMDL
MODEL 5
REMARK VINA RESULT:      -8.9      5.561      8.748
REMARK  3 active torsions:
REMARK  status: ('A' for Active; 'I' for Inactive)
REMARK    1  A    between atoms: C_9  and  C_10 
REMARK       I    between atoms: C_10  and  N_11 
REMARK    2  A    between atoms: N_11  and  C_12 
REMARK    3  A    between atoms: C_12  and  C_13 
ROOT
HETATM    1  C   UNL     1      -3.870   3.322 -32.245  1.00  0.00     0.273 C 
HETATM    2  N   UNL     1      -2.724   3.823 -32.822  1.00  0.00    -0.347 N 
HETATM    3  O   UNL     1      -4.827   4.019 -31.919  1.00  0.00    -0.266 OA
HETATM    4  H   UNL     1      -1.976   3.148 -32.949  1.00  0.00     0.163 HD
ENDROOT
BRANCH   2   5
HETATM    5  C   UNL     1      -2.506   5.231 -33.058  1.00  0.00     0.114 C 
HETATM    6  C   UNL     1      -1.922   5.451 -34.455  1.00  0.00     0.037 C 
BRANCH   5   7
HETATM    7  C   UNL     1      -1.631   5.838 -31.976  1.00  0.00    -0.034 A 
HETATM    8  C   UNL     1      -2.160   6.046 -30.691  1.00  0.00     0.041 A 
HETATM    9  C   UNL     1      -1.385   6.642 -29.694  1.00  0.00     0.069 A 
HETATM   10  C   UNL     1      -0.069   7.020 -29.955  1.00  0.00     0.096 A 
HETATM   11  N   UNL     1      -1.933   6.838 -28.426  1.00  0.00    -0.323 N 
HETATM   12  O   UNL     1       0.761   7.581 -29.024  1.00  0.00    -0.340 OA
HETATM   13  C   UNL     1       0.481   6.783 -31.213  1.00  0.00     0.040 A 
HETATM   14  C   UNL     1       0.102   8.072 -27.867  1.00  0.00     0.278 C 
HETATM   15  C   UNL     1      -1.245   7.489 -27.442  1.00  0.00     0.246 C 
HETATM   16  O   UNL     1      -1.722   7.645 -26.320  1.00  0.00    -0.271 OA
HETATM   17  C   UNL     1      -0.295   6.199 -32.218  1.00  0.00     0.012 A 
HETATM   18  H   UNL     1      -2.856   6.494 -28.196  1.00  0.00     0.169 HD
ENDBRANCH   5   7
ENDBRANCH   2   5
BRANCH   1  19
HETATM   19  C   UNL     1      -3.835   1.858 -32.086  1.00  0.00     0.157 A 
HETATM   20  C   UNL     1      -4.648   0.891 -32.748  1.00  0.00     0.029 A 
HETATM   21  C   UNL     1      -5.701   0.919 -33.684  1.00  0.00     0.023 A 
HETATM   22  C   UNL     1      -4.196  -0.339 -32.286  1.00  0.00     0.063 A 
HETATM   23  C   UNL     1      -6.268  -0.290 -34.125  1.00  0.00    -0.061 A 
HETATM   24  C   UNL     1      -7.389  -0.285 -35.123  1.00  0.00     0.048 C 
HETATM   25  C   UNL     1      -5.773  -1.507 -33.641  1.00  0.00     0.009 A 
HETATM   26  C   UNL     1      -4.728  -1.558 -32.711  1.00  0.00     0.032 A 
HETATM   27  N   UNL     1      -3.193  -0.046 -31.404  1.00  0.00    -0.277 N 
HETATM   28  H   UNL     1      -2.633  -0.705 -30.875  1.00  0.00     0.189 HD
HETATM   29  N   UNL     1      -2.949   1.267 -31.250  1.00  0.00    -0.168 NA
ENDBRANCH   1  19
TORSDOF 3
ENDMDL
MODEL 6
REMARK VINA RESULT:      -8.7      4.218      7.702
REMARK  3 active torsions:
REMARK  status: ('A' for Active; 'I' for Inactive)
REMARK    1  A    between atoms: C_9  and  C_10 
REMARK       I    between atoms: C_10  and  N_11 
REMARK    2  A    between atoms: N_11  and  C_12 
REMARK    3  A    between atoms: C_12  and  C_13 
ROOT
HETATM    1  C   UNL     1      -6.542   2.207 -32.727  1.00  0.00     0.273 C 
HETATM    2  N   UNL     1      -5.902   3.292 -33.284  1.00  0.00    -0.347 N 
HETATM    3  O   UNL     1      -7.009   2.203 -31.591  1.00  0.00    -0.266 OA
HETATM    4  H   UNL     1      -5.480   3.123 -34.192  1.00  0.00     0.163 HD
ENDROOT
BRANCH   2   5
HETATM    5  C   UNL     1      -5.667   4.526 -32.570  1.00  0.00     0.114 C 
HETATM    6  C   UNL     1      -6.320   5.698 -33.305  1.00  0.00     0.037 C 
BRANCH   5   7
HETATM    7  C   UNL     1      -4.182   4.753 -32.346  1.00  0.00    -0.034 A 
HETATM    8  C   UNL     1      -3.744   5.360 -31.157  1.00  0.00     0.041 A 
HETATM    9  C   UNL     1      -2.388   5.617 -30.950  1.00  0.00     0.069 A 
HETATM   10  C   UNL     1      -1.447   5.256 -31.914  1.00  0.00     0.096 A 
HETATM   11  N   UNL     1      -1.977   6.220 -29.762  1.00  0.00    -0.323 N 
HETATM   12  O   UNL     1      -0.100   5.447 -31.773  1.00  0.00    -0.340 OA
HETATM   13  C   UNL     1      -1.864   4.617 -33.080  1.00  0.00     0.040 A 
HETATM   14  C   UNL     1       0.262   6.345 -30.735  1.00  0.00     0.278 C 
HETATM   15  C   UNL     1      -0.674   6.566 -29.547  1.00  0.00     0.246 C 
HETATM   16  O   UNL     1      -0.310   7.081 -28.492  1.00  0.00    -0.271 OA
HETATM   17  C   UNL     1      -3.222   4.370 -33.298  1.00  0.00     0.012 A 
HETATM   18  H   UNL     1      -2.636   6.412 -29.018  1.00  0.00     0.169 HD
ENDBRANCH   5   7
ENDBRANCH   2   5
BRANCH   1  19
HETATM   19  C   UNL     1      -6.630   1.062 -33.649  1.00  0.00     0.157 A 
HETATM   20  C   UNL     1      -5.883  -0.153 -33.601  1.00  0.00     0.029 A 
HETATM   21  C   UNL     1      -4.868  -0.690 -32.784  1.00  0.00     0.023 A 
HETATM   22  C   UNL     1      -6.365  -0.915 -34.658  1.00  0.00     0.063 A 
HETATM   23  C   UNL     1      -4.368  -1.975 -33.056  1.00  0.00    -0.061 A 
HETATM   24  C   UNL     1      -3.289  -2.569 -32.198  1.00  0.00     0.048 C 
HETATM   25  C   UNL     1      -4.891  -2.714 -34.125  1.00  0.00     0.009 A 
HETATM   26  C   UNL     1      -5.899  -2.200 -34.949  1.00  0.00     0.032 A 
HETATM   27  N   UNL     1      -7.319  -0.140 -35.257  1.00  0.00    -0.277 N 
HETATM   28  H   UNL     1      -7.884  -0.380 -36.064  1.00  0.00     0.189 HD
HETATM   29  N   UNL     1      -7.504   1.062 -34.683  1.00  0.00    -0.168 NA
ENDBRANCH   1  19
TORSDOF 3
ENDMDL
MODEL 7
REMARK VINA RESULT:      -8.6      4.974      8.070
REMARK  3 active torsions:
REMARK  status: ('A' for Active; 'I' for Inactive)
REMARK    1  A    between atoms: C_9  and  C_10 
REMARK       I    between atoms: C_10  and  N_11 
REMARK    2  A    between atoms: N_11  and  C_12 
REMARK    3  A    between atoms: C_12  and  C_13 
ROOT
HETATM    1  C   UNL     1      -4.000   2.242 -32.415  1.00  0.00     0.273 C 
HETATM    2  N   UNL     1      -2.971   3.148 -32.538  1.00  0.00    -0.347 N 
HETATM    3  O   UNL     1      -5.177   2.517 -32.633  1.00  0.00    -0.266 OA
HETATM    4  H   UNL     1      -2.063   2.812 -32.231  1.00  0.00     0.163 HD
ENDROOT
BRANCH   2   5
HETATM    5  C   UNL     1      -3.174   4.535 -32.889  1.00  0.00     0.114 C 
HETATM    6  C   UNL     1      -2.270   4.923 -34.061  1.00  0.00     0.037 C 
BRANCH   5   7
HETATM    7  C   UNL     1      -2.964   5.439 -31.686  1.00  0.00    -0.034 A 
HETATM    8  C   UNL     1      -1.666   5.865 -31.356  1.00  0.00     0.041 A 
HETATM    9  C   UNL     1      -1.447   6.661 -30.231  1.00  0.00     0.069 A 
HETATM   10  C   UNL     1      -2.516   7.059 -29.429  1.00  0.00     0.096 A 
HETATM   11  N   UNL     1      -0.150   7.071 -29.924  1.00  0.00    -0.323 N 
HETATM   12  O   UNL     1      -2.386   7.862 -28.330  1.00  0.00    -0.340 OA
HETATM   13  C   UNL     1      -3.812   6.677 -29.768  1.00  0.00     0.040 A 
HETATM   14  C   UNL     1      -1.057   7.989 -27.847  1.00  0.00     0.278 C 
HETATM   15  C   UNL     1       0.128   7.782 -28.791  1.00  0.00     0.246 C 
HETATM   16  O   UNL     1       1.268   8.158 -28.531  1.00  0.00    -0.271 OA
HETATM   17  C   UNL     1      -4.036   5.870 -30.887  1.00  0.00     0.012 A 
HETATM   18  H   UNL     1       0.625   6.861 -30.540  1.00  0.00     0.169 HD
ENDBRANCH   5   7
ENDBRANCH   2   5
BRANCH   1  19
HETATM   19  C   UNL     1      -3.535   0.902 -32.018  1.00  0.00     0.157 A 
HETATM   20  C   UNL     1      -3.898  -0.351 -32.596  1.00  0.00     0.029 A 
HETATM   21  C   UNL     1      -4.755  -0.784 -33.628  1.00  0.00     0.023 A 
HETATM   22  C   UNL     1      -3.160  -1.299 -31.898  1.00  0.00     0.063 A 
HETATM   23  C   UNL     1      -4.845  -2.156 -33.923  1.00  0.00    -0.061 A 
HETATM   24  C   UNL     1      -5.749  -2.640 -35.019  1.00  0.00     0.048 C 
HETATM   25  C   UNL     1      -4.074  -3.075 -33.202  1.00  0.00     0.009 A 
HETATM   26  C   UNL     1      -3.216  -2.667 -32.173  1.00  0.00     0.032 A 
HETATM   27  N   UNL     1      -2.442  -0.589 -30.975  1.00  0.00    -0.277 N 
HETATM   28  H   UNL     1      -1.790  -0.958 -30.293  1.00  0.00     0.189 HD
HETATM   29  N   UNL     1      -2.645   0.740 -31.011  1.00  0.00    -0.168 NA
ENDBRANCH   1  19
TORSDOF 3
ENDMDL
MODEL 8
REMARK VINA RESULT:      -8.6      2.356      3.667
REMARK  3 active torsions:
REMARK  status: ('A' for Active; 'I' for Inactive)
REMARK    1  A    between atoms: C_9  and  C_10 
REMARK       I    between atoms: C_10  and  N_11 
REMARK    2  A    between atoms: N_11  and  C_12 
REMARK    3  A    between atoms: C_12  and  C_13 
ROOT
HETATM    1  C   UNL     1      -6.350   3.805 -33.648  1.00  0.00     0.273 C 
HETATM    2  N   UNL     1      -7.646   3.980 -33.215  1.00  0.00    -0.347 N 
HETATM    3  O   UNL     1      -5.861   4.421 -34.591  1.00  0.00    -0.266 OA
HETATM    4  H   UNL     1      -7.948   3.336 -32.490  1.00  0.00     0.163 HD
ENDROOT
BRANCH   2   5
HETATM    5  C   UNL     1      -8.583   4.871 -33.859  1.00  0.00     0.114 C 
HETATM    6  C   UNL     1      -8.788   6.129 -33.011  1.00  0.00     0.037 C 
BRANCH   5   7
HETATM    7  C   UNL     1      -9.896   4.165 -34.152  1.00  0.00    -0.034 A 
HETATM    8  C   UNL     1     -10.133   2.890 -33.611  1.00  0.00     0.041 A 
HETATM    9  C   UNL     1     -11.315   2.206 -33.903  1.00  0.00     0.069 A 
HETATM   10  C   UNL     1     -12.283   2.788 -34.721  1.00  0.00     0.096 A 
HETATM   11  N   UNL     1     -11.528   0.942 -33.354  1.00  0.00    -0.323 N 
HETATM   12  O   UNL     1     -13.476   2.195 -35.028  1.00  0.00    -0.340 OA
HETATM   13  C   UNL     1     -12.077   4.067 -35.231  1.00  0.00     0.040 A 
HETATM   14  C   UNL     1     -13.533   0.805 -34.746  1.00  0.00     0.278 C 
HETATM   15  C   UNL     1     -12.629   0.199 -33.673  1.00  0.00     0.246 C 
HETATM   16  O   UNL     1     -12.825  -0.907 -33.175  1.00  0.00    -0.271 OA
HETATM   17  C   UNL     1     -10.891   4.752 -34.952  1.00  0.00     0.012 A 
HETATM   18  H   UNL     1     -10.876   0.542 -32.693  1.00  0.00     0.169 HD
ENDBRANCH   5   7
ENDBRANCH   2   5
BRANCH   1  19
HETATM   19  C   UNL     1      -5.608   2.821 -32.842  1.00  0.00     0.157 A 
HETATM   20  C   UNL     1      -5.584   1.404 -33.007  1.00  0.00     0.029 A 
HETATM   21  C   UNL     1      -6.193   0.470 -33.868  1.00  0.00     0.023 A 
HETATM   22  C   UNL     1      -4.708   0.942 -32.031  1.00  0.00     0.063 A 
HETATM   23  C   UNL     1      -5.905  -0.898 -33.722  1.00  0.00    -0.061 A 
HETATM   24  C   UNL     1      -6.540  -1.911 -34.630  1.00  0.00     0.048 C 
HETATM   25  C   UNL     1      -5.008  -1.318 -32.732  1.00  0.00     0.009 A 
HETATM   26  C   UNL     1      -4.391  -0.408 -31.866  1.00  0.00     0.032 A 
HETATM   27  N   UNL     1      -4.291   2.060 -31.363  1.00  0.00    -0.277 N 
HETATM   28  H   UNL     1      -3.642   2.100 -30.585  1.00  0.00     0.189 HD
HETATM   29  N   UNL     1      -4.815   3.212 -31.817  1.00  0.00    -0.168 NA
ENDBRANCH   1  19
TORSDOF 3
ENDMDL
MODEL 9
REMARK VINA RESULT:      -8.6      1.524      2.359
REMARK  3 active torsions:
REMARK  status: ('A' for Active; 'I' for Inactive)
REMARK    1  A    between atoms: C_9  and  C_10 
REMARK       I    between atoms: C_10  and  N_11 
REMARK    2  A    between atoms: N_11  and  C_12 
REMARK    3  A    between atoms: C_12  and  C_13 
ROOT
HETATM    1  C   UNL     1      -3.826   1.762 -31.773  1.00  0.00     0.273 C 
HETATM    2  N   UNL     1      -5.178   1.948 -31.588  1.00  0.00    -0.347 N 
HETATM    3  O   UNL     1      -3.018   2.684 -31.846  1.00  0.00    -0.266 OA
HETATM    4  H   UNL     1      -5.740   1.104 -31.646  1.00  0.00     0.163 HD
ENDROOT
BRANCH   2   5
HETATM    5  C   UNL     1      -5.796   3.252 -31.513  1.00  0.00     0.114 C 
HETATM    6  C   UNL     1      -6.002   3.657 -30.052  1.00  0.00     0.037 C 
BRANCH   5   7
HETATM    7  C   UNL     1      -7.095   3.287 -32.300  1.00  0.00    -0.034 A 
HETATM    8  C   UNL     1      -8.017   2.236 -32.164  1.00  0.00     0.041 A 
HETATM    9  C   UNL     1      -9.197   2.228 -32.911  1.00  0.00     0.069 A 
HETATM   10  C   UNL     1      -9.484   3.274 -33.788  1.00  0.00     0.096 A 
HETATM   11  N   UNL     1     -10.097   1.174 -32.759  1.00  0.00    -0.323 N 
HETATM   12  O   UNL     1     -10.629   3.353 -34.530  1.00  0.00    -0.340 OA
HETATM   13  C   UNL     1      -8.596   4.342 -33.902  1.00  0.00     0.040 A 
HETATM   14  C   UNL     1     -11.360   2.139 -34.618  1.00  0.00     0.278 C 
HETATM   15  C   UNL     1     -11.225   1.079 -33.525  1.00  0.00     0.246 C 
HETATM   16  O   UNL     1     -12.026   0.160 -33.378  1.00  0.00    -0.271 OA
HETATM   17  C   UNL     1      -7.408   4.348 -33.166  1.00  0.00     0.012 A 
HETATM   18  H   UNL     1      -9.945   0.452 -32.068  1.00  0.00     0.169 HD
ENDBRANCH   5   7
ENDBRANCH   2   5
BRANCH   1  19
HETATM   19  C   UNL     1      -3.451   0.340 -31.846  1.00  0.00     0.157 A 
HETATM   20  C   UNL     1      -4.077  -0.686 -32.614  1.00  0.00     0.029 A 
HETATM   21  C   UNL     1      -5.182  -0.773 -33.485  1.00  0.00     0.023 A 
HETATM   22  C   UNL     1      -3.325  -1.829 -32.372  1.00  0.00     0.063 A 
HETATM   23  C   UNL     1      -5.497  -2.005 -34.083  1.00  0.00    -0.061 A 
HETATM   24  C   UNL     1      -6.667  -2.121 -35.016  1.00  0.00     0.048 C 
HETATM   25  C   UNL     1      -4.705  -3.129 -33.820  1.00  0.00     0.009 A 
HETATM   26  C   UNL     1      -3.603  -3.066 -32.958  1.00  0.00     0.032 A 
HETATM   27  N   UNL     1      -2.346  -1.439 -31.501  1.00  0.00    -0.277 N 
HETATM   28  H   UNL     1      -1.612  -2.017 -31.108  1.00  0.00     0.189 HD
HETATM   29  N   UNL     1      -2.391  -0.140 -31.155  1.00  0.00    -0.168 NA
ENDBRANCH   1  19
TORSDOF 3
ENDMDL
MODEL 10
REMARK VINA RESULT:      -8.6      4.054      7.405
REMARK  3 active torsions:
REMARK  status: ('A' for Active; 'I' for Inactive)
REMARK    1  A    between atoms: C_9  and  C_10 
REMARK       I    between atoms: C_10  and  N_11 
REMARK    2  A    between atoms: N_11  and  C_12 
REMARK    3  A    between atoms: C_12  and  C_13 
ROOT
HETATM    1  C   UNL     1      -6.400   3.964 -33.140  1.00  0.00     0.273 C 
HETATM    2  N   UNL     1      -6.546   2.779 -32.454  1.00  0.00    -0.347 N 
HETATM    3  O   UNL     1      -6.949   4.199 -34.214  1.00  0.00    -0.266 OA
HETATM    4  H   UNL     1      -5.959   2.684 -31.631  1.00  0.00     0.163 HD
ENDROOT
BRANCH   2   5
HETATM    5  C   UNL     1      -7.322   1.666 -32.949  1.00  0.00     0.114 C 
HETATM    6  C   UNL     1      -8.427   1.304 -31.956  1.00  0.00     0.037 C 
BRANCH   5   7
HETATM    7  C   UNL     1      -6.430   0.477 -33.264  1.00  0.00    -0.034 A 
HETATM    8  C   UNL     1      -6.986  -0.668 -33.861  1.00  0.00     0.041 A 
HETATM    9  C   UNL     1      -6.192  -1.787 -34.119  1.00  0.00     0.069 A 
HETATM   10  C   UNL     1      -4.834  -1.777 -33.804  1.00  0.00     0.096 A 
HETATM   11  N   UNL     1      -6.766  -2.911 -34.712  1.00  0.00    -0.323 N 
HETATM   12  O   UNL     1      -3.987  -2.821 -34.053  1.00  0.00    -0.340 OA
HETATM   13  C   UNL     1      -4.263  -0.634 -33.249  1.00  0.00     0.040 A 
HETATM   14  C   UNL     1      -4.635  -4.051 -34.339  1.00  0.00     0.278 C 
HETATM   15  C   UNL     1      -6.053  -4.059 -34.911  1.00  0.00     0.246 C 
HETATM   16  O   UNL     1      -6.554  -5.043 -35.450  1.00  0.00    -0.271 OA
HETATM   17  C   UNL     1      -5.055   0.485 -32.977  1.00  0.00     0.012 A 
HETATM   18  H   UNL     1      -7.729  -2.905 -35.022  1.00  0.00     0.169 HD
ENDBRANCH   5   7
ENDBRANCH   2   5
BRANCH   1  19
HETATM   19  C   UNL     1      -5.537   4.928 -32.437  1.00  0.00     0.157 A 
HETATM   20  C   UNL     1      -4.225   5.351 -32.805  1.00  0.00     0.029 A 
HETATM   21  C   UNL     1      -3.312   5.050 -33.836  1.00  0.00     0.023 A 
HETATM   22  C   UNL     1      -3.867   6.292 -31.848  1.00  0.00     0.063 A 
HETATM   23  C   UNL     1      -2.068   5.703 -33.871  1.00  0.00    -0.061 A 
HETATM   24  C   UNL     1      -1.081   5.401 -34.961  1.00  0.00     0.048 C 
HETATM   25  C   UNL     1      -1.753   6.654 -32.893  1.00  0.00     0.009 A 
HETATM   26  C   UNL     1      -2.644   6.968 -31.860  1.00  0.00     0.032 A 
HETATM   27  N   UNL     1      -4.933   6.363 -30.995  1.00  0.00    -0.277 N 
HETATM   28  H   UNL     1      -5.022   6.953 -30.176  1.00  0.00     0.189 HD
HETATM   29  N   UNL     1      -5.958   5.552 -31.312  1.00  0.00    -0.168 NA
ENDBRANCH   1  19
TORSDOF 3
ENDMDL
