MODEL 1
REMARK VINA RESULT:      -8.5      0.000      0.000
REMARK  7 active torsions:
REMARK  status: ('A' for Active; 'I' for Inactive)
REMARK    1  A    between atoms: C_4  and  O_5 
REMARK    2  A    between atoms: O_5  and  C_6 
REMARK    3  A    between atoms: C_9  and  N_10 
REMARK       I    between atoms: N_10  and  C_11 
REMARK    4  A    between atoms: C_11  and  C_12 
REMARK    5  A    between atoms: C_12  and  C_13 
REMARK    6  A    between atoms: C_13  and  N_14 
REMARK       I    between atoms: N_14  and  C_15 
REMARK    7  A    between atoms: C_15  and  C_16 
ROOT
HETATM    1  N   UNL     1      -8.828   1.936 -31.185  1.00  0.00    -0.327 N 
HETATM    2  C   UNL     1      -8.772   3.232 -30.707  1.00  0.00     0.223 C 
HETATM    3  O   UNL     1      -7.759   3.903 -30.533  1.00  0.00    -0.273 OA
HETATM    4  H   UNL     1      -9.744   1.505 -31.233  1.00  0.00     0.169 HD
ENDROOT
BRANCH   1   5
HETATM    5  C   UNL     1      -7.758   1.149 -31.663  1.00  0.00     0.034 A 
HETATM    6  C   UNL     1      -7.040   0.242 -30.880  1.00  0.00     0.032 A 
HETATM    7  C   UNL     1      -5.960  -0.469 -31.421  1.00  0.00     0.039 A 
HETATM    8  C   UNL     1      -5.606  -0.295 -32.758  1.00  0.00     0.076 A 
HETATM    9  C   UNL     1      -6.315   0.612 -33.545  1.00  0.00     0.039 A 
HETATM   10  C   UNL     1      -7.387   1.326 -33.002  1.00  0.00     0.032 A 
BRANCH   8  11
HETATM   11  O   UNL     1      -4.524  -0.897 -33.360  1.00  0.00    -0.311 OA
BRANCH  11  12
HETATM   12  C   UNL     1      -4.575  -2.245 -33.618  1.00  0.00     0.076 A 
HETATM   13  C   UNL     1      -5.509  -2.815 -34.488  1.00  0.00     0.044 A 
HETATM   14  C   UNL     1      -5.476  -4.190 -34.754  1.00  0.00    -0.059 A 
HETATM   15  C   UNL     1      -6.464  -4.801 -35.704  1.00  0.00     0.048 C 
HETATM   16  C   UNL     1      -4.468  -4.974 -34.176  1.00  0.00     0.007 A 
HETATM   17  C   UNL     1      -3.521  -4.397 -33.328  1.00  0.00     0.003 A 
HETATM   18  C   UNL     1      -3.572  -3.032 -33.052  1.00  0.00     0.037 A 
ENDBRANCH  11  12
ENDBRANCH   8  11
ENDBRANCH   1   5
BRANCH   2  19
HETATM   19  C   UNL     1     -10.138   3.808 -30.389  1.00  0.00     0.123 C 
BRANCH  19  20
HETATM   20  C   UNL     1     -10.813   4.212 -31.694  1.00  0.00     0.132 C 
BRANCH  20  21
HETATM   21  N   UNL     1     -11.922   3.352 -32.050  1.00  0.00    -0.355 N 
HETATM   22  C   UNL     1     -11.848   2.430 -33.075  1.00  0.00     0.275 C 
HETATM   23  O   UNL     1     -10.791   2.158 -33.638  1.00  0.00    -0.265 OA
HETATM   24  H   UNL     1     -12.851   3.565 -31.699  1.00  0.00     0.162 HD
BRANCH  22  25
HETATM   25  C   UNL     1     -13.122   1.837 -33.425  1.00  0.00     0.142 A 
HETATM   26  O   UNL     1     -14.225   2.103 -32.653  1.00  0.00    -0.317 OA
HETATM   27  C   UNL     1     -15.274   1.447 -33.214  1.00  0.00     0.143 A 
HETATM   28  C   UNL     1     -14.871   0.758 -34.334  1.00  0.00     0.027 A 
HETATM   29  C   UNL     1     -13.485   1.007 -34.470  1.00  0.00     0.045 A 
ENDBRANCH  22  25
ENDBRANCH  20  21
ENDBRANCH  19  20
ENDBRANCH   2  19
TORSDOF 7
ENDMDL
MODEL 2
REMARK VINA RESULT:      -8.1      6.065      9.038
REMARK  7 active torsions:
REMARK  status: ('A' for Active; 'I' for Inactive)
REMARK    1  A    between atoms: C_4  and  O_5 
REMARK    2  A    between atoms: O_5  and  C_6 
REMARK    3  A    between atoms: C_9  and  N_10 
REMARK       I    between atoms: N_10  and  C_11 
REMARK    4  A    between atoms: C_11  and  C_12 
REMARK    5  A    between atoms: C_12  and  C_13 
REMARK    6  A    between atoms: C_13  and  N_14 
REMARK       I    between atoms: N_14  and  C_15 
REMARK    7  A    between atoms: C_15  and  C_16 
ROOT
HETATM    1  N   UNL     1      -3.338   5.010 -32.840  1.00  0.00    -0.327 N 
HETATM    2  C   UNL     1      -2.984   5.650 -34.014  1.00  0.00     0.223 C 
HETATM    3  O   UNL     1      -3.122   5.215 -35.153  1.00  0.00    -0.273 OA
HETATM    4  H   UNL     1      -3.120   5.488 -31.974  1.00  0.00     0.169 HD
ENDROOT
BRANCH   1   5
HETATM    5  C   UNL     1      -4.015   3.779 -32.703  1.00  0.00     0.034 A 
HETATM    6  C   UNL     1      -5.387   3.610 -32.907  1.00  0.00     0.032 A 
HETATM    7  C   UNL     1      -5.990   2.361 -32.706  1.00  0.00     0.039 A 
HETATM    8  C   UNL     1      -5.219   1.265 -32.322  1.00  0.00     0.076 A 
HETATM    9  C   UNL     1      -3.850   1.426 -32.112  1.00  0.00     0.039 A 
HETATM   10  C   UNL     1      -3.251   2.674 -32.305  1.00  0.00     0.032 A 
BRANCH   8  11
HETATM   11  O   UNL     1      -5.729   0.018 -32.038  1.00  0.00    -0.311 OA
BRANCH  11  12
HETATM   12  C   UNL     1      -5.680  -0.955 -33.007  1.00  0.00     0.076 A 
HETATM   13  C   UNL     1      -4.692  -1.943 -33.039  1.00  0.00     0.044 A 
HETATM   14  C   UNL     1      -4.726  -2.942 -34.021  1.00  0.00    -0.059 A 
HETATM   15  C   UNL     1      -3.679  -4.016 -34.043  1.00  0.00     0.048 C 
HETATM   16  C   UNL     1      -5.786  -2.963 -34.937  1.00  0.00     0.007 A 
HETATM   17  C   UNL     1      -6.786  -1.990 -34.886  1.00  0.00     0.003 A 
HETATM   18  C   UNL     1      -6.734  -0.988 -33.920  1.00  0.00     0.037 A 
ENDBRANCH  11  12
ENDBRANCH   8  11
ENDBRANCH   1   5
BRANCH   2  19
HETATM   19  C   UNL     1      -2.371   7.017 -33.783  1.00  0.00     0.123 C 
BRANCH  19  20
HETATM   20  C   UNL     1      -0.859   6.863 -33.675  1.00  0.00     0.132 C 
BRANCH  20  21
HETATM   21  N   UNL     1      -0.364   7.036 -32.325  1.00  0.00    -0.355 N 
HETATM   22  C   UNL     1      -0.253   5.987 -31.436  1.00  0.00     0.275 C 
HETATM   23  O   UNL     1      -0.401   4.817 -31.779  1.00  0.00    -0.265 OA
HETATM   24  H   UNL     1      -0.301   7.971 -31.934  1.00  0.00     0.162 HD
BRANCH  22  25
HETATM   25  C   UNL     1       0.037   6.397 -30.077  1.00  0.00     0.142 A 
HETATM   26  O   UNL     1       0.471   5.463 -29.169  1.00  0.00    -0.317 OA
HETATM   27  C   UNL     1       0.687   6.115 -27.996  1.00  0.00     0.143 A 
HETATM   28  C   UNL     1       0.399   7.453 -28.127  1.00  0.00     0.027 A 
HETATM   29  C   UNL     1      -0.021   7.636 -29.466  1.00  0.00     0.045 A 
ENDBRANCH  22  25
ENDBRANCH  20  21
ENDBRANCH  19  20
ENDBRANCH   2  19
TORSDOF 7
ENDMDL
MODEL 3
REMARK VINA RESULT:      -8.0      0.672      1.640
REMARK  7 active torsions:
REMARK  status: ('A' for Active; 'I' for Inactive)
REMARK    1  A    between atoms: C_4  and  O_5 
REMARK    2  A    between atoms: O_5  and  C_6 
REMARK    3  A    between atoms: C_9  and  N_10 
REMARK       I    between atoms: N_10  and  C_11 
REMARK    4  A    between atoms: C_11  and  C_12 
REMARK    5  A    between atoms: C_12  and  C_13 
REMARK    6  A    between atoms: C_13  and  N_14 
REMARK       I    between atoms: N_14  and  C_15 
REMARK    7  A    between atoms: C_15  and  C_16 
ROOT
HETATM    1  N   UNL     1      -9.097   2.238 -31.502  1.00  0.00    -0.327 N 
HETATM    2  C   UNL     1      -9.093   3.412 -30.772  1.00  0.00     0.223 C 
HETATM    3  O   UNL     1      -8.111   4.090 -30.486  1.00  0.00    -0.273 OA
HETATM    4  H   UNL     1      -9.990   1.774 -31.619  1.00  0.00     0.169 HD
ENDROOT
BRANCH   1   5
HETATM    5  C   UNL     1      -8.003   1.624 -32.149  1.00  0.00     0.034 A 
HETATM    6  C   UNL     1      -7.552   1.968 -33.426  1.00  0.00     0.032 A 
HETATM    7  C   UNL     1      -6.485   1.277 -34.017  1.00  0.00     0.039 A 
HETATM    8  C   UNL     1      -5.845   0.252 -33.322  1.00  0.00     0.076 A 
HETATM    9  C   UNL     1      -6.292  -0.100 -32.049  1.00  0.00     0.039 A 
HETATM   10  C   UNL     1      -7.361   0.584 -31.464  1.00  0.00     0.032 A 
BRANCH   8  11
HETATM   11  O   UNL     1      -4.834  -0.525 -33.841  1.00  0.00    -0.311 OA
BRANCH  11  12
HETATM   12  C   UNL     1      -5.097  -1.839 -34.144  1.00  0.00     0.076 A 
HETATM   13  C   UNL     1      -4.229  -2.881 -33.808  1.00  0.00     0.044 A 
HETATM   14  C   UNL     1      -4.578  -4.208 -34.094  1.00  0.00    -0.059 A 
HETATM   15  C   UNL     1      -3.657  -5.331 -33.715  1.00  0.00     0.048 C 
HETATM   16  C   UNL     1      -5.825  -4.477 -34.673  1.00  0.00     0.007 A 
HETATM   17  C   UNL     1      -6.701  -3.435 -34.983  1.00  0.00     0.003 A 
HETATM   18  C   UNL     1      -6.339  -2.117 -34.715  1.00  0.00     0.037 A 
ENDBRANCH  11  12
ENDBRANCH   8  11
ENDBRANCH   1   5
BRANCH   2  19
HETATM   19  C   UNL     1     -10.476   3.835 -30.319  1.00  0.00     0.123 C 
BRANCH  19  20
HETATM   20  C   UNL     1     -11.264   4.313 -31.533  1.00  0.00     0.132 C 
BRANCH  20  21
HETATM   21  N   UNL     1     -12.297   3.384 -31.943  1.00  0.00    -0.355 N 
HETATM   22  C   UNL     1     -12.201   2.629 -33.094  1.00  0.00     0.275 C 
HETATM   23  O   UNL     1     -11.167   2.566 -33.754  1.00  0.00    -0.265 OA
HETATM   24  H   UNL     1     -13.213   3.435 -31.509  1.00  0.00     0.162 HD
BRANCH  22  25
HETATM   25  C   UNL     1     -13.426   1.942 -33.450  1.00  0.00     0.142 A 
HETATM   26  O   UNL     1     -14.569   2.185 -32.730  1.00  0.00    -0.317 OA
HETATM   27  C   UNL     1     -15.558   1.438 -33.285  1.00  0.00     0.143 A 
HETATM   28  C   UNL     1     -15.077   0.712 -34.349  1.00  0.00     0.027 A 
HETATM   29  C   UNL     1     -13.703   1.035 -34.456  1.00  0.00     0.045 A 
ENDBRANCH  22  25
ENDBRANCH  20  21
ENDBRANCH  19  20
ENDBRANCH   2  19
TORSDOF 7
ENDMDL
MODEL 4
REMARK VINA RESULT:      -7.9      4.928      7.743
REMARK  7 active torsions:
REMARK  status: ('A' for Active; 'I' for Inactive)
REMARK    1  A    between atoms: C_4  and  O_5 
REMARK    2  A    between atoms: O_5  and  C_6 
REMARK    3  A    between atoms: C_9  and  N_10 
REMARK       I    between atoms: N_10  and  C_11 
REMARK    4  A    between atoms: C_11  and  C_12 
REMARK    5  A    between atoms: C_12  and  C_13 
REMARK    6  A    between atoms: C_13  and  N_14 
REMARK       I    between atoms: N_14  and  C_15 
REMARK    7  A    between atoms: C_15  and  C_16 
ROOT
HETATM    1  N   UNL     1      -4.828   5.246 -29.431  1.00  0.00    -0.327 N 
HETATM    2  C   UNL     1      -4.794   6.532 -29.939  1.00  0.00     0.223 C 
HETATM    3  O   UNL     1      -5.380   6.937 -30.938  1.00  0.00    -0.273 OA
HETATM    4  H   UNL     1      -4.254   5.060 -28.617  1.00  0.00     0.169 HD
ENDROOT
BRANCH   1   5
HETATM    5  C   UNL     1      -5.609   4.162 -29.887  1.00  0.00     0.034 A 
HETATM    6  C   UNL     1      -6.982   4.036 -29.667  1.00  0.00     0.032 A 
HETATM    7  C   UNL     1      -7.677   2.903 -30.115  1.00  0.00     0.039 A 
HETATM    8  C   UNL     1      -7.004   1.899 -30.809  1.00  0.00     0.076 A 
HETATM    9  C   UNL     1      -5.632   2.015 -31.029  1.00  0.00     0.039 A 
HETATM   10  C   UNL     1      -4.939   3.141 -30.575  1.00  0.00     0.032 A 
BRANCH   8  11
HETATM   11  O   UNL     1      -7.583   0.724 -31.231  1.00  0.00    -0.311 OA
BRANCH  11  12
HETATM   12  C   UNL     1      -7.377   0.310 -32.524  1.00  0.00     0.076 A 
HETATM   13  C   UNL     1      -6.548  -0.767 -32.851  1.00  0.00     0.044 A 
HETATM   14  C   UNL     1      -6.420  -1.178 -34.185  1.00  0.00    -0.059 A 
HETATM   15  C   UNL     1      -5.547  -2.346 -34.536  1.00  0.00     0.048 C 
HETATM   16  C   UNL     1      -7.169  -0.528 -35.175  1.00  0.00     0.007 A 
HETATM   17  C   UNL     1      -8.017   0.531 -34.841  1.00  0.00     0.003 A 
HETATM   18  C   UNL     1      -8.123   0.946 -33.516  1.00  0.00     0.037 A 
ENDBRANCH  11  12
ENDBRANCH   8  11
ENDBRANCH   1   5
BRANCH   2  19
HETATM   19  C   UNL     1      -3.926   7.469 -29.124  1.00  0.00     0.123 C 
BRANCH  19  20
HETATM   20  C   UNL     1      -2.769   7.945 -29.994  1.00  0.00     0.132 C 
BRANCH  20  21
HETATM   21  N   UNL     1      -2.531   7.092 -31.139  1.00  0.00    -0.355 N 
HETATM   22  C   UNL     1      -2.171   7.592 -32.374  1.00  0.00     0.275 C 
HETATM   23  O   UNL     1      -1.862   8.769 -32.542  1.00  0.00    -0.265 OA
HETATM   24  H   UNL     1      -2.843   6.127 -31.115  1.00  0.00     0.162 HD
BRANCH  22  25
HETATM   25  C   UNL     1      -2.206   6.610 -33.439  1.00  0.00     0.142 A 
HETATM   26  O   UNL     1      -3.402   6.316 -34.045  1.00  0.00    -0.317 OA
HETATM   27  C   UNL     1      -3.146   5.395 -35.010  1.00  0.00     0.143 A 
HETATM   28  C   UNL     1      -1.806   5.085 -35.039  1.00  0.00     0.027 A 
HETATM   29  C   UNL     1      -1.200   5.866 -34.027  1.00  0.00     0.045 A 
ENDBRANCH  22  25
ENDBRANCH  20  21
ENDBRANCH  19  20
ENDBRANCH   2  19
TORSDOF 7
ENDMDL
MODEL 5
REMARK VINA RESULT:      -7.8      6.245      8.897
REMARK  7 active torsions:
REMARK  status: ('A' for Active; 'I' for Inactive)
REMARK    1  A    between atoms: C_4  and  O_5 
REMARK    2  A    between atoms: O_5  and  C_6 
REMARK    3  A    between atoms: C_9  and  N_10 
REMARK       I    between atoms: N_10  and  C_11 
REMARK    4  A    between atoms: C_11  and  C_12 
REMARK    5  A    between atoms: C_12  and  C_13 
REMARK    6  A    between atoms: C_13  and  N_14 
REMARK       I    between atoms: N_14  and  C_15 
REMARK    7  A    between atoms: C_15  and  C_16 
ROOT
HETATM    1  N   UNL     1      -5.118   4.663 -34.145  1.00  0.00    -0.327 N 
HETATM    2  C   UNL     1      -5.721   3.590 -33.515  1.00  0.00     0.223 C 
HETATM    3  O   UNL     1      -5.245   2.914 -32.609  1.00  0.00    -0.273 OA
HETATM    4  H   UNL     1      -5.629   5.094 -34.907  1.00  0.00     0.169 HD
ENDROOT
BRANCH   1   5
HETATM    5  C   UNL     1      -3.884   5.267 -33.821  1.00  0.00     0.034 A 
HETATM    6  C   UNL     1      -2.703   5.077 -34.543  1.00  0.00     0.032 A 
HETATM    7  C   UNL     1      -1.507   5.678 -34.127  1.00  0.00     0.039 A 
HETATM    8  C   UNL     1      -1.491   6.496 -32.998  1.00  0.00     0.076 A 
HETATM    9  C   UNL     1      -2.664   6.687 -32.270  1.00  0.00     0.039 A 
HETATM   10  C   UNL     1      -3.854   6.080 -32.681  1.00  0.00     0.032 A 
BRANCH   8  11
HETATM   11  O   UNL     1      -0.356   7.076 -32.476  1.00  0.00    -0.311 OA
BRANCH  11  12
HETATM   12  C   UNL     1       0.086   6.670 -31.240  1.00  0.00     0.076 A 
HETATM   13  C   UNL     1       0.252   7.551 -30.169  1.00  0.00     0.044 A 
HETATM   14  C   UNL     1       0.653   7.069 -28.915  1.00  0.00    -0.059 A 
HETATM   15  C   UNL     1       0.811   8.010 -27.758  1.00  0.00     0.048 C 
HETATM   16  C   UNL     1       0.838   5.691 -28.741  1.00  0.00     0.007 A 
HETATM   17  C   UNL     1       0.646   4.810 -29.807  1.00  0.00     0.003 A 
HETATM   18  C   UNL     1       0.266   5.299 -31.055  1.00  0.00     0.037 A 
ENDBRANCH  11  12
ENDBRANCH   8  11
ENDBRANCH   1   5
BRANCH   2  19
HETATM   19  C   UNL     1      -7.104   3.284 -34.057  1.00  0.00     0.123 C 
BRANCH  19  20
HETATM   20  C   UNL     1      -7.695   2.126 -33.263  1.00  0.00     0.132 C 
BRANCH  20  21
HETATM   21  N   UNL     1      -7.278   0.829 -33.754  1.00  0.00    -0.355 N 
HETATM   22  C   UNL     1      -6.797  -0.161 -32.920  1.00  0.00     0.275 C 
HETATM   23  O   UNL     1      -6.852  -0.072 -31.696  1.00  0.00    -0.265 OA
HETATM   24  H   UNL     1      -7.119   0.699 -34.748  1.00  0.00     0.162 HD
BRANCH  22  25
HETATM   25  C   UNL     1      -6.219  -1.290 -33.620  1.00  0.00     0.142 A 
HETATM   26  O   UNL     1      -4.917  -1.645 -33.367  1.00  0.00    -0.317 OA
HETATM   27  C   UNL     1      -4.644  -2.735 -34.130  1.00  0.00     0.143 A 
HETATM   28  C   UNL     1      -5.744  -3.092 -34.875  1.00  0.00     0.027 A 
HETATM   29  C   UNL     1      -6.758  -2.160 -34.548  1.00  0.00     0.045 A 
ENDBRANCH  22  25
ENDBRANCH  20  21
ENDBRANCH  19  20
ENDBRANCH   2  19
TORSDOF 7
ENDMDL
MODEL 6
REMARK VINA RESULT:      -7.7      4.258      6.813
REMARK  7 active torsions:
REMARK  status: ('A' for Active; 'I' for Inactive)
REMARK    1  A    between atoms: C_4  and  O_5 
REMARK    2  A    between atoms: O_5  and  C_6 
REMARK    3  A    between atoms: C_9  and  N_10 
REMARK       I    between atoms: N_10  and  C_11 
REMARK    4  A    between atoms: C_11  and  C_12 
REMARK    5  A    between atoms: C_12  and  C_13 
REMARK    6  A    between atoms: C_13  and  N_14 
REMARK       I    between atoms: N_14  and  C_15 
REMARK    7  A    between atoms: C_15  and  C_16 
ROOT
HETATM    1  N   UNL     1      -5.216   3.963 -30.009  1.00  0.00    -0.327 N 
HETATM    2  C   UNL     1      -5.598   5.291 -29.952  1.00  0.00     0.223 C 
HETATM    3  O   UNL     1      -6.483   5.825 -30.614  1.00  0.00    -0.273 OA
HETATM    4  H   UNL     1      -4.437   3.685 -29.425  1.00  0.00     0.169 HD
ENDROOT
BRANCH   1   5
HETATM    5  C   UNL     1      -5.817   2.927 -30.757  1.00  0.00     0.034 A 
HETATM    6  C   UNL     1      -6.377   1.777 -30.196  1.00  0.00     0.032 A 
HETATM    7  C   UNL     1      -6.915   0.773 -31.014  1.00  0.00     0.039 A 
HETATM    8  C   UNL     1      -6.917   0.925 -32.399  1.00  0.00     0.076 A 
HETATM    9  C   UNL     1      -6.355   2.068 -32.967  1.00  0.00     0.039 A 
HETATM   10  C   UNL     1      -5.813   3.065 -32.151  1.00  0.00     0.032 A 
BRANCH   8  11
HETATM   11  O   UNL     1      -7.361  -0.031 -33.285  1.00  0.00    -0.311 OA
BRANCH  11  12
HETATM   12  C   UNL     1      -6.519  -1.062 -33.624  1.00  0.00     0.076 A 
HETATM   13  C   UNL     1      -6.964  -2.226 -34.256  1.00  0.00     0.044 A 
HETATM   14  C   UNL     1      -6.048  -3.220 -34.629  1.00  0.00    -0.059 A 
HETATM   15  C   UNL     1      -6.520  -4.461 -35.327  1.00  0.00     0.048 C 
HETATM   16  C   UNL     1      -4.681  -3.008 -34.402  1.00  0.00     0.007 A 
HETATM   17  C   UNL     1      -4.238  -1.833 -33.794  1.00  0.00     0.003 A 
HETATM   18  C   UNL     1      -5.156  -0.858 -33.409  1.00  0.00     0.037 A 
ENDBRANCH  11  12
ENDBRANCH   8  11
ENDBRANCH   1   5
BRANCH   2  19
HETATM   19  C   UNL     1      -4.795   6.097 -28.951  1.00  0.00     0.123 C 
BRANCH  19  20
HETATM   20  C   UNL     1      -3.807   6.974 -29.709  1.00  0.00     0.132 C 
BRANCH  20  21
HETATM   21  N   UNL     1      -3.331   6.366 -30.935  1.00  0.00    -0.355 N 
HETATM   22  C   UNL     1      -2.972   7.110 -32.041  1.00  0.00     0.275 C 
HETATM   23  O   UNL     1      -2.867   8.333 -32.004  1.00  0.00    -0.265 OA
HETATM   24  H   UNL     1      -3.466   5.371 -31.082  1.00  0.00     0.162 HD
BRANCH  22  25
HETATM   25  C   UNL     1      -2.748   6.318 -33.234  1.00  0.00     0.142 A 
HETATM   26  O   UNL     1      -3.799   6.061 -34.079  1.00  0.00    -0.317 OA
HETATM   27  C   UNL     1      -3.310   5.330 -35.114  1.00  0.00     0.143 A 
HETATM   28  C   UNL     1      -1.963   5.105 -34.954  1.00  0.00     0.027 A 
HETATM   29  C   UNL     1      -1.600   5.740 -33.742  1.00  0.00     0.045 A 
ENDBRANCH  22  25
ENDBRANCH  20  21
ENDBRANCH  19  20
ENDBRANCH   2  19
TORSDOF 7
ENDMDL
MODEL 7
REMARK VINA RESULT:      -7.6      2.052      8.185
REMARK  7 active torsions:
REMARK  status: ('A' for Active; 'I' for Inactive)
REMARK    1  A    between atoms: C_4  and  O_5 
REMARK    2  A    between atoms: O_5  and  C_6 
REMARK    3  A    between atoms: C_9  and  N_10 
REMARK       I    between atoms: N_10  and  C_11 
REMARK    4  A    between atoms: C_11  and  C_12 
REMARK    5  A    between atoms: C_12  and  C_13 
REMARK    6  A    between atoms: C_13  and  N_14 
REMARK       I    between atoms: N_14  and  C_15 
REMARK    7  A    between atoms: C_15  and  C_16 
ROOT
HETATM    1  N   UNL     1      -6.236   1.632 -31.720  1.00  0.00    -0.327 N 
HETATM    2  C   UNL     1      -5.916   0.438 -31.099  1.00  0.00     0.223 C 
HETATM    3  O   UNL     1      -6.702  -0.438 -30.751  1.00  0.00    -0.273 OA
HETATM    4  H   UNL     1      -5.473   2.270 -31.907  1.00  0.00     0.169 HD
ENDROOT
BRANCH   1   5
HETATM    5  C   UNL     1      -7.506   2.052 -32.170  1.00  0.00     0.034 A 
HETATM    6  C   UNL     1      -7.817   2.321 -33.505  1.00  0.00     0.032 A 
HETATM    7  C   UNL     1      -9.092   2.779 -33.864  1.00  0.00     0.039 A 
HETATM    8  C   UNL     1     -10.075   2.949 -32.890  1.00  0.00     0.076 A 
HETATM    9  C   UNL     1      -9.771   2.688 -31.554  1.00  0.00     0.039 A 
HETATM   10  C   UNL     1      -8.497   2.238 -31.197  1.00  0.00     0.032 A 
BRANCH   8  11
HETATM   11  O   UNL     1     -11.332   3.454 -33.134  1.00  0.00    -0.311 OA
BRANCH  11  12
HETATM   12  C   UNL     1     -12.394   2.585 -33.196  1.00  0.00     0.076 A 
HETATM   13  C   UNL     1     -13.639   2.870 -32.627  1.00  0.00     0.044 A 
HETATM   14  C   UNL     1     -14.702   1.968 -32.772  1.00  0.00    -0.059 A 
HETATM   15  C   UNL     1     -16.045   2.281 -32.181  1.00  0.00     0.048 C 
HETATM   16  C   UNL     1     -14.513   0.805 -33.531  1.00  0.00     0.007 A 
HETATM   17  C   UNL     1     -13.276   0.537 -34.120  1.00  0.00     0.003 A 
HETATM   18  C   UNL     1     -12.218   1.428 -33.955  1.00  0.00     0.037 A 
ENDBRANCH  11  12
ENDBRANCH   8  11
ENDBRANCH   1   5
BRANCH   2  19
HETATM   19  C   UNL     1      -4.428   0.274 -30.860  1.00  0.00     0.123 C 
BRANCH  19  20
HETATM   20  C   UNL     1      -3.736   0.079 -32.203  1.00  0.00     0.132 C 
BRANCH  20  21
HETATM   21  N   UNL     1      -4.131  -1.142 -32.874  1.00  0.00    -0.355 N 
HETATM   22  C   UNL     1      -5.102  -1.168 -33.856  1.00  0.00     0.275 C 
HETATM   23  O   UNL     1      -5.570  -0.143 -34.343  1.00  0.00    -0.265 OA
HETATM   24  H   UNL     1      -3.862  -2.037 -32.480  1.00  0.00     0.162 HD
BRANCH  22  25
HETATM   25  C   UNL     1      -5.517  -2.503 -34.236  1.00  0.00     0.142 A 
HETATM   26  O   UNL     1      -4.604  -3.528 -34.206  1.00  0.00    -0.317 OA
HETATM   27  C   UNL     1      -5.257  -4.657 -34.582  1.00  0.00     0.143 A 
HETATM   28  C   UNL     1      -6.577  -4.384 -34.857  1.00  0.00     0.027 A 
HETATM   29  C   UNL     1      -6.745  -2.996 -34.637  1.00  0.00     0.045 A 
ENDBRANCH  22  25
ENDBRANCH  20  21
ENDBRANCH  19  20
ENDBRANCH   2  19
TORSDOF 7
ENDMDL
MODEL 8
REMARK VINA RESULT:      -7.6      3.595      6.264
REMARK  7 active torsions:
REMARK  status: ('A' for Active; 'I' for Inactive)
REMARK    1  A    between atoms: C_4  and  O_5 
REMARK    2  A    between atoms: O_5  and  C_6 
REMARK    3  A    between atoms: C_9  and  N_10 
REMARK       I    between atoms: N_10  and  C_11 
REMARK    4  A    between atoms: C_11  and  C_12 
REMARK    5  A    between atoms: C_12  and  C_13 
REMARK    6  A    between atoms: C_13  and  N_14 
REMARK       I    between atoms: N_14  and  C_15 
REMARK    7  A    between atoms: C_15  and  C_16 
ROOT
HETATM    1  N   UNL     1      -7.989   2.907 -32.861  1.00  0.00    -0.327 N 
HETATM    2  C   UNL     1      -7.218   3.582 -31.933  1.00  0.00     0.223 C 
HETATM    3  O   UNL     1      -6.250   3.135 -31.325  1.00  0.00    -0.273 OA
HETATM    4  H   UNL     1      -8.783   3.405 -33.247  1.00  0.00     0.169 HD
ENDROOT
BRANCH   1   5
HETATM    5  C   UNL     1      -7.777   1.610 -33.376  1.00  0.00     0.034 A 
HETATM    6  C   UNL     1      -8.198   0.436 -32.746  1.00  0.00     0.032 A 
HETATM    7  C   UNL     1      -7.906  -0.817 -33.302  1.00  0.00     0.039 A 
HETATM    8  C   UNL     1      -7.210  -0.903 -34.507  1.00  0.00     0.076 A 
HETATM    9  C   UNL     1      -6.782   0.263 -35.139  1.00  0.00     0.039 A 
HETATM   10  C   UNL     1      -7.067   1.512 -34.580  1.00  0.00     0.032 A 
BRANCH   8  11
HETATM   11  O   UNL     1      -6.821  -2.085 -35.096  1.00  0.00    -0.311 OA
BRANCH  11  12
HETATM   12  C   UNL     1      -5.768  -2.781 -34.553  1.00  0.00     0.076 A 
HETATM   13  C   UNL     1      -4.908  -2.230 -33.599  1.00  0.00     0.044 A 
HETATM   14  C   UNL     1      -3.886  -3.008 -33.039  1.00  0.00    -0.059 A 
HETATM   15  C   UNL     1      -2.975  -2.425 -32.000  1.00  0.00     0.048 C 
HETATM   16  C   UNL     1      -3.768  -4.353 -33.413  1.00  0.00     0.007 A 
HETATM   17  C   UNL     1      -4.646  -4.908 -34.347  1.00  0.00     0.003 A 
HETATM   18  C   UNL     1      -5.647  -4.123 -34.914  1.00  0.00     0.037 A 
ENDBRANCH  11  12
ENDBRANCH   8  11
ENDBRANCH   1   5
BRANCH   2  19
HETATM   19  C   UNL     1      -7.678   5.007 -31.702  1.00  0.00     0.123 C 
BRANCH  19  20
HETATM   20  C   UNL     1      -7.130   5.886 -32.820  1.00  0.00     0.132 C 
BRANCH  20  21
HETATM   21  N   UNL     1      -5.684   5.960 -32.828  1.00  0.00    -0.355 N 
HETATM   22  C   UNL     1      -4.914   5.329 -33.783  1.00  0.00     0.275 C 
HETATM   23  O   UNL     1      -5.404   4.809 -34.783  1.00  0.00    -0.265 OA
HETATM   24  H   UNL     1      -5.197   6.291 -32.001  1.00  0.00     0.162 HD
BRANCH  22  25
HETATM   25  C   UNL     1      -3.495   5.327 -33.489  1.00  0.00     0.142 A 
HETATM   26  O   UNL     1      -3.077   5.449 -32.187  1.00  0.00    -0.317 OA
HETATM   27  C   UNL     1      -1.720   5.394 -32.196  1.00  0.00     0.143 A 
HETATM   28  C   UNL     1      -1.250   5.241 -33.479  1.00  0.00     0.027 A 
HETATM   29  C   UNL     1      -2.393   5.199 -34.313  1.00  0.00     0.045 A 
ENDBRANCH  22  25
ENDBRANCH  20  21
ENDBRANCH  19  20
ENDBRANCH   2  19
TORSDOF 7
ENDMDL
MODEL 9
REMARK VINA RESULT:      -7.6      4.917      7.128
REMARK  7 active torsions:
REMARK  status: ('A' for Active; 'I' for Inactive)
REMARK    1  A    between atoms: C_4  and  O_5 
REMARK    2  A    between atoms: O_5  and  C_6 
REMARK    3  A    between atoms: C_9  and  N_10 
REMARK       I    between atoms: N_10  and  C_11 
REMARK    4  A    between atoms: C_11  and  C_12 
REMARK    5  A    between atoms: C_12  and  C_13 
REMARK    6  A    between atoms: C_13  and  N_14 
REMARK       I    between atoms: N_14  and  C_15 
REMARK    7  A    between atoms: C_15  and  C_16 
ROOT
HETATM    1  N   UNL     1      -7.926   3.735 -32.374  1.00  0.00    -0.327 N 
HETATM    2  C   UNL     1      -8.631   4.346 -33.394  1.00  0.00     0.223 C 
HETATM    3  O   UNL     1      -8.158   5.002 -34.318  1.00  0.00    -0.273 OA
HETATM    4  H   UNL     1      -8.468   3.262 -31.661  1.00  0.00     0.169 HD
ENDROOT
BRANCH   1   5
HETATM    5  C   UNL     1      -6.524   3.649 -32.229  1.00  0.00     0.034 A 
HETATM    6  C   UNL     1      -5.732   2.664 -32.822  1.00  0.00     0.032 A 
HETATM    7  C   UNL     1      -4.350   2.623 -32.590  1.00  0.00     0.039 A 
HETATM    8  C   UNL     1      -3.747   3.586 -31.782  1.00  0.00     0.076 A 
HETATM    9  C   UNL     1      -4.532   4.570 -31.182  1.00  0.00     0.039 A 
HETATM   10  C   UNL     1      -5.911   4.605 -31.408  1.00  0.00     0.032 A 
BRANCH   8  11
HETATM   11  O   UNL     1      -2.412   3.591 -31.444  1.00  0.00    -0.311 OA
BRANCH  11  12
HETATM   12  C   UNL     1      -1.702   4.760 -31.571  1.00  0.00     0.076 A 
HETATM   13  C   UNL     1      -1.021   5.352 -30.504  1.00  0.00     0.044 A 
HETATM   14  C   UNL     1      -0.266   6.515 -30.709  1.00  0.00    -0.059 A 
HETATM   15  C   UNL     1       0.483   7.141 -29.570  1.00  0.00     0.048 C 
HETATM   16  C   UNL     1      -0.166   7.045 -32.002  1.00  0.00     0.007 A 
HETATM   17  C   UNL     1      -0.826   6.436 -33.071  1.00  0.00     0.003 A 
HETATM   18  C   UNL     1      -1.590   5.292 -32.856  1.00  0.00     0.037 A 
ENDBRANCH  11  12
ENDBRANCH   8  11
ENDBRANCH   1   5
BRANCH   2  19
HETATM   19  C   UNL     1     -10.129   4.139 -33.287  1.00  0.00     0.123 C 
BRANCH  19  20
HETATM   20  C   UNL     1     -10.563   3.149 -34.361  1.00  0.00     0.132 C 
BRANCH  20  21
HETATM   21  N   UNL     1      -9.580   2.117 -34.613  1.00  0.00    -0.355 N 
HETATM   22  C   UNL     1      -9.540   0.938 -33.896  1.00  0.00     0.275 C 
HETATM   23  O   UNL     1     -10.432   0.613 -33.117  1.00  0.00    -0.265 OA
HETATM   24  H   UNL     1      -8.761   2.335 -35.172  1.00  0.00     0.162 HD
BRANCH  22  25
HETATM   25  C   UNL     1      -8.352   0.144 -34.136  1.00  0.00     0.142 A 
HETATM   26  O   UNL     1      -7.793  -0.564 -33.101  1.00  0.00    -0.317 OA
HETATM   27  C   UNL     1      -6.721  -1.230 -33.605  1.00  0.00     0.143 A 
HETATM   28  C   UNL     1      -6.573  -0.964 -34.946  1.00  0.00     0.027 A 
HETATM   29  C   UNL     1      -7.622  -0.078 -35.289  1.00  0.00     0.045 A 
ENDBRANCH  22  25
ENDBRANCH  20  21
ENDBRANCH  19  20
ENDBRANCH   2  19
TORSDOF 7
ENDMDL
MODEL 10
REMARK VINA RESULT:      -7.6      4.731      7.714
REMARK  7 active torsions:
REMARK  status: ('A' for Active; 'I' for Inactive)
REMARK    1  A    between atoms: C_4  and  O_5 
REMARK    2  A    between atoms: O_5  and  C_6 
REMARK    3  A    between atoms: C_9  and  N_10 
REMARK       I    between atoms: N_10  and  C_11 
REMARK    4  A    between atoms: C_11  and  C_12 
REMARK    5  A    between atoms: C_12  and  C_13 
REMARK    6  A    between atoms: C_13  and  N_14 
REMARK       I    between atoms: N_14  and  C_15 
REMARK    7  A    between atoms: C_15  and  C_16 
ROOT
HETATM    1  N   UNL     1      -5.370   3.706 -29.458  1.00  0.00    -0.327 N 
HETATM    2  C   UNL     1      -5.988   4.894 -29.113  1.00  0.00     0.223 C 
HETATM    3  O   UNL     1      -6.941   5.414 -29.685  1.00  0.00    -0.273 OA
HETATM    4  H   UNL     1      -4.566   3.431 -28.906  1.00  0.00     0.169 HD
ENDROOT
BRANCH   1   5
HETATM    5  C   UNL     1      -5.755   2.799 -30.468  1.00  0.00     0.034 A 
HETATM    6  C   UNL     1      -5.606   3.037 -31.836  1.00  0.00     0.032 A 
HETATM    7  C   UNL     1      -6.057   2.101 -32.778  1.00  0.00     0.039 A 
HETATM    8  C   UNL     1      -6.639   0.907 -32.354  1.00  0.00     0.076 A 
HETATM    9  C   UNL     1      -6.796   0.664 -30.990  1.00  0.00     0.039 A 
HETATM   10  C   UNL     1      -6.353   1.602 -30.053  1.00  0.00     0.032 A 
BRANCH   8  11
HETATM   11  O   UNL     1      -7.170  -0.041 -33.199  1.00  0.00    -0.311 OA
BRANCH  11  12
HETATM   12  C   UNL     1      -6.384  -1.101 -33.583  1.00  0.00     0.076 A 
HETATM   13  C   UNL     1      -6.895  -2.223 -34.240  1.00  0.00     0.044 A 
HETATM   14  C   UNL     1      -6.034  -3.248 -34.656  1.00  0.00    -0.059 A 
HETATM   15  C   UNL     1      -6.578  -4.444 -35.381  1.00  0.00     0.048 C 
HETATM   16  C   UNL     1      -4.656  -3.109 -34.448  1.00  0.00     0.007 A 
HETATM   17  C   UNL     1      -4.146  -1.974 -33.814  1.00  0.00     0.003 A 
HETATM   18  C   UNL     1      -5.009  -0.969 -33.385  1.00  0.00     0.037 A 
ENDBRANCH  11  12
ENDBRANCH   8  11
ENDBRANCH   1   5
BRANCH   2  19
HETATM   19  C   UNL     1      -5.368   5.555 -27.897  1.00  0.00     0.123 C 
BRANCH  19  20
HETATM   20  C   UNL     1      -4.705   6.855 -28.333  1.00  0.00     0.132 C 
BRANCH  20  21
HETATM   21  N   UNL     1      -3.319   6.686 -28.718  1.00  0.00    -0.355 N 
HETATM   22  C   UNL     1      -2.912   6.670 -30.036  1.00  0.00     0.275 C 
HETATM   23  O   UNL     1      -3.665   6.967 -30.960  1.00  0.00    -0.265 OA
HETATM   24  H   UNL     1      -2.649   6.351 -28.032  1.00  0.00     0.162 HD
BRANCH  22  25
HETATM   25  C   UNL     1      -1.535   6.259 -30.221  1.00  0.00     0.142 A 
HETATM   26  O   UNL     1      -0.694   6.212 -29.137  1.00  0.00    -0.317 OA
HETATM   27  C   UNL     1       0.513   5.778 -29.585  1.00  0.00     0.143 A 
HETATM   28  C   UNL     1       0.471   5.546 -30.940  1.00  0.00     0.027 A 
HETATM   29  C   UNL     1      -0.847   5.857 -31.351  1.00  0.00     0.045 A 
ENDBRANCH  22  25
ENDBRANCH  20  21
ENDBRANCH  19  20
ENDBRANCH   2  19
TORSDOF 7
ENDMDL
