MODEL 1
REMARK VINA RESULT:      -9.1      0.000      0.000
REMARK  6 active torsions:
REMARK  status: ('A' for Active; 'I' for Inactive)
REMARK    1  A    between atoms: C_4  and  C_5 
REMARK    2  A    between atoms: C_5  and  O_6 
REMARK    3  A    between atoms: O_6  and  C_7 
REMARK    4  A    between atoms: C_10  and  C_11 
REMARK    5  A    between atoms: C_17  and  C_18 
REMARK    6  A    between atoms: C_27  and  N_28 
ROOT
HETATM    1  C   UNL     1     -10.519   1.440 -33.575  1.00  0.00     0.072 A 
HETATM    2  N   UNL     1     -11.698   0.742 -33.399  1.00  0.00    -0.274 N 
HETATM    3  H   UNL     1     -11.805  -0.215 -33.080  1.00  0.00     0.189 HD
HETATM    4  N   UNL     1     -12.806   1.435 -33.724  1.00  0.00    -0.148 NA
HETATM    5  C   UNL     1     -12.307   2.595 -34.125  1.00  0.00     0.199 A 
HETATM    6  C   UNL     1     -10.916   2.685 -34.036  1.00  0.00     0.040 A 
HETATM    7  C   UNL     1     -10.217   3.941 -34.425  1.00  0.00     0.106 A 
HETATM    8  C   UNL     1     -11.193   4.948 -35.022  1.00  0.00     0.081 A 
HETATM    9  C   UNL     1     -10.625   6.130 -35.580  1.00  0.00     0.100 C 
HETATM   10  N   UNL     1     -10.155   7.092 -36.029  1.00  0.00    -0.191 NA
HETATM   11  C   UNL     1     -12.535   4.735 -35.074  1.00  0.00     0.140 A 
HETATM   12  O   UNL     1     -13.123   3.565 -34.574  1.00  0.00    -0.277 OA
ENDROOT
BRANCH   7  13
HETATM   13  C   UNL     1      -9.536   4.453 -33.163  1.00  0.00    -0.041 A 
HETATM   14  C   UNL     1     -10.312   4.889 -32.082  1.00  0.00     0.027 A 
HETATM   15  C   UNL     1      -9.676   5.333 -30.932  1.00  0.00     0.116 A 
HETATM   16  N   UNL     1      -8.336   5.368 -30.782  1.00  0.00    -0.273 NA
HETATM   17  C   UNL     1      -7.599   4.942 -31.828  1.00  0.00     0.116 A 
HETATM   18  C   UNL     1      -8.140   4.481 -33.018  1.00  0.00     0.027 A 
ENDBRANCH   7  13
BRANCH  11  19
HETATM   19  N   UNL     1     -13.458   5.609 -35.606  1.00  0.00    -0.282 NA
HETATM   20  H   UNL     1     -14.409   5.519 -35.261  1.00  0.00     0.126 HD
HETATM   21  H   UNL     1     -13.400   5.659 -36.621  1.00  0.00     0.126 HD
ENDBRANCH  11  19
BRANCH   1  22
HETATM   22  C   UNL     1      -9.210   0.863 -33.297  1.00  0.00    -0.007 A 
HETATM   23  C   UNL     1      -8.352   0.505 -34.341  1.00  0.00     0.016 A 
HETATM   24  C   UNL     1      -7.088  -0.028 -34.069  1.00  0.00     0.037 A 
HETATM   25  C   UNL     1      -6.661  -0.217 -32.754  1.00  0.00     0.069 A 
HETATM   26  C   UNL     1      -7.521   0.114 -31.708  1.00  0.00     0.037 A 
HETATM   27  C   UNL     1      -8.785   0.656 -31.978  1.00  0.00     0.016 A 
BRANCH  25  28
HETATM   28  O   UNL     1      -5.399  -0.724 -32.631  1.00  0.00    -0.347 OA
BRANCH  28  29
HETATM   29  C   UNL     1      -4.709  -1.056 -33.837  1.00  0.00     0.214 C 
BRANCH  29  30
HETATM   30  C   UNL     1      -4.696  -2.556 -34.028  1.00  0.00    -0.034 A 
HETATM   31  C   UNL     1      -3.732  -3.337 -33.371  1.00  0.00     0.009 A 
HETATM   32  C   UNL     1      -3.722  -4.725 -33.519  1.00  0.00     0.001 A 
HETATM   33  C   UNL     1      -4.679  -5.350 -34.317  1.00  0.00     0.000 A 
HETATM   34  C   UNL     1      -5.651  -4.588 -34.961  1.00  0.00     0.001 A 
HETATM   35  C   UNL     1      -5.664  -3.199 -34.813  1.00  0.00     0.009 A 
ENDBRANCH  29  30
ENDBRANCH  28  29
ENDBRANCH  25  28
ENDBRANCH   1  22
TORSDOF 6
ENDMDL
MODEL 2
REMARK VINA RESULT:      -8.8      4.362      6.998
REMARK  6 active torsions:
REMARK  status: ('A' for Active; 'I' for Inactive)
REMARK    1  A    between atoms: C_4  and  C_5 
REMARK    2  A    between atoms: C_5  and  O_6 
REMARK    3  A    between atoms: O_6  and  C_7 
REMARK    4  A    between atoms: C_10  and  C_11 
REMARK    5  A    between atoms: C_17  and  C_18 
REMARK    6  A    between atoms: C_27  and  N_28 
ROOT
HETATM    1  C   UNL     1      -3.238   5.301 -33.070  1.00  0.00     0.072 A 
HETATM    2  N   UNL     1      -2.510   5.685 -34.180  1.00  0.00    -0.274 N 
HETATM    3  H   UNL     1      -2.278   5.120 -34.990  1.00  0.00     0.189 HD
HETATM    4  N   UNL     1      -2.052   6.951 -34.131  1.00  0.00    -0.148 NA
HETATM    5  C   UNL     1      -2.495   7.367 -32.953  1.00  0.00     0.199 A 
HETATM    6  C   UNL     1      -3.253   6.423 -32.257  1.00  0.00     0.040 A 
HETATM    7  C   UNL     1      -3.842   6.760 -30.932  1.00  0.00     0.106 A 
HETATM    8  C   UNL     1      -3.376   8.134 -30.461  1.00  0.00     0.081 A 
HETATM    9  C   UNL     1      -3.742   8.508 -29.134  1.00  0.00     0.100 C 
HETATM   10  N   UNL     1      -4.047   8.808 -28.056  1.00  0.00    -0.191 NA
HETATM   11  C   UNL     1      -2.615   8.959 -31.227  1.00  0.00     0.140 A 
HETATM   12  O   UNL     1      -2.201   8.606 -32.519  1.00  0.00    -0.277 OA
ENDROOT
BRANCH   7  13
HETATM   13  C   UNL     1      -5.352   6.674 -31.106  1.00  0.00    -0.041 A 
HETATM   14  C   UNL     1      -6.077   5.695 -30.416  1.00  0.00     0.027 A 
HETATM   15  C   UNL     1      -7.455   5.644 -30.570  1.00  0.00     0.116 A 
HETATM   16  N   UNL     1      -8.155   6.494 -31.348  1.00  0.00    -0.273 NA
HETATM   17  C   UNL     1      -7.446   7.437 -32.004  1.00  0.00     0.116 A 
HETATM   18  C   UNL     1      -6.069   7.568 -31.916  1.00  0.00     0.027 A 
ENDBRANCH   7  13
BRANCH  11  19
HETATM   19  N   UNL     1      -2.166  10.205 -30.848  1.00  0.00    -0.282 NA
HETATM   20  H   UNL     1      -2.150  10.915 -31.575  1.00  0.00     0.126 HD
HETATM   21  H   UNL     1      -1.302  10.156 -30.312  1.00  0.00     0.126 HD
ENDBRANCH  11  19
BRANCH   1  22
HETATM   22  C   UNL     1      -3.805   3.967 -32.920  1.00  0.00    -0.007 A 
HETATM   23  C   UNL     1      -5.093   3.683 -33.384  1.00  0.00     0.016 A 
HETATM   24  C   UNL     1      -5.625   2.396 -33.258  1.00  0.00     0.037 A 
HETATM   25  C   UNL     1      -4.883   1.373 -32.664  1.00  0.00     0.069 A 
HETATM   26  C   UNL     1      -3.608   1.654 -32.178  1.00  0.00     0.037 A 
HETATM   27  C   UNL     1      -3.070   2.942 -32.310  1.00  0.00     0.016 A 
BRANCH  25  28
HETATM   28  O   UNL     1      -5.513   0.161 -32.625  1.00  0.00    -0.347 OA
BRANCH  28  29
HETATM   29  C   UNL     1      -6.230  -0.239 -33.794  1.00  0.00     0.214 C 
BRANCH  29  30
HETATM   30  C   UNL     1      -5.937  -1.690 -34.106  1.00  0.00    -0.034 A 
HETATM   31  C   UNL     1      -6.966  -2.530 -34.562  1.00  0.00     0.009 A 
HETATM   32  C   UNL     1      -6.706  -3.865 -34.876  1.00  0.00     0.001 A 
HETATM   33  C   UNL     1      -5.416  -4.375 -34.747  1.00  0.00     0.000 A 
HETATM   34  C   UNL     1      -4.383  -3.548 -34.312  1.00  0.00     0.001 A 
HETATM   35  C   UNL     1      -4.640  -2.211 -33.999  1.00  0.00     0.009 A 
ENDBRANCH  29  30
ENDBRANCH  28  29
ENDBRANCH  25  28
ENDBRANCH   1  22
TORSDOF 6
ENDMDL
MODEL 3
REMARK VINA RESULT:      -8.7      2.815      4.001
REMARK  6 active torsions:
REMARK  status: ('A' for Active; 'I' for Inactive)
REMARK    1  A    between atoms: C_4  and  C_5 
REMARK    2  A    between atoms: C_5  and  O_6 
REMARK    3  A    between atoms: O_6  and  C_7 
REMARK    4  A    between atoms: C_10  and  C_11 
REMARK    5  A    between atoms: C_17  and  C_18 
REMARK    6  A    between atoms: C_27  and  N_28 
ROOT
HETATM    1  C   UNL     1      -7.047   3.229 -30.450  1.00  0.00     0.072 A 
HETATM    2  N   UNL     1      -7.285   3.540 -29.125  1.00  0.00    -0.274 N 
HETATM    3  H   UNL     1      -6.935   3.055 -28.306  1.00  0.00     0.189 HD
HETATM    4  N   UNL     1      -8.100   4.597 -28.942  1.00  0.00    -0.148 NA
HETATM    5  C   UNL     1      -8.389   4.951 -30.186  1.00  0.00     0.199 A 
HETATM    6  C   UNL     1      -7.760   4.178 -31.165  1.00  0.00     0.040 A 
HETATM    7  C   UNL     1      -7.968   4.477 -32.609  1.00  0.00     0.106 A 
HETATM    8  C   UNL     1      -9.011   5.573 -32.795  1.00  0.00     0.081 A 
HETATM    9  C   UNL     1      -9.417   5.843 -34.135  1.00  0.00     0.100 C 
HETATM   10  N   UNL     1      -9.740   6.059 -35.228  1.00  0.00    -0.191 NA
HETATM   11  C   UNL     1      -9.573   6.243 -31.754  1.00  0.00     0.140 A 
HETATM   12  O   UNL     1      -9.229   5.974 -30.422  1.00  0.00    -0.277 OA
ENDROOT
BRANCH   7  13
HETATM   13  C   UNL     1      -6.602   4.860 -33.162  1.00  0.00    -0.041 A 
HETATM   14  C   UNL     1      -5.900   5.935 -32.601  1.00  0.00     0.027 A 
HETATM   15  C   UNL     1      -4.648   6.256 -33.104  1.00  0.00     0.116 A 
HETATM   16  N   UNL     1      -4.048   5.587 -34.109  1.00  0.00    -0.273 NA
HETATM   17  C   UNL     1      -4.731   4.551 -34.638  1.00  0.00     0.116 A 
HETATM   18  C   UNL     1      -5.987   4.153 -34.207  1.00  0.00     0.027 A 
ENDBRANCH   7  13
BRANCH  11  19
HETATM   19  N   UNL     1     -10.521   7.237 -31.867  1.00  0.00    -0.282 NA
HETATM   20  H   UNL     1     -11.209   7.117 -32.605  1.00  0.00     0.126 HD
HETATM   21  H   UNL     1     -10.106   8.167 -31.848  1.00  0.00     0.126 HD
ENDBRANCH  11  19
BRANCH   1  22
HETATM   22  C   UNL     1      -6.207   2.110 -30.860  1.00  0.00    -0.007 A 
HETATM   23  C   UNL     1      -6.750   0.832 -31.018  1.00  0.00     0.016 A 
HETATM   24  C   UNL     1      -5.945  -0.234 -31.433  1.00  0.00     0.037 A 
HETATM   25  C   UNL     1      -4.587  -0.043 -31.692  1.00  0.00     0.069 A 
HETATM   26  C   UNL     1      -4.034   1.223 -31.513  1.00  0.00     0.037 A 
HETATM   27  C   UNL     1      -4.840   2.294 -31.105  1.00  0.00     0.016 A 
BRANCH  25  28
HETATM   28  O   UNL     1      -3.923  -1.162 -32.111  1.00  0.00    -0.347 OA
BRANCH  28  29
HETATM   29  C   UNL     1      -3.778  -1.345 -33.520  1.00  0.00     0.214 C 
BRANCH  29  30
HETATM   30  C   UNL     1      -4.635  -2.503 -33.980  1.00  0.00    -0.034 A 
HETATM   31  C   UNL     1      -5.945  -2.270 -34.429  1.00  0.00     0.009 A 
HETATM   32  C   UNL     1      -6.740  -3.326 -34.878  1.00  0.00     0.001 A 
HETATM   33  C   UNL     1      -6.234  -4.624 -34.893  1.00  0.00     0.000 A 
HETATM   34  C   UNL     1      -4.930  -4.867 -34.467  1.00  0.00     0.001 A 
HETATM   35  C   UNL     1      -4.132  -3.812 -34.018  1.00  0.00     0.009 A 
ENDBRANCH  29  30
ENDBRANCH  28  29
ENDBRANCH  25  28
ENDBRANCH   1  22
TORSDOF 6
ENDMDL
MODEL 4
REMARK VINA RESULT:      -8.5      2.141      4.217
REMARK  6 active torsions:
REMARK  status: ('A' for Active; 'I' for Inactive)
REMARK    1  A    between atoms: C_4  and  C_5 
REMARK    2  A    between atoms: C_5  and  O_6 
REMARK    3  A    between atoms: O_6  and  C_7 
REMARK    4  A    between atoms: C_10  and  C_11 
REMARK    5  A    between atoms: C_17  and  C_18 
REMARK    6  A    between atoms: C_27  and  N_28 
ROOT
HETATM    1  C   UNL     1     -10.038   4.075 -31.890  1.00  0.00     0.072 A 
HETATM    2  N   UNL     1      -9.571   5.321 -31.521  1.00  0.00    -0.274 N 
HETATM    3  H   UNL     1      -8.605   5.612 -31.422  1.00  0.00     0.189 HD
HETATM    4  N   UNL     1     -10.540   6.216 -31.246  1.00  0.00    -0.148 NA
HETATM    5  C   UNL     1     -11.644   5.507 -31.436  1.00  0.00     0.199 A 
HETATM    6  C   UNL     1     -11.419   4.194 -31.859  1.00  0.00     0.040 A 
HETATM    7  C   UNL     1     -12.565   3.288 -32.141  1.00  0.00     0.106 A 
HETATM    8  C   UNL     1     -13.888   3.948 -31.769  1.00  0.00     0.081 A 
HETATM    9  C   UNL     1     -15.051   3.127 -31.843  1.00  0.00     0.100 C 
HETATM   10  N   UNL     1     -15.994   2.453 -31.908  1.00  0.00    -0.191 NA
HETATM   11  C   UNL     1     -13.977   5.236 -31.344  1.00  0.00     0.140 A 
HETATM   12  O   UNL     1     -12.850   6.060 -31.219  1.00  0.00    -0.277 OA
ENDROOT
BRANCH   7  13
HETATM   13  C   UNL     1     -12.473   2.938 -33.620  1.00  0.00    -0.041 A 
HETATM   14  C   UNL     1     -12.401   1.596 -34.014  1.00  0.00     0.027 A 
HETATM   15  C   UNL     1     -12.339   1.294 -35.367  1.00  0.00     0.116 A 
HETATM   16  N   UNL     1     -12.350   2.223 -36.344  1.00  0.00    -0.273 NA
HETATM   17  C   UNL     1     -12.425   3.512 -35.953  1.00  0.00     0.116 A 
HETATM   18  C   UNL     1     -12.490   3.914 -34.628  1.00  0.00     0.027 A 
ENDBRANCH   7  13
BRANCH  11  19
HETATM   19  N   UNL     1     -15.145   5.878 -30.993  1.00  0.00    -0.282 NA
HETATM   20  H   UNL     1     -15.623   6.378 -31.738  1.00  0.00     0.126 HD
HETATM   21  H   UNL     1     -15.042   6.426 -30.141  1.00  0.00     0.126 HD
ENDBRANCH  11  19
BRANCH   1  22
HETATM   22  C   UNL     1      -9.152   2.962 -32.211  1.00  0.00    -0.007 A 
HETATM   23  C   UNL     1      -9.185   1.784 -31.460  1.00  0.00     0.016 A 
HETATM   24  C   UNL     1      -8.348   0.712 -31.785  1.00  0.00     0.037 A 
HETATM   25  C   UNL     1      -7.464   0.799 -32.862  1.00  0.00     0.069 A 
HETATM   26  C   UNL     1      -7.408   1.979 -33.601  1.00  0.00     0.037 A 
HETATM   27  C   UNL     1      -8.251   3.052 -33.281  1.00  0.00     0.016 A 
BRANCH  25  28
HETATM   28  O   UNL     1      -6.722  -0.327 -33.082  1.00  0.00    -0.347 OA
BRANCH  28  29
HETATM   29  C   UNL     1      -6.647  -0.807 -34.426  1.00  0.00     0.214 C 
BRANCH  29  30
HETATM   30  C   UNL     1      -6.068  -2.204 -34.443  1.00  0.00    -0.034 A 
HETATM   31  C   UNL     1      -6.877  -3.293 -34.802  1.00  0.00     0.009 A 
HETATM   32  C   UNL     1      -6.351  -4.585 -34.844  1.00  0.00     0.001 A 
HETATM   33  C   UNL     1      -5.010  -4.804 -34.538  1.00  0.00     0.000 A 
HETATM   34  C   UNL     1      -4.192  -3.730 -34.196  1.00  0.00     0.001 A 
HETATM   35  C   UNL     1      -4.715  -2.435 -34.154  1.00  0.00     0.009 A 
ENDBRANCH  29  30
ENDBRANCH  28  29
ENDBRANCH  25  28
ENDBRANCH   1  22
TORSDOF 6
ENDMDL
MODEL 5
REMARK VINA RESULT:      -8.4      4.880      7.523
REMARK  6 active torsions:
REMARK  status: ('A' for Active; 'I' for Inactive)
REMARK    1  A    between atoms: C_4  and  C_5 
REMARK    2  A    between atoms: C_5  and  O_6 
REMARK    3  A    between atoms: O_6  and  C_7 
REMARK    4  A    between atoms: C_10  and  C_11 
REMARK    5  A    between atoms: C_17  and  C_18 
REMARK    6  A    between atoms: C_27  and  N_28 
ROOT
HETATM    1  C   UNL     1      -5.281   5.121 -29.191  1.00  0.00     0.072 A 
HETATM    2  N   UNL     1      -5.720   4.922 -27.897  1.00  0.00    -0.274 N 
HETATM    3  H   UNL     1      -6.259   4.140 -27.542  1.00  0.00     0.189 HD
HETATM    4  N   UNL     1      -5.395   5.913 -27.043  1.00  0.00    -0.148 NA
HETATM    5  C   UNL     1      -4.747   6.762 -27.828  1.00  0.00     0.199 A 
HETATM    6  C   UNL     1      -4.612   6.333 -29.151  1.00  0.00     0.040 A 
HETATM    7  C   UNL     1      -3.880   7.170 -30.142  1.00  0.00     0.106 A 
HETATM    8  C   UNL     1      -3.484   8.513 -29.537  1.00  0.00     0.081 A 
HETATM    9  C   UNL     1      -2.917   9.469 -30.429  1.00  0.00     0.100 C 
HETATM   10  N   UNL     1      -2.453  10.241 -31.161  1.00  0.00    -0.191 NA
HETATM   11  C   UNL     1      -3.691   8.824 -28.230  1.00  0.00     0.140 A 
HETATM   12  O   UNL     1      -4.285   7.924 -27.334  1.00  0.00    -0.277 OA
ENDROOT
BRANCH   7  13
HETATM   13  C   UNL     1      -2.681   6.345 -30.588  1.00  0.00    -0.041 A 
HETATM   14  C   UNL     1      -2.707   5.693 -31.827  1.00  0.00     0.027 A 
HETATM   15  C   UNL     1      -1.597   4.963 -32.227  1.00  0.00     0.116 A 
HETATM   16  N   UNL     1      -0.473   4.843 -31.491  1.00  0.00    -0.273 NA
HETATM   17  C   UNL     1      -0.457   5.479 -30.302  1.00  0.00     0.116 A 
HETATM   18  C   UNL     1      -1.515   6.231 -29.815  1.00  0.00     0.027 A 
ENDBRANCH   7  13
BRANCH  11  19
HETATM   19  N   UNL     1      -3.356  10.021 -27.636  1.00  0.00    -0.282 NA
HETATM   20  H   UNL     1      -3.990  10.797 -27.804  1.00  0.00     0.126 HD
HETATM   21  H   UNL     1      -2.377  10.261 -27.778  1.00  0.00     0.126 HD
ENDBRANCH  11  19
BRANCH   1  22
HETATM   22  C   UNL     1      -5.545   4.174 -30.268  1.00  0.00    -0.007 A 
HETATM   23  C   UNL     1      -6.200   4.584 -31.433  1.00  0.00     0.016 A 
HETATM   24  C   UNL     1      -6.430   3.677 -32.473  1.00  0.00     0.037 A 
HETATM   25  C   UNL     1      -6.015   2.349 -32.366  1.00  0.00     0.069 A 
HETATM   26  C   UNL     1      -5.383   1.928 -31.198  1.00  0.00     0.037 A 
HETATM   27  C   UNL     1      -5.144   2.836 -30.158  1.00  0.00     0.016 A 
BRANCH  25  28
HETATM   28  O   UNL     1      -6.284   1.578 -33.462  1.00  0.00    -0.347 OA
BRANCH  28  29
HETATM   29  C   UNL     1      -7.084   0.412 -33.259  1.00  0.00     0.214 C 
BRANCH  29  30
HETATM   30  C   UNL     1      -6.325  -0.818 -33.703  1.00  0.00    -0.034 A 
HETATM   31  C   UNL     1      -5.000  -1.013 -33.283  1.00  0.00     0.009 A 
HETATM   32  C   UNL     1      -4.294  -2.155 -33.667  1.00  0.00     0.001 A 
HETATM   33  C   UNL     1      -4.905  -3.119 -34.466  1.00  0.00     0.000 A 
HETATM   34  C   UNL     1      -6.225  -2.945 -34.877  1.00  0.00     0.001 A 
HETATM   35  C   UNL     1      -6.934  -1.805 -34.493  1.00  0.00     0.009 A 
ENDBRANCH  29  30
ENDBRANCH  28  29
ENDBRANCH  25  28
ENDBRANCH   1  22
TORSDOF 6
ENDMDL
MODEL 6
REMARK VINA RESULT:      -8.2      5.209      8.466
REMARK  6 active torsions:
REMARK  status: ('A' for Active; 'I' for Inactive)
REMARK    1  A    between atoms: C_4  and  C_5 
REMARK    2  A    between atoms: C_5  and  O_6 
REMARK    3  A    between atoms: O_6  and  C_7 
REMARK    4  A    between atoms: C_10  and  C_11 
REMARK    5  A    between atoms: C_17  and  C_18 
REMARK    6  A    between atoms: C_27  and  N_28 
ROOT
HETATM    1  C   UNL     1      -3.681   1.793 -31.935  1.00  0.00     0.072 A 
HETATM    2  N   UNL     1      -2.928   0.907 -31.190  1.00  0.00    -0.274 N 
HETATM    3  H   UNL     1      -2.114   1.115 -30.623  1.00  0.00     0.189 HD
HETATM    4  N   UNL     1      -3.338  -0.374 -31.273  1.00  0.00    -0.148 NA
HETATM    5  C   UNL     1      -4.369  -0.289 -32.102  1.00  0.00     0.199 A 
HETATM    6  C   UNL     1      -4.658   1.010 -32.528  1.00  0.00     0.040 A 
HETATM    7  C   UNL     1      -5.808   1.264 -33.440  1.00  0.00     0.106 A 
HETATM    8  C   UNL     1      -6.444  -0.045 -33.894  1.00  0.00     0.081 A 
HETATM    9  C   UNL     1      -7.456   0.054 -34.895  1.00  0.00     0.100 C 
HETATM   10  N   UNL     1      -8.280   0.143 -35.706  1.00  0.00    -0.191 NA
HETATM   11  C   UNL     1      -6.057  -1.259 -33.421  1.00  0.00     0.140 A 
HETATM   12  O   UNL     1      -5.037  -1.396 -32.469  1.00  0.00    -0.277 OA
ENDROOT
BRANCH   7  13
HETATM   13  C   UNL     1      -6.771   2.154 -32.667  1.00  0.00    -0.041 A 
HETATM   14  C   UNL     1      -7.011   3.463 -33.103  1.00  0.00     0.027 A 
HETATM   15  C   UNL     1      -7.908   4.253 -32.399  1.00  0.00     0.116 A 
HETATM   16  N   UNL     1      -8.580   3.835 -31.307  1.00  0.00    -0.273 NA
HETATM   17  C   UNL     1      -8.345   2.571 -30.900  1.00  0.00     0.116 A 
HETATM   18  C   UNL     1      -7.468   1.705 -31.534  1.00  0.00     0.027 A 
ENDBRANCH   7  13
BRANCH  11  19
HETATM   19  N   UNL     1      -6.596  -2.469 -33.800  1.00  0.00    -0.282 NA
HETATM   20  H   UNL     1      -5.966  -3.111 -34.272  1.00  0.00     0.126 HD
HETATM   21  H   UNL     1      -7.490  -2.360 -34.274  1.00  0.00     0.126 HD
ENDBRANCH  11  19
BRANCH   1  22
HETATM   22  C   UNL     1      -3.391   3.221 -31.994  1.00  0.00    -0.007 A 
HETATM   23  C   UNL     1      -3.917   4.095 -31.038  1.00  0.00     0.016 A 
HETATM   24  C   UNL     1      -3.618   5.460 -31.086  1.00  0.00     0.037 A 
HETATM   25  C   UNL     1      -2.794   5.976 -32.088  1.00  0.00     0.069 A 
HETATM   26  C   UNL     1      -2.286   5.114 -33.058  1.00  0.00     0.037 A 
HETATM   27  C   UNL     1      -2.578   3.744 -33.008  1.00  0.00     0.016 A 
BRANCH  25  28
HETATM   28  O   UNL     1      -2.566   7.320 -32.004  1.00  0.00    -0.347 OA
BRANCH  28  29
HETATM   29  C   UNL     1      -1.208   7.745 -31.876  1.00  0.00     0.214 C 
BRANCH  29  30
HETATM   30  C   UNL     1      -0.616   7.198 -30.597  1.00  0.00    -0.034 A 
HETATM   31  C   UNL     1      -0.963   7.770 -29.363  1.00  0.00     0.009 A 
HETATM   32  C   UNL     1      -0.443   7.261 -28.172  1.00  0.00     0.001 A 
HETATM   33  C   UNL     1       0.423   6.169 -28.198  1.00  0.00     0.000 A 
HETATM   34  C   UNL     1       0.763   5.582 -29.414  1.00  0.00     0.001 A 
HETATM   35  C   UNL     1       0.242   6.088 -30.607  1.00  0.00     0.009 A 
ENDBRANCH  29  30
ENDBRANCH  28  29
ENDBRANCH  25  28
ENDBRANCH   1  22
TORSDOF 6
ENDMDL
MODEL 7
REMARK VINA RESULT:      -8.2      4.842      7.393
REMARK  6 active torsions:
REMARK  status: ('A' for Active; 'I' for Inactive)
REMARK    1  A    between atoms: C_4  and  C_5 
REMARK    2  A    between atoms: C_5  and  O_6 
REMARK    3  A    between atoms: O_6  and  C_7 
REMARK    4  A    between atoms: C_10  and  C_11 
REMARK    5  A    between atoms: C_17  and  C_18 
REMARK    6  A    between atoms: C_27  and  N_28 
ROOT
HETATM    1  C   UNL     1      -5.407   2.702 -31.456  1.00  0.00     0.072 A 
HETATM    2  N   UNL     1      -5.018   1.674 -30.620  1.00  0.00    -0.274 N 
HETATM    3  H   UNL     1      -4.129   1.570 -30.144  1.00  0.00     0.189 HD
HETATM    4  N   UNL     1      -5.943   0.707 -30.464  1.00  0.00    -0.148 NA
HETATM    5  C   UNL     1      -6.933   1.136 -31.234  1.00  0.00     0.199 A 
HETATM    6  C   UNL     1      -6.691   2.365 -31.853  1.00  0.00     0.040 A 
HETATM    7  C   UNL     1      -7.726   2.985 -32.725  1.00  0.00     0.106 A 
HETATM    8  C   UNL     1      -8.912   2.048 -32.917  1.00  0.00     0.081 A 
HETATM    9  C   UNL     1      -9.901   2.459 -33.858  1.00  0.00     0.100 C 
HETATM   10  N   UNL     1     -10.703   2.801 -34.623  1.00  0.00    -0.191 NA
HETATM   11  C   UNL     1      -9.025   0.857 -32.272  1.00  0.00     0.140 A 
HETATM   12  O   UNL     1      -8.052   0.402 -31.372  1.00  0.00    -0.277 OA
ENDROOT
BRANCH   7  13
HETATM   13  C   UNL     1      -8.111   4.298 -32.055  1.00  0.00    -0.041 A 
HETATM   14  C   UNL     1      -7.868   5.511 -32.711  1.00  0.00     0.027 A 
HETATM   15  C   UNL     1      -8.244   6.696 -32.096  1.00  0.00     0.116 A 
HETATM   16  N   UNL     1      -8.844   6.757 -30.889  1.00  0.00    -0.273 NA
HETATM   17  C   UNL     1      -9.077   5.583 -30.269  1.00  0.00     0.116 A 
HETATM   18  C   UNL     1      -8.738   4.348 -30.801  1.00  0.00     0.027 A 
ENDBRANCH   7  13
BRANCH  11  19
HETATM   19  N   UNL     1     -10.073  -0.028 -32.412  1.00  0.00    -0.282 NA
HETATM   20  H   UNL     1     -11.000   0.343 -32.222  1.00  0.00     0.126 HD
HETATM   21  H   UNL     1      -9.890  -0.916 -31.950  1.00  0.00     0.126 HD
ENDBRANCH  11  19
BRANCH   1  22
HETATM   22  C   UNL     1      -4.544   3.835 -31.768  1.00  0.00    -0.007 A 
HETATM   23  C   UNL     1      -4.595   5.003 -31.002  1.00  0.00     0.016 A 
HETATM   24  C   UNL     1      -3.750   6.079 -31.292  1.00  0.00     0.037 A 
HETATM   25  C   UNL     1      -2.844   6.009 -32.352  1.00  0.00     0.069 A 
HETATM   26  C   UNL     1      -2.805   4.857 -33.135  1.00  0.00     0.037 A 
HETATM   27  C   UNL     1      -3.645   3.775 -32.841  1.00  0.00     0.016 A 
BRANCH  25  28
HETATM   28  O   UNL     1      -2.065   7.120 -32.510  1.00  0.00    -0.347 OA
BRANCH  28  29
HETATM   29  C   UNL     1      -0.649   6.930 -32.505  1.00  0.00     0.214 C 
BRANCH  29  30
HETATM   30  C   UNL     1      -0.191   6.509 -31.126  1.00  0.00    -0.034 A 
HETATM   31  C   UNL     1       0.407   5.253 -30.940  1.00  0.00     0.009 A 
HETATM   32  C   UNL     1       0.856   4.860 -29.678  1.00  0.00     0.001 A 
HETATM   33  C   UNL     1       0.721   5.719 -28.589  1.00  0.00     0.000 A 
HETATM   34  C   UNL     1       0.144   6.975 -28.764  1.00  0.00     0.001 A 
HETATM   35  C   UNL     1      -0.304   7.372 -30.026  1.00  0.00     0.009 A 
ENDBRANCH  29  30
ENDBRANCH  28  29
ENDBRANCH  25  28
ENDBRANCH   1  22
TORSDOF 6
ENDMDL
MODEL 8
REMARK VINA RESULT:      -8.1      6.136      9.889
REMARK  6 active torsions:
REMARK  status: ('A' for Active; 'I' for Inactive)
REMARK    1  A    between atoms: C_4  and  C_5 
REMARK    2  A    between atoms: C_5  and  O_6 
REMARK    3  A    between atoms: O_6  and  C_7 
REMARK    4  A    between atoms: C_10  and  C_11 
REMARK    5  A    between atoms: C_17  and  C_18 
REMARK    6  A    between atoms: C_27  and  N_28 
ROOT
HETATM    1  C   UNL     1      -6.272   4.400 -29.606  1.00  0.00     0.072 A 
HETATM    2  N   UNL     1      -7.651   4.323 -29.578  1.00  0.00    -0.274 N 
HETATM    3  H   UNL     1      -8.299   5.012 -29.214  1.00  0.00     0.189 HD
HETATM    4  N   UNL     1      -8.152   3.177 -30.079  1.00  0.00    -0.148 NA
HETATM    5  C   UNL     1      -7.056   2.512 -30.417  1.00  0.00     0.199 A 
HETATM    6  C   UNL     1      -5.867   3.208 -30.184  1.00  0.00     0.040 A 
HETATM    7  C   UNL     1      -4.557   2.598 -30.542  1.00  0.00     0.106 A 
HETATM    8  C   UNL     1      -4.735   1.160 -31.017  1.00  0.00     0.081 A 
HETATM    9  C   UNL     1      -3.541   0.412 -31.240  1.00  0.00     0.100 C 
HETATM   10  N   UNL     1      -2.566  -0.189 -31.423  1.00  0.00    -0.191 NA
HETATM   11  C   UNL     1      -5.954   0.582 -31.184  1.00  0.00     0.140 A 
HETATM   12  O   UNL     1      -7.147   1.274 -30.933  1.00  0.00    -0.277 OA
ENDROOT
BRANCH   7  13
HETATM   13  C   UNL     1      -3.947   3.501 -31.605  1.00  0.00    -0.041 A 
HETATM   14  C   UNL     1      -2.640   3.980 -31.446  1.00  0.00     0.027 A 
HETATM   15  C   UNL     1      -2.093   4.785 -32.434  1.00  0.00     0.116 A 
HETATM   16  N   UNL     1      -2.745   5.137 -33.561  1.00  0.00    -0.273 NA
HETATM   17  C   UNL     1      -4.000   4.666 -33.706  1.00  0.00     0.116 A 
HETATM   18  C   UNL     1      -4.634   3.858 -32.776  1.00  0.00     0.027 A 
ENDBRANCH   7  13
BRANCH  11  19
HETATM   19  N   UNL     1      -6.169  -0.712 -31.606  1.00  0.00    -0.282 NA
HETATM   20  H   UNL     1      -5.971  -1.443 -30.928  1.00  0.00     0.126 HD
HETATM   21  H   UNL     1      -5.763  -0.890 -32.522  1.00  0.00     0.126 HD
ENDBRANCH  11  19
BRANCH   1  22
HETATM   22  C   UNL     1      -5.535   5.549 -29.095  1.00  0.00    -0.007 A 
HETATM   23  C   UNL     1      -5.340   5.719 -27.722  1.00  0.00     0.016 A 
HETATM   24  C   UNL     1      -4.613   6.812 -27.238  1.00  0.00     0.037 A 
HETATM   25  C   UNL     1      -4.073   7.754 -28.116  1.00  0.00     0.069 A 
HETATM   26  C   UNL     1      -4.285   7.604 -29.485  1.00  0.00     0.037 A 
HETATM   27  C   UNL     1      -5.006   6.506 -29.972  1.00  0.00     0.016 A 
BRANCH  25  28
HETATM   28  O   UNL     1      -3.369   8.757 -27.513  1.00  0.00    -0.347 OA
BRANCH  28  29
HETATM   29  C   UNL     1      -2.544   9.570 -28.350  1.00  0.00     0.214 C 
BRANCH  29  30
HETATM   30  C   UNL     1      -1.089   9.223 -28.132  1.00  0.00    -0.034 A 
HETATM   31  C   UNL     1      -0.332   9.937 -27.190  1.00  0.00     0.009 A 
HETATM   32  C   UNL     1       1.007   9.613 -26.962  1.00  0.00     0.001 A 
HETATM   33  C   UNL     1       1.603   8.567 -27.664  1.00  0.00     0.000 A 
HETATM   34  C   UNL     1       0.858   7.840 -28.590  1.00  0.00     0.001 A 
HETATM   35  C   UNL     1      -0.482   8.161 -28.819  1.00  0.00     0.009 A 
ENDBRANCH  29  30
ENDBRANCH  28  29
ENDBRANCH  25  28
ENDBRANCH   1  22
TORSDOF 6
ENDMDL
MODEL 9
REMARK VINA RESULT:      -8.1      4.836      7.930
REMARK  6 active torsions:
REMARK  status: ('A' for Active; 'I' for Inactive)
REMARK    1  A    between atoms: C_4  and  C_5 
REMARK    2  A    between atoms: C_5  and  O_6 
REMARK    3  A    between atoms: O_6  and  C_7 
REMARK    4  A    between atoms: C_10  and  C_11 
REMARK    5  A    between atoms: C_17  and  C_18 
REMARK    6  A    between atoms: C_27  and  N_28 
ROOT
HETATM    1  C   UNL     1      -3.206   6.357 -32.358  1.00  0.00     0.072 A 
HETATM    2  N   UNL     1      -2.539   7.155 -33.266  1.00  0.00    -0.274 N 
HETATM    3  H   UNL     1      -2.483   7.031 -34.271  1.00  0.00     0.189 HD
HETATM    4  N   UNL     1      -1.879   8.192 -32.713  1.00  0.00    -0.148 NA
HETATM    5  C   UNL     1      -2.131   8.030 -31.421  1.00  0.00     0.199 A 
HETATM    6  C   UNL     1      -2.960   6.945 -31.128  1.00  0.00     0.040 A 
HETATM    7  C   UNL     1      -3.353   6.657 -29.721  1.00  0.00     0.106 A 
HETATM    8  C   UNL     1      -2.627   7.583 -28.751  1.00  0.00     0.081 A 
HETATM    9  C   UNL     1      -2.795   7.306 -27.362  1.00  0.00     0.100 C 
HETATM   10  N   UNL     1      -2.939   7.077 -26.234  1.00  0.00    -0.191 NA
HETATM   11  C   UNL     1      -1.821   8.598 -29.161  1.00  0.00     0.140 A 
HETATM   12  O   UNL     1      -1.600   8.872 -30.517  1.00  0.00    -0.277 OA
ENDROOT
BRANCH   7  13
HETATM   13  C   UNL     1      -4.866   6.810 -29.665  1.00  0.00    -0.041 A 
HETATM   14  C   UNL     1      -5.666   5.709 -29.331  1.00  0.00     0.027 A 
HETATM   15  C   UNL     1      -7.041   5.872 -29.265  1.00  0.00     0.116 A 
HETATM   16  N   UNL     1      -7.671   7.042 -29.498  1.00  0.00    -0.273 NA
HETATM   17  C   UNL     1      -6.891   8.096 -29.813  1.00  0.00     0.116 A 
HETATM   18  C   UNL     1      -5.510   8.034 -29.906  1.00  0.00     0.027 A 
ENDBRANCH   7  13
BRANCH  11  19
HETATM   19  N   UNL     1      -1.141   9.459 -28.327  1.00  0.00    -0.282 NA
HETATM   20  H   UNL     1      -0.828   9.071 -27.442  1.00  0.00     0.126 HD
HETATM   21  H   UNL     1      -1.615  10.355 -28.230  1.00  0.00     0.126 HD
ENDBRANCH  11  19
BRANCH   1  22
HETATM   22  C   UNL     1      -3.965   5.176 -32.753  1.00  0.00    -0.007 A 
HETATM   23  C   UNL     1      -3.780   3.957 -32.095  1.00  0.00     0.016 A 
HETATM   24  C   UNL     1      -4.526   2.832 -32.462  1.00  0.00     0.037 A 
HETATM   25  C   UNL     1      -5.464   2.905 -33.493  1.00  0.00     0.069 A 
HETATM   26  C   UNL     1      -5.637   4.111 -34.170  1.00  0.00     0.037 A 
HETATM   27  C   UNL     1      -4.896   5.241 -33.798  1.00  0.00     0.016 A 
BRANCH  25  28
HETATM   28  O   UNL     1      -6.138   1.741 -33.734  1.00  0.00    -0.347 OA
BRANCH  28  29
HETATM   29  C   UNL     1      -6.030   0.709 -32.751  1.00  0.00     0.214 C 
BRANCH  29  30
HETATM   30  C   UNL     1      -5.855  -0.631 -33.428  1.00  0.00    -0.034 A 
HETATM   31  C   UNL     1      -6.958  -1.267 -34.020  1.00  0.00     0.009 A 
HETATM   32  C   UNL     1      -6.808  -2.494 -34.669  1.00  0.00     0.001 A 
HETATM   33  C   UNL     1      -5.553  -3.096 -34.743  1.00  0.00     0.000 A 
HETATM   34  C   UNL     1      -4.447  -2.468 -34.174  1.00  0.00     0.001 A 
HETATM   35  C   UNL     1      -4.595  -1.239 -33.526  1.00  0.00     0.009 A 
ENDBRANCH  29  30
ENDBRANCH  28  29
ENDBRANCH  25  28
ENDBRANCH   1  22
TORSDOF 6
ENDMDL
MODEL 10
REMARK VINA RESULT:      -8.0      4.556      5.861
REMARK  6 active torsions:
REMARK  status: ('A' for Active; 'I' for Inactive)
REMARK    1  A    between atoms: C_4  and  C_5 
REMARK    2  A    between atoms: C_5  and  O_6 
REMARK    3  A    between atoms: O_6  and  C_7 
REMARK    4  A    between atoms: C_10  and  C_11 
REMARK    5  A    between atoms: C_17  and  C_18 
REMARK    6  A    between atoms: C_27  and  N_28 
ROOT
HETATM    1  C   UNL     1      -5.883   4.692 -29.185  1.00  0.00     0.072 A 
HETATM    2  N   UNL     1      -5.561   4.831 -27.850  1.00  0.00    -0.274 N 
HETATM    3  H   UNL     1      -5.256   4.105 -27.211  1.00  0.00     0.189 HD
HETATM    4  N   UNL     1      -5.705   6.083 -27.372  1.00  0.00    -0.148 NA
HETATM    5  C   UNL     1      -6.142   6.743 -28.436  1.00  0.00     0.199 A 
HETATM    6  C   UNL     1      -6.249   5.965 -29.592  1.00  0.00     0.040 A 
HETATM    7  C   UNL     1      -6.699   6.578 -30.872  1.00  0.00     0.106 A 
HETATM    8  C   UNL     1      -7.123   8.028 -30.664  1.00  0.00     0.081 A 
HETATM    9  C   UNL     1      -7.723   8.681 -31.781  1.00  0.00     0.100 C 
HETATM   10  N   UNL     1      -8.208   9.206 -32.695  1.00  0.00    -0.191 NA
HETATM   11  C   UNL     1      -6.989   8.674 -29.476  1.00  0.00     0.140 A 
HETATM   12  O   UNL     1      -6.443   8.050 -28.346  1.00  0.00    -0.277 OA
ENDROOT
BRANCH   7  13
HETATM   13  C   UNL     1      -5.533   6.436 -31.841  1.00  0.00    -0.041 A 
HETATM   14  C   UNL     1      -5.681   5.659 -32.997  1.00  0.00     0.027 A 
HETATM   15  C   UNL     1      -4.615   5.557 -33.879  1.00  0.00     0.116 A 
HETATM   16  N   UNL     1      -3.429   6.172 -33.698  1.00  0.00    -0.273 NA
HETATM   17  C   UNL     1      -3.300   6.921 -32.584  1.00  0.00     0.116 A 
HETATM   18  C   UNL     1      -4.304   7.084 -31.642  1.00  0.00     0.027 A 
ENDBRANCH   7  13
BRANCH  11  19
HETATM   19  N   UNL     1      -7.359   9.980 -29.235  1.00  0.00    -0.282 NA
HETATM   20  H   UNL     1      -6.636  10.588 -28.862  1.00  0.00     0.126 HD
HETATM   21  H   UNL     1      -8.240  10.042 -28.729  1.00  0.00     0.126 HD
ENDBRANCH  11  19
BRANCH   1  22
HETATM   22  C   UNL     1      -5.811   3.416 -29.886  1.00  0.00    -0.007 A 
HETATM   23  C   UNL     1      -6.906   2.547 -29.901  1.00  0.00     0.016 A 
HETATM   24  C   UNL     1      -6.840   1.334 -30.593  1.00  0.00     0.037 A 
HETATM   25  C   UNL     1      -5.680   0.966 -31.278  1.00  0.00     0.069 A 
HETATM   26  C   UNL     1      -4.576   1.816 -31.247  1.00  0.00     0.037 A 
HETATM   27  C   UNL     1      -4.643   3.036 -30.561  1.00  0.00     0.016 A 
BRANCH  25  28
HETATM   28  O   UNL     1      -5.758  -0.233 -31.929  1.00  0.00    -0.347 OA
BRANCH  28  29
HETATM   29  C   UNL     1      -5.729  -0.203 -33.357  1.00  0.00     0.214 C 
BRANCH  29  30
HETATM   30  C   UNL     1      -5.654  -1.612 -33.900  1.00  0.00    -0.034 A 
HETATM   31  C   UNL     1      -6.797  -2.212 -34.453  1.00  0.00     0.009 A 
HETATM   32  C   UNL     1      -6.737  -3.503 -34.979  1.00  0.00     0.001 A 
HETATM   33  C   UNL     1      -5.535  -4.208 -34.968  1.00  0.00     0.000 A 
HETATM   34  C   UNL     1      -4.390  -3.618 -34.437  1.00  0.00     0.001 A 
HETATM   35  C   UNL     1      -4.446  -2.325 -33.912  1.00  0.00     0.009 A 
ENDBRANCH  29  30
ENDBRANCH  28  29
ENDBRANCH  25  28
ENDBRANCH   1  22
TORSDOF 6
ENDMDL
