MODEL 1
REMARK VINA RESULT:      -8.8      0.000      0.000
REMARK  5 active torsions:
REMARK  status: ('A' for Active; 'I' for Inactive)
REMARK    1  A    between atoms: C_7  and  C_8 
REMARK    2  A    between atoms: N_9  and  N_10 
REMARK       I    between atoms: N_10  and  C_11 
REMARK    3  A    between atoms: C_11  and  C_12 
REMARK    4  A    between atoms: C_12  and  N_13 
REMARK       I    between atoms: N_13  and  C_14 
REMARK    5  A    between atoms: C_14  and  C_15 
ROOT
HETATM    1  N   UNL     1      -5.286   1.039 -30.771  1.00  0.00    -0.246 N 
HETATM    2  C   UNL     1      -5.861   2.293 -30.908  1.00  0.00     0.255 C 
HETATM    3  O   UNL     1      -6.804   2.574 -31.648  1.00  0.00    -0.270 OA
HETATM    4  H   UNL     1      -4.511   0.917 -30.114  1.00  0.00     0.192 HD
ENDROOT
BRANCH   1   5
HETATM    5  N   UNL     1      -5.743  -0.013 -31.507  1.00  0.00    -0.184 NA
HETATM    6  C   UNL     1      -5.221  -0.141 -32.684  1.00  0.00     0.153 C 
BRANCH   6   7
HETATM    7  C   UNL     1      -5.651  -1.216 -33.560  1.00  0.00     0.018 A 
HETATM    8  C   UNL     1      -6.719  -1.192 -34.450  1.00  0.00     0.018 A 
HETATM    9  C   UNL     1      -7.708  -0.125 -34.766  1.00  0.00     0.069 C 
HETATM   10  N   UNL     1      -6.765  -2.409 -35.083  1.00  0.00    -0.358 N 
HETATM   11  H   UNL     1      -7.441  -2.671 -35.786  1.00  0.00     0.166 HD
HETATM   12  C   UNL     1      -5.757  -3.228 -34.635  1.00  0.00     0.043 A 
HETATM   13  C   UNL     1      -5.042  -2.511 -33.676  1.00  0.00     0.004 A 
HETATM   14  C   UNL     1      -5.429  -4.537 -35.009  1.00  0.00     0.030 A 
HETATM   15  C   UNL     1      -3.938  -3.141 -33.059  1.00  0.00     0.014 A 
HETATM   16  C   UNL     1      -3.595  -4.450 -33.422  1.00  0.00     0.001 A 
HETATM   17  C   UNL     1      -4.332  -5.135 -34.383  1.00  0.00     0.002 A 
ENDBRANCH   6   7
ENDBRANCH   1   5
BRANCH   2  18
HETATM   18  C   UNL     1      -5.136   3.369 -30.098  1.00  0.00     0.227 C 
BRANCH  18  19
HETATM   19  N   UNL     1      -4.271   4.220 -30.899  1.00  0.00    -0.348 N 
HETATM   20  C   UNL     1      -3.099   3.774 -31.454  1.00  0.00     0.253 C 
HETATM   21  O   UNL     1      -2.672   2.645 -31.211  1.00  0.00    -0.268 OA
HETATM   22  H   UNL     1      -4.549   5.189 -31.015  1.00  0.00     0.163 HD
BRANCH  20  23
HETATM   23  C   UNL     1      -2.351   4.682 -32.377  1.00  0.00     0.053 A 
HETATM   24  C   UNL     1      -1.619   5.820 -32.003  1.00  0.00     0.049 A 
HETATM   25 CL   UNL     1      -1.401   6.341 -30.368  1.00  0.00    -0.083 Cl
HETATM   26  C   UNL     1      -0.986   6.602 -32.982  1.00  0.00     0.025 A 
HETATM   27  C   UNL     1      -1.067   6.257 -34.330  1.00  0.00     0.002 A 
HETATM   28  C   UNL     1      -1.776   5.124 -34.711  1.00  0.00     0.001 A 
HETATM   29  C   UNL     1      -2.412   4.343 -33.743  1.00  0.00     0.019 A 
ENDBRANCH  20  23
ENDBRANCH  18  19
ENDBRANCH   2  18
TORSDOF 5
ENDMDL
MODEL 2
REMARK VINA RESULT:      -8.8      4.704      7.549
REMARK  5 active torsions:
REMARK  status: ('A' for Active; 'I' for Inactive)
REMARK    1  A    between atoms: C_7  and  C_8 
REMARK    2  A    between atoms: N_9  and  N_10 
REMARK       I    between atoms: N_10  and  C_11 
REMARK    3  A    between atoms: C_11  and  C_12 
REMARK    4  A    between atoms: C_12  and  N_13 
REMARK       I    between atoms: N_13  and  C_14 
REMARK    5  A    between atoms: C_14  and  C_15 
ROOT
HETATM    1  N   UNL     1      -8.330   1.255 -32.388  1.00  0.00    -0.246 N 
HETATM    2  C   UNL     1      -8.236   2.229 -31.405  1.00  0.00     0.255 C 
HETATM    3  O   UNL     1      -7.382   2.275 -30.520  1.00  0.00    -0.270 OA
HETATM    4  H   UNL     1      -9.077   1.323 -33.085  1.00  0.00     0.192 HD
ENDROOT
BRANCH   1   5
HETATM    5  N   UNL     1      -7.446   0.218 -32.418  1.00  0.00    -0.184 NA
HETATM    6  C   UNL     1      -6.539   0.283 -33.337  1.00  0.00     0.153 C 
BRANCH   6   7
HETATM    7  C   UNL     1      -5.558  -0.779 -33.471  1.00  0.00     0.018 A 
HETATM    8  C   UNL     1      -4.218  -0.731 -33.104  1.00  0.00     0.018 A 
HETATM    9  C   UNL     1      -3.407   0.360 -32.498  1.00  0.00     0.069 C 
HETATM   10  N   UNL     1      -3.660  -1.951 -33.394  1.00  0.00    -0.358 N 
HETATM   11  H   UNL     1      -2.694  -2.200 -33.228  1.00  0.00     0.166 HD
HETATM   12  C   UNL     1      -4.595  -2.796 -33.939  1.00  0.00     0.043 A 
HETATM   13  C   UNL     1      -5.797  -2.091 -34.004  1.00  0.00     0.004 A 
HETATM   14  C   UNL     1      -4.465  -4.122 -34.370  1.00  0.00     0.030 A 
HETATM   15  C   UNL     1      -6.928  -2.751 -34.531  1.00  0.00     0.014 A 
HETATM   16  C   UNL     1      -6.817  -4.078 -34.967  1.00  0.00     0.001 A 
HETATM   17  C   UNL     1      -5.601  -4.750 -34.887  1.00  0.00     0.002 A 
ENDBRANCH   6   7
ENDBRANCH   1   5
BRANCH   2  18
HETATM   18  C   UNL     1      -9.385   3.237 -31.458  1.00  0.00     0.227 C 
BRANCH  18  19
HETATM   19  N   UNL     1     -10.668   2.643 -31.797  1.00  0.00    -0.348 N 
HETATM   20  C   UNL     1     -11.447   3.099 -32.829  1.00  0.00     0.253 C 
HETATM   21  O   UNL     1     -11.136   4.109 -33.459  1.00  0.00    -0.268 OA
HETATM   22  H   UNL     1     -10.996   1.880 -31.215  1.00  0.00     0.163 HD
BRANCH  20  23
HETATM   23  C   UNL     1     -12.681   2.334 -33.188  1.00  0.00     0.053 A 
HETATM   24  C   UNL     1     -13.958   2.519 -32.636  1.00  0.00     0.049 A 
HETATM   25 CL   UNL     1     -14.344   3.733 -31.466  1.00  0.00    -0.083 Cl
HETATM   26  C   UNL     1     -15.027   1.708 -33.048  1.00  0.00     0.025 A 
HETATM   27  C   UNL     1     -14.839   0.718 -34.012  1.00  0.00     0.002 A 
HETATM   28  C   UNL     1     -13.582   0.536 -34.577  1.00  0.00     0.001 A 
HETATM   29  C   UNL     1     -12.513   1.337 -34.169  1.00  0.00     0.019 A 
ENDBRANCH  20  23
ENDBRANCH  18  19
ENDBRANCH   2  18
TORSDOF 5
ENDMDL
MODEL 3
REMARK VINA RESULT:      -8.7      2.487      8.093
REMARK  5 active torsions:
REMARK  status: ('A' for Active; 'I' for Inactive)
REMARK    1  A    between atoms: C_7  and  C_8 
REMARK    2  A    between atoms: N_9  and  N_10 
REMARK       I    between atoms: N_10  and  C_11 
REMARK    3  A    between atoms: C_11  and  C_12 
REMARK    4  A    between atoms: C_12  and  N_13 
REMARK       I    between atoms: N_13  and  C_14 
REMARK    5  A    between atoms: C_14  and  C_15 
ROOT
HETATM    1  N   UNL     1      -7.322   2.408 -33.555  1.00  0.00    -0.246 N 
HETATM    2  C   UNL     1      -8.104   1.571 -32.773  1.00  0.00     0.255 C 
HETATM    3  O   UNL     1      -8.211   1.625 -31.549  1.00  0.00    -0.270 OA
HETATM    4  H   UNL     1      -7.319   2.279 -34.570  1.00  0.00     0.192 HD
ENDROOT
BRANCH   1   5
HETATM    5  N   UNL     1      -6.565   3.382 -32.976  1.00  0.00    -0.184 NA
HETATM    6  C   UNL     1      -5.303   3.117 -32.865  1.00  0.00     0.153 C 
BRANCH   6   7
HETATM    7  C   UNL     1      -4.408   4.078 -32.244  1.00  0.00     0.018 A 
HETATM    8  C   UNL     1      -4.439   4.518 -30.926  1.00  0.00     0.018 A 
HETATM    9  C   UNL     1      -5.347   4.171 -29.798  1.00  0.00     0.069 C 
HETATM   10  N   UNL     1      -3.413   5.414 -30.759  1.00  0.00    -0.358 N 
HETATM   11  H   UNL     1      -3.195   5.891 -29.895  1.00  0.00     0.166 HD
HETATM   12  C   UNL     1      -2.710   5.572 -31.929  1.00  0.00     0.043 A 
HETATM   13  C   UNL     1      -3.312   4.750 -32.883  1.00  0.00     0.004 A 
HETATM   14  C   UNL     1      -1.596   6.372 -32.207  1.00  0.00     0.030 A 
HETATM   15  C   UNL     1      -2.765   4.731 -34.185  1.00  0.00     0.014 A 
HETATM   16  C   UNL     1      -1.650   5.525 -34.480  1.00  0.00     0.001 A 
HETATM   17  C   UNL     1      -1.076   6.333 -33.504  1.00  0.00     0.002 A 
ENDBRANCH   6   7
ENDBRANCH   1   5
BRANCH   2  18
HETATM   18  C   UNL     1      -8.782   0.465 -33.585  1.00  0.00     0.227 C 
BRANCH  18  19
HETATM   19  N   UNL     1      -8.009  -0.765 -33.656  1.00  0.00    -0.348 N 
HETATM   20  C   UNL     1      -7.007  -0.959 -34.571  1.00  0.00     0.253 C 
HETATM   21  O   UNL     1      -6.781  -0.128 -35.450  1.00  0.00    -0.268 OA
HETATM   22  H   UNL     1      -8.258  -1.508 -33.013  1.00  0.00     0.163 HD
BRANCH  20  23
HETATM   23  C   UNL     1      -6.177  -2.200 -34.473  1.00  0.00     0.053 A 
HETATM   24  C   UNL     1      -4.836  -2.267 -34.065  1.00  0.00     0.049 A 
HETATM   25 CL   UNL     1      -3.913  -0.904 -33.534  1.00  0.00    -0.083 Cl
HETATM   26  C   UNL     1      -4.167  -3.500 -34.045  1.00  0.00     0.025 A 
HETATM   27  C   UNL     1      -4.824  -4.671 -34.421  1.00  0.00     0.002 A 
HETATM   28  C   UNL     1      -6.157  -4.620 -34.813  1.00  0.00     0.001 A 
HETATM   29  C   UNL     1      -6.827  -3.395 -34.838  1.00  0.00     0.019 A 
ENDBRANCH  20  23
ENDBRANCH  18  19
ENDBRANCH   2  18
TORSDOF 5
ENDMDL
MODEL 4
REMARK VINA RESULT:      -8.6      5.400      8.069
REMARK  5 active torsions:
REMARK  status: ('A' for Active; 'I' for Inactive)
REMARK    1  A    between atoms: C_7  and  C_8 
REMARK    2  A    between atoms: N_9  and  N_10 
REMARK       I    between atoms: N_10  and  C_11 
REMARK    3  A    between atoms: C_11  and  C_12 
REMARK    4  A    between atoms: C_12  and  N_13 
REMARK       I    between atoms: N_13  and  C_14 
REMARK    5  A    between atoms: C_14  and  C_15 
ROOT
HETATM    1  N   UNL     1      -7.686   1.231 -32.147  1.00  0.00    -0.246 N 
HETATM    2  C   UNL     1      -8.965   1.262 -32.684  1.00  0.00     0.255 C 
HETATM    3  O   UNL     1      -9.558   0.305 -33.179  1.00  0.00    -0.270 OA
HETATM    4  H   UNL     1      -7.294   2.089 -31.749  1.00  0.00     0.192 HD
ENDROOT
BRANCH   1   5
HETATM    5  N   UNL     1      -6.962   0.077 -32.157  1.00  0.00    -0.184 NA
HETATM    6  C   UNL     1      -6.017   0.018 -33.039  1.00  0.00     0.153 C 
BRANCH   6   7
HETATM    7  C   UNL     1      -5.197  -1.176 -33.150  1.00  0.00     0.018 A 
HETATM    8  C   UNL     1      -3.942  -1.383 -32.590  1.00  0.00     0.018 A 
HETATM    9  C   UNL     1      -3.084  -0.498 -31.754  1.00  0.00     0.069 C 
HETATM   10  N   UNL     1      -3.532  -2.646 -32.934  1.00  0.00    -0.358 N 
HETATM   11  H   UNL     1      -2.654  -3.065 -32.660  1.00  0.00     0.166 HD
HETATM   12  C   UNL     1      -4.483  -3.274 -33.701  1.00  0.00     0.043 A 
HETATM   13  C   UNL     1      -5.540  -2.377 -33.858  1.00  0.00     0.004 A 
HETATM   14  C   UNL     1      -4.485  -4.558 -34.257  1.00  0.00     0.030 A 
HETATM   15  C   UNL     1      -6.659  -2.792 -34.614  1.00  0.00     0.014 A 
HETATM   16  C   UNL     1      -6.678  -4.074 -35.177  1.00  0.00     0.001 A 
HETATM   17  C   UNL     1      -5.605  -4.942 -35.000  1.00  0.00     0.002 A 
ENDBRANCH   6   7
ENDBRANCH   1   5
BRANCH   2  18
HETATM   18  C   UNL     1      -9.568   2.667 -32.696  1.00  0.00     0.227 C 
BRANCH  18  19
HETATM   19  N   UNL     1     -10.993   2.694 -32.406  1.00  0.00    -0.348 N 
HETATM   20  C   UNL     1     -11.948   2.773 -33.387  1.00  0.00     0.253 C 
HETATM   21  O   UNL     1     -11.634   2.927 -34.566  1.00  0.00    -0.268 OA
HETATM   22  H   UNL     1     -11.270   2.683 -31.430  1.00  0.00     0.163 HD
BRANCH  20  23
HETATM   23  C   UNL     1     -13.387   2.651 -32.997  1.00  0.00     0.053 A 
HETATM   24  C   UNL     1     -14.224   1.555 -33.257  1.00  0.00     0.049 A 
HETATM   25 CL   UNL     1     -13.705   0.099 -34.032  1.00  0.00    -0.083 Cl
HETATM   26  C   UNL     1     -15.569   1.586 -32.856  1.00  0.00     0.025 A 
HETATM   27  C   UNL     1     -16.088   2.696 -32.192  1.00  0.00     0.002 A 
HETATM   28  C   UNL     1     -15.265   3.782 -31.917  1.00  0.00     0.001 A 
HETATM   29  C   UNL     1     -13.927   3.759 -32.315  1.00  0.00     0.019 A 
ENDBRANCH  20  23
ENDBRANCH  18  19
ENDBRANCH   2  18
TORSDOF 5
ENDMDL
MODEL 5
REMARK VINA RESULT:      -8.6      2.358      8.097
REMARK  5 active torsions:
REMARK  status: ('A' for Active; 'I' for Inactive)
REMARK    1  A    between atoms: C_7  and  C_8 
REMARK    2  A    between atoms: N_9  and  N_10 
REMARK       I    between atoms: N_10  and  C_11 
REMARK    3  A    between atoms: C_11  and  C_12 
REMARK    4  A    between atoms: C_12  and  N_13 
REMARK       I    between atoms: N_13  and  C_14 
REMARK    5  A    between atoms: C_14  and  C_15 
ROOT
HETATM    1  N   UNL     1      -5.393   2.451 -31.698  1.00  0.00    -0.246 N 
HETATM    2  C   UNL     1      -6.780   2.441 -31.728  1.00  0.00     0.255 C 
HETATM    3  O   UNL     1      -7.497   3.393 -32.033  1.00  0.00    -0.270 OA
HETATM    4  H   UNL     1      -4.896   1.594 -31.439  1.00  0.00     0.192 HD
ENDROOT
BRANCH   1   5
HETATM    5  N   UNL     1      -4.705   3.588 -32.000  1.00  0.00    -0.184 NA
HETATM    6  C   UNL     1      -3.572   3.413 -32.600  1.00  0.00     0.153 C 
BRANCH   6   7
HETATM    7  C   UNL     1      -2.748   4.556 -32.950  1.00  0.00     0.018 A 
HETATM    8  C   UNL     1      -2.830   5.323 -34.107  1.00  0.00     0.018 A 
HETATM    9  C   UNL     1      -3.730   5.219 -35.289  1.00  0.00     0.069 C 
HETATM   10  N   UNL     1      -1.876   6.305 -34.027  1.00  0.00    -0.358 N 
HETATM   11  H   UNL     1      -1.711   7.011 -34.732  1.00  0.00     0.166 HD
HETATM   12  C   UNL     1      -1.173   6.206 -32.851  1.00  0.00     0.043 A 
HETATM   13  C   UNL     1      -1.693   5.116 -32.153  1.00  0.00     0.004 A 
HETATM   14  C   UNL     1      -0.127   6.997 -32.360  1.00  0.00     0.030 A 
HETATM   15  C   UNL     1      -1.134   4.804 -30.895  1.00  0.00     0.014 A 
HETATM   16  C   UNL     1      -0.088   5.585 -30.387  1.00  0.00     0.001 A 
HETATM   17  C   UNL     1       0.406   6.665 -31.112  1.00  0.00     0.002 A 
ENDBRANCH   6   7
ENDBRANCH   1   5
BRANCH   2  18
HETATM   18  C   UNL     1      -7.374   1.120 -31.238  1.00  0.00     0.227 C 
BRANCH  18  19
HETATM   19  N   UNL     1      -6.795  -0.053 -31.875  1.00  0.00    -0.348 N 
HETATM   20  C   UNL     1      -7.134  -0.453 -33.142  1.00  0.00     0.253 C 
HETATM   21  O   UNL     1      -8.030   0.114 -33.767  1.00  0.00    -0.268 OA
HETATM   22  H   UNL     1      -6.137  -0.601 -31.331  1.00  0.00     0.163 HD
BRANCH  20  23
HETATM   23  C   UNL     1      -6.381  -1.586 -33.762  1.00  0.00     0.053 A 
HETATM   24  C   UNL     1      -4.985  -1.689 -33.873  1.00  0.00     0.049 A 
HETATM   25 CL   UNL     1      -3.872  -0.525 -33.241  1.00  0.00    -0.083 Cl
HETATM   26  C   UNL     1      -4.410  -2.802 -34.505  1.00  0.00     0.025 A 
HETATM   27  C   UNL     1      -5.211  -3.819 -35.023  1.00  0.00     0.002 A 
HETATM   28  C   UNL     1      -6.593  -3.735 -34.906  1.00  0.00     0.001 A 
HETATM   29  C   UNL     1      -7.172  -2.629 -34.280  1.00  0.00     0.019 A 
ENDBRANCH  20  23
ENDBRANCH  18  19
ENDBRANCH   2  18
TORSDOF 5
ENDMDL
MODEL 6
REMARK VINA RESULT:      -8.5      1.691      2.132
REMARK  5 active torsions:
REMARK  status: ('A' for Active; 'I' for Inactive)
REMARK    1  A    between atoms: C_7  and  C_8 
REMARK    2  A    between atoms: N_9  and  N_10 
REMARK       I    between atoms: N_10  and  C_11 
REMARK    3  A    between atoms: C_11  and  C_12 
REMARK    4  A    between atoms: C_12  and  N_13 
REMARK       I    between atoms: N_13  and  C_14 
REMARK    5  A    between atoms: C_14  and  C_15 
ROOT
HETATM    1  N   UNL     1      -5.358   2.093 -31.104  1.00  0.00    -0.246 N 
HETATM    2  C   UNL     1      -6.343   2.895 -30.547  1.00  0.00     0.255 C 
HETATM    3  O   UNL     1      -7.551   2.662 -30.563  1.00  0.00    -0.270 OA
HETATM    4  H   UNL     1      -4.378   2.380 -31.021  1.00  0.00     0.192 HD
ENDROOT
BRANCH   1   5
HETATM    5  N   UNL     1      -5.692   0.945 -31.758  1.00  0.00    -0.184 NA
HETATM    6  C   UNL     1      -4.843   0.541 -32.647  1.00  0.00     0.153 C 
BRANCH   6   7
HETATM    7  C   UNL     1      -5.110  -0.661 -33.417  1.00  0.00     0.018 A 
HETATM    8  C   UNL     1      -6.002  -0.794 -34.475  1.00  0.00     0.018 A 
HETATM    9  C   UNL     1      -6.918   0.190 -35.114  1.00  0.00     0.069 C 
HETATM   10  N   UNL     1      -5.935  -2.091 -34.919  1.00  0.00    -0.358 N 
HETATM   11  H   UNL     1      -6.475  -2.470 -35.685  1.00  0.00     0.166 HD
HETATM   12  C   UNL     1      -5.023  -2.810 -34.186  1.00  0.00     0.043 A 
HETATM   13  C   UNL     1      -4.490  -1.942 -33.232  1.00  0.00     0.004 A 
HETATM   14  C   UNL     1      -4.634  -4.149 -34.299  1.00  0.00     0.030 A 
HETATM   15  C   UNL     1      -3.514  -2.447 -32.344  1.00  0.00     0.014 A 
HETATM   16  C   UNL     1      -3.112  -3.786 -32.444  1.00  0.00     0.001 A 
HETATM   17  C   UNL     1      -3.667  -4.622 -33.408  1.00  0.00     0.002 A 
ENDBRANCH   6   7
ENDBRANCH   1   5
BRANCH   2  18
HETATM   18  C   UNL     1      -5.789   4.198 -29.968  1.00  0.00     0.227 C 
BRANCH  18  19
HETATM   19  N   UNL     1      -4.408   4.462 -30.339  1.00  0.00    -0.348 N 
HETATM   20  C   UNL     1      -3.983   5.687 -30.788  1.00  0.00     0.253 C 
HETATM   21  O   UNL     1      -4.782   6.599 -30.994  1.00  0.00    -0.268 OA
HETATM   22  H   UNL     1      -3.755   3.689 -30.285  1.00  0.00     0.163 HD
BRANCH  20  23
HETATM   23  C   UNL     1      -2.519   5.900 -31.009  1.00  0.00     0.053 A 
HETATM   24  C   UNL     1      -1.722   5.241 -31.958  1.00  0.00     0.049 A 
HETATM   25 CL   UNL     1      -2.324   4.090 -33.102  1.00  0.00    -0.083 Cl
HETATM   26  C   UNL     1      -0.349   5.520 -32.040  1.00  0.00     0.025 A 
HETATM   27  C   UNL     1       0.238   6.455 -31.189  1.00  0.00     0.002 A 
HETATM   28  C   UNL     1      -0.544   7.125 -30.255  1.00  0.00     0.001 A 
HETATM   29  C   UNL     1      -1.910   6.850 -30.167  1.00  0.00     0.019 A 
ENDBRANCH  20  23
ENDBRANCH  18  19
ENDBRANCH   2  18
TORSDOF 5
ENDMDL
MODEL 7
REMARK VINA RESULT:      -8.2      3.395      4.773
REMARK  5 active torsions:
REMARK  status: ('A' for Active; 'I' for Inactive)
REMARK    1  A    between atoms: C_7  and  C_8 
REMARK    2  A    between atoms: N_9  and  N_10 
REMARK       I    between atoms: N_10  and  C_11 
REMARK    3  A    between atoms: C_11  and  C_12 
REMARK    4  A    between atoms: C_12  and  N_13 
REMARK       I    between atoms: N_13  and  C_14 
REMARK    5  A    between atoms: C_14  and  C_15 
ROOT
HETATM    1  N   UNL     1      -4.008   3.726 -31.852  1.00  0.00    -0.246 N 
HETATM    2  C   UNL     1      -2.853   4.460 -31.625  1.00  0.00     0.255 C 
HETATM    3  O   UNL     1      -1.721   4.150 -31.992  1.00  0.00    -0.270 OA
HETATM    4  H   UNL     1      -4.902   4.088 -31.510  1.00  0.00     0.192 HD
ENDROOT
BRANCH   1   5
HETATM    5  N   UNL     1      -3.948   2.537 -32.514  1.00  0.00    -0.184 NA
HETATM    6  C   UNL     1      -4.438   1.520 -31.882  1.00  0.00     0.153 C 
BRANCH   6   7
HETATM    7  C   UNL     1      -4.407   0.200 -32.488  1.00  0.00     0.018 A 
HETATM    8  C   UNL     1      -3.452  -0.790 -32.286  1.00  0.00     0.018 A 
HETATM    9  C   UNL     1      -2.227  -0.813 -31.440  1.00  0.00     0.069 C 
HETATM   10  N   UNL     1      -3.809  -1.878 -33.043  1.00  0.00    -0.358 N 
HETATM   11  H   UNL     1      -3.296  -2.747 -33.087  1.00  0.00     0.166 HD
HETATM   12  C   UNL     1      -4.971  -1.629 -33.733  1.00  0.00     0.043 A 
HETATM   13  C   UNL     1      -5.370  -0.332 -33.410  1.00  0.00     0.004 A 
HETATM   14  C   UNL     1      -5.690  -2.452 -34.608  1.00  0.00     0.030 A 
HETATM   15  C   UNL     1      -6.554   0.165 -33.997  1.00  0.00     0.014 A 
HETATM   16  C   UNL     1      -7.287  -0.645 -34.874  1.00  0.00     0.001 A 
HETATM   17  C   UNL     1      -6.858  -1.934 -35.174  1.00  0.00     0.002 A 
ENDBRANCH   6   7
ENDBRANCH   1   5
BRANCH   2  18
HETATM   18  C   UNL     1      -3.099   5.698 -30.761  1.00  0.00     0.227 C 
BRANCH  18  19
HETATM   19  N   UNL     1      -1.940   6.112 -29.987  1.00  0.00    -0.348 N 
HETATM   20  C   UNL     1      -2.006   7.063 -29.002  1.00  0.00     0.253 C 
HETATM   21  O   UNL     1      -3.045   7.690 -28.795  1.00  0.00    -0.268 OA
HETATM   22  H   UNL     1      -1.049   5.688 -30.221  1.00  0.00     0.163 HD
BRANCH  20  23
HETATM   23  C   UNL     1      -0.791   7.317 -28.167  1.00  0.00     0.053 A 
HETATM   24  C   UNL     1      -0.615   6.939 -26.827  1.00  0.00     0.049 A 
HETATM   25 CL   UNL     1      -1.774   6.039 -25.911  1.00  0.00    -0.083 Cl
HETATM   26  C   UNL     1       0.572   7.268 -26.154  1.00  0.00     0.025 A 
HETATM   27  C   UNL     1       1.590   7.963 -26.805  1.00  0.00     0.002 A 
HETATM   28  C   UNL     1       1.433   8.330 -28.136  1.00  0.00     0.001 A 
HETATM   29  C   UNL     1       0.253   8.009 -28.811  1.00  0.00     0.019 A 
ENDBRANCH  20  23
ENDBRANCH  18  19
ENDBRANCH   2  18
TORSDOF 5
ENDMDL
MODEL 8
REMARK VINA RESULT:      -8.1      4.643      8.419
REMARK  5 active torsions:
REMARK  status: ('A' for Active; 'I' for Inactive)
REMARK    1  A    between atoms: C_7  and  C_8 
REMARK    2  A    between atoms: N_9  and  N_10 
REMARK       I    between atoms: N_10  and  C_11 
REMARK    3  A    between atoms: C_11  and  C_12 
REMARK    4  A    between atoms: C_12  and  N_13 
REMARK       I    between atoms: N_13  and  C_14 
REMARK    5  A    between atoms: C_14  and  C_15 
ROOT
HETATM    1  N   UNL     1      -8.478   0.902 -32.096  1.00  0.00    -0.246 N 
HETATM    2  C   UNL     1      -7.215   1.473 -32.050  1.00  0.00     0.255 C 
HETATM    3  O   UNL     1      -6.948   2.646 -32.306  1.00  0.00    -0.270 OA
HETATM    4  H   UNL     1      -8.586  -0.086 -31.851  1.00  0.00     0.192 HD
ENDROOT
BRANCH   1   5
HETATM    5  N   UNL     1      -9.556   1.645 -32.472  1.00  0.00    -0.184 NA
HETATM    6  C   UNL     1     -10.092   1.320 -33.604  1.00  0.00     0.153 C 
BRANCH   6   7
HETATM    7  C   UNL     1     -11.235   2.061 -34.109  1.00  0.00     0.018 A 
HETATM    8  C   UNL     1     -12.543   1.603 -34.226  1.00  0.00     0.018 A 
HETATM    9  C   UNL     1     -13.152   0.285 -33.897  1.00  0.00     0.069 C 
HETATM   10  N   UNL     1     -13.300   2.626 -34.739  1.00  0.00    -0.358 N 
HETATM   11  H   UNL     1     -14.292   2.574 -34.926  1.00  0.00     0.166 HD
HETATM   12  C   UNL     1     -12.528   3.740 -34.959  1.00  0.00     0.043 A 
HETATM   13  C   UNL     1     -11.225   3.418 -34.578  1.00  0.00     0.004 A 
HETATM   14  C   UNL     1     -12.886   4.997 -35.459  1.00  0.00     0.030 A 
HETATM   15  C   UNL     1     -10.229   4.411 -34.706  1.00  0.00     0.014 A 
HETATM   16  C   UNL     1     -10.570   5.675 -35.204  1.00  0.00     0.001 A 
HETATM   17  C   UNL     1     -11.881   5.961 -35.575  1.00  0.00     0.002 A 
ENDBRANCH   6   7
ENDBRANCH   1   5
BRANCH   2  18
HETATM   18  C   UNL     1      -6.117   0.457 -31.730  1.00  0.00     0.227 C 
BRANCH  18  19
HETATM   19  N   UNL     1      -6.232  -0.784 -32.480  1.00  0.00    -0.348 N 
HETATM   20  C   UNL     1      -5.230  -1.259 -33.287  1.00  0.00     0.253 C 
HETATM   21  O   UNL     1      -4.215  -0.595 -33.493  1.00  0.00    -0.268 OA
HETATM   22  H   UNL     1      -7.109  -1.289 -32.412  1.00  0.00     0.163 HD
BRANCH  20  23
HETATM   23  C   UNL     1      -5.388  -2.613 -33.903  1.00  0.00     0.053 A 
HETATM   24  C   UNL     1      -4.536  -3.712 -33.712  1.00  0.00     0.049 A 
HETATM   25 CL   UNL     1      -3.165  -3.707 -32.658  1.00  0.00    -0.083 Cl
HETATM   26  C   UNL     1      -4.788  -4.921 -34.378  1.00  0.00     0.025 A 
HETATM   27  C   UNL     1      -5.887  -5.050 -35.227  1.00  0.00     0.002 A 
HETATM   28  C   UNL     1      -6.745  -3.973 -35.413  1.00  0.00     0.001 A 
HETATM   29  C   UNL     1      -6.498  -2.766 -34.756  1.00  0.00     0.019 A 
ENDBRANCH  20  23
ENDBRANCH  18  19
ENDBRANCH   2  18
TORSDOF 5
ENDMDL
MODEL 9
REMARK VINA RESULT:      -8.1      3.138      4.069
REMARK  5 active torsions:
REMARK  status: ('A' for Active; 'I' for Inactive)
REMARK    1  A    between atoms: C_7  and  C_8 
REMARK    2  A    between atoms: N_9  and  N_10 
REMARK       I    between atoms: N_10  and  C_11 
REMARK    3  A    between atoms: C_11  and  C_12 
REMARK    4  A    between atoms: C_12  and  N_13 
REMARK       I    between atoms: N_13  and  C_14 
REMARK    5  A    between atoms: C_14  and  C_15 
ROOT
HETATM    1  N   UNL     1      -4.438   3.773 -32.286  1.00  0.00    -0.246 N 
HETATM    2  C   UNL     1      -3.305   4.182 -31.598  1.00  0.00     0.255 C 
HETATM    3  O   UNL     1      -2.240   3.568 -31.541  1.00  0.00    -0.270 OA
HETATM    4  H   UNL     1      -5.269   4.372 -32.275  1.00  0.00     0.192 HD
ENDROOT
BRANCH   1   5
HETATM    5  N   UNL     1      -4.446   2.588 -32.959  1.00  0.00    -0.184 NA
HETATM    6  C   UNL     1      -5.360   1.747 -32.598  1.00  0.00     0.153 C 
BRANCH   6   7
HETATM    7  C   UNL     1      -5.445   0.445 -33.237  1.00  0.00     0.018 A 
HETATM    8  C   UNL     1      -6.286   0.080 -34.282  1.00  0.00     0.018 A 
HETATM    9  C   UNL     1      -7.311   0.857 -35.032  1.00  0.00     0.069 C 
HETATM   10  N   UNL     1      -6.034  -1.235 -34.583  1.00  0.00    -0.358 N 
HETATM   11  H   UNL     1      -6.501  -1.763 -35.308  1.00  0.00     0.166 HD
HETATM   12  C   UNL     1      -5.052  -1.741 -33.767  1.00  0.00     0.043 A 
HETATM   13  C   UNL     1      -4.663  -0.713 -32.908  1.00  0.00     0.004 A 
HETATM   14  C   UNL     1      -4.484  -3.020 -33.731  1.00  0.00     0.030 A 
HETATM   15  C   UNL     1      -3.650  -0.984 -31.962  1.00  0.00     0.014 A 
HETATM   16  C   UNL     1      -3.069  -2.258 -31.913  1.00  0.00     0.001 A 
HETATM   17  C   UNL     1      -3.483  -3.259 -32.785  1.00  0.00     0.002 A 
ENDBRANCH   6   7
ENDBRANCH   1   5
BRANCH   2  18
HETATM   18  C   UNL     1      -3.527   5.470 -30.804  1.00  0.00     0.227 C 
BRANCH  18  19
HETATM   19  N   UNL     1      -2.346   5.926 -30.088  1.00  0.00    -0.348 N 
HETATM   20  C   UNL     1      -2.398   6.879 -29.103  1.00  0.00     0.253 C 
HETATM   21  O   UNL     1      -3.446   7.470 -28.848  1.00  0.00    -0.268 OA
HETATM   22  H   UNL     1      -1.453   5.532 -30.364  1.00  0.00     0.163 HD
BRANCH  20  23
HETATM   23  C   UNL     1      -1.154   7.177 -28.328  1.00  0.00     0.053 A 
HETATM   24  C   UNL     1      -0.955   6.939 -26.959  1.00  0.00     0.049 A 
HETATM   25 CL   UNL     1      -2.119   6.183 -25.926  1.00  0.00    -0.083 Cl
HETATM   26  C   UNL     1       0.259   7.295 -26.352  1.00  0.00     0.025 A 
HETATM   27  C   UNL     1       1.282   7.880 -27.097  1.00  0.00     0.002 A 
HETATM   28  C   UNL     1       1.102   8.108 -28.456  1.00  0.00     0.001 A 
HETATM   29  C   UNL     1      -0.105   7.759 -29.066  1.00  0.00     0.019 A 
ENDBRANCH  20  23
ENDBRANCH  18  19
ENDBRANCH   2  18
TORSDOF 5
ENDMDL
MODEL 10
REMARK VINA RESULT:      -7.9      4.471      7.948
REMARK  5 active torsions:
REMARK  status: ('A' for Active; 'I' for Inactive)
REMARK    1  A    between atoms: C_7  and  C_8 
REMARK    2  A    between atoms: N_9  and  N_10 
REMARK       I    between atoms: N_10  and  C_11 
REMARK    3  A    between atoms: C_11  and  C_12 
REMARK    4  A    between atoms: C_12  and  N_13 
REMARK       I    between atoms: N_13  and  C_14 
REMARK    5  A    between atoms: C_14  and  C_15 
ROOT
HETATM    1  N   UNL     1      -7.505   1.053 -32.161  1.00  0.00    -0.246 N 
HETATM    2  C   UNL     1      -6.410   1.888 -31.999  1.00  0.00     0.255 C 
HETATM    3  O   UNL     1      -6.455   3.083 -31.707  1.00  0.00    -0.270 OA
HETATM    4  H   UNL     1      -7.349   0.069 -32.393  1.00  0.00     0.192 HD
ENDROOT
BRANCH   1   5
HETATM    5  N   UNL     1      -8.770   1.541 -32.021  1.00  0.00    -0.184 NA
HETATM    6  C   UNL     1      -9.388   1.818 -33.123  1.00  0.00     0.153 C 
BRANCH   6   7
HETATM    7  C   UNL     1     -10.734   2.363 -33.088  1.00  0.00     0.018 A 
HETATM    8  C   UNL     1     -11.096   3.679 -32.824  1.00  0.00     0.018 A 
HETATM    9  C   UNL     1     -10.271   4.877 -32.506  1.00  0.00     0.069 C 
HETATM   10  N   UNL     1     -12.464   3.761 -32.900  1.00  0.00    -0.358 N 
HETATM   11  H   UNL     1     -13.002   4.604 -32.756  1.00  0.00     0.166 HD
HETATM   12  C   UNL     1     -13.007   2.538 -33.209  1.00  0.00     0.043 A 
HETATM   13  C   UNL     1     -11.949   1.638 -33.330  1.00  0.00     0.004 A 
HETATM   14  C   UNL     1     -14.345   2.170 -33.391  1.00  0.00     0.030 A 
HETATM   15  C   UNL     1     -12.250   0.296 -33.651  1.00  0.00     0.014 A 
HETATM   16  C   UNL     1     -13.583  -0.090 -33.837  1.00  0.00     0.001 A 
HETATM   17  C   UNL     1     -14.614   0.835 -33.708  1.00  0.00     0.002 A 
ENDBRANCH   6   7
ENDBRANCH   1   5
BRANCH   2  18
HETATM   18  C   UNL     1      -5.085   1.194 -32.318  1.00  0.00     0.227 C 
BRANCH  18  19
HETATM   19  N   UNL     1      -5.242  -0.107 -32.948  1.00  0.00    -0.348 N 
HETATM   20  C   UNL     1      -4.210  -1.002 -33.069  1.00  0.00     0.253 C 
HETATM   21  O   UNL     1      -3.066  -0.698 -32.735  1.00  0.00    -0.268 OA
HETATM   22  H   UNL     1      -6.153  -0.330 -33.333  1.00  0.00     0.163 HD
BRANCH  20  23
HETATM   23  C   UNL     1      -4.505  -2.367 -33.603  1.00  0.00     0.053 A 
HETATM   24  C   UNL     1      -5.582  -2.716 -34.433  1.00  0.00     0.049 A 
HETATM   25 CL   UNL     1      -6.742  -1.587 -35.044  1.00  0.00    -0.083 Cl
HETATM   26  C   UNL     1      -5.755  -4.047 -34.840  1.00  0.00     0.025 A 
HETATM   27  C   UNL     1      -4.860  -5.037 -34.435  1.00  0.00     0.002 A 
HETATM   28  C   UNL     1      -3.781  -4.702 -33.625  1.00  0.00     0.001 A 
HETATM   29  C   UNL     1      -3.605  -3.379 -33.214  1.00  0.00     0.019 A 
ENDBRANCH  20  23
ENDBRANCH  18  19
ENDBRANCH   2  18
TORSDOF 5
ENDMDL
