MODEL 1
REMARK VINA RESULT:      -9.5      0.000      0.000
REMARK  4 active torsions:
REMARK  status: ('A' for Active; 'I' for Inactive)
REMARK    1  A    between atoms: C_5  and  C_6 
REMARK    2  A    between atoms: C_6  and  N_7 
REMARK       I    between atoms: N_7  and  C_8 
REMARK    3  A    between atoms: C_8  and  C_10 
REMARK    4  A    between atoms: C_16  and  C_20 
ROOT
HETATM    1  C   UNL     1      -6.985   2.001 -32.760  1.00  0.00     0.059 A 
HETATM    2  C   UNL     1      -7.029   3.263 -33.327  1.00  0.00     0.106 A 
HETATM    3  N   UNL     1      -8.276   3.474 -33.840  1.00  0.00    -0.364 N 
HETATM    4  H   UNL     1      -8.576   4.314 -34.316  1.00  0.00     0.165 HD
HETATM    5  C   UNL     1      -9.076   2.382 -33.597  1.00  0.00     0.044 A 
HETATM    6  C   UNL     1     -10.421   2.168 -33.936  1.00  0.00     0.042 A 
HETATM    7  C   UNL     1     -11.031   0.970 -33.535  1.00  0.00    -0.021 A 
HETATM    8  C   UNL     1     -10.290   0.034 -32.807  1.00  0.00     0.013 A 
HETATM    9  C   UNL     1      -8.944   0.262 -32.478  1.00  0.00     0.016 A 
HETATM   10  C   UNL     1      -8.308   1.450 -32.895  1.00  0.00     0.008 A 
ENDROOT
BRANCH   1  11
HETATM   11  C   UNL     1      -5.777   1.446 -32.153  1.00  0.00     0.254 C 
HETATM   12  N   UNL     1      -4.997   0.694 -32.998  1.00  0.00    -0.353 N 
HETATM   13  H   UNL     1      -5.244   0.648 -33.975  1.00  0.00     0.163 HD
HETATM   14  O   UNL     1      -5.459   1.688 -30.992  1.00  0.00    -0.268 OA
BRANCH  12  15
HETATM   15  C   UNL     1      -3.752   0.109 -32.570  1.00  0.00     0.161 C 
BRANCH  15  16
HETATM   16  C   UNL     1      -3.738  -1.380 -32.807  1.00  0.00    -0.037 A 
HETATM   17  C   UNL     1      -3.074  -2.233 -31.908  1.00  0.00     0.012 A 
HETATM   18  C   UNL     1      -3.065  -3.616 -32.112  1.00  0.00     0.046 A 
HETATM   19  C   UNL     1      -3.729  -4.149 -33.211  1.00  0.00     0.154 A 
HETATM   20  F   UNL     1      -3.718  -5.475 -33.406  1.00  0.00    -0.203 F 
HETATM   21  C   UNL     1      -4.401  -3.317 -34.098  1.00  0.00     0.155 A 
HETATM   22  C   UNL     1      -4.413  -1.938 -33.903  1.00  0.00     0.054 A 
HETATM   23  F   UNL     1      -5.045  -3.835 -35.152  1.00  0.00    -0.203 F 
ENDBRANCH  15  16
ENDBRANCH  12  15
ENDBRANCH   1  11
BRANCH   7  24
HETATM   24  C   UNL     1     -12.423   0.721 -33.877  1.00  0.00     0.010 A 
HETATM   25  C   UNL     1     -13.365   1.526 -34.561  1.00  0.00     0.152 A 
HETATM   26  N   UNL     1     -14.564   0.946 -34.665  1.00  0.00    -0.187 NA
HETATM   27  N   UNL     1     -14.398  -0.232 -34.045  1.00  0.00    -0.289 N 
HETATM   28  H   UNL     1     -15.191  -0.862 -33.989  1.00  0.00     0.188 HD
HETATM   29  C   UNL     1     -13.136  -0.415 -33.557  1.00  0.00     0.123 A 
ENDBRANCH   7  24
TORSDOF 4
ENDMDL
MODEL 2
REMARK VINA RESULT:      -9.4      4.465      7.282
REMARK  4 active torsions:
REMARK  status: ('A' for Active; 'I' for Inactive)
REMARK    1  A    between atoms: C_5  and  C_6 
REMARK    2  A    between atoms: C_6  and  N_7 
REMARK       I    between atoms: N_7  and  C_8 
REMARK    3  A    between atoms: C_8  and  C_10 
REMARK    4  A    between atoms: C_16  and  C_20 
ROOT
HETATM    1  C   UNL     1      -7.180   1.987 -33.933  1.00  0.00     0.059 A 
HETATM    2  C   UNL     1      -8.405   1.727 -34.524  1.00  0.00     0.106 A 
HETATM    3  N   UNL     1      -8.449   0.414 -34.891  1.00  0.00    -0.364 N 
HETATM    4  H   UNL     1      -9.228  -0.038 -35.350  1.00  0.00     0.165 HD
HETATM    5  C   UNL     1      -7.283  -0.217 -34.526  1.00  0.00     0.044 A 
HETATM    6  C   UNL     1      -6.900  -1.556 -34.697  1.00  0.00     0.042 A 
HETATM    7  C   UNL     1      -5.656  -1.968 -34.194  1.00  0.00    -0.021 A 
HETATM    8  C   UNL     1      -4.843  -1.041 -33.535  1.00  0.00     0.013 A 
HETATM    9  C   UNL     1      -5.239   0.296 -33.374  1.00  0.00     0.016 A 
HETATM   10  C   UNL     1      -6.475   0.733 -33.895  1.00  0.00     0.008 A 
ENDROOT
BRANCH   1  11
HETATM   11  C   UNL     1      -6.795   3.315 -33.458  1.00  0.00     0.254 C 
HETATM   12  N   UNL     1      -5.887   3.972 -34.254  1.00  0.00    -0.353 N 
HETATM   13  H   UNL     1      -5.622   3.558 -35.133  1.00  0.00     0.163 HD
HETATM   14  O   UNL     1      -7.293   3.821 -32.458  1.00  0.00    -0.268 OA
BRANCH  12  15
HETATM   15  C   UNL     1      -5.433   5.305 -33.951  1.00  0.00     0.161 C 
BRANCH  15  16
HETATM   16  C   UNL     1      -3.984   5.307 -33.534  1.00  0.00    -0.037 A 
HETATM   17  C   UNL     1      -3.629   4.997 -32.209  1.00  0.00     0.012 A 
HETATM   18  C   UNL     1      -2.288   4.984 -31.815  1.00  0.00     0.046 A 
HETATM   19  C   UNL     1      -1.298   5.271 -32.748  1.00  0.00     0.154 A 
HETATM   20  F   UNL     1      -0.013   5.260 -32.367  1.00  0.00    -0.203 F 
HETATM   21  C   UNL     1      -1.637   5.565 -34.063  1.00  0.00     0.155 A 
HETATM   22  C   UNL     1      -2.970   5.582 -34.463  1.00  0.00     0.054 A 
HETATM   23  F   UNL     1      -0.679   5.834 -34.961  1.00  0.00    -0.203 F 
ENDBRANCH  15  16
ENDBRANCH  12  15
ENDBRANCH   1  11
BRANCH   7  24
HETATM   24  C   UNL     1      -5.234  -3.350 -34.362  1.00  0.00     0.010 A 
HETATM   25  C   UNL     1      -5.908  -4.461 -34.922  1.00  0.00     0.152 A 
HETATM   26  N   UNL     1      -5.185  -5.583 -34.879  1.00  0.00    -0.187 NA
HETATM   27  N   UNL     1      -4.044  -5.198 -34.287  1.00  0.00    -0.289 N 
HETATM   28  H   UNL     1      -3.322  -5.894 -34.135  1.00  0.00     0.188 HD
HETATM   29  C   UNL     1      -4.023  -3.873 -33.959  1.00  0.00     0.123 A 
ENDBRANCH   7  24
TORSDOF 4
ENDMDL
MODEL 3
REMARK VINA RESULT:      -9.3      3.511      7.921
REMARK  4 active torsions:
REMARK  status: ('A' for Active; 'I' for Inactive)
REMARK    1  A    between atoms: C_5  and  C_6 
REMARK    2  A    between atoms: C_6  and  N_7 
REMARK       I    between atoms: N_7  and  C_8 
REMARK    3  A    between atoms: C_8  and  C_10 
REMARK    4  A    between atoms: C_16  and  C_20 
ROOT
HETATM    1  C   UNL     1      -6.158   2.139 -33.507  1.00  0.00     0.059 A 
HETATM    2  C   UNL     1      -5.066   2.391 -32.694  1.00  0.00     0.106 A 
HETATM    3  N   UNL     1      -4.374   1.229 -32.511  1.00  0.00    -0.364 N 
HETATM    4  H   UNL     1      -3.537   1.131 -31.953  1.00  0.00     0.165 HD
HETATM    5  C   UNL     1      -4.970   0.210 -33.215  1.00  0.00     0.044 A 
HETATM    6  C   UNL     1      -4.597  -1.140 -33.321  1.00  0.00     0.042 A 
HETATM    7  C   UNL     1      -5.358  -1.983 -34.146  1.00  0.00    -0.021 A 
HETATM    8  C   UNL     1      -6.452  -1.457 -34.840  1.00  0.00     0.013 A 
HETATM    9  C   UNL     1      -6.814  -0.106 -34.721  1.00  0.00     0.016 A 
HETATM   10  C   UNL     1      -6.075   0.751 -33.876  1.00  0.00     0.008 A 
ENDROOT
BRANCH   1  11
HETATM   11  C   UNL     1      -7.130   3.168 -33.870  1.00  0.00     0.254 C 
HETATM   12  N   UNL     1      -8.445   2.775 -33.792  1.00  0.00    -0.353 N 
HETATM   13  H   UNL     1      -8.659   1.866 -33.412  1.00  0.00     0.163 HD
HETATM   14  O   UNL     1      -6.793   4.311 -34.164  1.00  0.00    -0.268 OA
BRANCH  12  15
HETATM   15  C   UNL     1      -9.529   3.679 -34.077  1.00  0.00     0.161 C 
BRANCH  15  16
HETATM   16  C   UNL     1     -10.832   2.937 -34.236  1.00  0.00    -0.037 A 
HETATM   17  C   UNL     1     -11.883   3.504 -34.978  1.00  0.00     0.012 A 
HETATM   18  C   UNL     1     -13.090   2.819 -35.142  1.00  0.00     0.046 A 
HETATM   19  C   UNL     1     -13.246   1.561 -34.572  1.00  0.00     0.154 A 
HETATM   20  F   UNL     1     -14.405   0.907 -34.729  1.00  0.00    -0.203 F 
HETATM   21  C   UNL     1     -12.209   0.985 -33.848  1.00  0.00     0.155 A 
HETATM   22  C   UNL     1     -11.003   1.661 -33.679  1.00  0.00     0.054 A 
HETATM   23  F   UNL     1     -12.359  -0.231 -33.306  1.00  0.00    -0.203 F 
ENDBRANCH  15  16
ENDBRANCH  12  15
ENDBRANCH   1  11
BRANCH   7  24
HETATM   24  C   UNL     1      -4.996  -3.386 -34.270  1.00  0.00     0.010 A 
HETATM   25  C   UNL     1      -5.691  -4.472 -34.853  1.00  0.00     0.152 A 
HETATM   26  N   UNL     1      -5.027  -5.627 -34.754  1.00  0.00    -0.187 NA
HETATM   27  N   UNL     1      -3.905  -5.288 -34.102  1.00  0.00    -0.289 N 
HETATM   28  H   UNL     1      -3.228  -6.015 -33.899  1.00  0.00     0.188 HD
HETATM   29  C   UNL     1      -3.837  -3.960 -33.791  1.00  0.00     0.123 A 
ENDBRANCH   7  24
TORSDOF 4
ENDMDL
MODEL 4
REMARK VINA RESULT:      -9.0      5.560      8.074
REMARK  4 active torsions:
REMARK  status: ('A' for Active; 'I' for Inactive)
REMARK    1  A    between atoms: C_5  and  C_6 
REMARK    2  A    between atoms: C_6  and  N_7 
REMARK       I    between atoms: N_7  and  C_8 
REMARK    3  A    between atoms: C_8  and  C_10 
REMARK    4  A    between atoms: C_16  and  C_20 
ROOT
HETATM    1  C   UNL     1      -3.870   1.444 -31.660  1.00  0.00     0.059 A 
HETATM    2  C   UNL     1      -2.902   0.791 -30.915  1.00  0.00     0.106 A 
HETATM    3  N   UNL     1      -2.941  -0.540 -31.211  1.00  0.00    -0.364 N 
HETATM    4  H   UNL     1      -2.344  -1.246 -30.802  1.00  0.00     0.165 HD
HETATM    5  C   UNL     1      -3.900  -0.783 -32.166  1.00  0.00     0.044 A 
HETATM    6  C   UNL     1      -4.275  -1.995 -32.768  1.00  0.00     0.042 A 
HETATM    7  C   UNL     1      -5.268  -1.972 -33.759  1.00  0.00    -0.021 A 
HETATM    8  C   UNL     1      -5.845  -0.752 -34.123  1.00  0.00     0.013 A 
HETATM    9  C   UNL     1      -5.461   0.451 -33.510  1.00  0.00     0.016 A 
HETATM   10  C   UNL     1      -4.482   0.444 -32.494  1.00  0.00     0.008 A 
ENDROOT
BRANCH   1  11
HETATM   11  C   UNL     1      -4.117   2.881 -31.552  1.00  0.00     0.254 C 
HETATM   12  N   UNL     1      -3.188   3.677 -32.177  1.00  0.00    -0.353 N 
HETATM   13  H   UNL     1      -2.469   3.240 -32.734  1.00  0.00     0.163 HD
HETATM   14  O   UNL     1      -5.114   3.332 -30.995  1.00  0.00    -0.268 OA
BRANCH  12  15
HETATM   15  C   UNL     1      -3.305   5.112 -32.201  1.00  0.00     0.161 C 
BRANCH  15  16
HETATM   16  C   UNL     1      -2.139   5.767 -31.504  1.00  0.00    -0.037 A 
HETATM   17  C   UNL     1      -2.254   7.081 -31.018  1.00  0.00     0.012 A 
HETATM   18  C   UNL     1      -1.183   7.694 -30.360  1.00  0.00     0.046 A 
HETATM   19  C   UNL     1       0.001   6.989 -30.179  1.00  0.00     0.154 A 
HETATM   20  F   UNL     1       1.027   7.578 -29.550  1.00  0.00    -0.203 F 
HETATM   21  C   UNL     1       0.121   5.684 -30.643  1.00  0.00     0.155 A 
HETATM   22  C   UNL     1      -0.941   5.068 -31.301  1.00  0.00     0.054 A 
HETATM   23  F   UNL     1       1.261   5.006 -30.460  1.00  0.00    -0.203 F 
ENDBRANCH  15  16
ENDBRANCH  12  15
ENDBRANCH   1  11
BRANCH   7  24
HETATM   24  C   UNL     1      -5.677  -3.215 -34.395  1.00  0.00     0.010 A 
HETATM   25  C   UNL     1      -4.953  -4.402 -34.657  1.00  0.00     0.152 A 
HETATM   26  N   UNL     1      -5.684  -5.329 -35.283  1.00  0.00    -0.187 NA
HETATM   27  N   UNL     1      -6.879  -4.738 -35.430  1.00  0.00    -0.289 N 
HETATM   28  H   UNL     1      -7.618  -5.256 -35.895  1.00  0.00     0.188 HD
HETATM   29  C   UNL     1      -6.928  -3.474 -34.916  1.00  0.00     0.123 A 
ENDBRANCH   7  24
TORSDOF 4
ENDMDL
MODEL 5
REMARK VINA RESULT:      -8.6     14.112     15.443
REMARK  4 active torsions:
REMARK  status: ('A' for Active; 'I' for Inactive)
REMARK    1  A    between atoms: C_5  and  C_6 
REMARK    2  A    between atoms: C_6  and  N_7 
REMARK       I    between atoms: N_7  and  C_8 
REMARK    3  A    between atoms: C_8  and  C_10 
REMARK    4  A    between atoms: C_16  and  C_20 
ROOT
HETATM    1  C   UNL     1      -4.025 -12.720 -38.161  1.00  0.00     0.059 A 
HETATM    2  C   UNL     1      -4.338 -12.927 -36.828  1.00  0.00     0.106 A 
HETATM    3  N   UNL     1      -5.694 -12.991 -36.697  1.00  0.00    -0.364 N 
HETATM    4  H   UNL     1      -6.190 -13.129 -35.827  1.00  0.00     0.165 HD
HETATM    5  C   UNL     1      -6.293 -12.862 -37.928  1.00  0.00     0.044 A 
HETATM    6  C   UNL     1      -7.656 -12.877 -38.264  1.00  0.00     0.042 A 
HETATM    7  C   UNL     1      -8.014 -12.764 -39.616  1.00  0.00    -0.021 A 
HETATM    8  C   UNL     1      -7.011 -12.650 -40.584  1.00  0.00     0.013 A 
HETATM    9  C   UNL     1      -5.653 -12.633 -40.231  1.00  0.00     0.016 A 
HETATM   10  C   UNL     1      -5.275 -12.720 -38.874  1.00  0.00     0.008 A 
ENDROOT
BRANCH   1  11
HETATM   11  C   UNL     1      -2.652 -12.567 -38.639  1.00  0.00     0.254 C 
HETATM   12  N   UNL     1      -2.247 -13.514 -39.548  1.00  0.00    -0.353 N 
HETATM   13  H   UNL     1      -2.923 -14.178 -39.892  1.00  0.00     0.163 HD
HETATM   14  O   UNL     1      -1.942 -11.627 -38.295  1.00  0.00    -0.268 OA
BRANCH  12  15
HETATM   15  C   UNL     1      -0.938 -13.484 -40.148  1.00  0.00     0.161 C 
BRANCH  15  16
HETATM   16  C   UNL     1      -0.058 -14.577 -39.594  1.00  0.00    -0.037 A 
HETATM   17  C   UNL     1       1.001 -14.259 -38.726  1.00  0.00     0.012 A 
HETATM   18  C   UNL     1       1.815 -15.264 -38.197  1.00  0.00     0.046 A 
HETATM   19  C   UNL     1       1.565 -16.591 -38.527  1.00  0.00     0.154 A 
HETATM   20  F   UNL     1       2.348 -17.554 -38.020  1.00  0.00    -0.203 F 
HETATM   21  C   UNL     1       0.512 -16.918 -39.372  1.00  0.00     0.155 A 
HETATM   22  C   UNL     1      -0.302 -15.922 -39.905  1.00  0.00     0.054 A 
HETATM   23  F   UNL     1       0.269 -18.199 -39.682  1.00  0.00    -0.203 F 
ENDBRANCH  15  16
ENDBRANCH  12  15
ENDBRANCH   1  11
BRANCH   7  24
HETATM   24  C   UNL     1      -9.420 -12.773 -39.992  1.00  0.00     0.010 A 
HETATM   25  C   UNL     1     -10.340 -13.843 -40.101  1.00  0.00     0.152 A 
HETATM   26  N   UNL     1     -11.554 -13.445 -40.495  1.00  0.00    -0.187 NA
HETATM   27  N   UNL     1     -11.415 -12.119 -40.644  1.00  0.00    -0.289 N 
HETATM   28  H   UNL     1     -12.220 -11.583 -40.950  1.00  0.00     0.188 HD
HETATM   29  C   UNL     1     -10.160 -11.668 -40.355  1.00  0.00     0.123 A 
ENDBRANCH   7  24
TORSDOF 4
ENDMDL
MODEL 6
REMARK VINA RESULT:      -8.6      4.087      7.856
REMARK  4 active torsions:
REMARK  status: ('A' for Active; 'I' for Inactive)
REMARK    1  A    between atoms: C_5  and  C_6 
REMARK    2  A    between atoms: C_6  and  N_7 
REMARK       I    between atoms: N_7  and  C_8 
REMARK    3  A    between atoms: C_8  and  C_10 
REMARK    4  A    between atoms: C_16  and  C_20 
ROOT
HETATM    1  C   UNL     1      -5.800   2.095 -32.693  1.00  0.00     0.059 A 
HETATM    2  C   UNL     1      -4.499   2.260 -32.246  1.00  0.00     0.106 A 
HETATM    3  N   UNL     1      -3.827   1.083 -32.399  1.00  0.00    -0.364 N 
HETATM    4  H   UNL     1      -2.861   0.926 -32.145  1.00  0.00     0.165 HD
HETATM    5  C   UNL     1      -4.650   0.141 -32.970  1.00  0.00     0.044 A 
HETATM    6  C   UNL     1      -4.377  -1.193 -33.313  1.00  0.00     0.042 A 
HETATM    7  C   UNL     1      -5.388  -1.947 -33.929  1.00  0.00    -0.021 A 
HETATM    8  C   UNL     1      -6.625  -1.350 -34.191  1.00  0.00     0.013 A 
HETATM    9  C   UNL     1      -6.883  -0.016 -33.840  1.00  0.00     0.016 A 
HETATM   10  C   UNL     1      -5.887   0.749 -33.196  1.00  0.00     0.008 A 
ENDROOT
BRANCH   1  11
HETATM   11  C   UNL     1      -6.800   3.159 -32.633  1.00  0.00     0.254 C 
HETATM   12  N   UNL     1      -7.492   3.368 -33.802  1.00  0.00    -0.353 N 
HETATM   13  H   UNL     1      -7.343   2.737 -34.575  1.00  0.00     0.163 HD
HETATM   14  O   UNL     1      -7.039   3.775 -31.599  1.00  0.00    -0.268 OA
BRANCH  12  15
HETATM   15  C   UNL     1      -8.539   4.352 -33.903  1.00  0.00     0.161 C 
BRANCH  15  16
HETATM   16  C   UNL     1      -9.849   3.717 -34.297  1.00  0.00    -0.037 A 
HETATM   17  C   UNL     1     -10.174   2.426 -33.843  1.00  0.00     0.012 A 
HETATM   18  C   UNL     1     -11.390   1.833 -34.192  1.00  0.00     0.046 A 
HETATM   19  C   UNL     1     -12.289   2.533 -34.989  1.00  0.00     0.154 A 
HETATM   20  F   UNL     1     -13.454   1.962 -35.324  1.00  0.00    -0.203 F 
HETATM   21  C   UNL     1     -11.984   3.815 -35.431  1.00  0.00     0.155 A 
HETATM   22  C   UNL     1     -10.774   4.412 -35.089  1.00  0.00     0.054 A 
HETATM   23  F   UNL     1     -12.856   4.490 -36.193  1.00  0.00    -0.203 F 
ENDBRANCH  15  16
ENDBRANCH  12  15
ENDBRANCH   1  11
BRANCH   7  24
HETATM   24  C   UNL     1      -5.133  -3.333 -34.291  1.00  0.00     0.010 A 
HETATM   25  C   UNL     1      -5.913  -4.254 -35.029  1.00  0.00     0.152 A 
HETATM   26  N   UNL     1      -5.337  -5.455 -35.136  1.00  0.00    -0.187 NA
HETATM   27  N   UNL     1      -4.185  -5.310 -34.463  1.00  0.00    -0.289 N 
HETATM   28  H   UNL     1      -3.563  -6.108 -34.398  1.00  0.00     0.188 HD
HETATM   29  C   UNL     1      -4.015  -4.061 -33.939  1.00  0.00     0.123 A 
ENDBRANCH   7  24
TORSDOF 4
ENDMDL
MODEL 7
REMARK VINA RESULT:      -8.4      4.367      6.720
REMARK  4 active torsions:
REMARK  status: ('A' for Active; 'I' for Inactive)
REMARK    1  A    between atoms: C_5  and  C_6 
REMARK    2  A    between atoms: C_6  and  N_7 
REMARK       I    between atoms: N_7  and  C_8 
REMARK    3  A    between atoms: C_8  and  C_10 
REMARK    4  A    between atoms: C_16  and  C_20 
ROOT
HETATM    1  C   UNL     1      -7.235   2.283 -32.006  1.00  0.00     0.059 A 
HETATM    2  C   UNL     1      -8.560   2.024 -31.695  1.00  0.00     0.106 A 
HETATM    3  N   UNL     1      -8.891   0.787 -32.165  1.00  0.00    -0.364 N 
HETATM    4  H   UNL     1      -9.800   0.354 -32.078  1.00  0.00     0.165 HD
HETATM    5  C   UNL     1      -7.798   0.201 -32.759  1.00  0.00     0.044 A 
HETATM    6  C   UNL     1      -7.680  -1.060 -33.365  1.00  0.00     0.042 A 
HETATM    7  C   UNL     1      -6.429  -1.447 -33.869  1.00  0.00    -0.021 A 
HETATM    8  C   UNL     1      -5.341  -0.576 -33.747  1.00  0.00     0.013 A 
HETATM    9  C   UNL     1      -5.476   0.683 -33.141  1.00  0.00     0.016 A 
HETATM   10  C   UNL     1      -6.733   1.099 -32.651  1.00  0.00     0.008 A 
ENDROOT
BRANCH   1  11
HETATM   11  C   UNL     1      -6.575   3.544 -31.675  1.00  0.00     0.254 C 
HETATM   12  N   UNL     1      -5.246   3.431 -31.343  1.00  0.00    -0.353 N 
HETATM   13  H   UNL     1      -4.796   2.533 -31.434  1.00  0.00     0.163 HD
HETATM   14  O   UNL     1      -7.153   4.624 -31.749  1.00  0.00    -0.268 OA
BRANCH  12  15
HETATM   15  C   UNL     1      -4.438   4.582 -31.029  1.00  0.00     0.161 C 
BRANCH  15  16
HETATM   16  C   UNL     1      -3.464   4.884 -32.140  1.00  0.00    -0.037 A 
HETATM   17  C   UNL     1      -2.088   4.979 -31.867  1.00  0.00     0.012 A 
HETATM   18  C   UNL     1      -1.176   5.247 -32.891  1.00  0.00     0.046 A 
HETATM   19  C   UNL     1      -1.637   5.412 -34.193  1.00  0.00     0.154 A 
HETATM   20  F   UNL     1      -0.760   5.670 -35.173  1.00  0.00    -0.203 F 
HETATM   21  C   UNL     1      -2.993   5.306 -34.476  1.00  0.00     0.155 A 
HETATM   22  C   UNL     1      -3.909   5.041 -33.460  1.00  0.00     0.054 A 
HETATM   23  F   UNL     1      -3.433   5.458 -35.732  1.00  0.00    -0.203 F 
ENDBRANCH  15  16
ENDBRANCH  12  15
ENDBRANCH   1  11
BRANCH   7  24
HETATM   24  C   UNL     1      -6.280  -2.747 -34.505  1.00  0.00     0.010 A 
HETATM   25  C   UNL     1      -7.146  -3.866 -34.535  1.00  0.00     0.152 A 
HETATM   26  N   UNL     1      -6.640  -4.896 -35.220  1.00  0.00    -0.187 NA
HETATM   27  N   UNL     1      -5.445  -4.443 -35.629  1.00  0.00    -0.289 N 
HETATM   28  H   UNL     1      -4.858  -5.062 -36.177  1.00  0.00     0.188 HD
HETATM   29  C   UNL     1      -5.183  -3.164 -35.229  1.00  0.00     0.123 A 
ENDBRANCH   7  24
TORSDOF 4
ENDMDL
MODEL 8
REMARK VINA RESULT:      -8.1      5.347      8.789
REMARK  4 active torsions:
REMARK  status: ('A' for Active; 'I' for Inactive)
REMARK    1  A    between atoms: C_5  and  C_6 
REMARK    2  A    between atoms: C_6  and  N_7 
REMARK       I    between atoms: N_7  and  C_8 
REMARK    3  A    between atoms: C_8  and  C_10 
REMARK    4  A    between atoms: C_16  and  C_20 
ROOT
HETATM    1  C   UNL     1      -4.499   5.132 -33.936  1.00  0.00     0.059 A 
HETATM    2  C   UNL     1      -3.688   5.459 -35.011  1.00  0.00     0.106 A 
HETATM    3  N   UNL     1      -2.591   6.127 -34.550  1.00  0.00    -0.364 N 
HETATM    4  H   UNL     1      -1.843   6.486 -35.126  1.00  0.00     0.165 HD
HETATM    5  C   UNL     1      -2.641   6.226 -33.179  1.00  0.00     0.044 A 
HETATM    6  C   UNL     1      -1.729   6.820 -32.293  1.00  0.00     0.042 A 
HETATM    7  C   UNL     1      -1.991   6.752 -30.916  1.00  0.00    -0.021 A 
HETATM    8  C   UNL     1      -3.140   6.092 -30.469  1.00  0.00     0.013 A 
HETATM    9  C   UNL     1      -4.044   5.505 -31.368  1.00  0.00     0.016 A 
HETATM   10  C   UNL     1      -3.809   5.586 -32.758  1.00  0.00     0.008 A 
ENDROOT
BRANCH   1  11
HETATM   11  C   UNL     1      -5.777   4.441 -34.089  1.00  0.00     0.254 C 
HETATM   12  N   UNL     1      -5.723   3.079 -33.912  1.00  0.00    -0.353 N 
HETATM   13  H   UNL     1      -4.858   2.663 -33.605  1.00  0.00     0.163 HD
HETATM   14  O   UNL     1      -6.825   5.044 -34.301  1.00  0.00    -0.268 OA
BRANCH  12  15
HETATM   15  C   UNL     1      -6.901   2.253 -33.988  1.00  0.00     0.161 C 
BRANCH  15  16
HETATM   16  C   UNL     1      -6.540   0.790 -34.037  1.00  0.00    -0.037 A 
HETATM   17  C   UNL     1      -7.160  -0.060 -34.970  1.00  0.00     0.012 A 
HETATM   18  C   UNL     1      -6.824  -1.415 -35.032  1.00  0.00     0.046 A 
HETATM   19  C   UNL     1      -5.859  -1.921 -34.168  1.00  0.00     0.154 A 
HETATM   20  F   UNL     1      -5.539  -3.221 -34.229  1.00  0.00    -0.203 F 
HETATM   21  C   UNL     1      -5.229  -1.087 -33.253  1.00  0.00     0.155 A 
HETATM   22  C   UNL     1      -5.560   0.264 -33.183  1.00  0.00     0.054 A 
HETATM   23  F   UNL     1      -4.294  -1.576 -32.427  1.00  0.00    -0.203 F 
ENDBRANCH  15  16
ENDBRANCH  12  15
ENDBRANCH   1  11
BRANCH   7  24
HETATM   24  C   UNL     1      -1.064   7.363 -29.976  1.00  0.00     0.010 A 
HETATM   25  C   UNL     1      -1.267   8.363 -28.995  1.00  0.00     0.152 A 
HETATM   26  N   UNL     1      -0.150   8.674 -28.332  1.00  0.00    -0.187 NA
HETATM   27  N   UNL     1       0.776   7.879 -28.888  1.00  0.00    -0.289 N 
HETATM   28  H   UNL     1       1.730   7.939 -28.547  1.00  0.00     0.188 HD
HETATM   29  C   UNL     1       0.281   7.075 -29.875  1.00  0.00     0.123 A 
ENDBRANCH   7  24
TORSDOF 4
ENDMDL
MODEL 9
REMARK VINA RESULT:      -8.0      5.320      7.590
REMARK  4 active torsions:
REMARK  status: ('A' for Active; 'I' for Inactive)
REMARK    1  A    between atoms: C_5  and  C_6 
REMARK    2  A    between atoms: C_6  and  N_7 
REMARK       I    between atoms: N_7  and  C_8 
REMARK    3  A    between atoms: C_8  and  C_10 
REMARK    4  A    between atoms: C_16  and  C_20 
ROOT
HETATM    1  C   UNL     1      -6.394   3.203 -30.478  1.00  0.00     0.059 A 
HETATM    2  C   UNL     1      -7.708   2.937 -30.130  1.00  0.00     0.106 A 
HETATM    3  N   UNL     1      -8.097   1.774 -30.729  1.00  0.00    -0.364 N 
HETATM    4  H   UNL     1      -9.012   1.354 -30.646  1.00  0.00     0.165 HD
HETATM    5  C   UNL     1      -7.053   1.242 -31.448  1.00  0.00     0.044 A 
HETATM    6  C   UNL     1      -7.001   0.064 -32.210  1.00  0.00     0.042 A 
HETATM    7  C   UNL     1      -5.789  -0.285 -32.825  1.00  0.00    -0.021 A 
HETATM    8  C   UNL     1      -4.673   0.541 -32.657  1.00  0.00     0.013 A 
HETATM    9  C   UNL     1      -4.741   1.718 -31.894  1.00  0.00     0.016 A 
HETATM   10  C   UNL     1      -5.959   2.097 -31.290  1.00  0.00     0.008 A 
ENDROOT
BRANCH   1  11
HETATM   11  C   UNL     1      -5.683   4.399 -30.032  1.00  0.00     0.254 C 
HETATM   12  N   UNL     1      -5.083   5.123 -31.035  1.00  0.00    -0.353 N 
HETATM   13  H   UNL     1      -5.241   4.851 -31.993  1.00  0.00     0.163 HD
HETATM   14  O   UNL     1      -5.676   4.756 -28.858  1.00  0.00    -0.268 OA
BRANCH  12  15
HETATM   15  C   UNL     1      -4.375   6.350 -30.772  1.00  0.00     0.161 C 
BRANCH  15  16
HETATM   16  C   UNL     1      -2.883   6.151 -30.868  1.00  0.00    -0.037 A 
HETATM   17  C   UNL     1      -2.357   5.129 -31.677  1.00  0.00     0.012 A 
HETATM   18  C   UNL     1      -0.976   4.943 -31.783  1.00  0.00     0.046 A 
HETATM   19  C   UNL     1      -0.117   5.788 -31.088  1.00  0.00     0.154 A 
HETATM   20  F   UNL     1       1.207   5.607 -31.190  1.00  0.00    -0.203 F 
HETATM   21  C   UNL     1      -0.626   6.811 -30.297  1.00  0.00     0.155 A 
HETATM   22  C   UNL     1      -2.001   7.000 -30.185  1.00  0.00     0.054 A 
HETATM   23  F   UNL     1       0.204   7.627 -29.635  1.00  0.00    -0.203 F 
ENDBRANCH  15  16
ENDBRANCH  12  15
ENDBRANCH   1  11
BRANCH   7  24
HETATM   24  C   UNL     1      -5.710  -1.499 -33.622  1.00  0.00     0.010 A 
HETATM   25  C   UNL     1      -4.600  -2.307 -33.967  1.00  0.00     0.152 A 
HETATM   26  N   UNL     1      -4.934  -3.345 -34.740  1.00  0.00    -0.187 NA
HETATM   27  N   UNL     1      -6.259  -3.204 -34.898  1.00  0.00    -0.289 N 
HETATM   28  H   UNL     1      -6.750  -3.885 -35.465  1.00  0.00     0.188 HD
HETATM   29  C   UNL     1      -6.771  -2.117 -34.250  1.00  0.00     0.123 A 
ENDBRANCH   7  24
TORSDOF 4
ENDMDL
MODEL 10
REMARK VINA RESULT:      -7.8      4.214      8.317
REMARK  4 active torsions:
REMARK  status: ('A' for Active; 'I' for Inactive)
REMARK    1  A    between atoms: C_5  and  C_6 
REMARK    2  A    between atoms: C_6  and  N_7 
REMARK       I    between atoms: N_7  and  C_8 
REMARK    3  A    between atoms: C_8  and  C_10 
REMARK    4  A    between atoms: C_16  and  C_20 
ROOT
HETATM    1  C   UNL     1      -7.830   3.758 -33.670  1.00  0.00     0.059 A 
HETATM    2  C   UNL     1      -6.764   4.514 -33.213  1.00  0.00     0.106 A 
HETATM    3  N   UNL     1      -5.709   3.685 -32.964  1.00  0.00    -0.364 N 
HETATM    4  H   UNL     1      -4.807   3.979 -32.615  1.00  0.00     0.165 HD
HETATM    5  C   UNL     1      -6.044   2.389 -33.277  1.00  0.00     0.044 A 
HETATM    6  C   UNL     1      -5.271   1.220 -33.187  1.00  0.00     0.042 A 
HETATM    7  C   UNL     1      -5.836   0.008 -33.611  1.00  0.00    -0.021 A 
HETATM    8  C   UNL     1      -7.140   0.000 -34.116  1.00  0.00     0.013 A 
HETATM    9  C   UNL     1      -7.901   1.177 -34.198  1.00  0.00     0.016 A 
HETATM   10  C   UNL     1      -7.358   2.401 -33.752  1.00  0.00     0.008 A 
ENDROOT
BRANCH   1  11
HETATM   11  C   UNL     1      -9.132   4.337 -33.995  1.00  0.00     0.254 C 
HETATM   12  N   UNL     1     -10.168   3.916 -33.196  1.00  0.00    -0.353 N 
HETATM   13  H   UNL     1      -9.963   3.327 -32.404  1.00  0.00     0.163 HD
HETATM   14  O   UNL     1      -9.271   5.180 -34.876  1.00  0.00    -0.268 OA
BRANCH  12  15
HETATM   15  C   UNL     1     -11.508   4.420 -33.357  1.00  0.00     0.161 C 
BRANCH  15  16
HETATM   16  C   UNL     1     -12.492   3.298 -33.574  1.00  0.00    -0.037 A 
HETATM   17  C   UNL     1     -12.363   2.451 -34.690  1.00  0.00     0.012 A 
HETATM   18  C   UNL     1     -13.261   1.401 -34.895  1.00  0.00     0.046 A 
HETATM   19  C   UNL     1     -14.286   1.188 -33.979  1.00  0.00     0.154 A 
HETATM   20  F   UNL     1     -15.147   0.182 -34.179  1.00  0.00    -0.203 F 
HETATM   21  C   UNL     1     -14.414   2.010 -32.866  1.00  0.00     0.155 A 
HETATM   22  C   UNL     1     -13.524   3.060 -32.655  1.00  0.00     0.054 A 
HETATM   23  F   UNL     1     -15.398   1.798 -31.982  1.00  0.00    -0.203 F 
ENDBRANCH  15  16
ENDBRANCH  12  15
ENDBRANCH   1  11
BRANCH   7  24
HETATM   24  C   UNL     1      -5.059  -1.218 -33.525  1.00  0.00     0.010 A 
HETATM   25  C   UNL     1      -5.050  -2.367 -34.351  1.00  0.00     0.152 A 
HETATM   26  N   UNL     1      -4.197  -3.304 -33.928  1.00  0.00    -0.187 NA
HETATM   27  N   UNL     1      -3.657  -2.762 -32.826  1.00  0.00    -0.289 N 
HETATM   28  H   UNL     1      -2.968  -3.300 -32.313  1.00  0.00     0.188 HD
HETATM   29  C   UNL     1      -4.139  -1.516 -32.542  1.00  0.00     0.123 A 
ENDBRANCH   7  24
TORSDOF 4
ENDMDL
