MODEL 1
REMARK VINA RESULT:      -8.1      0.000      0.000
REMARK  7 active torsions:
REMARK  status: ('A' for Active; 'I' for Inactive)
REMARK    1  A    between atoms: C_2  and  N_3 
REMARK    2  A    between atoms: C_2  and  C_17 
REMARK       I    between atoms: N_3  and  C_4 
REMARK    3  A    between atoms: C_4  and  C_5 
REMARK    4  A    between atoms: C_7  and  N_8 
REMARK    5  A    between atoms: C_17  and  O_18 
REMARK    6  A    between atoms: C_17  and  C_19 
REMARK    7  A    between atoms: C_22  and  O_23 
ROOT
HETATM    1  N   UNL     1      -4.904   2.869 -31.918  1.00  0.00    -0.349 N 
HETATM    2  C   UNL     1      -4.793   3.614 -33.071  1.00  0.00     0.270 C 
HETATM    3  O   UNL     1      -5.664   3.681 -33.930  1.00  0.00    -0.266 OA
HETATM    4  H   UNL     1      -4.120   2.925 -31.273  1.00  0.00     0.163 HD
ENDROOT
BRANCH   1   5
HETATM    5  C   UNL     1      -6.060   2.045 -31.569  1.00  0.00     0.114 C 
HETATM    6  C   UNL     1      -6.956   2.786 -30.572  1.00  0.00     0.035 C 
BRANCH   5   7
HETATM    7  C   UNL     1      -5.701   0.613 -31.068  1.00  0.00     0.173 C 
BRANCH   7   8
HETATM    8  O   UNL     1      -6.676   0.161 -30.117  1.00  0.00    -0.389 OA
HETATM    9  H   UNL     1      -7.526   0.540 -30.398  1.00  0.00     0.210 HD
ENDBRANCH   7   8
BRANCH   7  10
HETATM   10  C   UNL     1      -5.645  -0.401 -32.198  1.00  0.00    -0.028 A 
HETATM   11  C   UNL     1      -6.774  -0.623 -32.998  1.00  0.00     0.012 A 
HETATM   12  C   UNL     1      -6.738  -1.559 -34.035  1.00  0.00     0.037 A 
HETATM   13  C   UNL     1      -5.575  -2.284 -34.299  1.00  0.00     0.068 A 
HETATM   14  C   UNL     1      -4.449  -2.079 -33.503  1.00  0.00     0.037 A 
HETATM   15  C   UNL     1      -4.486  -1.148 -32.459  1.00  0.00     0.012 A 
BRANCH  13  16
HETATM   16  O   UNL     1      -5.670  -3.156 -35.350  1.00  0.00    -0.356 OA
HETATM   17  C   UNL     1      -6.153  -4.460 -35.053  1.00  0.00     0.210 C 
ENDBRANCH  13  16
ENDBRANCH   7  10
ENDBRANCH   5   7
ENDBRANCH   1   5
BRANCH   2  18
HETATM   18  C   UNL     1      -3.506   4.373 -33.198  1.00  0.00     0.126 A 
HETATM   19  N   UNL     1      -2.779   4.520 -32.055  1.00  0.00    -0.224 NA
HETATM   20  C   UNL     1      -1.607   5.205 -32.164  1.00  0.00     0.151 A 
HETATM   21  C   UNL     1      -1.158   5.751 -33.368  1.00  0.00     0.052 A 
HETATM   22  C   UNL     1      -1.931   5.584 -34.514  1.00  0.00     0.006 A 
HETATM   23  C   UNL     1      -3.126   4.878 -34.434  1.00  0.00     0.037 A 
BRANCH  20  24
HETATM   24  N   UNL     1      -0.801   5.356 -30.995  1.00  0.00    -0.227 N 
HETATM   25  N   UNL     1       0.247   4.532 -30.716  1.00  0.00    -0.179 NA
HETATM   26  C   UNL     1       0.725   4.982 -29.555  1.00  0.00     0.141 A 
HETATM   27  C   UNL     1       0.010   6.086 -29.067  1.00  0.00     0.040 A 
HETATM   28  C   UNL     1      -0.964   6.309 -30.010  1.00  0.00     0.122 A 
ENDBRANCH  20  24
ENDBRANCH   2  18
TORSDOF 7
ENDMDL
MODEL 2
REMARK VINA RESULT:      -7.9      2.006      3.203
REMARK  7 active torsions:
REMARK  status: ('A' for Active; 'I' for Inactive)
REMARK    1  A    between atoms: C_2  and  N_3 
REMARK    2  A    between atoms: C_2  and  C_17 
REMARK       I    between atoms: N_3  and  C_4 
REMARK    3  A    between atoms: C_4  and  C_5 
REMARK    4  A    between atoms: C_7  and  N_8 
REMARK    5  A    between atoms: C_17  and  O_18 
REMARK    6  A    between atoms: C_17  and  C_19 
REMARK    7  A    between atoms: C_22  and  O_23 
ROOT
HETATM    1  N   UNL     1      -3.375   0.994 -32.523  1.00  0.00    -0.349 N 
HETATM    2  C   UNL     1      -3.912   2.217 -32.186  1.00  0.00     0.270 C 
HETATM    3  O   UNL     1      -5.032   2.366 -31.711  1.00  0.00    -0.266 OA
HETATM    4  H   UNL     1      -2.424   1.008 -32.880  1.00  0.00     0.163 HD
ENDROOT
BRANCH   1   5
HETATM    5  C   UNL     1      -4.068  -0.285 -32.383  1.00  0.00     0.114 C 
HETATM    6  C   UNL     1      -3.115  -1.342 -31.814  1.00  0.00     0.035 C 
BRANCH   5   7
HETATM    7  C   UNL     1      -4.771  -0.782 -33.683  1.00  0.00     0.173 C 
BRANCH   7   8
HETATM    8  O   UNL     1      -4.733  -2.215 -33.751  1.00  0.00    -0.389 OA
HETATM    9  H   UNL     1      -4.553  -2.439 -34.680  1.00  0.00     0.210 HD
ENDBRANCH   7   8
BRANCH   7  10
HETATM   10  C   UNL     1      -6.225  -0.349 -33.760  1.00  0.00    -0.028 A 
HETATM   11  C   UNL     1      -7.004  -0.298 -32.596  1.00  0.00     0.012 A 
HETATM   12  C   UNL     1      -8.345   0.090 -32.654  1.00  0.00     0.037 A 
HETATM   13  C   UNL     1      -8.931   0.445 -33.870  1.00  0.00     0.068 A 
HETATM   14  C   UNL     1      -8.168   0.388 -35.035  1.00  0.00     0.037 A 
HETATM   15  C   UNL     1      -6.827  -0.009 -34.980  1.00  0.00     0.012 A 
BRANCH  13  16
HETATM   16  O   UNL     1     -10.245   0.819 -33.786  1.00  0.00    -0.356 OA
HETATM   17  C   UNL     1     -10.593   2.059 -34.387  1.00  0.00     0.210 C 
ENDBRANCH  13  16
ENDBRANCH   7  10
ENDBRANCH   5   7
ENDBRANCH   1   5
BRANCH   2  18
HETATM   18  C   UNL     1      -3.001   3.383 -32.427  1.00  0.00     0.126 A 
HETATM   19  N   UNL     1      -2.241   3.782 -31.368  1.00  0.00    -0.224 NA
HETATM   20  C   UNL     1      -1.408   4.837 -31.583  1.00  0.00     0.151 A 
HETATM   21  C   UNL     1      -1.327   5.504 -32.807  1.00  0.00     0.052 A 
HETATM   22  C   UNL     1      -2.124   5.070 -33.864  1.00  0.00     0.006 A 
HETATM   23  C   UNL     1      -2.975   3.986 -33.677  1.00  0.00     0.037 A 
BRANCH  20  24
HETATM   24  N   UNL     1      -0.572   5.267 -30.507  1.00  0.00    -0.227 N 
HETATM   25  N   UNL     1       0.417   4.485 -29.990  1.00  0.00    -0.179 NA
HETATM   26  C   UNL     1       0.947   5.224 -29.013  1.00  0.00     0.141 A 
HETATM   27  C   UNL     1       0.325   6.474 -28.880  1.00  0.00     0.040 A 
HETATM   28  C   UNL     1      -0.646   6.479 -29.851  1.00  0.00     0.122 A 
ENDBRANCH  20  24
ENDBRANCH   2  18
TORSDOF 7
ENDMDL
MODEL 3
REMARK VINA RESULT:      -7.7      4.123      7.563
REMARK  7 active torsions:
REMARK  status: ('A' for Active; 'I' for Inactive)
REMARK    1  A    between atoms: C_2  and  N_3 
REMARK    2  A    between atoms: C_2  and  C_17 
REMARK       I    between atoms: N_3  and  C_4 
REMARK    3  A    between atoms: C_4  and  C_5 
REMARK    4  A    between atoms: C_7  and  N_8 
REMARK    5  A    between atoms: C_17  and  O_18 
REMARK    6  A    between atoms: C_17  and  C_19 
REMARK    7  A    between atoms: C_22  and  O_23 
ROOT
HETATM    1  N   UNL     1      -6.811   2.166 -32.280  1.00  0.00    -0.349 N 
HETATM    2  C   UNL     1      -8.037   2.529 -31.769  1.00  0.00     0.270 C 
HETATM    3  O   UNL     1      -8.283   2.614 -30.572  1.00  0.00    -0.266 OA
HETATM    4  H   UNL     1      -6.733   2.164 -33.293  1.00  0.00     0.163 HD
ENDROOT
BRANCH   1   5
HETATM    5  C   UNL     1      -5.645   1.815 -31.472  1.00  0.00     0.114 C 
HETATM    6  C   UNL     1      -4.358   2.228 -32.193  1.00  0.00     0.035 C 
BRANCH   5   7
HETATM    7  C   UNL     1      -5.600   0.323 -31.022  1.00  0.00     0.173 C 
BRANCH   7   8
HETATM    8  O   UNL     1      -6.753   0.010 -30.225  1.00  0.00    -0.389 OA
HETATM    9  H   UNL     1      -7.527   0.185 -30.787  1.00  0.00     0.210 HD
ENDBRANCH   7   8
BRANCH   7  10
HETATM   10  C   UNL     1      -5.570  -0.638 -32.197  1.00  0.00    -0.028 A 
HETATM   11  C   UNL     1      -6.715  -0.819 -32.985  1.00  0.00     0.012 A 
HETATM   12  C   UNL     1      -6.702  -1.707 -34.064  1.00  0.00     0.037 A 
HETATM   13  C   UNL     1      -5.548  -2.422 -34.384  1.00  0.00     0.068 A 
HETATM   14  C   UNL     1      -4.406  -2.257 -33.601  1.00  0.00     0.037 A 
HETATM   15  C   UNL     1      -4.419  -1.375 -32.515  1.00  0.00     0.012 A 
BRANCH  13  16
HETATM   16  O   UNL     1      -5.666  -3.245 -35.472  1.00  0.00    -0.356 OA
HETATM   17  C   UNL     1      -6.204  -4.540 -35.235  1.00  0.00     0.210 C 
ENDBRANCH  13  16
ENDBRANCH   7  10
ENDBRANCH   5   7
ENDBRANCH   1   5
BRANCH   2  18
HETATM   18  C   UNL     1      -9.074   2.840 -32.806  1.00  0.00     0.126 A 
HETATM   19  N   UNL     1     -10.147   2.002 -32.856  1.00  0.00    -0.224 NA
HETATM   20  C   UNL     1     -11.094   2.283 -33.793  1.00  0.00     0.151 A 
HETATM   21  C   UNL     1     -10.990   3.357 -34.679  1.00  0.00     0.052 A 
HETATM   22  C   UNL     1      -9.876   4.189 -34.600  1.00  0.00     0.006 A 
HETATM   23  C   UNL     1      -8.899   3.933 -33.645  1.00  0.00     0.037 A 
BRANCH  20  24
HETATM   24  N   UNL     1     -12.250   1.444 -33.858  1.00  0.00    -0.227 N 
HETATM   25  N   UNL     1     -12.230   0.138 -33.472  1.00  0.00    -0.179 NA
HETATM   26  C   UNL     1     -13.473  -0.293 -33.694  1.00  0.00     0.141 A 
HETATM   27  C   UNL     1     -14.307   0.706 -34.218  1.00  0.00     0.040 A 
HETATM   28  C   UNL     1     -13.500   1.813 -34.313  1.00  0.00     0.122 A 
ENDBRANCH  20  24
ENDBRANCH   2  18
TORSDOF 7
ENDMDL
MODEL 4
REMARK VINA RESULT:      -7.7      5.062      7.686
REMARK  7 active torsions:
REMARK  status: ('A' for Active; 'I' for Inactive)
REMARK    1  A    between atoms: C_2  and  N_3 
REMARK    2  A    between atoms: C_2  and  C_17 
REMARK       I    between atoms: N_3  and  C_4 
REMARK    3  A    between atoms: C_4  and  C_5 
REMARK    4  A    between atoms: C_7  and  N_8 
REMARK    5  A    between atoms: C_17  and  O_18 
REMARK    6  A    between atoms: C_17  and  C_19 
REMARK    7  A    between atoms: C_22  and  O_23 
ROOT
HETATM    1  N   UNL     1      -8.629   1.534 -33.125  1.00  0.00    -0.349 N 
HETATM    2  C   UNL     1      -9.845   0.888 -33.169  1.00  0.00     0.270 C 
HETATM    3  O   UNL     1     -10.060  -0.202 -32.653  1.00  0.00    -0.266 OA
HETATM    4  H   UNL     1      -8.594   2.449 -33.568  1.00  0.00     0.163 HD
ENDROOT
BRANCH   1   5
HETATM    5  C   UNL     1      -7.429   1.004 -32.481  1.00  0.00     0.114 C 
HETATM    6  C   UNL     1      -7.108   1.811 -31.218  1.00  0.00     0.035 C 
BRANCH   5   7
HETATM    7  C   UNL     1      -6.192   0.888 -33.422  1.00  0.00     0.173 C 
BRANCH   7   8
HETATM    8  O   UNL     1      -5.046   1.500 -32.813  1.00  0.00    -0.389 OA
HETATM    9  H   UNL     1      -5.148   1.377 -31.854  1.00  0.00     0.210 HD
ENDBRANCH   7   8
BRANCH   7  10
HETATM   10  C   UNL     1      -5.836  -0.554 -33.740  1.00  0.00    -0.028 A 
HETATM   11  C   UNL     1      -4.577  -1.060 -33.390  1.00  0.00     0.012 A 
HETATM   12  C   UNL     1      -4.235  -2.382 -33.685  1.00  0.00     0.037 A 
HETATM   13  C   UNL     1      -5.144  -3.227 -34.323  1.00  0.00     0.068 A 
HETATM   14  C   UNL     1      -6.396  -2.732 -34.684  1.00  0.00     0.037 A 
HETATM   15  C   UNL     1      -6.737  -1.405 -34.398  1.00  0.00     0.012 A 
BRANCH  13  16
HETATM   16  O   UNL     1      -4.689  -4.500 -34.540  1.00  0.00    -0.356 OA
HETATM   17  C   UNL     1      -3.573  -4.918 -33.763  1.00  0.00     0.210 C 
ENDBRANCH  13  16
ENDBRANCH   7  10
ENDBRANCH   5   7
ENDBRANCH   1   5
BRANCH   2  18
HETATM   18  C   UNL     1     -10.921   1.640 -33.893  1.00  0.00     0.126 A 
HETATM   19  N   UNL     1     -10.648   2.940 -34.197  1.00  0.00    -0.224 NA
HETATM   20  C   UNL     1     -11.620   3.626 -34.858  1.00  0.00     0.151 A 
HETATM   21  C   UNL     1     -12.847   3.058 -35.205  1.00  0.00     0.052 A 
HETATM   22  C   UNL     1     -13.092   1.728 -34.873  1.00  0.00     0.006 A 
HETATM   23  C   UNL     1     -12.111   0.999 -34.209  1.00  0.00     0.037 A 
BRANCH  20  24
HETATM   24  N   UNL     1     -11.361   4.984 -35.221  1.00  0.00    -0.227 N 
HETATM   25  N   UNL     1     -10.103   5.452 -35.452  1.00  0.00    -0.179 NA
HETATM   26  C   UNL     1     -10.278   6.743 -35.744  1.00  0.00     0.141 A 
HETATM   27  C   UNL     1     -11.626   7.128 -35.710  1.00  0.00     0.040 A 
HETATM   28  C   UNL     1     -12.303   5.981 -35.373  1.00  0.00     0.122 A 
ENDBRANCH  20  24
ENDBRANCH   2  18
TORSDOF 7
ENDMDL
MODEL 5
REMARK VINA RESULT:      -7.5      1.699      2.273
REMARK  7 active torsions:
REMARK  status: ('A' for Active; 'I' for Inactive)
REMARK    1  A    between atoms: C_2  and  N_3 
REMARK    2  A    between atoms: C_2  and  C_17 
REMARK       I    between atoms: N_3  and  C_4 
REMARK    3  A    between atoms: C_4  and  C_5 
REMARK    4  A    between atoms: C_7  and  N_8 
REMARK    5  A    between atoms: C_17  and  O_18 
REMARK    6  A    between atoms: C_17  and  C_19 
REMARK    7  A    between atoms: C_22  and  O_23 
ROOT
HETATM    1  N   UNL     1      -5.117   3.659 -32.584  1.00  0.00    -0.349 N 
HETATM    2  C   UNL     1      -4.945   4.494 -33.666  1.00  0.00     0.270 C 
HETATM    3  O   UNL     1      -5.742   4.589 -34.592  1.00  0.00    -0.266 OA
HETATM    4  H   UNL     1      -4.395   3.699 -31.870  1.00  0.00     0.163 HD
ENDROOT
BRANCH   1   5
HETATM    5  C   UNL     1      -6.256   2.760 -32.401  1.00  0.00     0.114 C 
HETATM    6  C   UNL     1      -7.425   3.514 -31.758  1.00  0.00     0.035 C 
BRANCH   5   7
HETATM    7  C   UNL     1      -5.921   1.447 -31.630  1.00  0.00     0.173 C 
BRANCH   7   8
HETATM    8  O   UNL     1      -6.905   1.204 -30.614  1.00  0.00    -0.389 OA
HETATM    9  H   UNL     1      -6.536   0.515 -30.037  1.00  0.00     0.210 HD
ENDBRANCH   7   8
BRANCH   7  10
HETATM   10  C   UNL     1      -5.881   0.232 -32.541  1.00  0.00    -0.028 A 
HETATM   11  C   UNL     1      -4.654  -0.370 -32.852  1.00  0.00     0.012 A 
HETATM   12  C   UNL     1      -4.603  -1.483 -33.695  1.00  0.00     0.037 A 
HETATM   13  C   UNL     1      -5.771  -2.022 -34.235  1.00  0.00     0.068 A 
HETATM   14  C   UNL     1      -6.996  -1.425 -33.940  1.00  0.00     0.037 A 
HETATM   15  C   UNL     1      -7.048  -0.305 -33.102  1.00  0.00     0.012 A 
BRANCH  13  16
HETATM   16  O   UNL     1      -5.582  -3.119 -35.031  1.00  0.00    -0.356 OA
HETATM   17  C   UNL     1      -6.594  -4.118 -34.990  1.00  0.00     0.210 C 
ENDBRANCH  13  16
ENDBRANCH   7  10
ENDBRANCH   5   7
ENDBRANCH   1   5
BRANCH   2  18
HETATM   18  C   UNL     1      -3.692   5.316 -33.621  1.00  0.00     0.126 A 
HETATM   19  N   UNL     1      -3.609   6.234 -32.617  1.00  0.00    -0.224 NA
HETATM   20  C   UNL     1      -2.471   6.980 -32.569  1.00  0.00     0.151 A 
HETATM   21  C   UNL     1      -1.435   6.844 -33.495  1.00  0.00     0.052 A 
HETATM   22  C   UNL     1      -1.559   5.899 -34.510  1.00  0.00     0.006 A 
HETATM   23  C   UNL     1      -2.705   5.114 -34.576  1.00  0.00     0.037 A 
BRANCH  20  24
HETATM   24  N   UNL     1      -2.333   7.932 -31.513  1.00  0.00    -0.227 N 
HETATM   25  N   UNL     1      -2.708   9.235 -31.649  1.00  0.00    -0.179 NA
HETATM   26  C   UNL     1      -2.410   9.790 -30.472  1.00  0.00     0.141 A 
HETATM   27  C   UNL     1      -1.848   8.876 -29.569  1.00  0.00     0.040 A 
HETATM   28  C   UNL     1      -1.810   7.689 -30.259  1.00  0.00     0.122 A 
ENDBRANCH  20  24
ENDBRANCH   2  18
TORSDOF 7
ENDMDL
MODEL 6
REMARK VINA RESULT:      -7.3     16.693     18.504
REMARK  7 active torsions:
REMARK  status: ('A' for Active; 'I' for Inactive)
REMARK    1  A    between atoms: C_2  and  N_3 
REMARK    2  A    between atoms: C_2  and  C_17 
REMARK       I    between atoms: N_3  and  C_4 
REMARK    3  A    between atoms: C_4  and  C_5 
REMARK    4  A    between atoms: C_7  and  N_8 
REMARK    5  A    between atoms: C_17  and  O_18 
REMARK    6  A    between atoms: C_17  and  C_19 
REMARK    7  A    between atoms: C_22  and  O_23 
ROOT
HETATM    1  N   UNL     1      -4.350 -13.974 -37.224  1.00  0.00    -0.349 N 
HETATM    2  C   UNL     1      -3.788 -12.983 -37.999  1.00  0.00     0.270 C 
HETATM    3  O   UNL     1      -4.039 -11.790 -37.874  1.00  0.00    -0.266 OA
HETATM    4  H   UNL     1      -4.032 -14.921 -37.411  1.00  0.00     0.163 HD
ENDROOT
BRANCH   1   5
HETATM    5  C   UNL     1      -5.333 -13.745 -36.168  1.00  0.00     0.114 C 
HETATM    6  C   UNL     1      -4.659 -13.819 -34.794  1.00  0.00     0.035 C 
BRANCH   5   7
HETATM    7  C   UNL     1      -6.588 -14.667 -36.245  1.00  0.00     0.173 C 
BRANCH   7   8
HETATM    8  O   UNL     1      -7.322 -14.610 -35.013  1.00  0.00    -0.389 OA
HETATM    9  H   UNL     1      -7.910 -15.384 -35.011  1.00  0.00     0.210 HD
ENDBRANCH   7   8
BRANCH   7  10
HETATM   10  C   UNL     1      -7.530 -14.274 -37.369  1.00  0.00    -0.028 A 
HETATM   11  C   UNL     1      -7.601 -12.939 -37.790  1.00  0.00     0.012 A 
HETATM   12  C   UNL     1      -8.471 -12.563 -38.818  1.00  0.00     0.037 A 
HETATM   13  C   UNL     1      -9.276 -13.510 -39.451  1.00  0.00     0.068 A 
HETATM   14  C   UNL     1      -9.221 -14.839 -39.034  1.00  0.00     0.037 A 
HETATM   15  C   UNL     1      -8.357 -15.216 -37.999  1.00  0.00     0.012 A 
BRANCH  13  16
HETATM   16  O   UNL     1     -10.070 -13.012 -40.449  1.00  0.00    -0.356 OA
HETATM   17  C   UNL     1     -10.400 -11.632 -40.371  1.00  0.00     0.210 C 
ENDBRANCH  13  16
ENDBRANCH   7  10
ENDBRANCH   5   7
ENDBRANCH   1   5
BRANCH   2  18
HETATM   18  C   UNL     1      -2.806 -13.476 -39.019  1.00  0.00     0.126 A 
HETATM   19  N   UNL     1      -3.332 -13.936 -40.189  1.00  0.00    -0.224 NA
HETATM   20  C   UNL     1      -2.444 -14.380 -41.121  1.00  0.00     0.151 A 
HETATM   21  C   UNL     1      -1.064 -14.389 -40.910  1.00  0.00     0.052 A 
HETATM   22  C   UNL     1      -0.564 -13.915 -39.699  1.00  0.00     0.006 A 
HETATM   23  C   UNL     1      -1.447 -13.444 -38.734  1.00  0.00     0.037 A 
BRANCH  20  24
HETATM   24  N   UNL     1      -2.954 -14.843 -42.372  1.00  0.00    -0.227 N 
HETATM   25  N   UNL     1      -3.881 -14.148 -43.088  1.00  0.00    -0.179 NA
HETATM   26  C   UNL     1      -4.104 -14.903 -44.165  1.00  0.00     0.141 A 
HETATM   27  C   UNL     1      -3.339 -16.079 -44.169  1.00  0.00     0.040 A 
HETATM   28  C   UNL     1      -2.608 -16.018 -43.009  1.00  0.00     0.122 A 
ENDBRANCH  20  24
ENDBRANCH   2  18
TORSDOF 7
ENDMDL
MODEL 7
REMARK VINA RESULT:      -7.3      2.229      3.238
REMARK  7 active torsions:
REMARK  status: ('A' for Active; 'I' for Inactive)
REMARK    1  A    between atoms: C_2  and  N_3 
REMARK    2  A    between atoms: C_2  and  C_17 
REMARK       I    between atoms: N_3  and  C_4 
REMARK    3  A    between atoms: C_4  and  C_5 
REMARK    4  A    between atoms: C_7  and  N_8 
REMARK    5  A    between atoms: C_17  and  O_18 
REMARK    6  A    between atoms: C_17  and  C_19 
REMARK    7  A    between atoms: C_22  and  O_23 
ROOT
HETATM    1  N   UNL     1      -7.591   3.136 -32.888  1.00  0.00    -0.349 N 
HETATM    2  C   UNL     1      -6.637   4.000 -33.378  1.00  0.00     0.270 C 
HETATM    3  O   UNL     1      -6.860   4.861 -34.221  1.00  0.00    -0.266 OA
HETATM    4  H   UNL     1      -7.279   2.489 -32.168  1.00  0.00     0.163 HD
ENDROOT
BRANCH   1   5
HETATM    5  C   UNL     1      -8.988   3.112 -33.315  1.00  0.00     0.114 C 
HETATM    6  C   UNL     1      -9.878   3.757 -32.248  1.00  0.00     0.035 C 
BRANCH   5   7
HETATM    7  C   UNL     1      -9.510   1.702 -33.726  1.00  0.00     0.173 C 
BRANCH   7   8
HETATM    8  O   UNL     1     -10.175   1.770 -34.996  1.00  0.00    -0.389 OA
HETATM    9  H   UNL     1      -9.693   1.168 -35.589  1.00  0.00     0.210 HD
ENDBRANCH   7   8
BRANCH   7  10
HETATM   10  C   UNL     1      -8.394   0.678 -33.838  1.00  0.00    -0.028 A 
HETATM   11  C   UNL     1      -7.910   0.303 -35.099  1.00  0.00     0.012 A 
HETATM   12  C   UNL     1      -6.889  -0.644 -35.216  1.00  0.00     0.037 A 
HETATM   13  C   UNL     1      -6.325  -1.226 -34.080  1.00  0.00     0.068 A 
HETATM   14  C   UNL     1      -6.805  -0.868 -32.822  1.00  0.00     0.037 A 
HETATM   15  C   UNL     1      -7.834   0.074 -32.703  1.00  0.00     0.012 A 
BRANCH  13  16
HETATM   16  O   UNL     1      -5.325  -2.126 -34.334  1.00  0.00    -0.356 OA
HETATM   17  C   UNL     1      -4.238  -2.145 -33.417  1.00  0.00     0.210 C 
ENDBRANCH  13  16
ENDBRANCH   7  10
ENDBRANCH   5   7
ENDBRANCH   1   5
BRANCH   2  18
HETATM   18  C   UNL     1      -5.274   3.824 -32.780  1.00  0.00     0.126 A 
HETATM   19  N   UNL     1      -4.450   4.909 -32.827  1.00  0.00    -0.224 NA
HETATM   20  C   UNL     1      -3.213   4.756 -32.281  1.00  0.00     0.151 A 
HETATM   21  C   UNL     1      -2.778   3.559 -31.709  1.00  0.00     0.052 A 
HETATM   22  C   UNL     1      -3.646   2.470 -31.684  1.00  0.00     0.006 A 
HETATM   23  C   UNL     1      -4.921   2.601 -32.224  1.00  0.00     0.037 A 
BRANCH  20  24
HETATM   24  N   UNL     1      -2.330   5.879 -32.284  1.00  0.00    -0.227 N 
HETATM   25  N   UNL     1      -2.741   7.133 -32.621  1.00  0.00    -0.179 NA
HETATM   26  C   UNL     1      -1.642   7.883 -32.516  1.00  0.00     0.141 A 
HETATM   27  C   UNL     1      -0.518   7.143 -32.117  1.00  0.00     0.040 A 
HETATM   28  C   UNL     1      -0.985   5.860 -31.973  1.00  0.00     0.122 A 
ENDBRANCH  20  24
ENDBRANCH   2  18
TORSDOF 7
ENDMDL
MODEL 8
REMARK VINA RESULT:      -7.2      2.990      8.747
REMARK  7 active torsions:
REMARK  status: ('A' for Active; 'I' for Inactive)
REMARK    1  A    between atoms: C_2  and  N_3 
REMARK    2  A    between atoms: C_2  and  C_17 
REMARK       I    between atoms: N_3  and  C_4 
REMARK    3  A    between atoms: C_4  and  C_5 
REMARK    4  A    between atoms: C_7  and  N_8 
REMARK    5  A    between atoms: C_17  and  O_18 
REMARK    6  A    between atoms: C_17  and  C_19 
REMARK    7  A    between atoms: C_22  and  O_23 
ROOT
HETATM    1  N   UNL     1      -5.282   3.009 -32.409  1.00  0.00    -0.349 N 
HETATM    2  C   UNL     1      -4.814   1.727 -32.592  1.00  0.00     0.270 C 
HETATM    3  O   UNL     1      -3.793   1.288 -32.075  1.00  0.00    -0.266 OA
HETATM    4  H   UNL     1      -6.158   3.235 -32.872  1.00  0.00     0.163 HD
ENDROOT
BRANCH   1   5
HETATM    5  C   UNL     1      -4.619   4.026 -31.595  1.00  0.00     0.114 C 
HETATM    6  C   UNL     1      -5.617   4.645 -30.610  1.00  0.00     0.035 C 
BRANCH   5   7
HETATM    7  C   UNL     1      -3.866   5.117 -32.416  1.00  0.00     0.173 C 
BRANCH   7   8
HETATM    8  O   UNL     1      -4.757   6.192 -32.747  1.00  0.00    -0.389 OA
HETATM    9  H   UNL     1      -4.439   6.970 -32.257  1.00  0.00     0.210 HD
ENDBRANCH   7   8
BRANCH   7  10
HETATM   10  C   UNL     1      -2.687   5.703 -31.659  1.00  0.00    -0.028 A 
HETATM   11  C   UNL     1      -1.508   4.961 -31.513  1.00  0.00     0.012 A 
HETATM   12  C   UNL     1      -0.419   5.486 -30.812  1.00  0.00     0.037 A 
HETATM   13  C   UNL     1      -0.481   6.763 -30.253  1.00  0.00     0.068 A 
HETATM   14  C   UNL     1      -1.653   7.506 -30.383  1.00  0.00     0.037 A 
HETATM   15  C   UNL     1      -2.748   6.979 -31.077  1.00  0.00     0.012 A 
BRANCH  13  16
HETATM   16  O   UNL     1       0.657   7.162 -29.606  1.00  0.00    -0.356 OA
HETATM   17  C   UNL     1       0.482   7.964 -28.445  1.00  0.00     0.210 C 
ENDBRANCH  13  16
ENDBRANCH   7  10
ENDBRANCH   5   7
ENDBRANCH   1   5
BRANCH   2  18
HETATM   18  C   UNL     1      -5.674   0.873 -33.476  1.00  0.00     0.126 A 
HETATM   19  N   UNL     1      -5.326  -0.442 -33.567  1.00  0.00    -0.224 NA
HETATM   20  C   UNL     1      -6.106  -1.222 -34.363  1.00  0.00     0.151 A 
HETATM   21  C   UNL     1      -7.201  -0.727 -35.074  1.00  0.00     0.052 A 
HETATM   22  C   UNL     1      -7.522   0.624 -34.960  1.00  0.00     0.006 A 
HETATM   23  C   UNL     1      -6.750   1.442 -34.142  1.00  0.00     0.037 A 
BRANCH  20  24
HETATM   24  N   UNL     1      -5.792  -2.613 -34.462  1.00  0.00    -0.227 N 
HETATM   25  N   UNL     1      -4.574  -3.115 -34.115  1.00  0.00    -0.179 NA
HETATM   26  C   UNL     1      -4.673  -4.423 -34.359  1.00  0.00     0.141 A 
HETATM   27  C   UNL     1      -5.932  -4.787 -34.860  1.00  0.00     0.040 A 
HETATM   28  C   UNL     1      -6.634  -3.608 -34.916  1.00  0.00     0.122 A 
ENDBRANCH  20  24
ENDBRANCH   2  18
TORSDOF 7
ENDMDL
MODEL 9
REMARK VINA RESULT:      -7.2      3.214      9.091
REMARK  7 active torsions:
REMARK  status: ('A' for Active; 'I' for Inactive)
REMARK    1  A    between atoms: C_2  and  N_3 
REMARK    2  A    between atoms: C_2  and  C_17 
REMARK       I    between atoms: N_3  and  C_4 
REMARK    3  A    between atoms: C_4  and  C_5 
REMARK    4  A    between atoms: C_7  and  N_8 
REMARK    5  A    between atoms: C_17  and  O_18 
REMARK    6  A    between atoms: C_17  and  C_19 
REMARK    7  A    between atoms: C_22  and  O_23 
ROOT
HETATM    1  N   UNL     1      -2.559   4.049 -31.206  1.00  0.00    -0.349 N 
HETATM    2  C   UNL     1      -3.919   4.252 -31.270  1.00  0.00     0.270 C 
HETATM    3  O   UNL     1      -4.441   5.339 -31.487  1.00  0.00    -0.266 OA
HETATM    4  H   UNL     1      -2.257   3.091 -31.050  1.00  0.00     0.163 HD
ENDROOT
BRANCH   1   5
HETATM    5  C   UNL     1      -1.554   5.099 -31.364  1.00  0.00     0.114 C 
HETATM    6  C   UNL     1      -1.121   5.198 -32.831  1.00  0.00     0.035 C 
BRANCH   5   7
HETATM    7  C   UNL     1      -0.329   4.967 -30.408  1.00  0.00     0.173 C 
BRANCH   7   8
HETATM    8  O   UNL     1       0.880   4.824 -31.168  1.00  0.00    -0.389 OA
HETATM    9  H   UNL     1       1.583   5.241 -30.642  1.00  0.00     0.210 HD
ENDBRANCH   7   8
BRANCH   7  10
HETATM   10  C   UNL     1      -0.169   6.172 -29.498  1.00  0.00    -0.028 A 
HETATM   11  C   UNL     1      -0.907   7.338 -29.742  1.00  0.00     0.012 A 
HETATM   12  C   UNL     1      -0.763   8.457 -28.917  1.00  0.00     0.037 A 
HETATM   13  C   UNL     1       0.110   8.430 -27.829  1.00  0.00     0.068 A 
HETATM   14  C   UNL     1       0.856   7.279 -27.582  1.00  0.00     0.037 A 
HETATM   15  C   UNL     1       0.719   6.161 -28.413  1.00  0.00     0.012 A 
BRANCH  13  16
HETATM   16  O   UNL     1       0.146   9.585 -27.095  1.00  0.00    -0.356 OA
HETATM   17  C   UNL     1      -1.017  10.402 -27.137  1.00  0.00     0.210 C 
ENDBRANCH  13  16
ENDBRANCH   7  10
ENDBRANCH   5   7
ENDBRANCH   1   5
BRANCH   2  18
HETATM   18  C   UNL     1      -4.741   3.013 -31.073  1.00  0.00     0.126 A 
HETATM   19  N   UNL     1      -4.355   1.914 -31.780  1.00  0.00    -0.224 NA
HETATM   20  C   UNL     1      -5.094   0.786 -31.601  1.00  0.00     0.151 A 
HETATM   21  C   UNL     1      -6.204   0.732 -30.755  1.00  0.00     0.052 A 
HETATM   22  C   UNL     1      -6.571   1.877 -30.053  1.00  0.00     0.006 A 
HETATM   23  C   UNL     1      -5.826   3.041 -30.207  1.00  0.00     0.037 A 
BRANCH  20  24
HETATM   24  N   UNL     1      -4.704  -0.396 -32.302  1.00  0.00    -0.227 N 
HETATM   25  N   UNL     1      -3.826  -1.299 -31.783  1.00  0.00    -0.179 NA
HETATM   26  C   UNL     1      -3.713  -2.234 -32.729  1.00  0.00     0.141 A 
HETATM   27  C   UNL     1      -4.501  -1.960 -33.858  1.00  0.00     0.040 A 
HETATM   28  C   UNL     1      -5.129  -0.776 -33.559  1.00  0.00     0.122 A 
ENDBRANCH  20  24
ENDBRANCH   2  18
TORSDOF 7
ENDMDL
MODEL 10
REMARK VINA RESULT:      -7.2     16.674     19.845
REMARK  7 active torsions:
REMARK  status: ('A' for Active; 'I' for Inactive)
REMARK    1  A    between atoms: C_2  and  N_3 
REMARK    2  A    between atoms: C_2  and  C_17 
REMARK       I    between atoms: N_3  and  C_4 
REMARK    3  A    between atoms: C_4  and  C_5 
REMARK    4  A    between atoms: C_7  and  N_8 
REMARK    5  A    between atoms: C_17  and  O_18 
REMARK    6  A    between atoms: C_17  and  C_19 
REMARK    7  A    between atoms: C_22  and  O_23 
ROOT
HETATM    1  N   UNL     1      -6.856 -13.647 -38.466  1.00  0.00    -0.349 N 
HETATM    2  C   UNL     1      -7.414 -14.303 -39.541  1.00  0.00     0.270 C 
HETATM    3  O   UNL     1      -6.859 -15.205 -40.158  1.00  0.00    -0.266 OA
HETATM    4  H   UNL     1      -7.437 -12.939 -38.025  1.00  0.00     0.163 HD
ENDROOT
BRANCH   1   5
HETATM    5  C   UNL     1      -5.525 -13.918 -37.927  1.00  0.00     0.114 C 
HETATM    6  C   UNL     1      -5.632 -14.423 -36.484  1.00  0.00     0.035 C 
BRANCH   5   7
HETATM    7  C   UNL     1      -4.527 -12.727 -38.050  1.00  0.00     0.173 C 
BRANCH   7   8
HETATM    8  O   UNL     1      -4.276 -12.155 -36.758  1.00  0.00    -0.389 OA
HETATM    9  H   UNL     1      -5.027 -11.565 -36.571  1.00  0.00     0.210 HD
ENDBRANCH   7   8
BRANCH   7  10
HETATM   10  C   UNL     1      -3.192 -13.146 -38.642  1.00  0.00    -0.028 A 
HETATM   11  C   UNL     1      -3.154 -13.933 -39.801  1.00  0.00     0.012 A 
HETATM   12  C   UNL     1      -1.933 -14.331 -40.350  1.00  0.00     0.037 A 
HETATM   13  C   UNL     1      -0.728 -13.945 -39.763  1.00  0.00     0.068 A 
HETATM   14  C   UNL     1      -0.754 -13.170 -38.604  1.00  0.00     0.037 A 
HETATM   15  C   UNL     1      -1.976 -12.778 -38.047  1.00  0.00     0.012 A 
BRANCH  13  16
HETATM   16  O   UNL     1       0.394 -14.390 -40.408  1.00  0.00    -0.356 OA
HETATM   17  C   UNL     1       1.226 -15.291 -39.690  1.00  0.00     0.210 C 
ENDBRANCH  13  16
ENDBRANCH   7  10
ENDBRANCH   5   7
ENDBRANCH   1   5
BRANCH   2  18
HETATM   18  C   UNL     1      -8.793 -13.840 -39.903  1.00  0.00     0.126 A 
HETATM   19  N   UNL     1      -9.537 -14.695 -40.660  1.00  0.00    -0.224 NA
HETATM   20  C   UNL     1     -10.792 -14.282 -40.987  1.00  0.00     0.151 A 
HETATM   21  C   UNL     1     -11.311 -13.047 -40.594  1.00  0.00     0.052 A 
HETATM   22  C   UNL     1     -10.519 -12.197 -39.825  1.00  0.00     0.006 A 
HETATM   23  C   UNL     1      -9.237 -12.599 -39.465  1.00  0.00     0.037 A 
BRANCH  20  24
HETATM   24  N   UNL     1     -11.614 -15.163 -41.755  1.00  0.00    -0.227 N 
HETATM   25  N   UNL     1     -12.968 -15.027 -41.825  1.00  0.00    -0.179 NA
HETATM   26  C   UNL     1     -13.362 -16.029 -42.613  1.00  0.00     0.141 A 
HETATM   27  C   UNL     1     -12.292 -16.819 -43.061  1.00  0.00     0.040 A 
HETATM   28  C   UNL     1     -11.180 -16.242 -42.499  1.00  0.00     0.122 A 
ENDBRANCH  20  24
ENDBRANCH   2  18
TORSDOF 7
ENDMDL
