MODEL 1
REMARK VINA RESULT:      -8.4      0.000      0.000
REMARK  5 active torsions:
REMARK  status: ('A' for Active; 'I' for Inactive)
REMARK    1  A    between atoms: C_3  and  O_4 
REMARK    2  A    between atoms: O_4  and  C_5 
REMARK    3  A    between atoms: C_5  and  C_6 
REMARK       I    between atoms: C_6  and  N_7 
REMARK    4  A    between atoms: N_7  and  N_8 
REMARK    5  A    between atoms: C_9  and  C_10 
ROOT
HETATM    1  C   UNL     1      -3.323   0.160 -31.689  1.00  0.00     0.261 C 
HETATM    2  N   UNL     1      -4.028   1.177 -32.323  1.00  0.00    -0.246 N 
HETATM    3  O   UNL     1      -2.416   0.302 -30.872  1.00  0.00    -0.269 OA
HETATM    4  H   UNL     1      -4.874   0.904 -32.820  1.00  0.00     0.192 HD
ENDROOT
BRANCH   2   5
HETATM    5  N   UNL     1      -3.910   2.531 -32.120  1.00  0.00    -0.184 NA
HETATM    6  C   UNL     1      -3.040   3.207 -32.801  1.00  0.00     0.152 C 
BRANCH   6   7
HETATM    7  C   UNL     1      -2.898   4.631 -32.565  1.00  0.00     0.011 A 
HETATM    8  C   UNL     1      -1.769   5.295 -31.983  1.00  0.00     0.004 A 
HETATM    9  C   UNL     1      -2.056   6.661 -31.953  1.00  0.00     0.043 A 
HETATM   10  C   UNL     1      -0.528   4.860 -31.469  1.00  0.00     0.014 A 
HETATM   11  C   UNL     1      -1.165   7.612 -31.440  1.00  0.00     0.030 A 
HETATM   12  N   UNL     1      -3.310   6.823 -32.495  1.00  0.00    -0.364 N 
HETATM   13  C   UNL     1       0.056   7.152 -30.937  1.00  0.00     0.002 A 
HETATM   14  C   UNL     1       0.372   5.796 -30.948  1.00  0.00     0.001 A 
HETATM   15  H   UNL     1      -3.778   7.713 -32.601  1.00  0.00     0.165 HD
HETATM   16  C   UNL     1      -3.828   5.610 -32.860  1.00  0.00     0.102 A 
ENDBRANCH   6   7
ENDBRANCH   2   5
BRANCH   1  17
HETATM   17  C   UNL     1      -3.728  -1.229 -32.176  1.00  0.00     0.280 C 
BRANCH  17  18
HETATM   18  O   UNL     1      -4.127  -1.204 -33.545  1.00  0.00    -0.342 OA
BRANCH  18  19
HETATM   19  C   UNL     1      -4.762  -2.350 -33.959  1.00  0.00     0.075 A 
HETATM   20  C   UNL     1      -6.074  -2.220 -34.439  1.00  0.00    -0.029 A 
HETATM   21  C   UNL     1      -6.759  -0.883 -34.511  1.00  0.00     0.051 C 
HETATM   22  C   UNL     1      -6.748  -3.361 -34.902  1.00  0.00     0.009 A 
HETATM   23  C   UNL     1      -6.129  -4.611 -34.878  1.00  0.00     0.001 A 
HETATM   24  C   UNL     1      -4.824  -4.731 -34.410  1.00  0.00     0.003 A 
HETATM   25  C   UNL     1      -4.138  -3.602 -33.959  1.00  0.00     0.037 A 
ENDBRANCH  18  19
ENDBRANCH  17  18
ENDBRANCH   1  17
TORSDOF 5
ENDMDL
MODEL 2
REMARK VINA RESULT:      -8.3      5.555      9.466
REMARK  5 active torsions:
REMARK  status: ('A' for Active; 'I' for Inactive)
REMARK    1  A    between atoms: C_3  and  O_4 
REMARK    2  A    between atoms: O_4  and  C_5 
REMARK    3  A    between atoms: C_5  and  C_6 
REMARK       I    between atoms: C_6  and  N_7 
REMARK    4  A    between atoms: N_7  and  N_8 
REMARK    5  A    between atoms: C_9  and  C_10 
ROOT
HETATM    1  C   UNL     1      -9.979   1.167 -34.069  1.00  0.00     0.261 C 
HETATM    2  N   UNL     1      -8.837   1.057 -34.854  1.00  0.00    -0.246 N 
HETATM    3  O   UNL     1     -10.328   0.396 -33.179  1.00  0.00    -0.269 OA
HETATM    4  H   UNL     1      -8.585   1.873 -35.410  1.00  0.00     0.192 HD
ENDROOT
BRANCH   2   5
HETATM    5  N   UNL     1      -7.838   0.118 -34.754  1.00  0.00    -0.184 NA
HETATM    6  C   UNL     1      -6.871   0.301 -33.914  1.00  0.00     0.152 C 
BRANCH   6   7
HETATM    7  C   UNL     1      -5.803  -0.678 -33.829  1.00  0.00     0.011 A 
HETATM    8  C   UNL     1      -5.880  -2.064 -34.188  1.00  0.00     0.004 A 
HETATM    9  C   UNL     1      -4.623  -2.627 -33.954  1.00  0.00     0.043 A 
HETATM   10  C   UNL     1      -6.906  -2.896 -34.683  1.00  0.00     0.014 A 
HETATM   11  C   UNL     1      -4.342  -3.977 -34.195  1.00  0.00     0.030 A 
HETATM   12  N   UNL     1      -3.814  -1.624 -33.473  1.00  0.00    -0.364 N 
HETATM   13  C   UNL     1      -5.378  -4.779 -34.685  1.00  0.00     0.002 A 
HETATM   14  C   UNL     1      -6.643  -4.249 -34.925  1.00  0.00     0.001 A 
HETATM   15  H   UNL     1      -2.844  -1.745 -33.216  1.00  0.00     0.165 HD
HETATM   16  C   UNL     1      -4.513  -0.451 -33.387  1.00  0.00     0.102 A 
ENDBRANCH   6   7
ENDBRANCH   2   5
BRANCH   1  17
HETATM   17  C   UNL     1     -10.863   2.343 -34.477  1.00  0.00     0.280 C 
BRANCH  17  18
HETATM   18  O   UNL     1     -12.189   1.915 -34.783  1.00  0.00    -0.342 OA
BRANCH  18  19
HETATM   19  C   UNL     1     -13.138   2.377 -33.905  1.00  0.00     0.075 A 
HETATM   20  C   UNL     1     -14.001   1.430 -33.333  1.00  0.00    -0.029 A 
HETATM   21  C   UNL     1     -13.889  -0.034 -33.656  1.00  0.00     0.051 C 
HETATM   22  C   UNL     1     -14.965   1.856 -32.406  1.00  0.00     0.009 A 
HETATM   23  C   UNL     1     -15.074   3.203 -32.061  1.00  0.00     0.001 A 
HETATM   24  C   UNL     1     -14.208   4.136 -32.625  1.00  0.00     0.003 A 
HETATM   25  C   UNL     1     -13.237   3.724 -33.538  1.00  0.00     0.037 A 
ENDBRANCH  18  19
ENDBRANCH  17  18
ENDBRANCH   1  17
TORSDOF 5
ENDMDL
MODEL 3
REMARK VINA RESULT:      -8.2      1.781      9.039
REMARK  5 active torsions:
REMARK  status: ('A' for Active; 'I' for Inactive)
REMARK    1  A    between atoms: C_3  and  O_4 
REMARK    2  A    between atoms: O_4  and  C_5 
REMARK    3  A    between atoms: C_5  and  C_6 
REMARK       I    between atoms: C_6  and  N_7 
REMARK    4  A    between atoms: N_7  and  N_8 
REMARK    5  A    between atoms: C_9  and  C_10 
ROOT
HETATM    1  C   UNL     1      -3.629   1.953 -31.486  1.00  0.00     0.261 C 
HETATM    2  N   UNL     1      -4.855   1.778 -32.118  1.00  0.00    -0.246 N 
HETATM    3  O   UNL     1      -2.862   1.065 -31.125  1.00  0.00    -0.269 OA
HETATM    4  H   UNL     1      -5.280   2.608 -32.528  1.00  0.00     0.192 HD
ENDROOT
BRANCH   2   5
HETATM    5  N   UNL     1      -5.424   0.597 -32.529  1.00  0.00    -0.184 NA
HETATM    6  C   UNL     1      -5.121   0.110 -33.690  1.00  0.00     0.152 C 
BRANCH   6   7
HETATM    7  C   UNL     1      -5.744  -1.123 -34.133  1.00  0.00     0.011 A 
HETATM    8  C   UNL     1      -5.174  -2.437 -34.086  1.00  0.00     0.004 A 
HETATM    9  C   UNL     1      -6.120  -3.322 -34.607  1.00  0.00     0.043 A 
HETATM   10  C   UNL     1      -3.934  -2.957 -33.657  1.00  0.00     0.014 A 
HETATM   11  C   UNL     1      -5.889  -4.699 -34.714  1.00  0.00     0.030 A 
HETATM   12  N   UNL     1      -7.222  -2.577 -34.956  1.00  0.00    -0.364 N 
HETATM   13  C   UNL     1      -4.653  -5.187 -34.281  1.00  0.00     0.002 A 
HETATM   14  C   UNL     1      -3.686  -4.330 -33.761  1.00  0.00     0.001 A 
HETATM   15  H   UNL     1      -8.066  -2.959 -35.362  1.00  0.00     0.165 HD
HETATM   16  C   UNL     1      -7.006  -1.254 -34.683  1.00  0.00     0.102 A 
ENDBRANCH   6   7
ENDBRANCH   2   5
BRANCH   1  17
HETATM   17  C   UNL     1      -3.329   3.419 -31.180  1.00  0.00     0.280 C 
BRANCH  17  18
HETATM   18  O   UNL     1      -1.941   3.709 -31.340  1.00  0.00    -0.342 OA
BRANCH  18  19
HETATM   19  C   UNL     1      -1.693   4.888 -31.999  1.00  0.00     0.075 A 
HETATM   20  C   UNL     1      -0.730   5.744 -31.445  1.00  0.00    -0.029 A 
HETATM   21  C   UNL     1       0.013   5.387 -30.188  1.00  0.00     0.051 C 
HETATM   22  C   UNL     1      -0.423   6.945 -32.105  1.00  0.00     0.009 A 
HETATM   23  C   UNL     1      -1.071   7.291 -33.291  1.00  0.00     0.001 A 
HETATM   24  C   UNL     1      -2.019   6.432 -33.840  1.00  0.00     0.003 A 
HETATM   25  C   UNL     1      -2.324   5.229 -33.202  1.00  0.00     0.037 A 
ENDBRANCH  18  19
ENDBRANCH  17  18
ENDBRANCH   1  17
TORSDOF 5
ENDMDL
MODEL 4
REMARK VINA RESULT:      -8.2      1.449      2.141
REMARK  5 active torsions:
REMARK  status: ('A' for Active; 'I' for Inactive)
REMARK    1  A    between atoms: C_3  and  O_4 
REMARK    2  A    between atoms: O_4  and  C_5 
REMARK    3  A    between atoms: C_5  and  C_6 
REMARK       I    between atoms: C_6  and  N_7 
REMARK    4  A    between atoms: N_7  and  N_8 
REMARK    5  A    between atoms: C_9  and  C_10 
ROOT
HETATM    1  C   UNL     1      -3.015  -0.500 -31.474  1.00  0.00     0.261 C 
HETATM    2  N   UNL     1      -3.943   0.532 -31.562  1.00  0.00    -0.246 N 
HETATM    3  O   UNL     1      -1.818  -0.384 -31.225  1.00  0.00    -0.269 OA
HETATM    4  H   UNL     1      -4.925   0.261 -31.580  1.00  0.00     0.192 HD
ENDROOT
BRANCH   2   5
HETATM    5  N   UNL     1      -3.735   1.869 -31.322  1.00  0.00    -0.184 NA
HETATM    6  C   UNL     1      -3.961   2.730 -32.262  1.00  0.00     0.152 C 
BRANCH   6   7
HETATM    7  C   UNL     1      -3.714   4.138 -32.016  1.00  0.00     0.011 A 
HETATM    8  C   UNL     1      -2.851   5.001 -32.767  1.00  0.00     0.004 A 
HETATM    9  C   UNL     1      -2.920   6.269 -32.188  1.00  0.00     0.043 A 
HETATM   10  C   UNL     1      -2.007   4.818 -33.883  1.00  0.00     0.014 A 
HETATM   11  C   UNL     1      -2.192   7.363 -32.672  1.00  0.00     0.030 A 
HETATM   12  N   UNL     1      -3.791   6.183 -31.127  1.00  0.00    -0.364 N 
HETATM   13  C   UNL     1      -1.364   7.154 -33.779  1.00  0.00     0.002 A 
HETATM   14  C   UNL     1      -1.269   5.901 -34.377  1.00  0.00     0.001 A 
HETATM   15  H   UNL     1      -4.034   6.955 -30.521  1.00  0.00     0.165 HD
HETATM   16  C   UNL     1      -4.269   4.906 -31.009  1.00  0.00     0.102 A 
ENDBRANCH   6   7
ENDBRANCH   2   5
BRANCH   1  17
HETATM   17  C   UNL     1      -3.615  -1.862 -31.813  1.00  0.00     0.280 C 
BRANCH  17  18
HETATM   18  O   UNL     1      -3.422  -2.188 -33.188  1.00  0.00    -0.342 OA
BRANCH  18  19
HETATM   19  C   UNL     1      -4.546  -2.680 -33.806  1.00  0.00     0.075 A 
HETATM   20  C   UNL     1      -4.534  -4.031 -34.181  1.00  0.00    -0.029 A 
HETATM   21  C   UNL     1      -3.348  -4.914 -33.911  1.00  0.00     0.051 C 
HETATM   22  C   UNL     1      -5.676  -4.582 -34.786  1.00  0.00     0.009 A 
HETATM   23  C   UNL     1      -6.805  -3.797 -35.022  1.00  0.00     0.001 A 
HETATM   24  C   UNL     1      -6.812  -2.459 -34.639  1.00  0.00     0.003 A 
HETATM   25  C   UNL     1      -5.690  -1.903 -34.024  1.00  0.00     0.037 A 
ENDBRANCH  18  19
ENDBRANCH  17  18
ENDBRANCH   1  17
TORSDOF 5
ENDMDL
MODEL 5
REMARK VINA RESULT:      -8.0      5.340      8.709
REMARK  5 active torsions:
REMARK  status: ('A' for Active; 'I' for Inactive)
REMARK    1  A    between atoms: C_3  and  O_4 
REMARK    2  A    between atoms: O_4  and  C_5 
REMARK    3  A    between atoms: C_5  and  C_6 
REMARK       I    between atoms: C_6  and  N_7 
REMARK    4  A    between atoms: N_7  and  N_8 
REMARK    5  A    between atoms: C_9  and  C_10 
ROOT
HETATM    1  C   UNL     1      -9.051   2.208 -32.156  1.00  0.00     0.261 C 
HETATM    2  N   UNL     1      -8.415   1.473 -33.150  1.00  0.00    -0.246 N 
HETATM    3  O   UNL     1      -8.774   2.207 -30.958  1.00  0.00    -0.269 OA
HETATM    4  H   UNL     1      -8.628   1.728 -34.113  1.00  0.00     0.192 HD
ENDROOT
BRANCH   2   5
HETATM    5  N   UNL     1      -7.315   0.659 -33.017  1.00  0.00    -0.184 NA
HETATM    6  C   UNL     1      -6.933  -0.068 -34.017  1.00  0.00     0.152 C 
BRANCH   6   7
HETATM    7  C   UNL     1      -5.789  -0.947 -33.866  1.00  0.00     0.011 A 
HETATM    8  C   UNL     1      -5.727  -2.339 -34.202  1.00  0.00     0.004 A 
HETATM    9  C   UNL     1      -4.439  -2.786 -33.900  1.00  0.00     0.043 A 
HETATM   10  C   UNL     1      -6.652  -3.267 -34.727  1.00  0.00     0.014 A 
HETATM   11  C   UNL     1      -4.030  -4.110 -34.102  1.00  0.00     0.030 A 
HETATM   12  N   UNL     1      -3.744  -1.709 -33.401  1.00  0.00    -0.364 N 
HETATM   13  C   UNL     1      -4.967  -5.007 -34.623  1.00  0.00     0.002 A 
HETATM   14  C   UNL     1      -6.261  -4.595 -34.930  1.00  0.00     0.001 A 
HETATM   15  H   UNL     1      -2.780  -1.740 -33.098  1.00  0.00     0.165 HD
HETATM   16  C   UNL     1      -4.546  -0.601 -33.370  1.00  0.00     0.102 A 
ENDBRANCH   6   7
ENDBRANCH   2   5
BRANCH   1  17
HETATM   17  C   UNL     1     -10.245   3.000 -32.682  1.00  0.00     0.280 C 
BRANCH  17  18
HETATM   18  O   UNL     1     -10.670   2.517 -33.955  1.00  0.00    -0.342 OA
BRANCH  18  19
HETATM   19  C   UNL     1     -11.810   1.753 -33.907  1.00  0.00     0.075 A 
HETATM   20  C   UNL     1     -13.014   2.371 -34.275  1.00  0.00    -0.029 A 
HETATM   21  C   UNL     1     -13.061   3.807 -34.717  1.00  0.00     0.051 C 
HETATM   22  C   UNL     1     -14.198   1.615 -34.271  1.00  0.00     0.009 A 
HETATM   23  C   UNL     1     -14.183   0.272 -33.897  1.00  0.00     0.001 A 
HETATM   24  C   UNL     1     -12.983  -0.337 -33.542  1.00  0.00     0.003 A 
HETATM   25  C   UNL     1     -11.797   0.398 -33.555  1.00  0.00     0.037 A 
ENDBRANCH  18  19
ENDBRANCH  17  18
ENDBRANCH   1  17
TORSDOF 5
ENDMDL
MODEL 6
REMARK VINA RESULT:      -7.9      2.349      9.584
REMARK  5 active torsions:
REMARK  status: ('A' for Active; 'I' for Inactive)
REMARK    1  A    between atoms: C_3  and  O_4 
REMARK    2  A    between atoms: O_4  and  C_5 
REMARK    3  A    between atoms: C_5  and  C_6 
REMARK       I    between atoms: C_6  and  N_7 
REMARK    4  A    between atoms: N_7  and  N_8 
REMARK    5  A    between atoms: C_9  and  C_10 
ROOT
HETATM    1  C   UNL     1      -3.104   4.753 -31.922  1.00  0.00     0.261 C 
HETATM    2  N   UNL     1      -2.984   3.599 -31.157  1.00  0.00    -0.246 N 
HETATM    3  O   UNL     1      -3.136   4.815 -33.149  1.00  0.00    -0.269 OA
HETATM    4  H   UNL     1      -3.168   3.691 -30.160  1.00  0.00     0.192 HD
ENDROOT
BRANCH   2   5
HETATM    5  N   UNL     1      -2.949   2.299 -31.602  1.00  0.00    -0.184 NA
HETATM    6  C   UNL     1      -4.052   1.630 -31.712  1.00  0.00     0.152 C 
BRANCH   6   7
HETATM    7  C   UNL     1      -4.009   0.249 -32.155  1.00  0.00     0.011 A 
HETATM    8  C   UNL     1      -4.878  -0.370 -33.112  1.00  0.00     0.004 A 
HETATM    9  C   UNL     1      -4.476  -1.702 -33.241  1.00  0.00     0.043 A 
HETATM   10  C   UNL     1      -5.977   0.075 -33.877  1.00  0.00     0.014 A 
HETATM   11  C   UNL     1      -5.115  -2.606 -34.099  1.00  0.00     0.030 A 
HETATM   12  N   UNL     1      -3.406  -1.885 -32.397  1.00  0.00    -0.364 N 
HETATM   13  C   UNL     1      -6.201  -2.137 -34.844  1.00  0.00     0.002 A 
HETATM   14  C   UNL     1      -6.630  -0.817 -34.735  1.00  0.00     0.001 A 
HETATM   15  H   UNL     1      -2.909  -2.758 -32.283  1.00  0.00     0.165 HD
HETATM   16  C   UNL     1      -3.121  -0.723 -31.734  1.00  0.00     0.102 A 
ENDBRANCH   6   7
ENDBRANCH   2   5
BRANCH   1  17
HETATM   17  C   UNL     1      -3.108   6.023 -31.074  1.00  0.00     0.280 C 
BRANCH  17  18
HETATM   18  O   UNL     1      -2.044   6.899 -31.444  1.00  0.00    -0.342 OA
BRANCH  18  19
HETATM   19  C   UNL     1      -1.343   7.402 -30.375  1.00  0.00     0.075 A 
HETATM   20  C   UNL     1      -0.049   6.903 -30.164  1.00  0.00    -0.029 A 
HETATM   21  C   UNL     1       0.556   5.869 -31.072  1.00  0.00     0.051 C 
HETATM   22  C   UNL     1       0.715   7.414 -29.102  1.00  0.00     0.009 A 
HETATM   23  C   UNL     1       0.194   8.397 -28.260  1.00  0.00     0.001 A 
HETATM   24  C   UNL     1      -1.087   8.894 -28.482  1.00  0.00     0.003 A 
HETATM   25  C   UNL     1      -1.851   8.405 -29.542  1.00  0.00     0.037 A 
ENDBRANCH  18  19
ENDBRANCH  17  18
ENDBRANCH   1  17
TORSDOF 5
ENDMDL
MODEL 7
REMARK VINA RESULT:      -7.9      1.712      2.474
REMARK  5 active torsions:
REMARK  status: ('A' for Active; 'I' for Inactive)
REMARK    1  A    between atoms: C_3  and  O_4 
REMARK    2  A    between atoms: O_4  and  C_5 
REMARK    3  A    between atoms: C_5  and  C_6 
REMARK       I    between atoms: C_6  and  N_7 
REMARK    4  A    between atoms: N_7  and  N_8 
REMARK    5  A    between atoms: C_9  and  C_10 
ROOT
HETATM    1  C   UNL     1      -6.418   1.904 -33.220  1.00  0.00     0.261 C 
HETATM    2  N   UNL     1      -5.655   2.615 -32.301  1.00  0.00    -0.246 N 
HETATM    3  O   UNL     1      -6.589   2.191 -34.403  1.00  0.00    -0.269 OA
HETATM    4  H   UNL     1      -5.453   2.148 -31.419  1.00  0.00     0.192 HD
ENDROOT
BRANCH   2   5
HETATM    5  N   UNL     1      -4.887   3.730 -32.534  1.00  0.00    -0.184 NA
HETATM    6  C   UNL     1      -3.671   3.592 -32.957  1.00  0.00     0.152 C 
BRANCH   6   7
HETATM    7  C   UNL     1      -2.852   4.770 -33.176  1.00  0.00     0.011 A 
HETATM    8  C   UNL     1      -1.789   5.242 -32.339  1.00  0.00     0.004 A 
HETATM    9  C   UNL     1      -1.273   6.398 -32.929  1.00  0.00     0.043 A 
HETATM   10  C   UNL     1      -1.220   4.797 -31.126  1.00  0.00     0.014 A 
HETATM   11  C   UNL     1      -0.216   7.126 -32.369  1.00  0.00     0.030 A 
HETATM   12  N   UNL     1      -1.994   6.620 -34.079  1.00  0.00    -0.364 N 
HETATM   13  C   UNL     1       0.328   6.663 -31.168  1.00  0.00     0.002 A 
HETATM   14  C   UNL     1      -0.166   5.517 -30.551  1.00  0.00     0.001 A 
HETATM   15  H   UNL     1      -1.837   7.393 -34.712  1.00  0.00     0.165 HD
HETATM   16  C   UNL     1      -2.949   5.654 -34.234  1.00  0.00     0.102 A 
ENDBRANCH   6   7
ENDBRANCH   2   5
BRANCH   1  17
HETATM   17  C   UNL     1      -7.139   0.714 -32.593  1.00  0.00     0.280 C 
BRANCH  17  18
HETATM   18  O   UNL     1      -6.219  -0.301 -32.194  1.00  0.00    -0.342 OA
BRANCH  18  19
HETATM   19  C   UNL     1      -5.990  -1.252 -33.157  1.00  0.00     0.075 A 
HETATM   20  C   UNL     1      -4.668  -1.691 -33.326  1.00  0.00    -0.029 A 
HETATM   21  C   UNL     1      -3.545  -1.154 -32.482  1.00  0.00     0.051 C 
HETATM   22  C   UNL     1      -4.395  -2.686 -34.278  1.00  0.00     0.009 A 
HETATM   23  C   UNL     1      -5.419  -3.227 -35.055  1.00  0.00     0.001 A 
HETATM   24  C   UNL     1      -6.729  -2.794 -34.876  1.00  0.00     0.003 A 
HETATM   25  C   UNL     1      -7.017  -1.816 -33.924  1.00  0.00     0.037 A 
ENDBRANCH  18  19
ENDBRANCH  17  18
ENDBRANCH   1  17
TORSDOF 5
ENDMDL
MODEL 8
REMARK VINA RESULT:      -7.9      4.741      7.068
REMARK  5 active torsions:
REMARK  status: ('A' for Active; 'I' for Inactive)
REMARK    1  A    between atoms: C_3  and  O_4 
REMARK    2  A    between atoms: O_4  and  C_5 
REMARK    3  A    between atoms: C_5  and  C_6 
REMARK       I    between atoms: C_6  and  N_7 
REMARK    4  A    between atoms: N_7  and  N_8 
REMARK    5  A    between atoms: C_9  and  C_10 
ROOT
HETATM    1  C   UNL     1      -5.364   0.279 -32.110  1.00  0.00     0.261 C 
HETATM    2  N   UNL     1      -6.657  -0.101 -31.767  1.00  0.00    -0.246 N 
HETATM    3  O   UNL     1      -4.986   1.416 -32.384  1.00  0.00    -0.269 OA
HETATM    4  H   UNL     1      -6.770  -1.036 -31.380  1.00  0.00     0.192 HD
ENDROOT
BRANCH   2   5
HETATM    5  N   UNL     1      -7.751   0.713 -31.596  1.00  0.00    -0.184 NA
HETATM    6  C   UNL     1      -8.492   1.011 -32.614  1.00  0.00     0.152 C 
BRANCH   6   7
HETATM    7  C   UNL     1      -9.631   1.893 -32.436  1.00  0.00     0.011 A 
HETATM    8  C   UNL     1     -10.783   1.987 -33.284  1.00  0.00     0.004 A 
HETATM    9  C   UNL     1     -11.628   2.954 -32.735  1.00  0.00     0.043 A 
HETATM   10  C   UNL     1     -11.182   1.345 -34.476  1.00  0.00     0.014 A 
HETATM   11  C   UNL     1     -12.853   3.305 -33.316  1.00  0.00     0.030 A 
HETATM   12  N   UNL     1     -11.016   3.428 -31.599  1.00  0.00    -0.364 N 
HETATM   13  C   UNL     1     -13.223   2.654 -34.496  1.00  0.00     0.002 A 
HETATM   14  C   UNL     1     -12.401   1.689 -35.071  1.00  0.00     0.001 A 
HETATM   15  H   UNL     1     -11.403   4.141 -30.995  1.00  0.00     0.165 HD
HETATM   16  C   UNL     1      -9.813   2.804 -31.412  1.00  0.00     0.102 A 
ENDBRANCH   6   7
ENDBRANCH   2   5
BRANCH   1  17
HETATM   17  C   UNL     1      -4.408  -0.908 -32.208  1.00  0.00     0.280 C 
BRANCH  17  18
HETATM   18  O   UNL     1      -4.139  -1.247 -33.567  1.00  0.00    -0.342 OA
BRANCH  18  19
HETATM   19  C   UNL     1      -4.590  -2.493 -33.928  1.00  0.00     0.075 A 
HETATM   20  C   UNL     1      -5.799  -2.558 -34.638  1.00  0.00    -0.029 A 
HETATM   21  C   UNL     1      -6.567  -1.318 -35.002  1.00  0.00     0.051 C 
HETATM   22  C   UNL     1      -6.280  -3.810 -35.054  1.00  0.00     0.009 A 
HETATM   23  C   UNL     1      -5.574  -4.977 -34.761  1.00  0.00     0.001 A 
HETATM   24  C   UNL     1      -4.371  -4.904 -34.064  1.00  0.00     0.003 A 
HETATM   25  C   UNL     1      -3.875  -3.665 -33.657  1.00  0.00     0.037 A 
ENDBRANCH  18  19
ENDBRANCH  17  18
ENDBRANCH   1  17
TORSDOF 5
ENDMDL
MODEL 9
REMARK VINA RESULT:      -7.6      5.018      7.922
REMARK  5 active torsions:
REMARK  status: ('A' for Active; 'I' for Inactive)
REMARK    1  A    between atoms: C_3  and  O_4 
REMARK    2  A    between atoms: O_4  and  C_5 
REMARK    3  A    between atoms: C_5  and  C_6 
REMARK       I    between atoms: C_6  and  N_7 
REMARK    4  A    between atoms: N_7  and  N_8 
REMARK    5  A    between atoms: C_9  and  C_10 
ROOT
HETATM    1  C   UNL     1      -5.936   0.263 -31.980  1.00  0.00     0.261 C 
HETATM    2  N   UNL     1      -7.238  -0.089 -32.318  1.00  0.00    -0.246 N 
HETATM    3  O   UNL     1      -5.478   1.403 -31.933  1.00  0.00    -0.269 OA
HETATM    4  H   UNL     1      -7.515  -1.050 -32.122  1.00  0.00     0.192 HD
ENDROOT
BRANCH   2   5
HETATM    5  N   UNL     1      -8.288   0.752 -32.595  1.00  0.00    -0.184 NA
HETATM    6  C   UNL     1      -9.049   0.511 -33.615  1.00  0.00     0.152 C 
BRANCH   6   7
HETATM    7  C   UNL     1     -10.141   1.416 -33.922  1.00  0.00     0.011 A 
HETATM    8  C   UNL     1     -11.541   1.116 -33.874  1.00  0.00     0.004 A 
HETATM    9  C   UNL     1     -12.230   2.275 -34.239  1.00  0.00     0.043 A 
HETATM   10  C   UNL     1     -12.291  -0.039 -33.563  1.00  0.00     0.014 A 
HETATM   11  C   UNL     1     -13.627   2.337 -34.302  1.00  0.00     0.030 A 
HETATM   12  N   UNL     1     -11.286   3.242 -34.497  1.00  0.00    -0.364 N 
HETATM   13  C   UNL     1     -14.344   1.179 -33.988  1.00  0.00     0.002 A 
HETATM   14  C   UNL     1     -13.688   0.006 -33.626  1.00  0.00     0.001 A 
HETATM   15  H   UNL     1     -11.499   4.187 -34.785  1.00  0.00     0.165 HD
HETATM   16  C   UNL     1     -10.028   2.736 -34.317  1.00  0.00     0.102 A 
ENDBRANCH   6   7
ENDBRANCH   2   5
BRANCH   1  17
HETATM   17  C   UNL     1      -5.041  -0.950 -31.740  1.00  0.00     0.280 C 
BRANCH  17  18
HETATM   18  O   UNL     1      -4.197  -1.204 -32.861  1.00  0.00    -0.342 OA
BRANCH  18  19
HETATM   19  C   UNL     1      -4.449  -2.400 -33.487  1.00  0.00     0.075 A 
HETATM   20  C   UNL     1      -3.741  -3.524 -33.035  1.00  0.00    -0.029 A 
HETATM   21  C   UNL     1      -2.753  -3.432 -31.905  1.00  0.00     0.051 C 
HETATM   22  C   UNL     1      -3.992  -4.772 -33.626  1.00  0.00     0.009 A 
HETATM   23  C   UNL     1      -4.926  -4.897 -34.655  1.00  0.00     0.001 A 
HETATM   24  C   UNL     1      -5.631  -3.780 -35.092  1.00  0.00     0.003 A 
HETATM   25  C   UNL     1      -5.401  -2.536 -34.504  1.00  0.00     0.037 A 
ENDBRANCH  18  19
ENDBRANCH  17  18
ENDBRANCH   1  17
TORSDOF 5
ENDMDL
MODEL 10
REMARK VINA RESULT:      -7.4      6.116      8.876
REMARK  5 active torsions:
REMARK  status: ('A' for Active; 'I' for Inactive)
REMARK    1  A    between atoms: C_3  and  O_4 
REMARK    2  A    between atoms: O_4  and  C_5 
REMARK    3  A    between atoms: C_5  and  C_6 
REMARK       I    between atoms: C_6  and  N_7 
REMARK    4  A    between atoms: N_7  and  N_8 
REMARK    5  A    between atoms: C_9  and  C_10 
ROOT
HETATM    1  C   UNL     1      -8.135   0.730 -34.396  1.00  0.00     0.261 C 
HETATM    2  N   UNL     1      -9.499   0.917 -34.590  1.00  0.00    -0.246 N 
HETATM    3  O   UNL     1      -7.362   1.518 -33.856  1.00  0.00    -0.269 OA
HETATM    4  H   UNL     1     -10.035   0.097 -34.872  1.00  0.00     0.192 HD
ENDROOT
BRANCH   2   5
HETATM    5  N   UNL     1     -10.270   1.971 -34.163  1.00  0.00    -0.184 NA
HETATM    6  C   UNL     1     -11.403   1.741 -33.581  1.00  0.00     0.152 C 
BRANCH   6   7
HETATM    7  C   UNL     1     -12.228   2.856 -33.156  1.00  0.00     0.011 A 
HETATM    8  C   UNL     1     -13.619   2.812 -32.813  1.00  0.00     0.004 A 
HETATM    9  C   UNL     1     -14.004   4.106 -32.458  1.00  0.00     0.043 A 
HETATM   10  C   UNL     1     -14.592   1.790 -32.781  1.00  0.00     0.014 A 
HETATM   11  C   UNL     1     -15.310   4.427 -32.067  1.00  0.00     0.030 A 
HETATM   12  N   UNL     1     -12.892   4.906 -32.578  1.00  0.00    -0.364 N 
HETATM   13  C   UNL     1     -16.253   3.396 -32.045  1.00  0.00     0.002 A 
HETATM   14  C   UNL     1     -15.903   2.096 -32.398  1.00  0.00     0.001 A 
HETATM   15  H   UNL     1     -12.877   5.899 -32.384  1.00  0.00     0.165 HD
HETATM   16  C   UNL     1     -11.821   4.169 -33.003  1.00  0.00     0.102 A 
ENDBRANCH   6   7
ENDBRANCH   2   5
BRANCH   1  17
HETATM   17  C   UNL     1      -7.624  -0.568 -35.015  1.00  0.00     0.280 C 
BRANCH  17  18
HETATM   18  O   UNL     1      -6.245  -0.779 -34.716  1.00  0.00    -0.342 OA
BRANCH  18  19
HETATM   19  C   UNL     1      -5.889  -2.104 -34.646  1.00  0.00     0.075 A 
HETATM   20  C   UNL     1      -4.646  -2.406 -34.068  1.00  0.00    -0.029 A 
HETATM   21  C   UNL     1      -3.742  -1.329 -33.536  1.00  0.00     0.051 C 
HETATM   22  C   UNL     1      -4.258  -3.749 -33.947  1.00  0.00     0.009 A 
HETATM   23  C   UNL     1      -5.088  -4.774 -34.402  1.00  0.00     0.001 A 
HETATM   24  C   UNL     1      -6.324  -4.467 -34.966  1.00  0.00     0.003 A 
HETATM   25  C   UNL     1      -6.728  -3.137 -35.079  1.00  0.00     0.037 A 
ENDBRANCH  18  19
ENDBRANCH  17  18
ENDBRANCH   1  17
TORSDOF 5
ENDMDL
