MODEL 1
REMARK VINA RESULT:     -10.2      0.000      0.000
REMARK  8 active torsions:
REMARK  status: ('A' for Active; 'I' for Inactive)
REMARK    1  A    between atoms: O_2  and  C_3 
REMARK    2  A    between atoms: C_6  and  N_7 
REMARK    3  A    between atoms: N_7  and  C_8 
REMARK    4  A    between atoms: C_12  and  C_13 
REMARK       I    between atoms: C_13  and  N_14 
REMARK    5  A    between atoms: N_14  and  C_15 
REMARK    6  A    between atoms: C_15  and  C_16 
REMARK    7  A    between atoms: C_16  and  N_17 
REMARK    8  A    between atoms: N_21  and  C_22 
ROOT
HETATM    1  C   UNL     1      -8.003   0.404 -32.676  1.00  0.00     0.129 A 
HETATM    2  N   UNL     1      -7.988  -0.791 -33.292  1.00  0.00    -0.231 NA
HETATM    3  C   UNL     1      -6.828  -1.372 -33.627  1.00  0.00     0.070 A 
HETATM    4  C   UNL     1      -5.575  -0.812 -33.318  1.00  0.00     0.009 A 
HETATM    5  C   UNL     1      -5.611   0.401 -32.592  1.00  0.00     0.048 A 
HETATM    6  C   UNL     1      -6.824   1.034 -32.319  1.00  0.00     0.068 A 
HETATM    7  C   UNL     1      -6.878  -2.578 -34.311  1.00  0.00     0.032 A 
HETATM    8  C   UNL     1      -5.722  -3.243 -34.722  1.00  0.00     0.002 A 
HETATM    9  C   UNL     1      -4.480  -2.687 -34.456  1.00  0.00     0.001 A 
HETATM   10  C   UNL     1      -4.403  -1.479 -33.765  1.00  0.00     0.015 A 
ENDROOT
BRANCH   5  11
HETATM   11  C   UNL     1      -4.406   1.048 -32.016  1.00  0.00     0.252 C 
HETATM   12  N   UNL     1      -4.014   2.238 -32.590  1.00  0.00    -0.355 N 
HETATM   13  H   UNL     1      -4.615   2.614 -33.321  1.00  0.00     0.162 HD
HETATM   14  O   UNL     1      -3.713   0.471 -31.183  1.00  0.00    -0.268 OA
BRANCH  12  15
HETATM   15  C   UNL     1      -3.018   3.160 -32.046  1.00  0.00     0.150 C 
BRANCH  15  16
HETATM   16  C   UNL     1      -2.347   4.188 -32.985  1.00  0.00     0.254 C 
BRANCH  16  17
HETATM   17  N   UNL     1      -2.072   5.516 -32.330  1.00  0.00    -0.067 N 
HETATM   18  H   UNL     1      -2.251   6.203 -33.088  1.00  0.00     0.280 HD
HETATM   19  C   UNL     1      -2.963   5.862 -31.150  1.00  0.00     0.254 C 
HETATM   20  C   UNL     1      -2.666   7.293 -30.656  1.00  0.00     0.150 C 
HETATM   21  N   UNL     1      -1.235   7.469 -30.357  1.00  0.00    -0.378 N 
HETATM   22  C   UNL     1      -0.327   7.129 -31.474  1.00  0.00     0.150 C 
HETATM   23  C   UNL     1      -0.597   5.693 -31.978  1.00  0.00     0.254 C 
BRANCH  21  24
HETATM   24  C   UNL     1      -0.747   7.391 -29.055  1.00  0.00     0.031 A 
HETATM   25  C   UNL     1      -1.636   7.280 -27.972  1.00  0.00     0.053 A 
HETATM   26  C   UNL     1      -1.179   7.172 -26.654  1.00  0.00     0.036 A 
HETATM   27 CL   UNL     1      -2.315   7.032 -25.369  1.00  0.00    -0.084 Cl
HETATM   28  C   UNL     1       0.180   7.166 -26.377  1.00  0.00     0.024 A 
HETATM   29  C   UNL     1       1.085   7.261 -27.428  1.00  0.00     0.004 A 
HETATM   30  C   UNL     1       0.623   7.366 -28.748  1.00  0.00     0.029 A 
ENDBRANCH  21  24
ENDBRANCH  16  17
ENDBRANCH  15  16
ENDBRANCH  12  15
ENDBRANCH   5  11
BRANCH   1  31
HETATM   31  N   UNL     1      -9.218   1.044 -32.351  1.00  0.00    -0.341 N 
HETATM   32  H   UNL     1      -9.032   1.936 -31.904  1.00  0.00     0.167 HD
BRANCH  31  33
HETATM   33  C   UNL     1     -10.406   1.076 -33.114  1.00  0.00     0.033 A 
HETATM   34  C   UNL     1     -11.352   0.048 -33.074  1.00  0.00     0.032 A 
HETATM   35  C   UNL     1     -12.566   0.157 -33.760  1.00  0.00     0.039 A 
HETATM   36  C   UNL     1     -12.872   1.308 -34.486  1.00  0.00     0.068 A 
HETATM   37  C   UNL     1     -11.945   2.348 -34.525  1.00  0.00     0.039 A 
HETATM   38  C   UNL     1     -10.731   2.237 -33.834  1.00  0.00     0.032 A 
BRANCH  36  39
HETATM   39  O   UNL     1     -14.094   1.291 -35.095  1.00  0.00    -0.356 OA
HETATM   40  C   UNL     1     -15.179   0.757 -34.347  1.00  0.00     0.210 C 
ENDBRANCH  36  39
ENDBRANCH  31  33
ENDBRANCH   1  31
TORSDOF 8
ENDMDL
MODEL 2
REMARK VINA RESULT:     -10.0      4.226     11.581
REMARK  8 active torsions:
REMARK  status: ('A' for Active; 'I' for Inactive)
REMARK    1  A    between atoms: O_2  and  C_3 
REMARK    2  A    between atoms: C_6  and  N_7 
REMARK    3  A    between atoms: N_7  and  C_8 
REMARK    4  A    between atoms: C_12  and  C_13 
REMARK       I    between atoms: C_13  and  N_14 
REMARK    5  A    between atoms: N_14  and  C_15 
REMARK    6  A    between atoms: C_15  and  C_16 
REMARK    7  A    between atoms: C_16  and  N_17 
REMARK    8  A    between atoms: N_21  and  C_22 
ROOT
HETATM    1  C   UNL     1      -2.211   7.591 -30.360  1.00  0.00     0.129 A 
HETATM    2  N   UNL     1      -1.500   7.577 -31.500  1.00  0.00    -0.231 NA
HETATM    3  C   UNL     1      -1.764   6.679 -32.459  1.00  0.00     0.070 A 
HETATM    4  C   UNL     1      -2.813   5.747 -32.366  1.00  0.00     0.009 A 
HETATM    5  C   UNL     1      -3.605   5.834 -31.198  1.00  0.00     0.048 A 
HETATM    6  C   UNL     1      -3.270   6.721 -30.173  1.00  0.00     0.068 A 
HETATM    7  C   UNL     1      -0.959   6.678 -33.590  1.00  0.00     0.032 A 
HETATM    8  C   UNL     1      -1.145   5.765 -34.629  1.00  0.00     0.002 A 
HETATM    9  C   UNL     1      -2.152   4.816 -34.535  1.00  0.00     0.001 A 
HETATM   10  C   UNL     1      -2.978   4.800 -33.412  1.00  0.00     0.015 A 
ENDROOT
BRANCH   5  11
HETATM   11  C   UNL     1      -4.860   5.068 -30.997  1.00  0.00     0.252 C 
HETATM   12  N   UNL     1      -4.788   3.981 -30.154  1.00  0.00    -0.355 N 
HETATM   13  H   UNL     1      -3.899   3.824 -29.683  1.00  0.00     0.162 HD
HETATM   14  O   UNL     1      -5.859   5.300 -31.672  1.00  0.00    -0.268 OA
BRANCH  12  15
HETATM   15  C   UNL     1      -5.929   3.233 -29.627  1.00  0.00     0.150 C 
BRANCH  15  16
HETATM   16  C   UNL     1      -6.042   1.720 -29.921  1.00  0.00     0.254 C 
BRANCH  16  17
HETATM   17  N   UNL     1      -5.579   1.337 -31.303  1.00  0.00    -0.067 N 
HETATM   18  H   UNL     1      -5.249   2.236 -31.707  1.00  0.00     0.280 HD
HETATM   19  C   UNL     1      -4.436   0.338 -31.359  1.00  0.00     0.254 C 
HETATM   20  C   UNL     1      -3.977   0.132 -32.817  1.00  0.00     0.150 C 
HETATM   21  N   UNL     1      -5.104  -0.247 -33.685  1.00  0.00    -0.378 N 
HETATM   22  C   UNL     1      -6.248   0.691 -33.651  1.00  0.00     0.150 C 
HETATM   23  C   UNL     1      -6.736   0.903 -32.200  1.00  0.00     0.254 C 
BRANCH  21  24
HETATM   24  C   UNL     1      -5.340  -1.573 -34.036  1.00  0.00     0.031 A 
HETATM   25  C   UNL     1      -4.322  -2.533 -33.902  1.00  0.00     0.053 A 
HETATM   26  C   UNL     1      -4.533  -3.878 -34.218  1.00  0.00     0.036 A 
HETATM   27 CL   UNL     1      -3.250  -5.009 -34.027  1.00  0.00    -0.084 Cl
HETATM   28  C   UNL     1      -5.770  -4.309 -34.675  1.00  0.00     0.024 A 
HETATM   29  C   UNL     1      -6.801  -3.387 -34.806  1.00  0.00     0.004 A 
HETATM   30  C   UNL     1      -6.586  -2.039 -34.484  1.00  0.00     0.029 A 
ENDBRANCH  21  24
ENDBRANCH  16  17
ENDBRANCH  15  16
ENDBRANCH  12  15
ENDBRANCH   5  11
BRANCH   1  31
HETATM   31  N   UNL     1      -1.918   8.507 -29.326  1.00  0.00    -0.341 N 
HETATM   32  H   UNL     1      -2.779   8.868 -28.929  1.00  0.00     0.167 HD
BRANCH  31  33
HETATM   33  C   UNL     1      -0.890   8.419 -28.362  1.00  0.00     0.033 A 
HETATM   34  C   UNL     1       0.294   7.711 -28.591  1.00  0.00     0.032 A 
HETATM   35  C   UNL     1       1.336   7.730 -27.658  1.00  0.00     0.039 A 
HETATM   36  C   UNL     1       1.227   8.475 -26.484  1.00  0.00     0.068 A 
HETATM   37  C   UNL     1       0.059   9.197 -26.248  1.00  0.00     0.039 A 
HETATM   38  C   UNL     1      -0.982   9.179 -27.186  1.00  0.00     0.032 A 
BRANCH  36  39
HETATM   39  O   UNL     1       2.322   8.419 -25.668  1.00  0.00    -0.356 OA
HETATM   40  C   UNL     1       2.502   9.495 -24.757  1.00  0.00     0.210 C 
ENDBRANCH  36  39
ENDBRANCH  31  33
ENDBRANCH   1  31
TORSDOF 8
ENDMDL
MODEL 3
REMARK VINA RESULT:      -9.9      3.413      7.313
REMARK  8 active torsions:
REMARK  status: ('A' for Active; 'I' for Inactive)
REMARK    1  A    between atoms: O_2  and  C_3 
REMARK    2  A    between atoms: C_6  and  N_7 
REMARK    3  A    between atoms: N_7  and  C_8 
REMARK    4  A    between atoms: C_12  and  C_13 
REMARK       I    between atoms: C_13  and  N_14 
REMARK    5  A    between atoms: N_14  and  C_15 
REMARK    6  A    between atoms: C_15  and  C_16 
REMARK    7  A    between atoms: C_16  and  N_17 
REMARK    8  A    between atoms: N_21  and  C_22 
ROOT
HETATM    1  C   UNL     1      -4.977   0.883 -32.644  1.00  0.00     0.129 A 
HETATM    2  N   UNL     1      -4.284  -0.215 -32.992  1.00  0.00    -0.231 NA
HETATM    3  C   UNL     1      -4.893  -1.244 -33.599  1.00  0.00     0.070 A 
HETATM    4  C   UNL     1      -6.255  -1.225 -33.953  1.00  0.00     0.009 A 
HETATM    5  C   UNL     1      -6.945  -0.027 -33.658  1.00  0.00     0.048 A 
HETATM    6  C   UNL     1      -6.319   1.004 -32.955  1.00  0.00     0.068 A 
HETATM    7  C   UNL     1      -4.138  -2.372 -33.884  1.00  0.00     0.032 A 
HETATM    8  C   UNL     1      -4.693  -3.499 -34.492  1.00  0.00     0.002 A 
HETATM    9  C   UNL     1      -6.041  -3.510 -34.814  1.00  0.00     0.001 A 
HETATM   10  C   UNL     1      -6.820  -2.386 -34.544  1.00  0.00     0.015 A 
ENDROOT
BRANCH   5  11
HETATM   11  C   UNL     1      -8.328   0.257 -34.114  1.00  0.00     0.252 C 
HETATM   12  N   UNL     1      -9.301   0.303 -33.139  1.00  0.00    -0.355 N 
HETATM   13  H   UNL     1      -8.988   0.204 -32.175  1.00  0.00     0.162 HD
HETATM   14  O   UNL     1      -8.607   0.288 -35.310  1.00  0.00    -0.268 OA
BRANCH  12  15
HETATM   15  C   UNL     1     -10.666   0.794 -33.319  1.00  0.00     0.150 C 
BRANCH  15  16
HETATM   16  C   UNL     1     -10.910   2.050 -34.187  1.00  0.00     0.254 C 
BRANCH  16  17
HETATM   17  N   UNL     1     -10.497   3.335 -33.518  1.00  0.00    -0.067 N 
HETATM   18  H   UNL     1     -11.216   4.016 -33.836  1.00  0.00     0.280 HD
HETATM   19  C   UNL     1     -10.496   3.314 -32.000  1.00  0.00     0.254 C 
HETATM   20  C   UNL     1     -10.183   4.720 -31.445  1.00  0.00     0.150 C 
HETATM   21  N   UNL     1      -8.929   5.249 -32.007  1.00  0.00    -0.378 N 
HETATM   22  C   UNL     1      -8.880   5.275 -33.485  1.00  0.00     0.150 C 
HETATM   23  C   UNL     1      -9.178   3.873 -34.065  1.00  0.00     0.254 C 
BRANCH  21  24
HETATM   24  C   UNL     1      -7.731   5.185 -31.302  1.00  0.00     0.031 A 
HETATM   25  C   UNL     1      -6.773   6.205 -31.439  1.00  0.00     0.053 A 
HETATM   26  C   UNL     1      -5.571   6.187 -30.724  1.00  0.00     0.036 A 
HETATM   27 CL   UNL     1      -4.440   7.466 -30.928  1.00  0.00    -0.084 Cl
HETATM   28  C   UNL     1      -5.290   5.151 -29.844  1.00  0.00     0.024 A 
HETATM   29  C   UNL     1      -6.223   4.134 -29.676  1.00  0.00     0.004 A 
HETATM   30  C   UNL     1      -7.428   4.159 -30.393  1.00  0.00     0.029 A 
ENDBRANCH  21  24
ENDBRANCH  16  17
ENDBRANCH  15  16
ENDBRANCH  12  15
ENDBRANCH   5  11
BRANCH   1  31
HETATM   31  N   UNL     1      -4.355   1.956 -31.971  1.00  0.00    -0.341 N 
HETATM   32  H   UNL     1      -3.680   1.601 -31.302  1.00  0.00     0.167 HD
BRANCH  31  33
HETATM   33  C   UNL     1      -3.957   3.198 -32.511  1.00  0.00     0.033 A 
HETATM   34  C   UNL     1      -2.693   3.748 -32.278  1.00  0.00     0.032 A 
HETATM   35  C   UNL     1      -2.292   4.928 -32.912  1.00  0.00     0.039 A 
HETATM   36  C   UNL     1      -3.138   5.576 -33.812  1.00  0.00     0.068 A 
HETATM   37  C   UNL     1      -4.396   5.034 -34.066  1.00  0.00     0.039 A 
HETATM   38  C   UNL     1      -4.794   3.849 -33.431  1.00  0.00     0.032 A 
BRANCH  36  39
HETATM   39  O   UNL     1      -2.618   6.708 -34.372  1.00  0.00    -0.356 OA
HETATM   40  C   UNL     1      -1.772   7.502 -33.550  1.00  0.00     0.210 C 
ENDBRANCH  36  39
ENDBRANCH  31  33
ENDBRANCH   1  31
TORSDOF 8
ENDMDL
MODEL 4
REMARK VINA RESULT:      -9.8      4.304     10.625
REMARK  8 active torsions:
REMARK  status: ('A' for Active; 'I' for Inactive)
REMARK    1  A    between atoms: O_2  and  C_3 
REMARK    2  A    between atoms: C_6  and  N_7 
REMARK    3  A    between atoms: N_7  and  C_8 
REMARK    4  A    between atoms: C_12  and  C_13 
REMARK       I    between atoms: C_13  and  N_14 
REMARK    5  A    between atoms: N_14  and  C_15 
REMARK    6  A    between atoms: C_15  and  C_16 
REMARK    7  A    between atoms: C_16  and  N_17 
REMARK    8  A    between atoms: N_21  and  C_22 
ROOT
HETATM    1  C   UNL     1      -0.082   6.970 -29.796  1.00  0.00     0.129 A 
HETATM    2  N   UNL     1       0.885   7.429 -28.982  1.00  0.00    -0.231 NA
HETATM    3  C   UNL     1       0.577   7.983 -27.800  1.00  0.00     0.070 A 
HETATM    4  C   UNL     1      -0.742   8.070 -27.317  1.00  0.00     0.009 A 
HETATM    5  C   UNL     1      -1.735   7.502 -28.148  1.00  0.00     0.048 A 
HETATM    6  C   UNL     1      -1.410   7.001 -29.410  1.00  0.00     0.068 A 
HETATM    7  C   UNL     1       1.613   8.489 -27.029  1.00  0.00     0.032 A 
HETATM    8  C   UNL     1       1.385   9.104 -25.797  1.00  0.00     0.002 A 
HETATM    9  C   UNL     1       0.088   9.230 -25.323  1.00  0.00     0.001 A 
HETATM   10  C   UNL     1      -0.970   8.724 -26.077  1.00  0.00     0.015 A 
ENDROOT
BRANCH   5  11
HETATM   11  C   UNL     1      -3.150   7.332 -27.737  1.00  0.00     0.252 C 
HETATM   12  N   UNL     1      -3.840   6.293 -28.323  1.00  0.00    -0.355 N 
HETATM   13  H   UNL     1      -3.310   5.684 -28.943  1.00  0.00     0.162 HD
HETATM   14  O   UNL     1      -3.712   8.169 -27.036  1.00  0.00    -0.268 OA
BRANCH  12  15
HETATM   15  C   UNL     1      -5.148   5.794 -27.903  1.00  0.00     0.150 C 
BRANCH  15  16
HETATM   16  C   UNL     1      -6.082   5.145 -28.951  1.00  0.00     0.254 C 
BRANCH  16  17
HETATM   17  N   UNL     1      -5.594   3.811 -29.451  1.00  0.00    -0.067 N 
HETATM   18  H   UNL     1      -4.901   3.521 -28.733  1.00  0.00     0.280 HD
HETATM   19  C   UNL     1      -6.651   2.725 -29.563  1.00  0.00     0.254 C 
HETATM   20  C   UNL     1      -6.000   1.384 -29.960  1.00  0.00     0.150 C 
HETATM   21  N   UNL     1      -5.195   1.521 -31.185  1.00  0.00    -0.378 N 
HETATM   22  C   UNL     1      -4.162   2.577 -31.127  1.00  0.00     0.150 C 
HETATM   23  C   UNL     1      -4.792   3.936 -30.744  1.00  0.00     0.254 C 
BRANCH  21  24
HETATM   24  C   UNL     1      -5.693   1.143 -32.429  1.00  0.00     0.031 A 
HETATM   25  C   UNL     1      -5.583  -0.190 -32.860  1.00  0.00     0.053 A 
HETATM   26  C   UNL     1      -6.096  -0.610 -34.092  1.00  0.00     0.036 A 
HETATM   27 CL   UNL     1      -5.937  -2.257 -34.564  1.00  0.00    -0.084 Cl
HETATM   28  C   UNL     1      -6.741   0.288 -34.929  1.00  0.00     0.024 A 
HETATM   29  C   UNL     1      -6.878   1.611 -34.525  1.00  0.00     0.004 A 
HETATM   30  C   UNL     1      -6.365   2.027 -33.288  1.00  0.00     0.029 A 
ENDBRANCH  21  24
ENDBRANCH  16  17
ENDBRANCH  15  16
ENDBRANCH  12  15
ENDBRANCH   5  11
BRANCH   1  31
HETATM   31  N   UNL     1       0.227   6.420 -31.058  1.00  0.00    -0.341 N 
HETATM   32  H   UNL     1       0.877   5.648 -30.951  1.00  0.00     0.167 HD
BRANCH  31  33
HETATM   33  C   UNL     1      -0.647   6.223 -32.150  1.00  0.00     0.033 A 
HETATM   34  C   UNL     1      -1.261   4.994 -32.407  1.00  0.00     0.032 A 
HETATM   35  C   UNL     1      -2.201   4.859 -33.434  1.00  0.00     0.039 A 
HETATM   36  C   UNL     1      -2.567   5.956 -34.214  1.00  0.00     0.068 A 
HETATM   37  C   UNL     1      -1.974   7.191 -33.961  1.00  0.00     0.039 A 
HETATM   38  C   UNL     1      -1.034   7.324 -32.929  1.00  0.00     0.032 A 
BRANCH  36  39
HETATM   39  O   UNL     1      -3.506   5.690 -35.170  1.00  0.00    -0.356 OA
HETATM   40  C   UNL     1      -4.582   4.840 -34.797  1.00  0.00     0.210 C 
ENDBRANCH  36  39
ENDBRANCH  31  33
ENDBRANCH   1  31
TORSDOF 8
ENDMDL
MODEL 5
REMARK VINA RESULT:      -9.8      3.842     11.497
REMARK  8 active torsions:
REMARK  status: ('A' for Active; 'I' for Inactive)
REMARK    1  A    between atoms: O_2  and  C_3 
REMARK    2  A    between atoms: C_6  and  N_7 
REMARK    3  A    between atoms: N_7  and  C_8 
REMARK    4  A    between atoms: C_12  and  C_13 
REMARK       I    between atoms: C_13  and  N_14 
REMARK    5  A    between atoms: N_14  and  C_15 
REMARK    6  A    between atoms: C_15  and  C_16 
REMARK    7  A    between atoms: C_16  and  N_17 
REMARK    8  A    between atoms: N_21  and  C_22 
ROOT
HETATM    1  C   UNL     1      -2.229   7.248 -30.278  1.00  0.00     0.129 A 
HETATM    2  N   UNL     1      -1.567   7.385 -31.440  1.00  0.00    -0.231 NA
HETATM    3  C   UNL     1      -1.791   6.542 -32.457  1.00  0.00     0.070 A 
HETATM    4  C   UNL     1      -2.750   5.514 -32.401  1.00  0.00     0.009 A 
HETATM    5  C   UNL     1      -3.497   5.441 -31.204  1.00  0.00     0.048 A 
HETATM    6  C   UNL     1      -3.199   6.274 -30.124  1.00  0.00     0.068 A 
HETATM    7  C   UNL     1      -1.037   6.699 -33.612  1.00  0.00     0.032 A 
HETATM    8  C   UNL     1      -1.185   5.854 -34.712  1.00  0.00     0.002 A 
HETATM    9  C   UNL     1      -2.099   4.814 -34.659  1.00  0.00     0.001 A 
HETATM   10  C   UNL     1      -2.874   4.638 -33.513  1.00  0.00     0.015 A 
ENDROOT
BRANCH   5  11
HETATM   11  C   UNL     1      -4.670   4.551 -31.021  1.00  0.00     0.252 C 
HETATM   12  N   UNL     1      -5.910   5.148 -31.086  1.00  0.00    -0.355 N 
HETATM   13  H   UNL     1      -5.931   6.138 -31.319  1.00  0.00     0.162 HD
HETATM   14  O   UNL     1      -4.531   3.382 -30.672  1.00  0.00    -0.268 OA
BRANCH  12  15
HETATM   15  C   UNL     1      -7.191   4.446 -31.172  1.00  0.00     0.150 C 
BRANCH  15  16
HETATM   16  C   UNL     1      -7.753   4.068 -32.562  1.00  0.00     0.254 C 
BRANCH  16  17
HETATM   17  N   UNL     1      -8.112   2.611 -32.692  1.00  0.00    -0.067 N 
HETATM   18  H   UNL     1      -9.098   2.574 -32.365  1.00  0.00     0.280 HD
HETATM   19  C   UNL     1      -8.053   2.044 -34.100  1.00  0.00     0.254 C 
HETATM   20  C   UNL     1      -8.566   0.589 -34.112  1.00  0.00     0.150 C 
HETATM   21  N   UNL     1      -7.842  -0.242 -33.135  1.00  0.00    -0.378 N 
HETATM   22  C   UNL     1      -7.861   0.281 -31.752  1.00  0.00     0.150 C 
HETATM   23  C   UNL     1      -7.338   1.735 -31.711  1.00  0.00     0.254 C 
BRANCH  21  24
HETATM   24  C   UNL     1      -6.794  -1.073 -33.520  1.00  0.00     0.031 A 
HETATM   25  C   UNL     1      -7.050  -2.241 -34.257  1.00  0.00     0.053 A 
HETATM   26  C   UNL     1      -6.019  -3.083 -34.684  1.00  0.00     0.036 A 
HETATM   27 CL   UNL     1      -6.393  -4.497 -35.590  1.00  0.00    -0.084 Cl
HETATM   28  C   UNL     1      -4.696  -2.782 -34.391  1.00  0.00     0.024 A 
HETATM   29  C   UNL     1      -4.409  -1.627 -33.675  1.00  0.00     0.004 A 
HETATM   30  C   UNL     1      -5.446  -0.783 -33.252  1.00  0.00     0.029 A 
ENDBRANCH  21  24
ENDBRANCH  16  17
ENDBRANCH  15  16
ENDBRANCH  12  15
ENDBRANCH   5  11
BRANCH   1  31
HETATM   31  N   UNL     1      -1.975   8.106 -29.186  1.00  0.00    -0.341 N 
HETATM   32  H   UNL     1      -2.846   8.348 -28.725  1.00  0.00     0.167 HD
BRANCH  31  33
HETATM   33  C   UNL     1      -0.896   8.047 -28.277  1.00  0.00     0.033 A 
HETATM   34  C   UNL     1       0.436   8.161 -28.684  1.00  0.00     0.032 A 
HETATM   35  C   UNL     1       1.475   8.204 -27.749  1.00  0.00     0.039 A 
HETATM   36  C   UNL     1       1.204   8.156 -26.382  1.00  0.00     0.068 A 
HETATM   37  C   UNL     1      -0.119   8.056 -25.959  1.00  0.00     0.039 A 
HETATM   38  C   UNL     1      -1.159   8.017 -26.898  1.00  0.00     0.032 A 
BRANCH  36  39
HETATM   39  O   UNL     1       2.307   8.222 -25.578  1.00  0.00    -0.356 OA
HETATM   40  C   UNL     1       2.440   9.377 -24.760  1.00  0.00     0.210 C 
ENDBRANCH  36  39
ENDBRANCH  31  33
ENDBRANCH   1  31
TORSDOF 8
ENDMDL
MODEL 6
REMARK VINA RESULT:      -9.7      3.424      5.174
REMARK  8 active torsions:
REMARK  status: ('A' for Active; 'I' for Inactive)
REMARK    1  A    between atoms: O_2  and  C_3 
REMARK    2  A    between atoms: C_6  and  N_7 
REMARK    3  A    between atoms: N_7  and  C_8 
REMARK    4  A    between atoms: C_12  and  C_13 
REMARK       I    between atoms: C_13  and  N_14 
REMARK    5  A    between atoms: N_14  and  C_15 
REMARK    6  A    between atoms: C_15  and  C_16 
REMARK    7  A    between atoms: C_16  and  N_17 
REMARK    8  A    between atoms: N_21  and  C_22 
ROOT
HETATM    1  C   UNL     1      -8.097   1.357 -34.233  1.00  0.00     0.129 A 
HETATM    2  N   UNL     1      -7.966   0.102 -34.699  1.00  0.00    -0.231 NA
HETATM    3  C   UNL     1      -6.878  -0.624 -34.407  1.00  0.00     0.070 A 
HETATM    4  C   UNL     1      -5.848  -0.157 -33.570  1.00  0.00     0.009 A 
HETATM    5  C   UNL     1      -6.045   1.130 -33.021  1.00  0.00     0.048 A 
HETATM    6  C   UNL     1      -7.144   1.907 -33.395  1.00  0.00     0.068 A 
HETATM    7  C   UNL     1      -6.774  -1.892 -34.962  1.00  0.00     0.032 A 
HETATM    8  C   UNL     1      -5.667  -2.710 -34.733  1.00  0.00     0.002 A 
HETATM    9  C   UNL     1      -4.627  -2.250 -33.940  1.00  0.00     0.001 A 
HETATM   10  C   UNL     1      -4.710  -0.983 -33.366  1.00  0.00     0.015 A 
ENDROOT
BRANCH   5  11
HETATM   11  C   UNL     1      -5.170   1.721 -31.979  1.00  0.00     0.252 C 
HETATM   12  N   UNL     1      -4.010   2.322 -32.418  1.00  0.00    -0.355 N 
HETATM   13  H   UNL     1      -3.874   2.373 -33.426  1.00  0.00     0.162 HD
HETATM   14  O   UNL     1      -5.393   1.539 -30.785  1.00  0.00    -0.268 OA
BRANCH  12  15
HETATM   15  C   UNL     1      -3.128   3.165 -31.612  1.00  0.00     0.150 C 
BRANCH  15  16
HETATM   16  C   UNL     1      -3.009   4.670 -31.946  1.00  0.00     0.254 C 
BRANCH  16  17
HETATM   17  N   UNL     1      -4.286   5.439 -31.731  1.00  0.00    -0.067 N 
HETATM   18  H   UNL     1      -3.960   6.414 -31.577  1.00  0.00     0.280 HD
HETATM   19  C   UNL     1      -5.258   5.438 -32.898  1.00  0.00     0.254 C 
HETATM   20  C   UNL     1      -6.457   6.362 -32.598  1.00  0.00     0.150 C 
HETATM   21  N   UNL     1      -7.101   6.005 -31.323  1.00  0.00    -0.378 N 
HETATM   22  C   UNL     1      -6.188   5.980 -30.159  1.00  0.00     0.150 C 
HETATM   23  C   UNL     1      -4.984   5.049 -30.431  1.00  0.00     0.254 C 
BRANCH  21  24
HETATM   24  C   UNL     1      -8.254   5.228 -31.282  1.00  0.00     0.031 A 
HETATM   25  C   UNL     1      -9.395   5.614 -32.006  1.00  0.00     0.053 A 
HETATM   26  C   UNL     1     -10.561   4.842 -32.010  1.00  0.00     0.036 A 
HETATM   27 CL   UNL     1     -11.924   5.363 -32.921  1.00  0.00    -0.084 Cl
HETATM   28  C   UNL     1     -10.623   3.656 -31.293  1.00  0.00     0.024 A 
HETATM   29  C   UNL     1      -9.507   3.239 -30.577  1.00  0.00     0.004 A 
HETATM   30  C   UNL     1      -8.339   4.015 -30.579  1.00  0.00     0.029 A 
ENDBRANCH  21  24
ENDBRANCH  16  17
ENDBRANCH  15  16
ENDBRANCH  12  15
ENDBRANCH   5  11
BRANCH   1  31
HETATM   31  N   UNL     1      -9.219   2.146 -34.565  1.00  0.00    -0.341 N 
HETATM   32  H   UNL     1      -9.057   2.628 -35.443  1.00  0.00     0.167 HD
BRANCH  31  33
HETATM   33  C   UNL     1     -10.582   1.824 -34.385  1.00  0.00     0.033 A 
HETATM   34  C   UNL     1     -11.605   2.471 -35.086  1.00  0.00     0.032 A 
HETATM   35  C   UNL     1     -12.935   2.058 -34.964  1.00  0.00     0.039 A 
HETATM   36  C   UNL     1     -13.273   0.974 -34.154  1.00  0.00     0.068 A 
HETATM   37  C   UNL     1     -12.264   0.310 -33.459  1.00  0.00     0.039 A 
HETATM   38  C   UNL     1     -10.931   0.724 -33.586  1.00  0.00     0.032 A 
BRANCH  36  39
HETATM   39  O   UNL     1     -14.604   0.667 -34.136  1.00  0.00    -0.356 OA
HETATM   40  C   UNL     1     -15.441   1.478 -33.323  1.00  0.00     0.210 C 
ENDBRANCH  36  39
ENDBRANCH  31  33
ENDBRANCH   1  31
TORSDOF 8
ENDMDL
MODEL 7
REMARK VINA RESULT:      -9.6      3.775      6.095
REMARK  8 active torsions:
REMARK  status: ('A' for Active; 'I' for Inactive)
REMARK    1  A    between atoms: O_2  and  C_3 
REMARK    2  A    between atoms: C_6  and  N_7 
REMARK    3  A    between atoms: N_7  and  C_8 
REMARK    4  A    between atoms: C_12  and  C_13 
REMARK       I    between atoms: C_13  and  N_14 
REMARK    5  A    between atoms: N_14  and  C_15 
REMARK    6  A    between atoms: C_15  and  C_16 
REMARK    7  A    between atoms: C_16  and  N_17 
REMARK    8  A    between atoms: N_21  and  C_22 
ROOT
HETATM    1  C   UNL     1      -3.927   1.825 -31.425  1.00  0.00     0.129 A 
HETATM    2  N   UNL     1      -2.986   2.483 -32.124  1.00  0.00    -0.231 NA
HETATM    3  C   UNL     1      -2.995   3.821 -32.192  1.00  0.00     0.070 A 
HETATM    4  C   UNL     1      -3.936   4.615 -31.509  1.00  0.00     0.009 A 
HETATM    5  C   UNL     1      -4.863   3.909 -30.709  1.00  0.00     0.048 A 
HETATM    6  C   UNL     1      -4.891   2.513 -30.710  1.00  0.00     0.068 A 
HETATM    7  C   UNL     1      -2.031   4.441 -32.974  1.00  0.00     0.032 A 
HETATM    8  C   UNL     1      -1.979   5.828 -33.122  1.00  0.00     0.002 A 
HETATM    9  C   UNL     1      -2.920   6.621 -32.485  1.00  0.00     0.001 A 
HETATM   10  C   UNL     1      -3.896   6.023 -31.688  1.00  0.00     0.015 A 
ENDROOT
BRANCH   5  11
HETATM   11  C   UNL     1      -5.810   4.567 -29.775  1.00  0.00     0.252 C 
HETATM   12  N   UNL     1      -5.316   4.902 -28.533  1.00  0.00    -0.355 N 
HETATM   13  H   UNL     1      -4.325   4.734 -28.374  1.00  0.00     0.162 HD
HETATM   14  O   UNL     1      -7.005   4.657 -30.043  1.00  0.00    -0.268 OA
BRANCH  12  15
HETATM   15  C   UNL     1      -5.983   5.758 -27.553  1.00  0.00     0.150 C 
BRANCH  15  16
HETATM   16  C   UNL     1      -6.400   7.190 -27.959  1.00  0.00     0.254 C 
BRANCH  16  17
HETATM   17  N   UNL     1      -5.325   8.220 -27.732  1.00  0.00    -0.067 N 
HETATM   18  H   UNL     1      -5.859   9.089 -27.531  1.00  0.00     0.280 HD
HETATM   19  C   UNL     1      -4.394   7.950 -26.562  1.00  0.00     0.254 C 
HETATM   20  C   UNL     1      -3.429   9.137 -26.362  1.00  0.00     0.150 C 
HETATM   21  N   UNL     1      -2.703   9.452 -27.604  1.00  0.00    -0.378 N 
HETATM   22  C   UNL     1      -3.571   9.708 -28.774  1.00  0.00     0.150 C 
HETATM   23  C   UNL     1      -4.539   8.526 -29.004  1.00  0.00     0.254 C 
BRANCH  21  24
HETATM   24  C   UNL     1      -1.404   9.003 -27.822  1.00  0.00     0.031 A 
HETATM   25  C   UNL     1      -1.126   8.134 -28.892  1.00  0.00     0.053 A 
HETATM   26  C   UNL     1       0.172   7.686 -29.157  1.00  0.00     0.036 A 
HETATM   27 CL   UNL     1       0.454   6.629 -30.484  1.00  0.00    -0.084 Cl
HETATM   28  C   UNL     1       1.235   8.096 -28.364  1.00  0.00     0.024 A 
HETATM   29  C   UNL     1       0.994   8.965 -27.307  1.00  0.00     0.004 A 
HETATM   30  C   UNL     1      -0.308   9.415 -27.047  1.00  0.00     0.029 A 
ENDBRANCH  21  24
ENDBRANCH  16  17
ENDBRANCH  15  16
ENDBRANCH  12  15
ENDBRANCH   5  11
BRANCH   1  31
HETATM   31  N   UNL     1      -3.950   0.415 -31.377  1.00  0.00    -0.341 N 
HETATM   32  H   UNL     1      -3.973   0.101 -30.412  1.00  0.00     0.167 HD
BRANCH  31  33
HETATM   33  C   UNL     1      -4.646  -0.466 -32.234  1.00  0.00     0.033 A 
HETATM   34  C   UNL     1      -6.020  -0.356 -32.467  1.00  0.00     0.032 A 
HETATM   35  C   UNL     1      -6.660  -1.176 -33.400  1.00  0.00     0.039 A 
HETATM   36  C   UNL     1      -5.938  -2.113 -34.139  1.00  0.00     0.068 A 
HETATM   37  C   UNL     1      -4.566  -2.226 -33.928  1.00  0.00     0.039 A 
HETATM   38  C   UNL     1      -3.926  -1.400 -32.994  1.00  0.00     0.032 A 
BRANCH  36  39
HETATM   39  O   UNL     1      -6.682  -2.838 -35.026  1.00  0.00    -0.356 OA
HETATM   40  C   UNL     1      -6.492  -4.247 -35.026  1.00  0.00     0.210 C 
ENDBRANCH  36  39
ENDBRANCH  31  33
ENDBRANCH   1  31
TORSDOF 8
ENDMDL
MODEL 8
REMARK VINA RESULT:      -9.0      4.695     12.109
REMARK  8 active torsions:
REMARK  status: ('A' for Active; 'I' for Inactive)
REMARK    1  A    between atoms: O_2  and  C_3 
REMARK    2  A    between atoms: C_6  and  N_7 
REMARK    3  A    between atoms: N_7  and  C_8 
REMARK    4  A    between atoms: C_12  and  C_13 
REMARK       I    between atoms: C_13  and  N_14 
REMARK    5  A    between atoms: N_14  and  C_15 
REMARK    6  A    between atoms: C_15  and  C_16 
REMARK    7  A    between atoms: C_16  and  N_17 
REMARK    8  A    between atoms: N_21  and  C_22 
ROOT
HETATM    1  C   UNL     1      -0.185   7.734 -28.620  1.00  0.00     0.129 A 
HETATM    2  N   UNL     1      -1.254   7.436 -27.861  1.00  0.00    -0.231 NA
HETATM    3  C   UNL     1      -2.470   7.314 -28.413  1.00  0.00     0.070 A 
HETATM    4  C   UNL     1      -2.697   7.432 -29.796  1.00  0.00     0.009 A 
HETATM    5  C   UNL     1      -1.547   7.658 -30.586  1.00  0.00     0.048 A 
HETATM    6  C   UNL     1      -0.300   7.862 -29.992  1.00  0.00     0.068 A 
HETATM    7  C   UNL     1      -3.544   7.060 -27.572  1.00  0.00     0.032 A 
HETATM    8  C   UNL     1      -4.848   6.941 -28.054  1.00  0.00     0.002 A 
HETATM    9  C   UNL     1      -5.094   7.091 -29.410  1.00  0.00     0.001 A 
HETATM   10  C   UNL     1      -4.031   7.339 -30.277  1.00  0.00     0.015 A 
ENDROOT
BRANCH   5  11
HETATM   11  C   UNL     1      -1.552   7.629 -32.070  1.00  0.00     0.252 C 
HETATM   12  N   UNL     1      -1.047   6.493 -32.664  1.00  0.00    -0.355 N 
HETATM   13  H   UNL     1      -0.770   5.736 -32.043  1.00  0.00     0.162 HD
HETATM   14  O   UNL     1      -1.841   8.628 -32.722  1.00  0.00    -0.268 OA
BRANCH  12  15
HETATM   15  C   UNL     1      -1.168   6.146 -34.080  1.00  0.00     0.150 C 
BRANCH  15  16
HETATM   16  C   UNL     1      -2.524   5.638 -34.621  1.00  0.00     0.254 C 
BRANCH  16  17
HETATM   17  N   UNL     1      -3.395   5.006 -33.568  1.00  0.00    -0.067 N 
HETATM   18  H   UNL     1      -3.386   5.701 -32.795  1.00  0.00     0.280 HD
HETATM   19  C   UNL     1      -4.839   4.759 -33.972  1.00  0.00     0.254 C 
HETATM   20  C   UNL     1      -5.649   4.231 -32.769  1.00  0.00     0.150 C 
HETATM   21  N   UNL     1      -5.013   3.043 -32.176  1.00  0.00    -0.378 N 
HETATM   22  C   UNL     1      -3.602   3.233 -31.780  1.00  0.00     0.150 C 
HETATM   23  C   UNL     1      -2.765   3.749 -32.974  1.00  0.00     0.254 C 
BRANCH  21  24
HETATM   24  C   UNL     1      -5.454   1.757 -32.474  1.00  0.00     0.031 A 
HETATM   25  C   UNL     1      -6.243   1.524 -33.615  1.00  0.00     0.053 A 
HETATM   26  C   UNL     1      -6.679   0.241 -33.958  1.00  0.00     0.036 A 
HETATM   27 CL   UNL     1      -7.636   0.017 -35.370  1.00  0.00    -0.084 Cl
HETATM   28  C   UNL     1      -6.338  -0.853 -33.176  1.00  0.00     0.024 A 
HETATM   29  C   UNL     1      -5.548  -0.658 -32.049  1.00  0.00     0.004 A 
HETATM   30  C   UNL     1      -5.109   0.630 -31.710  1.00  0.00     0.029 A 
ENDBRANCH  21  24
ENDBRANCH  16  17
ENDBRANCH  15  16
ENDBRANCH  12  15
ENDBRANCH   5  11
BRANCH   1  31
HETATM   31  N   UNL     1       1.094   7.903 -28.046  1.00  0.00    -0.341 N 
HETATM   32  H   UNL     1       1.804   7.888 -28.770  1.00  0.00     0.167 HD
BRANCH  31  33
HETATM   33  C   UNL     1       1.453   8.751 -26.975  1.00  0.00     0.033 A 
HETATM   34  C   UNL     1       1.012  10.075 -26.886  1.00  0.00     0.032 A 
HETATM   35  C   UNL     1       1.299  10.856 -25.762  1.00  0.00     0.039 A 
HETATM   36  C   UNL     1       2.015  10.324 -24.689  1.00  0.00     0.068 A 
HETATM   37  C   UNL     1       2.449   9.002 -24.757  1.00  0.00     0.039 A 
HETATM   38  C   UNL     1       2.157   8.221 -25.883  1.00  0.00     0.032 A 
BRANCH  36  39
HETATM   39  O   UNL     1       2.212  11.188 -23.650  1.00  0.00    -0.356 OA
HETATM   40  C   UNL     1       3.139  10.789 -22.648  1.00  0.00     0.210 C 
ENDBRANCH  36  39
ENDBRANCH  31  33
ENDBRANCH   1  31
TORSDOF 8
ENDMDL
MODEL 9
REMARK VINA RESULT:      -9.0      3.541      5.500
REMARK  8 active torsions:
REMARK  status: ('A' for Active; 'I' for Inactive)
REMARK    1  A    between atoms: O_2  and  C_3 
REMARK    2  A    between atoms: C_6  and  N_7 
REMARK    3  A    between atoms: N_7  and  C_8 
REMARK    4  A    between atoms: C_12  and  C_13 
REMARK       I    between atoms: C_13  and  N_14 
REMARK    5  A    between atoms: N_14  and  C_15 
REMARK    6  A    between atoms: C_15  and  C_16 
REMARK    7  A    between atoms: C_16  and  N_17 
REMARK    8  A    between atoms: N_21  and  C_22 
ROOT
HETATM    1  C   UNL     1      -6.218   1.831 -32.902  1.00  0.00     0.129 A 
HETATM    2  N   UNL     1      -7.119   2.387 -32.074  1.00  0.00    -0.231 NA
HETATM    3  C   UNL     1      -6.736   3.273 -31.144  1.00  0.00     0.070 A 
HETATM    4  C   UNL     1      -5.406   3.714 -31.009  1.00  0.00     0.009 A 
HETATM    5  C   UNL     1      -4.490   3.184 -31.946  1.00  0.00     0.048 A 
HETATM    6  C   UNL     1      -4.887   2.203 -32.858  1.00  0.00     0.068 A 
HETATM    7  C   UNL     1      -7.701   3.771 -30.281  1.00  0.00     0.032 A 
HETATM    8  C   UNL     1      -7.390   4.679 -29.267  1.00  0.00     0.002 A 
HETATM    9  C   UNL     1      -6.079   5.094 -29.098  1.00  0.00     0.001 A 
HETATM   10  C   UNL     1      -5.091   4.614 -29.956  1.00  0.00     0.015 A 
ENDROOT
BRANCH   5  11
HETATM   11  C   UNL     1      -3.091   3.658 -32.086  1.00  0.00     0.252 C 
HETATM   12  N   UNL     1      -2.784   4.332 -33.247  1.00  0.00    -0.355 N 
HETATM   13  H   UNL     1      -3.552   4.511 -33.891  1.00  0.00     0.162 HD
HETATM   14  O   UNL     1      -2.226   3.325 -31.281  1.00  0.00    -0.268 OA
BRANCH  12  15
HETATM   15  C   UNL     1      -1.556   5.087 -33.496  1.00  0.00     0.150 C 
BRANCH  15  16
HETATM   16  C   UNL     1      -1.643   6.609 -33.753  1.00  0.00     0.254 C 
BRANCH  16  17
HETATM   17  N   UNL     1      -1.462   7.442 -32.511  1.00  0.00    -0.067 N 
HETATM   18  H   UNL     1      -0.705   8.105 -32.772  1.00  0.00     0.280 HD
HETATM   19  C   UNL     1      -2.675   8.247 -32.079  1.00  0.00     0.254 C 
HETATM   20  C   UNL     1      -2.318   9.150 -30.879  1.00  0.00     0.150 C 
HETATM   21  N   UNL     1      -1.733   8.368 -29.777  1.00  0.00    -0.378 N 
HETATM   22  C   UNL     1      -0.557   7.556 -30.156  1.00  0.00     0.150 C 
HETATM   23  C   UNL     1      -0.893   6.633 -31.349  1.00  0.00     0.254 C 
BRANCH  21  24
HETATM   24  C   UNL     1      -2.496   7.966 -28.684  1.00  0.00     0.031 A 
HETATM   25  C   UNL     1      -1.932   7.150 -27.689  1.00  0.00     0.053 A 
HETATM   26  C   UNL     1      -2.661   6.751 -26.564  1.00  0.00     0.036 A 
HETATM   27 CL   UNL     1      -1.915   5.756 -25.374  1.00  0.00    -0.084 Cl
HETATM   28  C   UNL     1      -3.976   7.160 -26.395  1.00  0.00     0.024 A 
HETATM   29  C   UNL     1      -4.558   7.979 -27.355  1.00  0.00     0.004 A 
HETATM   30  C   UNL     1      -3.822   8.379 -28.479  1.00  0.00     0.029 A 
ENDBRANCH  21  24
ENDBRANCH  16  17
ENDBRANCH  15  16
ENDBRANCH  12  15
ENDBRANCH   5  11
BRANCH   1  31
HETATM   31  N   UNL     1      -6.604   0.869 -33.860  1.00  0.00    -0.341 N 
HETATM   32  H   UNL     1      -6.823   1.324 -34.740  1.00  0.00     0.167 HD
BRANCH  31  33
HETATM   33  C   UNL     1      -6.059  -0.419 -34.056  1.00  0.00     0.033 A 
HETATM   34  C   UNL     1      -4.908  -0.855 -33.394  1.00  0.00     0.032 A 
HETATM   35  C   UNL     1      -4.454  -2.171 -33.528  1.00  0.00     0.039 A 
HETATM   36  C   UNL     1      -5.153  -3.089 -34.312  1.00  0.00     0.068 A 
HETATM   37  C   UNL     1      -6.310  -2.673 -34.968  1.00  0.00     0.039 A 
HETATM   38  C   UNL     1      -6.765  -1.355 -34.828  1.00  0.00     0.032 A 
BRANCH  36  39
HETATM   39  O   UNL     1      -4.611  -4.342 -34.346  1.00  0.00    -0.356 OA
HETATM   40  C   UNL     1      -3.468  -4.571 -33.531  1.00  0.00     0.210 C 
ENDBRANCH  36  39
ENDBRANCH  31  33
ENDBRANCH   1  31
TORSDOF 8
ENDMDL
MODEL 10
REMARK VINA RESULT:      -9.0      4.210      6.391
REMARK  8 active torsions:
REMARK  status: ('A' for Active; 'I' for Inactive)
REMARK    1  A    between atoms: O_2  and  C_3 
REMARK    2  A    between atoms: C_6  and  N_7 
REMARK    3  A    between atoms: N_7  and  C_8 
REMARK    4  A    between atoms: C_12  and  C_13 
REMARK       I    between atoms: C_13  and  N_14 
REMARK    5  A    between atoms: N_14  and  C_15 
REMARK    6  A    between atoms: C_15  and  C_16 
REMARK    7  A    between atoms: C_16  and  N_17 
REMARK    8  A    between atoms: N_21  and  C_22 
ROOT
HETATM    1  C   UNL     1      -4.601   1.735 -31.099  1.00  0.00     0.129 A 
HETATM    2  N   UNL     1      -4.112   2.347 -32.191  1.00  0.00    -0.231 NA
HETATM    3  C   UNL     1      -4.329   3.654 -32.397  1.00  0.00     0.070 A 
HETATM    4  C   UNL     1      -5.020   4.467 -31.480  1.00  0.00     0.009 A 
HETATM    5  C   UNL     1      -5.450   3.824 -30.297  1.00  0.00     0.048 A 
HETATM    6  C   UNL     1      -5.287   2.447 -30.132  1.00  0.00     0.068 A 
HETATM    7  C   UNL     1      -3.846   4.217 -33.570  1.00  0.00     0.032 A 
HETATM    8  C   UNL     1      -4.045   5.564 -33.879  1.00  0.00     0.002 A 
HETATM    9  C   UNL     1      -4.756   6.370 -33.003  1.00  0.00     0.001 A 
HETATM   10  C   UNL     1      -5.245   5.829 -31.815  1.00  0.00     0.015 A 
ENDROOT
BRANCH   5  11
HETATM   11  C   UNL     1      -6.030   4.544 -29.136  1.00  0.00     0.252 C 
HETATM   12  N   UNL     1      -5.148   4.938 -28.154  1.00  0.00    -0.355 N 
HETATM   13  H   UNL     1      -4.160   4.765 -28.330  1.00  0.00     0.162 HD
HETATM   14  O   UNL     1      -7.245   4.636 -28.990  1.00  0.00    -0.268 OA
BRANCH  12  15
HETATM   15  C   UNL     1      -5.449   5.853 -27.054  1.00  0.00     0.150 C 
BRANCH  15  16
HETATM   16  C   UNL     1      -5.762   7.334 -27.368  1.00  0.00     0.254 C 
BRANCH  16  17
HETATM   17  N   UNL     1      -4.605   8.081 -27.976  1.00  0.00    -0.067 N 
HETATM   18  H   UNL     1      -4.655   9.016 -27.526  1.00  0.00     0.280 HD
HETATM   19  C   UNL     1      -3.230   7.493 -27.708  1.00  0.00     0.254 C 
HETATM   20  C   UNL     1      -2.133   8.419 -28.273  1.00  0.00     0.150 C 
HETATM   21  N   UNL     1      -2.358   8.706 -29.699  1.00  0.00    -0.378 N 
HETATM   22  C   UNL     1      -3.690   9.267 -30.010  1.00  0.00     0.150 C 
HETATM   23  C   UNL     1      -4.809   8.350 -29.465  1.00  0.00     0.254 C 
BRANCH  21  24
HETATM   24  C   UNL     1      -1.675   8.018 -30.698  1.00  0.00     0.031 A 
HETATM   25  C   UNL     1      -0.762   7.004 -30.361  1.00  0.00     0.053 A 
HETATM   26  C   UNL     1      -0.080   6.274 -31.340  1.00  0.00     0.036 A 
HETATM   27 CL   UNL     1       1.021   5.039 -30.868  1.00  0.00    -0.084 Cl
HETATM   28  C   UNL     1      -0.292   6.530 -32.687  1.00  0.00     0.024 A 
HETATM   29  C   UNL     1      -1.199   7.518 -33.052  1.00  0.00     0.004 A 
HETATM   30  C   UNL     1      -1.884   8.245 -32.068  1.00  0.00     0.029 A 
ENDBRANCH  21  24
ENDBRANCH  16  17
ENDBRANCH  15  16
ENDBRANCH  12  15
ENDBRANCH   5  11
BRANCH   1  31
HETATM   31  N   UNL     1      -4.412   0.352 -30.890  1.00  0.00    -0.341 N 
HETATM   32  H   UNL     1      -4.734   0.094 -29.963  1.00  0.00     0.167 HD
BRANCH  31  33
HETATM   33  C   UNL     1      -4.597  -0.694 -31.821  1.00  0.00     0.033 A 
HETATM   34  C   UNL     1      -5.694  -0.743 -32.686  1.00  0.00     0.032 A 
HETATM   35  C   UNL     1      -5.794  -1.734 -33.667  1.00  0.00     0.039 A 
HETATM   36  C   UNL     1      -4.789  -2.689 -33.821  1.00  0.00     0.068 A 
HETATM   37  C   UNL     1      -3.683  -2.646 -32.975  1.00  0.00     0.039 A 
HETATM   38  C   UNL     1      -3.583  -1.648 -31.995  1.00  0.00     0.032 A 
BRANCH  36  39
HETATM   39  O   UNL     1      -5.004  -3.589 -34.825  1.00  0.00    -0.356 OA
HETATM   40  C   UNL     1      -4.778  -4.959 -34.521  1.00  0.00     0.210 C 
ENDBRANCH  36  39
ENDBRANCH  31  33
ENDBRANCH   1  31
TORSDOF 8
ENDMDL
