MODEL 1
REMARK VINA RESULT:      -7.8      0.000      0.000
REMARK  8 active torsions:
REMARK  status: ('A' for Active; 'I' for Inactive)
REMARK    1  A    between atoms: C_2  and  C_3 
REMARK    2  A    between atoms: C_3  and  N_4 
REMARK    3  A    between atoms: C_3  and  C_20 
REMARK    4  A    between atoms: N_4  and  C_7 
REMARK    5  A    between atoms: C_7  and  C_8 
REMARK    6  A    between atoms: C_10  and  O_11 
REMARK    7  A    between atoms: C_13  and  O_14 
REMARK    8  A    between atoms: C_16  and  O_17 
ROOT
HETATM    1  N   UNL     1      -3.530   1.241 -31.932  1.00  0.00    -0.060 N 
HETATM    2  H   UNL     1      -3.878   1.309 -32.892  1.00  0.00     0.278 HD
HETATM    3  H   UNL     1      -2.498   1.262 -31.995  1.00  0.00     0.278 HD
ENDROOT
BRANCH   1   4
HETATM    4  C   UNL     1      -3.893   2.422 -31.078  1.00  0.00     0.258 C 
BRANCH   4   5
HETATM    5  C   UNL     1      -5.431   2.593 -31.010  1.00  0.00     0.016 C 
HETATM    6  C   UNL     1      -6.004   3.060 -32.353  1.00  0.00     0.012 C 
HETATM    7  C   UNL     1      -5.908   3.530 -29.893  1.00  0.00     0.012 C 
ENDBRANCH   4   5
BRANCH   4   8
HETATM    8  C   UNL     1      -3.220   3.631 -31.655  1.00  0.00     0.136 A 
HETATM    9  N   UNL     1      -2.697   3.669 -32.868  1.00  0.00    -0.231 NA
HETATM   10  C   UNL     1      -2.173   4.934 -32.999  1.00  0.00     0.085 A 
HETATM   11  C   UNL     1      -2.362   5.668 -31.833  1.00  0.00     0.062 A 
HETATM   12  C   UNL     1      -1.515   5.524 -34.086  1.00  0.00     0.034 A 
HETATM   13  N   UNL     1      -3.037   4.819 -30.992  1.00  0.00    -0.341 N 
HETATM   14  C   UNL     1      -1.918   6.982 -31.677  1.00  0.00     0.032 A 
HETATM   15  H   UNL     1      -3.339   5.054 -30.054  1.00  0.00     0.167 HD
HETATM   16  C   UNL     1      -1.259   7.556 -32.772  1.00  0.00     0.002 A 
HETATM   17  C   UNL     1      -1.061   6.843 -33.956  1.00  0.00     0.002 A 
ENDBRANCH   4   8
ENDBRANCH   1   4
BRANCH   1  18
HETATM   18  C   UNL     1      -3.885  -0.085 -31.361  1.00  0.00     0.272 C 
BRANCH  18  19
HETATM   19  C   UNL     1      -4.400  -1.002 -32.431  1.00  0.00    -0.027 A 
HETATM   20  C   UNL     1      -3.727  -2.190 -32.740  1.00  0.00     0.048 A 
HETATM   21  C   UNL     1      -4.177  -3.013 -33.781  1.00  0.00     0.104 A 
HETATM   22  C   UNL     1      -5.306  -2.642 -34.543  1.00  0.00     0.135 A 
HETATM   23  C   UNL     1      -5.971  -1.441 -34.253  1.00  0.00     0.104 A 
HETATM   24  C   UNL     1      -5.513  -0.640 -33.196  1.00  0.00     0.048 A 
BRANCH  21  25
HETATM   25  O   UNL     1      -3.487  -4.137 -34.162  1.00  0.00    -0.353 OA
HETATM   26  C   UNL     1      -3.687  -5.293 -33.354  1.00  0.00     0.210 C 
ENDBRANCH  21  25
BRANCH  22  27
HETATM   27  O   UNL     1      -5.710  -3.388 -35.621  1.00  0.00    -0.351 OA
HETATM   28  C   UNL     1      -6.665  -4.399 -35.300  1.00  0.00     0.210 C 
ENDBRANCH  22  27
BRANCH  23  29
HETATM   29  O   UNL     1      -7.054  -0.881 -34.877  1.00  0.00    -0.353 OA
HETATM   30  C   UNL     1      -7.068   0.522 -35.106  1.00  0.00     0.210 C 
ENDBRANCH  23  29
ENDBRANCH  18  19
ENDBRANCH   1  18
TORSDOF 8
ENDMDL
MODEL 2
REMARK VINA RESULT:      -7.7      3.156      7.780
REMARK  8 active torsions:
REMARK  status: ('A' for Active; 'I' for Inactive)
REMARK    1  A    between atoms: C_2  and  C_3 
REMARK    2  A    between atoms: C_3  and  N_4 
REMARK    3  A    between atoms: C_3  and  C_20 
REMARK    4  A    between atoms: N_4  and  C_7 
REMARK    5  A    between atoms: C_7  and  C_8 
REMARK    6  A    between atoms: C_10  and  O_11 
REMARK    7  A    between atoms: C_13  and  O_14 
REMARK    8  A    between atoms: C_16  and  O_17 
ROOT
HETATM    1  N   UNL     1      -7.626   0.911 -31.811  1.00  0.00    -0.060 N 
HETATM    2  H   UNL     1      -8.413   0.489 -31.310  1.00  0.00     0.278 HD
HETATM    3  H   UNL     1      -6.779   0.406 -31.502  1.00  0.00     0.278 HD
ENDROOT
BRANCH   1   4
HETATM    4  C   UNL     1      -7.685   0.705 -33.298  1.00  0.00     0.258 C 
BRANCH   4   5
HETATM    5  C   UNL     1      -9.153   0.690 -33.789  1.00  0.00     0.016 C 
HETATM    6  C   UNL     1      -9.606   2.081 -34.249  1.00  0.00     0.012 C 
HETATM    7  C   UNL     1     -10.151   0.135 -32.765  1.00  0.00     0.012 C 
ENDBRANCH   4   5
BRANCH   4   8
HETATM    8  C   UNL     1      -6.976  -0.579 -33.612  1.00  0.00     0.136 A 
HETATM    9  N   UNL     1      -5.696  -0.789 -33.359  1.00  0.00    -0.231 NA
HETATM   10  C   UNL     1      -5.441  -2.064 -33.806  1.00  0.00     0.085 A 
HETATM   11  C   UNL     1      -6.585  -2.628 -34.362  1.00  0.00     0.062 A 
HETATM   12  C   UNL     1      -4.253  -2.805 -33.775  1.00  0.00     0.034 A 
HETATM   13  N   UNL     1      -7.553  -1.665 -34.222  1.00  0.00    -0.341 N 
HETATM   14  C   UNL     1      -6.615  -3.912 -34.910  1.00  0.00     0.032 A 
HETATM   15  H   UNL     1      -8.515  -1.765 -34.520  1.00  0.00     0.167 HD
HETATM   16  C   UNL     1      -5.418  -4.637 -34.874  1.00  0.00     0.002 A 
HETATM   17  C   UNL     1      -4.257  -4.097 -34.316  1.00  0.00     0.002 A 
ENDBRANCH   4   8
ENDBRANCH   1   4
BRANCH   1  18
HETATM   18  C   UNL     1      -7.452   2.323 -31.376  1.00  0.00     0.272 C 
BRANCH  18  19
HETATM   19  C   UNL     1      -6.047   2.784 -31.629  1.00  0.00    -0.027 A 
HETATM   20  C   UNL     1      -5.797   3.942 -32.375  1.00  0.00     0.048 A 
HETATM   21  C   UNL     1      -4.483   4.335 -32.660  1.00  0.00     0.104 A 
HETATM   22  C   UNL     1      -3.394   3.557 -32.211  1.00  0.00     0.135 A 
HETATM   23  C   UNL     1      -3.638   2.383 -31.482  1.00  0.00     0.104 A 
HETATM   24  C   UNL     1      -4.962   2.016 -31.194  1.00  0.00     0.048 A 
BRANCH  21  25
HETATM   25  O   UNL     1      -4.210   5.415 -33.461  1.00  0.00    -0.353 OA
HETATM   26  C   UNL     1      -4.108   5.145 -34.856  1.00  0.00     0.210 C 
ENDBRANCH  21  25
BRANCH  22  27
HETATM   27  O   UNL     1      -2.105   3.875 -32.553  1.00  0.00    -0.351 OA
HETATM   28  C   UNL     1      -1.477   4.790 -31.654  1.00  0.00     0.210 C 
ENDBRANCH  22  27
BRANCH  23  29
HETATM   29  O   UNL     1      -2.744   1.473 -30.983  1.00  0.00    -0.353 OA
HETATM   30  C   UNL     1      -2.989   0.087 -31.179  1.00  0.00     0.210 C 
ENDBRANCH  23  29
ENDBRANCH  18  19
ENDBRANCH   1  18
TORSDOF 8
ENDMDL
MODEL 3
REMARK VINA RESULT:      -7.6      1.245      2.855
REMARK  8 active torsions:
REMARK  status: ('A' for Active; 'I' for Inactive)
REMARK    1  A    between atoms: C_2  and  C_3 
REMARK    2  A    between atoms: C_3  and  N_4 
REMARK    3  A    between atoms: C_3  and  C_20 
REMARK    4  A    between atoms: N_4  and  C_7 
REMARK    5  A    between atoms: C_7  and  C_8 
REMARK    6  A    between atoms: C_10  and  O_11 
REMARK    7  A    between atoms: C_13  and  O_14 
REMARK    8  A    between atoms: C_16  and  O_17 
ROOT
HETATM    1  N   UNL     1      -3.852   1.764 -32.335  1.00  0.00    -0.060 N 
HETATM    2  H   UNL     1      -4.198   1.790 -33.298  1.00  0.00     0.278 HD
HETATM    3  H   UNL     1      -2.839   1.967 -32.384  1.00  0.00     0.278 HD
ENDROOT
BRANCH   1   4
HETATM    4  C   UNL     1      -4.426   2.846 -31.465  1.00  0.00     0.258 C 
BRANCH   4   5
HETATM    5  C   UNL     1      -5.745   3.389 -32.067  1.00  0.00     0.016 C 
HETATM    6  C   UNL     1      -6.961   2.613 -31.548  1.00  0.00     0.012 C 
HETATM    7  C   UNL     1      -5.768   3.417 -33.601  1.00  0.00     0.012 C 
ENDBRANCH   4   5
BRANCH   4   8
HETATM    8  C   UNL     1      -3.390   3.921 -31.324  1.00  0.00     0.136 A 
HETATM    9  N   UNL     1      -2.121   3.764 -31.658  1.00  0.00    -0.231 NA
HETATM   10  C   UNL     1      -1.515   4.962 -31.362  1.00  0.00     0.085 A 
HETATM   11  C   UNL     1      -2.432   5.855 -30.815  1.00  0.00     0.062 A 
HETATM   12  C   UNL     1      -0.182   5.358 -31.529  1.00  0.00     0.034 A 
HETATM   13  N   UNL     1      -3.622   5.171 -30.806  1.00  0.00    -0.341 N 
HETATM   14  C   UNL     1      -2.090   7.145 -30.408  1.00  0.00     0.032 A 
HETATM   15  H   UNL     1      -4.502   5.547 -30.475  1.00  0.00     0.167 HD
HETATM   16  C   UNL     1      -0.753   7.524 -30.578  1.00  0.00     0.002 A 
HETATM   17  C   UNL     1       0.185   6.650 -31.129  1.00  0.00     0.002 A 
ENDBRANCH   4   8
ENDBRANCH   1   4
BRANCH   1  18
HETATM   18  C   UNL     1      -3.974   0.385 -31.792  1.00  0.00     0.272 C 
BRANCH  18  19
HETATM   19  C   UNL     1      -4.507  -0.550 -32.838  1.00  0.00    -0.027 A 
HETATM   20  C   UNL     1      -5.693  -0.257 -33.522  1.00  0.00     0.048 A 
HETATM   21  C   UNL     1      -6.219  -1.162 -34.454  1.00  0.00     0.104 A 
HETATM   22  C   UNL     1      -5.566  -2.389 -34.700  1.00  0.00     0.135 A 
HETATM   23  C   UNL     1      -4.389  -2.698 -34.001  1.00  0.00     0.104 A 
HETATM   24  C   UNL     1      -3.871  -1.771 -33.084  1.00  0.00     0.048 A 
BRANCH  21  25
HETATM   25  O   UNL     1      -7.423  -0.941 -35.073  1.00  0.00    -0.353 OA
HETATM   26  C   UNL     1      -8.050   0.307 -34.789  1.00  0.00     0.210 C 
ENDBRANCH  21  25
BRANCH  22  27
HETATM   27  O   UNL     1      -6.109  -3.326 -35.542  1.00  0.00    -0.351 OA
HETATM   28  C   UNL     1      -6.776  -4.392 -34.866  1.00  0.00     0.210 C 
ENDBRANCH  22  27
BRANCH  23  29
HETATM   29  O   UNL     1      -3.620  -3.830 -34.061  1.00  0.00    -0.353 OA
HETATM   30  C   UNL     1      -3.460  -4.617 -32.888  1.00  0.00     0.210 C 
ENDBRANCH  23  29
ENDBRANCH  18  19
ENDBRANCH   1  18
TORSDOF 8
ENDMDL
MODEL 4
REMARK VINA RESULT:      -7.6      3.487      8.236
REMARK  8 active torsions:
REMARK  status: ('A' for Active; 'I' for Inactive)
REMARK    1  A    between atoms: C_2  and  C_3 
REMARK    2  A    between atoms: C_3  and  N_4 
REMARK    3  A    between atoms: C_3  and  C_20 
REMARK    4  A    between atoms: N_4  and  C_7 
REMARK    5  A    between atoms: C_7  and  C_8 
REMARK    6  A    between atoms: C_10  and  O_11 
REMARK    7  A    between atoms: C_13  and  O_14 
REMARK    8  A    between atoms: C_16  and  O_17 
ROOT
HETATM    1  N   UNL     1      -5.051   1.039 -31.626  1.00  0.00    -0.060 N 
HETATM    2  H   UNL     1      -5.801   1.519 -31.121  1.00  0.00     0.278 HD
HETATM    3  H   UNL     1      -5.084   0.050 -31.326  1.00  0.00     0.278 HD
ENDROOT
BRANCH   1   4
HETATM    4  C   UNL     1      -5.260   1.003 -33.114  1.00  0.00     0.258 C 
BRANCH   4   5
HETATM    5  C   UNL     1      -6.541   1.780 -33.503  1.00  0.00     0.016 C 
HETATM    6  C   UNL     1      -6.204   3.134 -34.141  1.00  0.00     0.012 C 
HETATM    7  C   UNL     1      -7.526   1.987 -32.345  1.00  0.00     0.012 C 
ENDBRANCH   4   5
BRANCH   4   8
HETATM    8  C   UNL     1      -5.328  -0.435 -33.533  1.00  0.00     0.136 A 
HETATM    9  N   UNL     1      -6.414  -1.003 -34.028  1.00  0.00    -0.231 NA
HETATM   10  C   UNL     1      -6.065  -2.312 -34.265  1.00  0.00     0.085 A 
HETATM   11  C   UNL     1      -4.748  -2.546 -33.883  1.00  0.00     0.062 A 
HETATM   12  C   UNL     1      -6.824  -3.360 -34.800  1.00  0.00     0.034 A 
HETATM   13  N   UNL     1      -4.296  -1.334 -33.425  1.00  0.00    -0.341 N 
HETATM   14  C   UNL     1      -4.130  -3.793 -33.998  1.00  0.00     0.032 A 
HETATM   15  H   UNL     1      -3.361  -1.159 -33.079  1.00  0.00     0.167 HD
HETATM   16  C   UNL     1      -4.904  -4.831 -34.531  1.00  0.00     0.002 A 
HETATM   17  C   UNL     1      -6.227  -4.621 -34.927  1.00  0.00     0.002 A 
ENDBRANCH   4   8
ENDBRANCH   1   4
BRANCH   1  18
HETATM   18  C   UNL     1      -3.730   1.564 -31.187  1.00  0.00     0.272 C 
BRANCH  18  19
HETATM   19  C   UNL     1      -3.634   3.038 -31.448  1.00  0.00    -0.027 A 
HETATM   20  C   UNL     1      -4.590   3.920 -30.932  1.00  0.00     0.048 A 
HETATM   21  C   UNL     1      -4.530   5.288 -31.229  1.00  0.00     0.104 A 
HETATM   22  C   UNL     1      -3.512   5.790 -32.069  1.00  0.00     0.135 A 
HETATM   23  C   UNL     1      -2.564   4.907 -32.609  1.00  0.00     0.104 A 
HETATM   24  C   UNL     1      -2.634   3.543 -32.285  1.00  0.00     0.048 A 
BRANCH  21  25
HETATM   25  O   UNL     1      -5.502   6.161 -30.808  1.00  0.00    -0.353 OA
HETATM   26  C   UNL     1      -6.741   5.574 -30.423  1.00  0.00     0.210 C 
ENDBRANCH  21  25
BRANCH  22  27
HETATM   27  O   UNL     1      -3.486   7.109 -32.443  1.00  0.00    -0.351 OA
HETATM   28  C   UNL     1      -2.584   7.909 -31.679  1.00  0.00     0.210 C 
ENDBRANCH  22  27
BRANCH  23  29
HETATM   29  O   UNL     1      -1.524   5.170 -33.460  1.00  0.00    -0.353 OA
HETATM   30  C   UNL     1      -1.774   5.214 -34.859  1.00  0.00     0.210 C 
ENDBRANCH  23  29
ENDBRANCH  18  19
ENDBRANCH   1  18
TORSDOF 8
ENDMDL
MODEL 5
REMARK VINA RESULT:      -7.5      3.549      8.150
REMARK  8 active torsions:
REMARK  status: ('A' for Active; 'I' for Inactive)
REMARK    1  A    between atoms: C_2  and  C_3 
REMARK    2  A    between atoms: C_3  and  N_4 
REMARK    3  A    between atoms: C_3  and  C_20 
REMARK    4  A    between atoms: N_4  and  C_7 
REMARK    5  A    between atoms: C_7  and  C_8 
REMARK    6  A    between atoms: C_10  and  O_11 
REMARK    7  A    between atoms: C_13  and  O_14 
REMARK    8  A    between atoms: C_16  and  O_17 
ROOT
HETATM    1  N   UNL     1      -4.983   1.010 -31.608  1.00  0.00    -0.060 N 
HETATM    2  H   UNL     1      -5.733   1.450 -31.067  1.00  0.00     0.278 HD
HETATM    3  H   UNL     1      -4.959   0.017 -31.320  1.00  0.00     0.278 HD
ENDROOT
BRANCH   1   4
HETATM    4  C   UNL     1      -5.250   0.983 -33.086  1.00  0.00     0.258 C 
BRANCH   4   5
HETATM    5  C   UNL     1      -6.556   1.746 -33.419  1.00  0.00     0.016 C 
HETATM    6  C   UNL     1      -6.264   3.082 -34.112  1.00  0.00     0.012 C 
HETATM    7  C   UNL     1      -7.470   1.981 -32.210  1.00  0.00     0.012 C 
ENDBRANCH   4   5
BRANCH   4   8
HETATM    8  C   UNL     1      -5.316  -0.453 -33.515  1.00  0.00     0.136 A 
HETATM    9  N   UNL     1      -6.400  -1.020 -34.013  1.00  0.00    -0.231 NA
HETATM   10  C   UNL     1      -6.049  -2.326 -34.257  1.00  0.00     0.085 A 
HETATM   11  C   UNL     1      -4.732  -2.561 -33.877  1.00  0.00     0.062 A 
HETATM   12  C   UNL     1      -6.807  -3.373 -34.799  1.00  0.00     0.034 A 
HETATM   13  N   UNL     1      -4.282  -1.351 -33.412  1.00  0.00    -0.341 N 
HETATM   14  C   UNL     1      -4.112  -3.806 -33.999  1.00  0.00     0.032 A 
HETATM   15  H   UNL     1      -3.347  -1.176 -33.064  1.00  0.00     0.167 HD
HETATM   16  C   UNL     1      -4.885  -4.842 -34.538  1.00  0.00     0.002 A 
HETATM   17  C   UNL     1      -6.208  -4.631 -34.933  1.00  0.00     0.002 A 
ENDBRANCH   4   8
ENDBRANCH   1   4
BRANCH   1  18
HETATM   18  C   UNL     1      -3.671   1.589 -31.215  1.00  0.00     0.272 C 
BRANCH  18  19
HETATM   19  C   UNL     1      -3.614   3.050 -31.553  1.00  0.00    -0.027 A 
HETATM   20  C   UNL     1      -2.635   3.545 -32.422  1.00  0.00     0.048 A 
HETATM   21  C   UNL     1      -2.548   4.918 -32.688  1.00  0.00     0.104 A 
HETATM   22  C   UNL     1      -3.438   5.821 -32.067  1.00  0.00     0.135 A 
HETATM   23  C   UNL     1      -4.407   5.333 -31.177  1.00  0.00     0.104 A 
HETATM   24  C   UNL     1      -4.487   3.953 -30.937  1.00  0.00     0.048 A 
BRANCH  21  25
HETATM   25  O   UNL     1      -1.545   5.440 -33.467  1.00  0.00    -0.353 OA
HETATM   26  C   UNL     1      -1.687   5.254 -34.872  1.00  0.00     0.210 C 
ENDBRANCH  21  25
BRANCH  22  27
HETATM   27  O   UNL     1      -3.314   7.175 -32.245  1.00  0.00    -0.351 OA
HETATM   28  C   UNL     1      -2.516   7.818 -31.250  1.00  0.00     0.210 C 
ENDBRANCH  22  27
BRANCH  23  29
HETATM   29  O   UNL     1      -5.339   6.025 -30.450  1.00  0.00    -0.353 OA
HETATM   30  C   UNL     1      -5.743   5.516 -29.186  1.00  0.00     0.210 C 
ENDBRANCH  23  29
ENDBRANCH  18  19
ENDBRANCH   1  18
TORSDOF 8
ENDMDL
MODEL 6
REMARK VINA RESULT:      -7.5      1.583      2.013
REMARK  8 active torsions:
REMARK  status: ('A' for Active; 'I' for Inactive)
REMARK    1  A    between atoms: C_2  and  C_3 
REMARK    2  A    between atoms: C_3  and  N_4 
REMARK    3  A    between atoms: C_3  and  C_20 
REMARK    4  A    between atoms: N_4  and  C_7 
REMARK    5  A    between atoms: C_7  and  C_8 
REMARK    6  A    between atoms: C_10  and  O_11 
REMARK    7  A    between atoms: C_13  and  O_14 
REMARK    8  A    between atoms: C_16  and  O_17 
ROOT
HETATM    1  N   UNL     1      -3.623   2.221 -32.090  1.00  0.00    -0.060 N 
HETATM    2  H   UNL     1      -3.376   1.895 -33.029  1.00  0.00     0.278 HD
HETATM    3  H   UNL     1      -2.741   2.251 -31.551  1.00  0.00     0.278 HD
ENDROOT
BRANCH   1   4
HETATM    4  C   UNL     1      -4.147   3.628 -32.063  1.00  0.00     0.258 C 
BRANCH   4   5
HETATM    5  C   UNL     1      -4.630   4.057 -33.470  1.00  0.00     0.016 C 
HETATM    6  C   UNL     1      -4.334   5.537 -33.739  1.00  0.00     0.012 C 
HETATM    7  C   UNL     1      -6.114   3.771 -33.737  1.00  0.00     0.012 C 
ENDBRANCH   4   5
BRANCH   4   8
HETATM    8  C   UNL     1      -3.052   4.516 -31.552  1.00  0.00     0.136 A 
HETATM    9  N   UNL     1      -1.784   4.388 -31.898  1.00  0.00    -0.231 NA
HETATM   10  C   UNL     1      -1.116   5.372 -31.207  1.00  0.00     0.085 A 
HETATM   11  C   UNL     1      -1.996   6.095 -30.408  1.00  0.00     0.062 A 
HETATM   12  C   UNL     1       0.245   5.704 -31.207  1.00  0.00     0.034 A 
HETATM   13  N   UNL     1      -3.226   5.536 -30.649  1.00  0.00    -0.341 N 
HETATM   14  C   UNL     1      -1.592   7.148 -29.585  1.00  0.00     0.032 A 
HETATM   15  H   UNL     1      -4.094   5.843 -30.226  1.00  0.00     0.167 HD
HETATM   16  C   UNL     1      -0.228   7.464 -29.595  1.00  0.00     0.002 A 
HETATM   17  C   UNL     1       0.676   6.758 -30.392  1.00  0.00     0.002 A 
ENDBRANCH   4   8
ENDBRANCH   1   4
BRANCH   1  18
HETATM   18  C   UNL     1      -4.486   1.213 -31.418  1.00  0.00     0.272 C 
BRANCH  18  19
HETATM   19  C   UNL     1      -4.769   0.062 -32.338  1.00  0.00    -0.027 A 
HETATM   20  C   UNL     1      -4.092  -1.154 -32.192  1.00  0.00     0.048 A 
HETATM   21  C   UNL     1      -4.316  -2.206 -33.090  1.00  0.00     0.104 A 
HETATM   22  C   UNL     1      -5.215  -2.044 -34.166  1.00  0.00     0.135 A 
HETATM   23  C   UNL     1      -5.880  -0.819 -34.332  1.00  0.00     0.104 A 
HETATM   24  C   UNL     1      -5.653   0.215 -33.411  1.00  0.00     0.048 A 
BRANCH  21  25
HETATM   25  O   UNL     1      -3.603  -3.377 -33.023  1.00  0.00    -0.353 OA
HETATM   26  C   UNL     1      -2.912  -3.615 -31.800  1.00  0.00     0.210 C 
ENDBRANCH  21  25
BRANCH  22  27
HETATM   27  O   UNL     1      -5.382  -3.028 -35.107  1.00  0.00    -0.351 OA
HETATM   28  C   UNL     1      -6.510  -3.870 -34.868  1.00  0.00     0.210 C 
ENDBRANCH  22  27
BRANCH  23  29
HETATM   29  O   UNL     1      -6.760  -0.438 -35.310  1.00  0.00    -0.353 OA
HETATM   30  C   UNL     1      -7.980   0.185 -34.933  1.00  0.00     0.210 C 
ENDBRANCH  23  29
ENDBRANCH  18  19
ENDBRANCH   1  18
TORSDOF 8
ENDMDL
MODEL 7
REMARK VINA RESULT:      -7.5      3.376      7.904
REMARK  8 active torsions:
REMARK  status: ('A' for Active; 'I' for Inactive)
REMARK    1  A    between atoms: C_2  and  C_3 
REMARK    2  A    between atoms: C_3  and  N_4 
REMARK    3  A    between atoms: C_3  and  C_20 
REMARK    4  A    between atoms: N_4  and  C_7 
REMARK    5  A    between atoms: C_7  and  C_8 
REMARK    6  A    between atoms: C_10  and  O_11 
REMARK    7  A    between atoms: C_13  and  O_14 
REMARK    8  A    between atoms: C_16  and  O_17 
ROOT
HETATM    1  N   UNL     1      -7.026   2.448 -33.179  1.00  0.00    -0.060 N 
HETATM    2  H   UNL     1      -7.493   2.812 -32.344  1.00  0.00     0.278 HD
HETATM    3  H   UNL     1      -6.234   1.873 -32.843  1.00  0.00     0.278 HD
ENDROOT
BRANCH   1   4
HETATM    4  C   UNL     1      -7.880   1.506 -33.979  1.00  0.00     0.258 C 
BRANCH   4   5
HETATM    5  C   UNL     1      -9.262   1.317 -33.305  1.00  0.00     0.016 C 
HETATM    6  C   UNL     1     -10.407   1.558 -34.295  1.00  0.00     0.012 C 
HETATM    7  C   UNL     1      -9.472   2.179 -32.053  1.00  0.00     0.012 C 
ENDBRANCH   4   5
BRANCH   4   8
HETATM    8  C   UNL     1      -7.138   0.210 -34.108  1.00  0.00     0.136 A 
HETATM    9  N   UNL     1      -7.703  -0.923 -34.489  1.00  0.00    -0.231 NA
HETATM   10  C   UNL     1      -6.696  -1.859 -34.462  1.00  0.00     0.085 A 
HETATM   11  C   UNL     1      -5.503  -1.286 -34.034  1.00  0.00     0.062 A 
HETATM   12  C   UNL     1      -6.729  -3.222 -34.785  1.00  0.00     0.034 A 
HETATM   13  N   UNL     1      -5.807   0.035 -33.819  1.00  0.00    -0.341 N 
HETATM   14  C   UNL     1      -4.315  -2.007 -33.897  1.00  0.00     0.032 A 
HETATM   15  H   UNL     1      -5.147   0.737 -33.508  1.00  0.00     0.167 HD
HETATM   16  C   UNL     1      -4.367  -3.369 -34.221  1.00  0.00     0.002 A 
HETATM   17  C   UNL     1      -5.550  -3.967 -34.659  1.00  0.00     0.002 A 
ENDBRANCH   4   8
ENDBRANCH   1   4
BRANCH   1  18
HETATM   18  C   UNL     1      -6.428   3.569 -33.951  1.00  0.00     0.272 C 
BRANCH  18  19
HETATM   19  C   UNL     1      -5.042   3.870 -33.461  1.00  0.00    -0.027 A 
HETATM   20  C   UNL     1      -4.299   4.919 -34.015  1.00  0.00     0.048 A 
HETATM   21  C   UNL     1      -2.984   5.157 -33.597  1.00  0.00     0.104 A 
HETATM   22  C   UNL     1      -2.386   4.329 -32.622  1.00  0.00     0.135 A 
HETATM   23  C   UNL     1      -3.117   3.262 -32.080  1.00  0.00     0.104 A 
HETATM   24  C   UNL     1      -4.439   3.051 -32.501  1.00  0.00     0.048 A 
BRANCH  21  25
HETATM   25  O   UNL     1      -2.204   6.122 -34.184  1.00  0.00    -0.353 OA
HETATM   26  C   UNL     1      -2.164   7.381 -33.518  1.00  0.00     0.210 C 
ENDBRANCH  21  25
BRANCH  22  27
HETATM   27  O   UNL     1      -1.072   4.491 -32.263  1.00  0.00    -0.351 OA
HETATM   28  C   UNL     1      -0.892   5.145 -31.007  1.00  0.00     0.210 C 
ENDBRANCH  22  27
BRANCH  23  29
HETATM   29  O   UNL     1      -2.728   2.327 -31.157  1.00  0.00    -0.353 OA
HETATM   30  C   UNL     1      -3.314   1.033 -31.198  1.00  0.00     0.210 C 
ENDBRANCH  23  29
ENDBRANCH  18  19
ENDBRANCH   1  18
TORSDOF 8
ENDMDL
MODEL 8
REMARK VINA RESULT:      -7.5      1.256      2.886
REMARK  8 active torsions:
REMARK  status: ('A' for Active; 'I' for Inactive)
REMARK    1  A    between atoms: C_2  and  C_3 
REMARK    2  A    between atoms: C_3  and  N_4 
REMARK    3  A    between atoms: C_3  and  C_20 
REMARK    4  A    between atoms: N_4  and  C_7 
REMARK    5  A    between atoms: C_7  and  C_8 
REMARK    6  A    between atoms: C_10  and  O_11 
REMARK    7  A    between atoms: C_13  and  O_14 
REMARK    8  A    between atoms: C_16  and  O_17 
ROOT
HETATM    1  N   UNL     1      -5.574   1.766 -31.069  1.00  0.00    -0.060 N 
HETATM    2  H   UNL     1      -6.447   1.397 -30.682  1.00  0.00     0.278 HD
HETATM    3  H   UNL     1      -5.763   1.978 -32.064  1.00  0.00     0.278 HD
ENDROOT
BRANCH   1   4
HETATM    4  C   UNL     1      -5.157   3.076 -30.463  1.00  0.00     0.258 C 
BRANCH   4   5
HETATM    5  C   UNL     1      -6.394   3.958 -30.166  1.00  0.00     0.016 C 
HETATM    6  C   UNL     1      -6.110   4.965 -29.045  1.00  0.00     0.012 C 
HETATM    7  C   UNL     1      -7.665   3.164 -29.836  1.00  0.00     0.012 C 
ENDBRANCH   4   5
BRANCH   4   8
HETATM    8  C   UNL     1      -4.210   3.742 -31.415  1.00  0.00     0.136 A 
HETATM    9  N   UNL     1      -4.502   4.002 -32.677  1.00  0.00    -0.231 NA
HETATM   10  C   UNL     1      -3.375   4.593 -33.198  1.00  0.00     0.085 A 
HETATM   11  C   UNL     1      -2.372   4.672 -32.237  1.00  0.00     0.062 A 
HETATM   12  C   UNL     1      -3.134   5.085 -34.488  1.00  0.00     0.034 A 
HETATM   13  N   UNL     1      -2.928   4.128 -31.107  1.00  0.00    -0.341 N 
HETATM   14  C   UNL     1      -1.112   5.215 -32.492  1.00  0.00     0.032 A 
HETATM   15  H   UNL     1      -2.458   4.043 -30.214  1.00  0.00     0.167 HD
HETATM   16  C   UNL     1      -0.886   5.698 -33.787  1.00  0.00     0.002 A 
HETATM   17  C   UNL     1      -1.878   5.637 -34.768  1.00  0.00     0.002 A 
ENDBRANCH   4   8
ENDBRANCH   1   4
BRANCH   1  18
HETATM   18  C   UNL     1      -4.531   0.706 -31.060  1.00  0.00     0.272 C 
BRANCH  18  19
HETATM   19  C   UNL     1      -4.725  -0.237 -32.211  1.00  0.00    -0.027 A 
HETATM   20  C   UNL     1      -5.638   0.057 -33.230  1.00  0.00     0.048 A 
HETATM   21  C   UNL     1      -5.861  -0.855 -34.271  1.00  0.00     0.104 A 
HETATM   22  C   UNL     1      -5.178  -2.090 -34.293  1.00  0.00     0.135 A 
HETATM   23  C   UNL     1      -4.279  -2.401 -33.261  1.00  0.00     0.104 A 
HETATM   24  C   UNL     1      -4.059  -1.467 -32.238  1.00  0.00     0.048 A 
BRANCH  21  25
HETATM   25  O   UNL     1      -6.812  -0.631 -35.235  1.00  0.00    -0.353 OA
HETATM   26  C   UNL     1      -7.709   0.448 -34.986  1.00  0.00     0.210 C 
ENDBRANCH  21  25
BRANCH  22  27
HETATM   27  O   UNL     1      -5.446  -3.032 -35.253  1.00  0.00    -0.351 OA
HETATM   28  C   UNL     1      -6.445  -3.978 -34.871  1.00  0.00     0.210 C 
ENDBRANCH  22  27
BRANCH  23  29
HETATM   29  O   UNL     1      -3.542  -3.540 -33.071  1.00  0.00    -0.353 OA
HETATM   30  C   UNL     1      -2.932  -3.761 -31.806  1.00  0.00     0.210 C 
ENDBRANCH  23  29
ENDBRANCH  18  19
ENDBRANCH   1  18
TORSDOF 8
ENDMDL
MODEL 9
REMARK VINA RESULT:      -7.4      1.661      3.053
REMARK  8 active torsions:
REMARK  status: ('A' for Active; 'I' for Inactive)
REMARK    1  A    between atoms: C_2  and  C_3 
REMARK    2  A    between atoms: C_3  and  N_4 
REMARK    3  A    between atoms: C_3  and  C_20 
REMARK    4  A    between atoms: N_4  and  C_7 
REMARK    5  A    between atoms: C_7  and  C_8 
REMARK    6  A    between atoms: C_10  and  O_11 
REMARK    7  A    between atoms: C_13  and  O_14 
REMARK    8  A    between atoms: C_16  and  O_17 
ROOT
HETATM    1  N   UNL     1      -6.979   1.824 -33.552  1.00  0.00    -0.060 N 
HETATM    2  H   UNL     1      -7.676   2.312 -34.121  1.00  0.00     0.278 HD
HETATM    3  H   UNL     1      -6.143   1.709 -34.151  1.00  0.00     0.278 HD
ENDROOT
BRANCH   1   4
HETATM    4  C   UNL     1      -6.507   2.621 -32.370  1.00  0.00     0.258 C 
BRANCH   4   5
HETATM    5  C   UNL     1      -7.619   3.579 -31.879  1.00  0.00     0.016 C 
HETATM    6  C   UNL     1      -8.287   3.057 -30.601  1.00  0.00     0.012 C 
HETATM    7  C   UNL     1      -8.692   3.887 -32.933  1.00  0.00     0.012 C 
ENDBRANCH   4   5
BRANCH   4   8
HETATM    8  C   UNL     1      -5.269   3.362 -32.779  1.00  0.00     0.136 A 
HETATM    9  N   UNL     1      -4.146   3.352 -32.085  1.00  0.00    -0.231 NA
HETATM   10  C   UNL     1      -3.277   4.156 -32.784  1.00  0.00     0.085 A 
HETATM   11  C   UNL     1      -3.896   4.683 -33.913  1.00  0.00     0.062 A 
HETATM   12  C   UNL     1      -1.944   4.488 -32.511  1.00  0.00     0.034 A 
HETATM   13  N   UNL     1      -5.164   4.159 -33.893  1.00  0.00    -0.341 N 
HETATM   14  C   UNL     1      -3.255   5.547 -34.803  1.00  0.00     0.032 A 
HETATM   15  H   UNL     1      -5.876   4.339 -34.590  1.00  0.00     0.167 HD
HETATM   16  C   UNL     1      -1.924   5.871 -34.513  1.00  0.00     0.002 A 
HETATM   17  C   UNL     1      -1.277   5.351 -33.390  1.00  0.00     0.002 A 
ENDBRANCH   4   8
ENDBRANCH   1   4
BRANCH   1  18
HETATM   18  C   UNL     1      -7.457   0.451 -33.238  1.00  0.00     0.272 C 
BRANCH  18  19
HETATM   19  C   UNL     1      -6.384  -0.560 -33.517  1.00  0.00    -0.027 A 
HETATM   20  C   UNL     1      -6.579  -1.565 -34.471  1.00  0.00     0.048 A 
HETATM   21  C   UNL     1      -5.598  -2.543 -34.684  1.00  0.00     0.104 A 
HETATM   22  C   UNL     1      -4.408  -2.535 -33.925  1.00  0.00     0.135 A 
HETATM   23  C   UNL     1      -4.217  -1.544 -32.951  1.00  0.00     0.104 A 
HETATM   24  C   UNL     1      -5.205  -0.565 -32.764  1.00  0.00     0.048 A 
BRANCH  21  25
HETATM   25  O   UNL     1      -5.799  -3.589 -35.550  1.00  0.00    -0.353 OA
HETATM   26  C   UNL     1      -6.734  -4.577 -35.126  1.00  0.00     0.210 C 
ENDBRANCH  21  25
BRANCH  22  27
HETATM   27  O   UNL     1      -3.476  -3.533 -34.056  1.00  0.00    -0.351 OA
HETATM   28  C   UNL     1      -3.611  -4.580 -33.095  1.00  0.00     0.210 C 
ENDBRANCH  22  27
BRANCH  23  29
HETATM   29  O   UNL     1      -3.166  -1.368 -32.091  1.00  0.00    -0.353 OA
HETATM   30  C   UNL     1      -3.142  -0.216 -31.258  1.00  0.00     0.210 C 
ENDBRANCH  23  29
ENDBRANCH  18  19
ENDBRANCH   1  18
TORSDOF 8
ENDMDL
MODEL 10
REMARK VINA RESULT:      -7.2      3.818      6.266
REMARK  8 active torsions:
REMARK  status: ('A' for Active; 'I' for Inactive)
REMARK    1  A    between atoms: C_2  and  C_3 
REMARK    2  A    between atoms: C_3  and  N_4 
REMARK    3  A    between atoms: C_3  and  C_20 
REMARK    4  A    between atoms: N_4  and  C_7 
REMARK    5  A    between atoms: C_7  and  C_8 
REMARK    6  A    between atoms: C_10  and  O_11 
REMARK    7  A    between atoms: C_13  and  O_14 
REMARK    8  A    between atoms: C_16  and  O_17 
ROOT
HETATM    1  N   UNL     1      -6.516   1.687 -33.003  1.00  0.00    -0.060 N 
HETATM    2  H   UNL     1      -5.889   2.196 -33.632  1.00  0.00     0.278 HD
HETATM    3  H   UNL     1      -5.921   1.289 -32.257  1.00  0.00     0.278 HD
ENDROOT
BRANCH   1   4
HETATM    4  C   UNL     1      -7.496   2.575 -32.290  1.00  0.00     0.258 C 
BRANCH   4   5
HETATM    5  C   UNL     1      -7.598   2.185 -30.794  1.00  0.00     0.016 C 
HETATM    6  C   UNL     1      -7.942   3.396 -29.920  1.00  0.00     0.012 C 
HETATM    7  C   UNL     1      -6.346   1.490 -30.242  1.00  0.00     0.012 C 
ENDBRANCH   4   5
BRANCH   4   8
HETATM    8  C   UNL     1      -8.817   2.457 -32.990  1.00  0.00     0.136 A 
HETATM    9  N   UNL     1      -9.710   1.522 -32.718  1.00  0.00    -0.231 NA
HETATM   10  C   UNL     1     -10.756   1.755 -33.579  1.00  0.00     0.085 A 
HETATM   11  C   UNL     1     -10.480   2.839 -34.407  1.00  0.00     0.062 A 
HETATM   12  C   UNL     1     -11.973   1.076 -33.716  1.00  0.00     0.034 A 
HETATM   13  N   UNL     1      -9.240   3.275 -34.009  1.00  0.00    -0.341 N 
HETATM   14  C   UNL     1     -11.360   3.293 -35.390  1.00  0.00     0.032 A 
HETATM   15  H   UNL     1      -8.750   4.065 -34.409  1.00  0.00     0.167 HD
HETATM   16  C   UNL     1     -12.571   2.600 -35.516  1.00  0.00     0.002 A 
HETATM   17  C   UNL     1     -12.875   1.513 -34.695  1.00  0.00     0.002 A 
ENDBRANCH   4   8
ENDBRANCH   1   4
BRANCH   1  18
HETATM   18  C   UNL     1      -7.117   0.530 -33.718  1.00  0.00     0.272 C 
BRANCH  18  19
HETATM   19  C   UNL     1      -6.117  -0.578 -33.866  1.00  0.00    -0.027 A 
HETATM   20  C   UNL     1      -6.341  -1.629 -34.763  1.00  0.00     0.048 A 
HETATM   21  C   UNL     1      -5.433  -2.693 -34.853  1.00  0.00     0.104 A 
HETATM   22  C   UNL     1      -4.289  -2.724 -34.027  1.00  0.00     0.135 A 
HETATM   23  C   UNL     1      -4.071  -1.685 -33.110  1.00  0.00     0.104 A 
HETATM   24  C   UNL     1      -4.984  -0.622 -33.047  1.00  0.00     0.048 A 
BRANCH  21  25
HETATM   25  O   UNL     1      -5.672  -3.778 -35.659  1.00  0.00    -0.353 OA
HETATM   26  C   UNL     1      -6.732  -4.636 -35.250  1.00  0.00     0.210 C 
ENDBRANCH  21  25
BRANCH  22  27
HETATM   27  O   UNL     1      -3.435  -3.798 -34.037  1.00  0.00    -0.351 OA
HETATM   28  C   UNL     1      -3.724  -4.775 -33.038  1.00  0.00     0.210 C 
ENDBRANCH  22  27
BRANCH  23  29
HETATM   29  O   UNL     1      -3.056  -1.532 -32.202  1.00  0.00    -0.353 OA
HETATM   30  C   UNL     1      -3.040  -0.375 -31.377  1.00  0.00     0.210 C 
ENDBRANCH  23  29
ENDBRANCH  18  19
ENDBRANCH   1  18
TORSDOF 8
ENDMDL
