MODEL 1
REMARK VINA RESULT:      -8.6      0.000      0.000
REMARK  7 active torsions:
REMARK  status: ('A' for Active; 'I' for Inactive)
REMARK    1  A    between atoms: N_2  and  C_4 
REMARK       I    between atoms: N_7  and  C_8 
REMARK    2  A    between atoms: C_8  and  C_9 
REMARK    3  A    between atoms: N_12  and  C_13 
REMARK    4  A    between atoms: C_20  and  C_21 
REMARK    5  A    between atoms: C_21  and  N_22 
REMARK    6  A    between atoms: N_22  and  C_25 
REMARK    7  A    between atoms: C_25  and  C_26 
ROOT
HETATM    1  C   UNL     1      -5.704   3.049 -33.160  1.00  0.00     0.719 A 
HETATM    2  N   UNL     1      -5.871   2.189 -32.082  1.00  0.00    -0.154 N 
HETATM    3  C   UNL     1      -6.462   1.035 -32.611  1.00  0.00     0.083 A 
HETATM    4  C   UNL     1      -6.700  -0.066 -31.740  1.00  0.00     0.033 A 
HETATM    5  C   UNL     1      -6.406   0.052 -30.432  1.00  0.00     0.004 A 
HETATM    6  C   UNL     1      -5.870   1.284 -29.886  1.00  0.00     0.018 A 
HETATM    7  C   UNL     1      -5.618   2.313 -30.712  1.00  0.00     0.115 A 
HETATM    8  C   UNL     1      -6.715   1.304 -33.937  1.00  0.00     0.107 A 
HETATM    9  N   UNL     1      -6.246   2.557 -34.269  1.00  0.00    -0.064 NA
ENDROOT
BRANCH   1  10
HETATM   10  N   UNL     1      -5.051   4.289 -33.162  1.00  0.00    -0.147 N 
HETATM   11  C   UNL     1      -5.694   5.509 -33.240  1.00  0.00     0.233 A 
HETATM   12  N   UNL     1      -4.867   6.530 -33.205  1.00  0.00    -0.236 NA
HETATM   13  C   UNL     1      -3.605   5.981 -33.149  1.00  0.00     0.142 A 
HETATM   14  C   UNL     1      -3.713   4.599 -33.138  1.00  0.00     0.153 A 
BRANCH  13  15
HETATM   15  C   UNL     1      -2.330   6.714 -33.055  1.00  0.00     0.273 C 
HETATM   16  N   UNL     1      -1.559   6.642 -31.873  1.00  0.00    -0.347 N 
HETATM   17  C   UNL     1      -2.161   6.529 -30.547  1.00  0.00     0.128 C 
HETATM   18  C   UNL     1      -0.241   7.266 -31.933  1.00  0.00     0.128 C 
HETATM   19  C   UNL     1      -1.200   5.892 -29.551  1.00  0.00     0.053 C 
HETATM   20  C   UNL     1       0.158   6.606 -29.505  1.00  0.00     0.190 C 
HETATM   21  C   UNL     1       0.729   6.653 -30.928  1.00  0.00     0.053 C 
HETATM   22  O   UNL     1      -1.931   7.365 -34.021  1.00  0.00    -0.266 OA
BRANCH  20  23
HETATM   23  N   UNL     1       0.062   8.012 -28.883  1.00  0.00    -0.074 N 
HETATM   24  C   UNL     1       1.351   8.443 -28.209  1.00  0.00     0.269 C 
HETATM   25  H   UNL     1      -0.113   8.698 -29.629  1.00  0.00     0.279 HD
HETATM   26  C   UNL     1      -1.074   8.161 -27.892  1.00  0.00     0.269 C 
ENDBRANCH  20  23
ENDBRANCH  13  15
ENDBRANCH   1  10
BRANCH   8  27
HETATM   27  C   UNL     1      -7.378   0.454 -34.967  1.00  0.00     0.294 C 
BRANCH  27  28
HETATM   28  N   UNL     1      -6.590  -0.778 -35.208  1.00  0.00    -0.064 N 
HETATM   29  H   UNL     1      -6.420  -0.858 -36.219  1.00  0.00     0.278 HD
HETATM   30  H   UNL     1      -5.645  -0.668 -34.819  1.00  0.00     0.278 HD
BRANCH  28  31
HETATM   31  C   UNL     1      -7.180  -2.037 -34.694  1.00  0.00     0.297 C 
BRANCH  31  32
HETATM   32  C   UNL     1      -6.173  -3.120 -34.591  1.00  0.00     0.078 A 
HETATM   33  O   UNL     1      -4.921  -2.757 -34.179  1.00  0.00    -0.325 OA
HETATM   34  C   UNL     1      -4.172  -3.891 -34.146  1.00  0.00     0.142 A 
HETATM   35  C   UNL     1      -4.927  -4.976 -34.524  1.00  0.00     0.027 A 
HETATM   36  C   UNL     1      -6.221  -4.480 -34.813  1.00  0.00     0.036 A 
ENDBRANCH  31  32
ENDBRANCH  28  31
ENDBRANCH  27  28
ENDBRANCH   8  27
TORSDOF 7
ENDMDL
MODEL 2
REMARK VINA RESULT:      -8.6      3.740      4.959
REMARK  7 active torsions:
REMARK  status: ('A' for Active; 'I' for Inactive)
REMARK    1  A    between atoms: N_2  and  C_4 
REMARK       I    between atoms: N_7  and  C_8 
REMARK    2  A    between atoms: C_8  and  C_9 
REMARK    3  A    between atoms: N_12  and  C_13 
REMARK    4  A    between atoms: C_20  and  C_21 
REMARK    5  A    between atoms: C_21  and  N_22 
REMARK    6  A    between atoms: N_22  and  C_25 
REMARK    7  A    between atoms: C_25  and  C_26 
ROOT
HETATM    1  C   UNL     1      -6.951   2.287 -33.282  1.00  0.00     0.719 A 
HETATM    2  N   UNL     1      -6.491   0.989 -33.464  1.00  0.00    -0.154 N 
HETATM    3  C   UNL     1      -7.639   0.208 -33.649  1.00  0.00     0.083 A 
HETATM    4  C   UNL     1      -7.477  -1.180 -33.926  1.00  0.00     0.033 A 
HETATM    5  C   UNL     1      -6.239  -1.709 -33.947  1.00  0.00     0.004 A 
HETATM    6  C   UNL     1      -5.068  -0.901 -33.673  1.00  0.00     0.018 A 
HETATM    7  C   UNL     1      -5.216   0.414 -33.440  1.00  0.00     0.115 A 
HETATM    8  C   UNL     1      -8.713   1.047 -33.459  1.00  0.00     0.107 A 
HETATM    9  N   UNL     1      -8.278   2.335 -33.227  1.00  0.00    -0.064 NA
ENDROOT
BRANCH   1  10
HETATM   10  N   UNL     1      -6.180   3.451 -33.169  1.00  0.00    -0.147 N 
HETATM   11  C   UNL     1      -5.715   4.187 -34.242  1.00  0.00     0.233 A 
HETATM   12  N   UNL     1      -5.029   5.249 -33.881  1.00  0.00    -0.236 NA
HETATM   13  C   UNL     1      -4.985   5.208 -32.505  1.00  0.00     0.142 A 
HETATM   14  C   UNL     1      -5.679   4.093 -32.062  1.00  0.00     0.153 A 
BRANCH  13  15
HETATM   15  C   UNL     1      -4.361   6.203 -31.615  1.00  0.00     0.273 C 
HETATM   16  N   UNL     1      -2.961   6.206 -31.430  1.00  0.00    -0.347 N 
HETATM   17  C   UNL     1      -2.165   4.981 -31.432  1.00  0.00     0.128 C 
HETATM   18  C   UNL     1      -2.421   7.325 -30.663  1.00  0.00     0.128 C 
HETATM   19  C   UNL     1      -0.714   5.259 -31.805  1.00  0.00     0.053 C 
HETATM   20  C   UNL     1      -0.082   6.351 -30.929  1.00  0.00     0.190 C 
HETATM   21  C   UNL     1      -0.963   7.605 -31.009  1.00  0.00     0.053 C 
HETATM   22  O   UNL     1      -5.065   7.047 -31.058  1.00  0.00    -0.266 OA
BRANCH  20  23
HETATM   23  N   UNL     1       0.125   5.891 -29.474  1.00  0.00    -0.074 N 
HETATM   24  C   UNL     1       0.636   7.003 -28.577  1.00  0.00     0.269 C 
HETATM   25  H   UNL     1      -0.779   5.600 -29.082  1.00  0.00     0.279 HD
HETATM   26  C   UNL     1       1.051   4.699 -29.340  1.00  0.00     0.269 C 
ENDBRANCH  20  23
ENDBRANCH  13  15
ENDBRANCH   1  10
BRANCH   8  27
HETATM   27  C   UNL     1     -10.171   0.740 -33.483  1.00  0.00     0.294 C 
BRANCH  27  28
HETATM   28  N   UNL     1     -10.923   1.734 -32.681  1.00  0.00    -0.064 N 
HETATM   29  H   UNL     1     -11.419   1.233 -31.932  1.00  0.00     0.278 HD
HETATM   30  H   UNL     1     -10.266   2.334 -32.167  1.00  0.00     0.278 HD
BRANCH  28  31
HETATM   31  C   UNL     1     -11.872   2.590 -33.431  1.00  0.00     0.297 C 
BRANCH  31  32
HETATM   32  C   UNL     1     -13.187   1.931 -33.615  1.00  0.00     0.078 A 
HETATM   33  O   UNL     1     -14.151   2.215 -32.688  1.00  0.00    -0.325 OA
HETATM   34  C   UNL     1     -15.264   1.522 -33.049  1.00  0.00     0.142 A 
HETATM   35  C   UNL     1     -15.029   0.802 -34.197  1.00  0.00     0.027 A 
HETATM   36  C   UNL     1     -13.687   1.065 -34.564  1.00  0.00     0.036 A 
ENDBRANCH  31  32
ENDBRANCH  28  31
ENDBRANCH  27  28
ENDBRANCH   8  27
TORSDOF 7
ENDMDL
MODEL 3
REMARK VINA RESULT:      -8.6      1.889      2.245
REMARK  7 active torsions:
REMARK  status: ('A' for Active; 'I' for Inactive)
REMARK    1  A    between atoms: N_2  and  C_4 
REMARK       I    between atoms: N_7  and  C_8 
REMARK    2  A    between atoms: C_8  and  C_9 
REMARK    3  A    between atoms: N_12  and  C_13 
REMARK    4  A    between atoms: C_20  and  C_21 
REMARK    5  A    between atoms: C_21  and  N_22 
REMARK    6  A    between atoms: N_22  and  C_25 
REMARK    7  A    between atoms: C_25  and  C_26 
ROOT
HETATM    1  C   UNL     1      -5.607   3.233 -32.160  1.00  0.00     0.719 A 
HETATM    2  N   UNL     1      -6.829   3.466 -31.543  1.00  0.00    -0.154 N 
HETATM    3  C   UNL     1      -7.588   2.311 -31.768  1.00  0.00     0.083 A 
HETATM    4  C   UNL     1      -8.888   2.229 -31.190  1.00  0.00     0.033 A 
HETATM    5  C   UNL     1      -9.368   3.278 -30.497  1.00  0.00     0.004 A 
HETATM    6  C   UNL     1      -8.600   4.498 -30.343  1.00  0.00     0.018 A 
HETATM    7  C   UNL     1      -7.363   4.566 -30.863  1.00  0.00     0.115 A 
HETATM    8  C   UNL     1      -6.833   1.506 -32.590  1.00  0.00     0.107 A 
HETATM    9  N   UNL     1      -5.606   2.087 -32.833  1.00  0.00    -0.064 NA
ENDROOT
BRANCH   1  10
HETATM   10  N   UNL     1      -4.469   4.049 -32.120  1.00  0.00    -0.147 N 
HETATM   11  C   UNL     1      -4.328   5.229 -32.825  1.00  0.00     0.233 A 
HETATM   12  N   UNL     1      -3.176   5.824 -32.609  1.00  0.00    -0.236 NA
HETATM   13  C   UNL     1      -2.485   4.991 -31.758  1.00  0.00     0.142 A 
HETATM   14  C   UNL     1      -3.271   3.887 -31.467  1.00  0.00     0.153 A 
BRANCH  13  15
HETATM   15  C   UNL     1      -1.148   5.232 -31.185  1.00  0.00     0.273 C 
HETATM   16  N   UNL     1      -1.017   5.947 -29.974  1.00  0.00    -0.347 N 
HETATM   17  C   UNL     1      -1.915   7.039 -29.605  1.00  0.00     0.128 C 
HETATM   18  C   UNL     1       0.326   5.995 -29.403  1.00  0.00     0.128 C 
HETATM   19  C   UNL     1      -1.961   7.237 -28.095  1.00  0.00     0.053 C 
HETATM   20  C   UNL     1      -0.564   7.412 -27.482  1.00  0.00     0.190 C 
HETATM   21  C   UNL     1       0.298   6.212 -27.894  1.00  0.00     0.053 C 
HETATM   22  O   UNL     1      -0.153   4.781 -31.753  1.00  0.00    -0.266 OA
BRANCH  20  23
HETATM   23  N   UNL     1       0.090   8.748 -27.882  1.00  0.00    -0.074 N 
HETATM   24  C   UNL     1       1.516   8.874 -27.378  1.00  0.00     0.269 C 
HETATM   25  H   UNL     1       0.143   8.803 -28.906  1.00  0.00     0.279 HD
HETATM   26  C   UNL     1      -0.691   9.965 -27.430  1.00  0.00     0.269 C 
ENDBRANCH  20  23
ENDBRANCH  13  15
ENDBRANCH   1  10
BRANCH   8  27
HETATM   27  C   UNL     1      -7.168   0.182 -33.189  1.00  0.00     0.294 C 
BRANCH  27  28
HETATM   28  N   UNL     1      -6.157  -0.831 -32.803  1.00  0.00    -0.064 N 
HETATM   29  H   UNL     1      -5.590  -0.444 -32.037  1.00  0.00     0.278 HD
HETATM   30  H   UNL     1      -6.621  -1.637 -32.366  1.00  0.00     0.278 HD
BRANCH  28  31
HETATM   31  C   UNL     1      -5.274  -1.314 -33.891  1.00  0.00     0.297 C 
BRANCH  31  32
HETATM   32  C   UNL     1      -5.626  -2.687 -34.324  1.00  0.00     0.078 A 
HETATM   33  O   UNL     1      -4.642  -3.631 -34.235  1.00  0.00    -0.325 OA
HETATM   34  C   UNL     1      -5.178  -4.803 -34.667  1.00  0.00     0.142 A 
HETATM   35  C   UNL     1      -6.494  -4.625 -35.027  1.00  0.00     0.027 A 
HETATM   36  C   UNL     1      -6.785  -3.258 -34.806  1.00  0.00     0.036 A 
ENDBRANCH  31  32
ENDBRANCH  28  31
ENDBRANCH  27  28
ENDBRANCH   8  27
TORSDOF 7
ENDMDL
MODEL 4
REMARK VINA RESULT:      -8.6      3.285      4.837
REMARK  7 active torsions:
REMARK  status: ('A' for Active; 'I' for Inactive)
REMARK    1  A    between atoms: N_2  and  C_4 
REMARK       I    between atoms: N_7  and  C_8 
REMARK    2  A    between atoms: C_8  and  C_9 
REMARK    3  A    between atoms: N_12  and  C_13 
REMARK    4  A    between atoms: C_20  and  C_21 
REMARK    5  A    between atoms: C_21  and  N_22 
REMARK    6  A    between atoms: N_22  and  C_25 
REMARK    7  A    between atoms: C_25  and  C_26 
ROOT
HETATM    1  C   UNL     1      -5.611   0.768 -32.740  1.00  0.00     0.719 A 
HETATM    2  N   UNL     1      -5.457  -0.468 -33.354  1.00  0.00    -0.154 N 
HETATM    3  C   UNL     1      -6.755  -0.912 -33.635  1.00  0.00     0.083 A 
HETATM    4  C   UNL     1      -6.915  -2.143 -34.332  1.00  0.00     0.033 A 
HETATM    5  C   UNL     1      -5.826  -2.868 -34.649  1.00  0.00     0.004 A 
HETATM    6  C   UNL     1      -4.495  -2.432 -34.278  1.00  0.00     0.018 A 
HETATM    7  C   UNL     1      -4.339  -1.257 -33.646  1.00  0.00     0.115 A 
HETATM    8  C   UNL     1      -7.608   0.016 -33.082  1.00  0.00     0.107 A 
HETATM    9  N   UNL     1      -6.891   1.053 -32.524  1.00  0.00    -0.064 NA
ENDROOT
BRANCH   1  10
HETATM   10  N   UNL     1      -4.599   1.663 -32.370  1.00  0.00    -0.147 N 
HETATM   11  C   UNL     1      -3.718   1.458 -31.325  1.00  0.00     0.233 A 
HETATM   12  N   UNL     1      -2.847   2.432 -31.187  1.00  0.00    -0.236 NA
HETATM   13  C   UNL     1      -3.178   3.362 -32.148  1.00  0.00     0.142 A 
HETATM   14  C   UNL     1      -4.268   2.900 -32.868  1.00  0.00     0.153 A 
BRANCH  13  15
HETATM   15  C   UNL     1      -2.474   4.626 -32.428  1.00  0.00     0.273 C 
HETATM   16  N   UNL     1      -2.529   5.687 -31.498  1.00  0.00    -0.347 N 
HETATM   17  C   UNL     1      -3.707   5.953 -30.677  1.00  0.00     0.128 C 
HETATM   18  C   UNL     1      -1.671   6.834 -31.786  1.00  0.00     0.128 C 
HETATM   19  C   UNL     1      -3.342   6.706 -29.403  1.00  0.00     0.053 C 
HETATM   20  C   UNL     1      -2.541   7.985 -29.687  1.00  0.00     0.190 C 
HETATM   21  C   UNL     1      -1.311   7.610 -30.524  1.00  0.00     0.053 C 
HETATM   22  O   UNL     1      -1.817   4.739 -33.464  1.00  0.00    -0.266 OA
BRANCH  20  23
HETATM   23  N   UNL     1      -3.390   9.071 -30.374  1.00  0.00    -0.074 N 
HETATM   24  C   UNL     1      -2.660  10.396 -30.493  1.00  0.00     0.269 C 
HETATM   25  H   UNL     1      -3.600   8.773 -31.335  1.00  0.00     0.279 HD
HETATM   26  C   UNL     1      -4.726   9.313 -29.701  1.00  0.00     0.269 C 
ENDBRANCH  20  23
ENDBRANCH  13  15
ENDBRANCH   1  10
BRANCH   8  27
HETATM   27  C   UNL     1      -9.098   0.022 -33.034  1.00  0.00     0.294 C 
BRANCH  27  28
HETATM   28  N   UNL     1      -9.647   0.920 -34.078  1.00  0.00    -0.064 N 
HETATM   29  H   UNL     1      -8.863   1.426 -34.511  1.00  0.00     0.278 HD
HETATM   30  H   UNL     1     -10.024   0.362 -34.854  1.00  0.00     0.278 HD
BRANCH  28  31
HETATM   31  C   UNL     1     -10.681   1.882 -33.629  1.00  0.00     0.297 C 
BRANCH  31  32
HETATM   32  C   UNL     1     -12.052   1.388 -33.895  1.00  0.00     0.078 A 
HETATM   33  O   UNL     1     -12.365   0.150 -33.405  1.00  0.00    -0.325 OA
HETATM   34  C   UNL     1     -13.657  -0.097 -33.751  1.00  0.00     0.142 A 
HETATM   35  C   UNL     1     -14.178   0.966 -34.451  1.00  0.00     0.027 A 
HETATM   36  C   UNL     1     -13.142   1.927 -34.545  1.00  0.00     0.036 A 
ENDBRANCH  31  32
ENDBRANCH  28  31
ENDBRANCH  27  28
ENDBRANCH   8  27
TORSDOF 7
ENDMDL
MODEL 5
REMARK VINA RESULT:      -8.5      4.502      9.209
REMARK  7 active torsions:
REMARK  status: ('A' for Active; 'I' for Inactive)
REMARK    1  A    between atoms: N_2  and  C_4 
REMARK       I    between atoms: N_7  and  C_8 
REMARK    2  A    between atoms: C_8  and  C_9 
REMARK    3  A    between atoms: N_12  and  C_13 
REMARK    4  A    between atoms: C_20  and  C_21 
REMARK    5  A    between atoms: C_21  and  N_22 
REMARK    6  A    between atoms: N_22  and  C_25 
REMARK    7  A    between atoms: C_25  and  C_26 
ROOT
HETATM    1  C   UNL     1      -7.424   0.112 -33.053  1.00  0.00     0.719 A 
HETATM    2  N   UNL     1      -6.667  -0.914 -33.604  1.00  0.00    -0.154 N 
HETATM    3  C   UNL     1      -5.439  -0.876 -32.931  1.00  0.00     0.083 A 
HETATM    4  C   UNL     1      -4.464  -1.866 -33.242  1.00  0.00     0.033 A 
HETATM    5  C   UNL     1      -4.725  -2.769 -34.206  1.00  0.00     0.004 A 
HETATM    6  C   UNL     1      -5.969  -2.742 -34.949  1.00  0.00     0.018 A 
HETATM    7  C   UNL     1      -6.902  -1.827 -34.637  1.00  0.00     0.115 A 
HETATM    8  C   UNL     1      -5.485   0.223 -32.104  1.00  0.00     0.107 A 
HETATM    9  N   UNL     1      -6.718   0.835 -32.189  1.00  0.00    -0.064 NA
ENDROOT
BRANCH   1  10
HETATM   10  N   UNL     1      -8.768   0.409 -33.316  1.00  0.00    -0.147 N 
HETATM   11  C   UNL     1      -9.839  -0.196 -32.687  1.00  0.00     0.233 A 
HETATM   12  N   UNL     1     -11.001   0.265 -33.092  1.00  0.00    -0.236 NA
HETATM   13  C   UNL     1     -10.711   1.189 -34.071  1.00  0.00     0.142 A 
HETATM   14  C   UNL     1      -9.336   1.270 -34.224  1.00  0.00     0.153 A 
BRANCH  13  15
HETATM   15  C   UNL     1     -11.678   2.018 -34.813  1.00  0.00     0.273 C 
HETATM   16  N   UNL     1     -11.813   3.390 -34.508  1.00  0.00    -0.347 N 
HETATM   17  C   UNL     1     -11.653   3.914 -33.154  1.00  0.00     0.128 C 
HETATM   18  C   UNL     1     -12.674   4.161 -35.401  1.00  0.00     0.128 C 
HETATM   19  C   UNL     1     -11.262   5.387 -33.167  1.00  0.00     0.053 C 
HETATM   20  C   UNL     1     -12.224   6.243 -34.003  1.00  0.00     0.190 C 
HETATM   21  C   UNL     1     -12.308   5.641 -35.412  1.00  0.00     0.053 C 
HETATM   22  O   UNL     1     -12.344   1.512 -35.717  1.00  0.00    -0.266 OA
BRANCH  20  23
HETATM   23  N   UNL     1     -13.615   6.368 -33.353  1.00  0.00    -0.074 N 
HETATM   24  C   UNL     1     -14.571   7.212 -34.176  1.00  0.00     0.269 C 
HETATM   25  H   UNL     1     -14.041   5.435 -33.289  1.00  0.00     0.279 HD
HETATM   26  C   UNL     1     -13.578   6.919 -31.942  1.00  0.00     0.269 C 
ENDBRANCH  20  23
ENDBRANCH  13  15
ENDBRANCH   1  10
BRANCH   8  27
HETATM   27  C   UNL     1      -4.436   0.773 -31.199  1.00  0.00     0.294 C 
BRANCH  27  28
HETATM   28  N   UNL     1      -3.599   1.763 -31.916  1.00  0.00    -0.064 N 
HETATM   29  H   UNL     1      -2.645   1.385 -31.990  1.00  0.00     0.278 HD
HETATM   30  H   UNL     1      -3.901   1.829 -32.896  1.00  0.00     0.278 HD
BRANCH  28  31
HETATM   31  C   UNL     1      -3.559   3.125 -31.331  1.00  0.00     0.297 C 
BRANCH  31  32
HETATM   32  C   UNL     1      -2.589   4.000 -32.031  1.00  0.00     0.078 A 
HETATM   33  O   UNL     1      -1.508   4.421 -31.307  1.00  0.00    -0.325 OA
HETATM   34  C   UNL     1      -0.755   5.194 -32.135  1.00  0.00     0.142 A 
HETATM   35  C   UNL     1      -1.334   5.269 -33.380  1.00  0.00     0.027 A 
HETATM   36  C   UNL     1      -2.520   4.499 -33.314  1.00  0.00     0.036 A 
ENDBRANCH  31  32
ENDBRANCH  28  31
ENDBRANCH  27  28
ENDBRANCH   8  27
TORSDOF 7
ENDMDL
MODEL 6
REMARK VINA RESULT:      -8.3      3.068      4.334
REMARK  7 active torsions:
REMARK  status: ('A' for Active; 'I' for Inactive)
REMARK    1  A    between atoms: N_2  and  C_4 
REMARK       I    between atoms: N_7  and  C_8 
REMARK    2  A    between atoms: C_8  and  C_9 
REMARK    3  A    between atoms: N_12  and  C_13 
REMARK    4  A    between atoms: C_20  and  C_21 
REMARK    5  A    between atoms: C_21  and  N_22 
REMARK    6  A    between atoms: N_22  and  C_25 
REMARK    7  A    between atoms: C_25  and  C_26 
ROOT
HETATM    1  C   UNL     1      -4.863   2.897 -32.565  1.00  0.00     0.719 A 
HETATM    2  N   UNL     1      -4.930   1.517 -32.702  1.00  0.00    -0.154 N 
HETATM    3  C   UNL     1      -6.287   1.225 -32.893  1.00  0.00     0.083 A 
HETATM    4  C   UNL     1      -6.662  -0.129 -33.130  1.00  0.00     0.033 A 
HETATM    5  C   UNL     1      -5.719  -1.088 -33.108  1.00  0.00     0.004 A 
HETATM    6  C   UNL     1      -4.331  -0.778 -32.827  1.00  0.00     0.018 A 
HETATM    7  C   UNL     1      -3.970   0.502 -32.632  1.00  0.00     0.115 A 
HETATM    8  C   UNL     1      -6.962   2.415 -32.751  1.00  0.00     0.107 A 
HETATM    9  N   UNL     1      -6.073   3.448 -32.543  1.00  0.00    -0.064 NA
ENDROOT
BRANCH   1  10
HETATM   10  N   UNL     1      -3.708   3.684 -32.464  1.00  0.00    -0.147 N 
HETATM   11  C   UNL     1      -3.283   4.574 -33.432  1.00  0.00     0.233 A 
HETATM   12  N   UNL     1      -2.181   5.209 -33.100  1.00  0.00    -0.236 NA
HETATM   13  C   UNL     1      -1.815   4.696 -31.874  1.00  0.00     0.142 A 
HETATM   14  C   UNL     1      -2.745   3.744 -31.486  1.00  0.00     0.153 A 
BRANCH  13  15
HETATM   15  C   UNL     1      -0.662   5.111 -31.056  1.00  0.00     0.273 C 
HETATM   16  N   UNL     1      -0.858   5.938 -29.927  1.00  0.00    -0.347 N 
HETATM   17  C   UNL     1      -1.893   6.967 -29.876  1.00  0.00     0.128 C 
HETATM   18  C   UNL     1       0.316   6.162 -29.089  1.00  0.00     0.128 C 
HETATM   19  C   UNL     1      -2.290   7.289 -28.441  1.00  0.00     0.053 C 
HETATM   20  C   UNL     1      -1.082   7.648 -27.564  1.00  0.00     0.190 C 
HETATM   21  C   UNL     1      -0.063   6.504 -27.653  1.00  0.00     0.053 C 
HETATM   22  O   UNL     1       0.465   4.710 -31.346  1.00  0.00    -0.266 OA
BRANCH  20  23
HETATM   23  N   UNL     1      -0.455   9.001 -27.951  1.00  0.00    -0.074 N 
HETATM   24  C   UNL     1       0.734   9.364 -27.083  1.00  0.00     0.269 C 
HETATM   25  H   UNL     1      -0.099   8.942 -28.914  1.00  0.00     0.279 HD
HETATM   26  C   UNL     1      -1.439  10.153 -27.931  1.00  0.00     0.269 C 
ENDBRANCH  20  23
ENDBRANCH  13  15
ENDBRANCH   1  10
BRANCH   8  27
HETATM   27  C   UNL     1      -8.427   2.685 -32.802  1.00  0.00     0.294 C 
BRANCH  27  28
HETATM   28  N   UNL     1      -8.973   2.333 -34.134  1.00  0.00    -0.064 N 
HETATM   29  H   UNL     1      -8.260   2.555 -34.842  1.00  0.00     0.278 HD
HETATM   30  H   UNL     1      -9.072   1.313 -34.211  1.00  0.00     0.278 HD
BRANCH  28  31
HETATM   31  C   UNL     1     -10.261   2.971 -34.498  1.00  0.00     0.297 C 
BRANCH  31  32
HETATM   32  C   UNL     1     -11.410   2.059 -34.291  1.00  0.00     0.078 A 
HETATM   33  O   UNL     1     -12.589   2.411 -34.887  1.00  0.00    -0.325 OA
HETATM   34  C   UNL     1     -13.492   1.442 -34.580  1.00  0.00     0.142 A 
HETATM   35  C   UNL     1     -12.908   0.471 -33.801  1.00  0.00     0.027 A 
HETATM   36  C   UNL     1     -11.562   0.868 -33.613  1.00  0.00     0.036 A 
ENDBRANCH  31  32
ENDBRANCH  28  31
ENDBRANCH  27  28
ENDBRANCH   8  27
TORSDOF 7
ENDMDL
MODEL 7
REMARK VINA RESULT:      -8.3      2.197      2.958
REMARK  7 active torsions:
REMARK  status: ('A' for Active; 'I' for Inactive)
REMARK    1  A    between atoms: N_2  and  C_4 
REMARK       I    between atoms: N_7  and  C_8 
REMARK    2  A    between atoms: C_8  and  C_9 
REMARK    3  A    between atoms: N_12  and  C_13 
REMARK    4  A    between atoms: C_20  and  C_21 
REMARK    5  A    between atoms: C_21  and  N_22 
REMARK    6  A    between atoms: N_22  and  C_25 
REMARK    7  A    between atoms: C_25  and  C_26 
ROOT
HETATM    1  C   UNL     1      -7.324   3.060 -33.509  1.00  0.00     0.719 A 
HETATM    2  N   UNL     1      -8.640   3.218 -33.923  1.00  0.00    -0.154 N 
HETATM    3  C   UNL     1      -9.197   1.933 -33.898  1.00  0.00     0.083 A 
HETATM    4  C   UNL     1     -10.577   1.786 -34.218  1.00  0.00     0.033 A 
HETATM    5  C   UNL     1     -11.288   2.869 -34.587  1.00  0.00     0.004 A 
HETATM    6  C   UNL     1     -10.674   4.178 -34.685  1.00  0.00     0.018 A 
HETATM    7  C   UNL     1      -9.380   4.324 -34.356  1.00  0.00     0.115 A 
HETATM    8  C   UNL     1      -8.171   1.073 -33.583  1.00  0.00     0.107 A 
HETATM    9  N   UNL     1      -7.010   1.779 -33.348  1.00  0.00    -0.064 NA
ENDROOT
BRANCH   1  10
HETATM   10  N   UNL     1      -6.386   4.071 -33.263  1.00  0.00    -0.147 N 
HETATM   11  C   UNL     1      -5.668   4.727 -34.244  1.00  0.00     0.233 A 
HETATM   12  N   UNL     1      -4.863   5.649 -33.765  1.00  0.00    -0.236 NA
HETATM   13  C   UNL     1      -5.003   5.585 -32.396  1.00  0.00     0.142 A 
HETATM   14  C   UNL     1      -5.929   4.603 -32.081  1.00  0.00     0.153 A 
BRANCH  13  15
HETATM   15  C   UNL     1      -4.337   6.447 -31.403  1.00  0.00     0.273 C 
HETATM   16  N   UNL     1      -2.936   6.379 -31.235  1.00  0.00    -0.347 N 
HETATM   17  C   UNL     1      -2.185   5.136 -31.391  1.00  0.00     0.128 C 
HETATM   18  C   UNL     1      -2.350   7.380 -30.348  1.00  0.00     0.128 C 
HETATM   19  C   UNL     1      -0.728   5.405 -31.744  1.00  0.00     0.053 C 
HETATM   20  C   UNL     1      -0.050   6.363 -30.755  1.00  0.00     0.190 C 
HETATM   21  C   UNL     1      -0.886   7.648 -30.676  1.00  0.00     0.053 C 
HETATM   22  O   UNL     1      -5.006   7.244 -30.743  1.00  0.00    -0.266 OA
BRANCH  20  23
HETATM   23  N   UNL     1       0.151   5.729 -29.366  1.00  0.00    -0.074 N 
HETATM   24  C   UNL     1       0.634   6.727 -28.331  1.00  0.00     0.269 C 
HETATM   25  H   UNL     1      -0.752   5.377 -29.023  1.00  0.00     0.279 HD
HETATM   26  C   UNL     1       1.095   4.544 -29.371  1.00  0.00     0.269 C 
ENDBRANCH  20  23
ENDBRANCH  13  15
ENDBRANCH   1  10
BRANCH   8  27
HETATM   27  C   UNL     1      -8.181  -0.414 -33.472  1.00  0.00     0.294 C 
BRANCH  27  28
HETATM   28  N   UNL     1      -6.799  -0.946 -33.527  1.00  0.00    -0.064 N 
HETATM   29  H   UNL     1      -6.152  -0.191 -33.260  1.00  0.00     0.278 HD
HETATM   30  H   UNL     1      -6.664  -1.643 -32.785  1.00  0.00     0.278 HD
BRANCH  28  31
HETATM   31  C   UNL     1      -6.381  -1.534 -34.822  1.00  0.00     0.297 C 
BRANCH  31  32
HETATM   32  C   UNL     1      -5.723  -2.851 -34.648  1.00  0.00     0.078 A 
HETATM   33  O   UNL     1      -4.454  -2.841 -34.138  1.00  0.00    -0.325 OA
HETATM   34  C   UNL     1      -4.053  -4.137 -34.053  1.00  0.00     0.142 A 
HETATM   35  C   UNL     1      -5.047  -4.978 -34.495  1.00  0.00     0.027 A 
HETATM   36  C   UNL     1      -6.128  -4.148 -34.880  1.00  0.00     0.036 A 
ENDBRANCH  31  32
ENDBRANCH  28  31
ENDBRANCH  27  28
ENDBRANCH   8  27
TORSDOF 7
ENDMDL
MODEL 8
REMARK VINA RESULT:      -8.2      2.390      3.306
REMARK  7 active torsions:
REMARK  status: ('A' for Active; 'I' for Inactive)
REMARK    1  A    between atoms: N_2  and  C_4 
REMARK       I    between atoms: N_7  and  C_8 
REMARK    2  A    between atoms: C_8  and  C_9 
REMARK    3  A    between atoms: N_12  and  C_13 
REMARK    4  A    between atoms: C_20  and  C_21 
REMARK    5  A    between atoms: C_21  and  N_22 
REMARK    6  A    between atoms: N_22  and  C_25 
REMARK    7  A    between atoms: C_25  and  C_26 
ROOT
HETATM    1  C   UNL     1      -7.118   2.903 -33.767  1.00  0.00     0.719 A 
HETATM    2  N   UNL     1      -8.503   2.824 -33.710  1.00  0.00    -0.154 N 
HETATM    3  C   UNL     1      -8.823   1.530 -34.139  1.00  0.00     0.083 A 
HETATM    4  C   UNL     1     -10.189   1.129 -34.128  1.00  0.00     0.033 A 
HETATM    5  C   UNL     1     -11.133   2.016 -33.761  1.00  0.00     0.004 A 
HETATM    6  C   UNL     1     -10.792   3.376 -33.398  1.00  0.00     0.018 A 
HETATM    7  C   UNL     1      -9.500   3.748 -33.380  1.00  0.00     0.115 A 
HETATM    8  C   UNL     1      -7.638   0.949 -34.530  1.00  0.00     0.107 A 
HETATM    9  N   UNL     1      -6.585   1.809 -34.301  1.00  0.00    -0.064 NA
ENDROOT
BRANCH   1  10
HETATM   10  N   UNL     1      -6.310   3.962 -33.331  1.00  0.00    -0.147 N 
HETATM   11  C   UNL     1      -5.719   4.889 -34.167  1.00  0.00     0.233 A 
HETATM   12  N   UNL     1      -5.023   5.797 -33.520  1.00  0.00    -0.236 NA
HETATM   13  C   UNL     1      -5.106   5.446 -32.190  1.00  0.00     0.142 A 
HETATM   14  C   UNL     1      -5.885   4.306 -32.070  1.00  0.00     0.153 A 
BRANCH  13  15
HETATM   15  C   UNL     1      -4.523   6.175 -31.050  1.00  0.00     0.273 C 
HETATM   16  N   UNL     1      -3.122   6.215 -30.879  1.00  0.00    -0.347 N 
HETATM   17  C   UNL     1      -2.253   5.099 -31.245  1.00  0.00     0.128 C 
HETATM   18  C   UNL     1      -2.633   7.092 -29.819  1.00  0.00     0.128 C 
HETATM   19  C   UNL     1      -0.831   5.568 -31.526  1.00  0.00     0.053 C 
HETATM   20  C   UNL     1      -0.246   6.394 -30.372  1.00  0.00     0.190 C 
HETATM   21  C   UNL     1      -1.203   7.556 -30.075  1.00  0.00     0.053 C 
HETATM   22  O   UNL     1      -5.264   6.771 -30.266  1.00  0.00    -0.266 OA
BRANCH  20  23
HETATM   23  N   UNL     1       0.024   5.543 -29.117  1.00  0.00    -0.074 N 
HETATM   24  C   UNL     1       0.375   6.384 -27.904  1.00  0.00     0.269 C 
HETATM   25  H   UNL     1      -0.832   5.029 -28.870  1.00  0.00     0.279 HD
HETATM   26  C   UNL     1       1.106   4.500 -29.312  1.00  0.00     0.269 C 
ENDBRANCH  20  23
ENDBRANCH  13  15
ENDBRANCH   1  10
BRANCH   8  27
HETATM   27  C   UNL     1      -7.392  -0.399 -35.119  1.00  0.00     0.294 C 
BRANCH  27  28
HETATM   28  N   UNL     1      -6.905  -1.336 -34.079  1.00  0.00    -0.064 N 
HETATM   29  H   UNL     1      -7.178  -0.966 -33.159  1.00  0.00     0.278 HD
HETATM   30  H   UNL     1      -7.422  -2.222 -34.139  1.00  0.00     0.278 HD
BRANCH  28  31
HETATM   31  C   UNL     1      -5.451  -1.625 -34.096  1.00  0.00     0.297 C 
BRANCH  31  32
HETATM   32  C   UNL     1      -4.758  -1.051 -32.918  1.00  0.00     0.078 A 
HETATM   33  O   UNL     1      -5.529  -0.351 -32.032  1.00  0.00    -0.325 OA
HETATM   34  C   UNL     1      -4.704   0.071 -31.038  1.00  0.00     0.142 A 
HETATM   35  C   UNL     1      -3.416  -0.352 -31.270  1.00  0.00     0.027 A 
HETATM   36  C   UNL     1      -3.449  -1.077 -32.486  1.00  0.00     0.036 A 
ENDBRANCH  31  32
ENDBRANCH  28  31
ENDBRANCH  27  28
ENDBRANCH   8  27
TORSDOF 7
ENDMDL
MODEL 9
REMARK VINA RESULT:      -8.1      2.397     10.213
REMARK  7 active torsions:
REMARK  status: ('A' for Active; 'I' for Inactive)
REMARK    1  A    between atoms: N_2  and  C_4 
REMARK       I    between atoms: N_7  and  C_8 
REMARK    2  A    between atoms: C_8  and  C_9 
REMARK    3  A    between atoms: N_12  and  C_13 
REMARK    4  A    between atoms: C_20  and  C_21 
REMARK    5  A    between atoms: C_21  and  N_22 
REMARK    6  A    between atoms: N_22  and  C_25 
REMARK    7  A    between atoms: C_25  and  C_26 
ROOT
HETATM    1  C   UNL     1      -3.354   6.121 -30.520  1.00  0.00     0.719 A 
HETATM    2  N   UNL     1      -1.985   6.151 -30.754  1.00  0.00    -0.154 N 
HETATM    3  C   UNL     1      -1.486   7.164 -29.925  1.00  0.00     0.083 A 
HETATM    4  C   UNL     1      -0.079   7.388 -29.900  1.00  0.00     0.033 A 
HETATM    5  C   UNL     1       0.718   6.666 -30.709  1.00  0.00     0.004 A 
HETATM    6  C   UNL     1       0.175   5.678 -31.620  1.00  0.00     0.018 A 
HETATM    7  C   UNL     1      -1.148   5.444 -31.624  1.00  0.00     0.115 A 
HETATM    8  C   UNL     1      -2.579   7.752 -29.332  1.00  0.00     0.107 A 
HETATM    9  N   UNL     1      -3.736   7.103 -29.710  1.00  0.00    -0.064 NA
ENDROOT
BRANCH   1  10
HETATM   10  N   UNL     1      -4.281   5.203 -31.030  1.00  0.00    -0.147 N 
HETATM   11  C   UNL     1      -5.370   4.722 -30.329  1.00  0.00     0.233 A 
HETATM   12  N   UNL     1      -6.103   3.884 -31.027  1.00  0.00    -0.236 NA
HETATM   13  C   UNL     1      -5.460   3.752 -32.238  1.00  0.00     0.142 A 
HETATM   14  C   UNL     1      -4.327   4.550 -32.238  1.00  0.00     0.153 A 
BRANCH  13  15
HETATM   15  C   UNL     1      -5.907   2.947 -33.389  1.00  0.00     0.273 C 
HETATM   16  N   UNL     1      -6.003   1.543 -33.274  1.00  0.00    -0.347 N 
HETATM   17  C   UNL     1      -5.088   0.757 -32.451  1.00  0.00     0.128 C 
HETATM   18  C   UNL     1      -6.607   0.850 -34.409  1.00  0.00     0.128 C 
HETATM   19  C   UNL     1      -5.716  -0.564 -32.023  1.00  0.00     0.053 C 
HETATM   20  C   UNL     1      -6.253  -1.372 -33.213  1.00  0.00     0.190 C 
HETATM   21  C   UNL     1      -7.225  -0.484 -34.002  1.00  0.00     0.053 C 
HETATM   22  O   UNL     1      -6.222   3.510 -34.439  1.00  0.00    -0.266 OA
BRANCH  20  23
HETATM   23  N   UNL     1      -5.126  -1.919 -34.109  1.00  0.00    -0.074 N 
HETATM   24  C   UNL     1      -5.635  -2.875 -35.171  1.00  0.00     0.269 C 
HETATM   25  H   UNL     1      -4.689  -1.138 -34.613  1.00  0.00     0.279 HD
HETATM   26  C   UNL     1      -4.015  -2.603 -33.337  1.00  0.00     0.269 C 
ENDBRANCH  20  23
ENDBRANCH  13  15
ENDBRANCH   1  10
BRANCH   8  27
HETATM   27  C   UNL     1      -2.641   8.912 -28.398  1.00  0.00     0.294 C 
BRANCH  27  28
HETATM   28  N   UNL     1      -2.681   8.444 -26.992  1.00  0.00    -0.064 N 
HETATM   29  H   UNL     1      -3.642   8.558 -26.643  1.00  0.00     0.278 HD
HETATM   30  H   UNL     1      -2.539   7.427 -26.960  1.00  0.00     0.278 HD
BRANCH  28  31
HETATM   31  C   UNL     1      -1.726   9.095 -26.063  1.00  0.00     0.297 C 
BRANCH  31  32
HETATM   32  C   UNL     1      -0.318   8.789 -26.411  1.00  0.00     0.078 A 
HETATM   33  O   UNL     1       0.092   7.497 -26.233  1.00  0.00    -0.325 OA
HETATM   34  C   UNL     1       1.394   7.440 -26.619  1.00  0.00     0.142 A 
HETATM   35  C   UNL     1       1.824   8.674 -27.047  1.00  0.00     0.027 A 
HETATM   36  C   UNL     1       0.718   9.548 -26.913  1.00  0.00     0.036 A 
ENDBRANCH  31  32
ENDBRANCH  28  31
ENDBRANCH  27  28
ENDBRANCH   8  27
TORSDOF 7
ENDMDL
MODEL 10
REMARK VINA RESULT:      -8.1      2.766      4.749
REMARK  7 active torsions:
REMARK  status: ('A' for Active; 'I' for Inactive)
REMARK    1  A    between atoms: N_2  and  C_4 
REMARK       I    between atoms: N_7  and  C_8 
REMARK    2  A    between atoms: C_8  and  C_9 
REMARK    3  A    between atoms: N_12  and  C_13 
REMARK    4  A    between atoms: C_20  and  C_21 
REMARK    5  A    between atoms: C_21  and  N_22 
REMARK    6  A    between atoms: N_22  and  C_25 
REMARK    7  A    between atoms: C_25  and  C_26 
ROOT
HETATM    1  C   UNL     1      -5.585   0.879 -32.880  1.00  0.00     0.719 A 
HETATM    2  N   UNL     1      -5.436  -0.385 -33.436  1.00  0.00    -0.154 N 
HETATM    3  C   UNL     1      -6.723  -0.777 -33.825  1.00  0.00     0.083 A 
HETATM    4  C   UNL     1      -6.880  -2.025 -34.493  1.00  0.00     0.033 A 
HETATM    5  C   UNL     1      -5.804  -2.812 -34.681  1.00  0.00     0.004 A 
HETATM    6  C   UNL     1      -4.493  -2.427 -34.199  1.00  0.00     0.018 A 
HETATM    7  C   UNL     1      -4.338  -1.237 -33.594  1.00  0.00     0.115 A 
HETATM    8  C   UNL     1      -7.576   0.210 -33.388  1.00  0.00     0.107 A 
HETATM    9  N   UNL     1      -6.863   1.233 -32.798  1.00  0.00    -0.064 NA
ENDROOT
BRANCH   1  10
HETATM   10  N   UNL     1      -4.567   1.738 -32.445  1.00  0.00    -0.147 N 
HETATM   11  C   UNL     1      -3.750   1.493 -31.358  1.00  0.00     0.233 A 
HETATM   12  N   UNL     1      -2.859   2.439 -31.160  1.00  0.00    -0.236 NA
HETATM   13  C   UNL     1      -3.110   3.390 -32.124  1.00  0.00     0.142 A 
HETATM   14  C   UNL     1      -4.174   2.970 -32.908  1.00  0.00     0.153 A 
BRANCH  13  15
HETATM   15  C   UNL     1      -2.355   4.636 -32.350  1.00  0.00     0.273 C 
HETATM   16  N   UNL     1      -2.467   5.706 -31.435  1.00  0.00    -0.347 N 
HETATM   17  C   UNL     1      -3.707   6.005 -30.723  1.00  0.00     0.128 C 
HETATM   18  C   UNL     1      -1.561   6.830 -31.653  1.00  0.00     0.128 C 
HETATM   19  C   UNL     1      -3.438   6.760 -29.427  1.00  0.00     0.053 C 
HETATM   20  C   UNL     1      -2.585   8.018 -29.647  1.00  0.00     0.190 C 
HETATM   21  C   UNL     1      -1.295   7.608 -30.370  1.00  0.00     0.053 C 
HETATM   22  O   UNL     1      -1.606   4.724 -33.324  1.00  0.00    -0.266 OA
BRANCH  20  23
HETATM   23  N   UNL     1      -3.345   9.117 -30.414  1.00  0.00    -0.074 N 
HETATM   24  C   UNL     1      -2.590  10.432 -30.451  1.00  0.00     0.269 C 
HETATM   25  H   UNL     1      -3.458   8.825 -31.393  1.00  0.00     0.279 HD
HETATM   26  C   UNL     1      -4.740   9.375 -29.882  1.00  0.00     0.269 C 
ENDBRANCH  20  23
ENDBRANCH  13  15
ENDBRANCH   1  10
BRANCH   8  27
HETATM   27  C   UNL     1      -9.062   0.290 -33.482  1.00  0.00     0.294 C 
BRANCH  27  28
HETATM   28  N   UNL     1      -9.464   1.151 -34.619  1.00  0.00    -0.064 N 
HETATM   29  H   UNL     1      -8.610   1.516 -35.063  1.00  0.00     0.278 HD
HETATM   30  H   UNL     1      -9.886   0.577 -35.359  1.00  0.00     0.278 HD
BRANCH  28  31
HETATM   31  C   UNL     1     -10.381   2.270 -34.294  1.00  0.00     0.297 C 
BRANCH  31  32
HETATM   32  C   UNL     1      -9.764   3.238 -33.357  1.00  0.00     0.078 A 
HETATM   33  O   UNL     1      -8.720   3.979 -33.838  1.00  0.00    -0.325 OA
HETATM   34  C   UNL     1      -8.319   4.798 -32.830  1.00  0.00     0.142 A 
HETATM   35  C   UNL     1      -9.093   4.597 -31.711  1.00  0.00     0.027 A 
HETATM   36  C   UNL     1     -10.027   3.589 -32.050  1.00  0.00     0.036 A 
ENDBRANCH  31  32
ENDBRANCH  28  31
ENDBRANCH  27  28
ENDBRANCH   8  27
TORSDOF 7
ENDMDL
