MODEL 1
REMARK VINA RESULT:      -8.6      0.000      0.000
REMARK  5 active torsions:
REMARK  status: ('A' for Active; 'I' for Inactive)
REMARK    1  A    between atoms: C_4  and  O_5 
REMARK    2  A    between atoms: O_5  and  C_6 
REMARK    3  A    between atoms: C_6  and  C_7 
REMARK       I    between atoms: C_7  and  N_8 
REMARK    4  A    between atoms: N_8  and  C_9 
REMARK    5  A    between atoms: C_15  and  C_16 
ROOT
HETATM    1  C   UNL     1      -5.157   2.219 -32.009  1.00  0.00     0.137 A 
HETATM    2  N   UNL     1      -6.420   1.912 -32.446  1.00  0.00    -0.262 N 
HETATM    3  H   UNL     1      -6.947   1.059 -32.283  1.00  0.00     0.191 HD
HETATM    4  N   UNL     1      -7.020   2.904 -33.124  1.00  0.00    -0.177 NA
HETATM    5  C   UNL     1      -6.132   3.905 -33.088  1.00  0.00     0.065 A 
HETATM    6  C   UNL     1      -6.437   5.190 -33.764  1.00  0.00     0.073 C 
HETATM    7  C   UNL     1      -4.955   3.539 -32.375  1.00  0.00     0.046 A 
ENDROOT
BRANCH   1   8
HETATM    8  N   UNL     1      -4.328   1.385 -31.282  1.00  0.00    -0.309 N 
HETATM    9  C   UNL     1      -3.663   0.260 -31.690  1.00  0.00     0.247 C 
HETATM   10  O   UNL     1      -3.047  -0.399 -30.846  1.00  0.00    -0.271 OA
HETATM   11  H   UNL     1      -4.136   1.646 -30.319  1.00  0.00     0.170 HD
BRANCH   9  12
HETATM   12  C   UNL     1      -3.597  -0.111 -33.166  1.00  0.00     0.278 C 
BRANCH  12  13
HETATM   13  O   UNL     1      -4.896  -0.317 -33.716  1.00  0.00    -0.342 OA
BRANCH  13  14
HETATM   14  C   UNL     1      -5.145  -1.626 -34.050  1.00  0.00     0.075 A 
HETATM   15  C   UNL     1      -4.222  -2.645 -33.788  1.00  0.00     0.044 A 
HETATM   16  C   UNL     1      -4.498  -3.968 -34.156  1.00  0.00    -0.059 A 
HETATM   17  C   UNL     1      -3.508  -5.059 -33.878  1.00  0.00     0.048 C 
HETATM   18  C   UNL     1      -5.735  -4.265 -34.735  1.00  0.00     0.007 A 
HETATM   19  C   UNL     1      -6.675  -3.255 -34.956  1.00  0.00     0.010 A 
HETATM   20  C   UNL     1      -6.391  -1.925 -34.618  1.00  0.00    -0.029 A 
HETATM   21  C   UNL     1      -7.421  -0.856 -34.843  1.00  0.00     0.051 C 
ENDBRANCH  13  14
ENDBRANCH  12  13
ENDBRANCH   9  12
ENDBRANCH   1   8
BRANCH   7  22
HETATM   22  C   UNL     1      -3.741   4.297 -32.124  1.00  0.00    -0.020 A 
HETATM   23  C   UNL     1      -3.687   5.214 -31.068  1.00  0.00     0.014 A 
HETATM   24  C   UNL     1      -2.522   5.950 -30.832  1.00  0.00     0.020 A 
HETATM   25  C   UNL     1      -1.408   5.769 -31.651  1.00  0.00     0.011 A 
HETATM   26 BR   UNL     1       0.167   6.761 -31.330  1.00  0.00    -0.051 Br
HETATM   27  C   UNL     1      -1.450   4.861 -32.708  1.00  0.00     0.020 A 
HETATM   28  C   UNL     1      -2.617   4.131 -32.946  1.00  0.00     0.014 A 
ENDBRANCH   7  22
TORSDOF 5
ENDMDL
MODEL 2
REMARK VINA RESULT:      -8.5      2.438      3.419
REMARK  5 active torsions:
REMARK  status: ('A' for Active; 'I' for Inactive)
REMARK    1  A    between atoms: C_4  and  O_5 
REMARK    2  A    between atoms: O_5  and  C_6 
REMARK    3  A    between atoms: C_6  and  C_7 
REMARK       I    between atoms: C_7  and  N_8 
REMARK    4  A    between atoms: N_8  and  C_9 
REMARK    5  A    between atoms: C_15  and  C_16 
ROOT
HETATM    1  C   UNL     1      -8.448   2.568 -30.853  1.00  0.00     0.137 A 
HETATM    2  N   UNL     1      -9.751   2.609 -30.427  1.00  0.00    -0.262 N 
HETATM    3  H   UNL     1     -10.209   1.994 -29.760  1.00  0.00     0.191 HD
HETATM    4  N   UNL     1     -10.460   3.629 -30.935  1.00  0.00    -0.177 NA
HETATM    5  C   UNL     1      -9.576   4.299 -31.683  1.00  0.00     0.065 A 
HETATM    6  C   UNL     1     -10.004   5.504 -32.436  1.00  0.00     0.073 C 
HETATM    7  C   UNL     1      -8.288   3.693 -31.644  1.00  0.00     0.046 A 
ENDROOT
BRANCH   1   8
HETATM    8  N   UNL     1      -7.503   1.632 -30.477  1.00  0.00    -0.309 N 
HETATM    9  C   UNL     1      -7.167   0.452 -31.085  1.00  0.00     0.247 C 
HETATM   10  O   UNL     1      -6.354  -0.290 -30.524  1.00  0.00    -0.271 OA
HETATM   11  H   UNL     1      -6.935   1.847 -29.663  1.00  0.00     0.170 HD
BRANCH   9  12
HETATM   12  C   UNL     1      -7.703   0.112 -32.471  1.00  0.00     0.278 C 
BRANCH  12  13
HETATM   13  O   UNL     1      -6.697   0.246 -33.472  1.00  0.00    -0.342 OA
BRANCH  13  14
HETATM   14  C   UNL     1      -6.068  -0.936 -33.773  1.00  0.00     0.075 A 
HETATM   15  C   UNL     1      -6.743  -1.999 -34.384  1.00  0.00     0.044 A 
HETATM   16  C   UNL     1      -6.076  -3.200 -34.663  1.00  0.00    -0.059 A 
HETATM   17  C   UNL     1      -6.800  -4.340 -35.315  1.00  0.00     0.048 C 
HETATM   18  C   UNL     1      -4.712  -3.299 -34.376  1.00  0.00     0.007 A 
HETATM   19  C   UNL     1      -4.027  -2.222 -33.807  1.00  0.00     0.010 A 
HETATM   20  C   UNL     1      -4.697  -1.030 -33.498  1.00  0.00    -0.029 A 
HETATM   21  C   UNL     1      -3.940   0.124 -32.906  1.00  0.00     0.051 C 
ENDBRANCH  13  14
ENDBRANCH  12  13
ENDBRANCH   9  12
ENDBRANCH   1   8
BRANCH   7  22
HETATM   22  C   UNL     1      -7.060   4.065 -32.326  1.00  0.00    -0.020 A 
HETATM   23  C   UNL     1      -6.071   4.791 -31.652  1.00  0.00     0.014 A 
HETATM   24  C   UNL     1      -4.892   5.156 -32.310  1.00  0.00     0.020 A 
HETATM   25  C   UNL     1      -4.701   4.795 -33.643  1.00  0.00     0.011 A 
HETATM   26 BR   UNL     1      -3.108   5.286 -34.532  1.00  0.00    -0.051 Br
HETATM   27  C   UNL     1      -5.680   4.076 -34.327  1.00  0.00     0.020 A 
HETATM   28  C   UNL     1      -6.859   3.716 -33.669  1.00  0.00     0.014 A 
ENDBRANCH   7  22
TORSDOF 5
ENDMDL
MODEL 3
REMARK VINA RESULT:      -8.4      3.559      7.831
REMARK  5 active torsions:
REMARK  status: ('A' for Active; 'I' for Inactive)
REMARK    1  A    between atoms: C_4  and  O_5 
REMARK    2  A    between atoms: O_5  and  C_6 
REMARK    3  A    between atoms: C_6  and  C_7 
REMARK       I    between atoms: C_7  and  N_8 
REMARK    4  A    between atoms: N_8  and  C_9 
REMARK    5  A    between atoms: C_15  and  C_16 
ROOT
HETATM    1  C   UNL     1      -5.174   0.961 -32.562  1.00  0.00     0.137 A 
HETATM    2  N   UNL     1      -3.954   0.344 -32.668  1.00  0.00    -0.262 N 
HETATM    3  H   UNL     1      -3.076   0.618 -32.235  1.00  0.00     0.191 HD
HETATM    4  N   UNL     1      -3.972  -0.782 -33.398  1.00  0.00    -0.177 NA
HETATM    5  C   UNL     1      -5.257  -0.926 -33.742  1.00  0.00     0.065 A 
HETATM    6  C   UNL     1      -5.674  -2.071 -34.589  1.00  0.00     0.073 C 
HETATM    7  C   UNL     1      -6.062   0.126 -33.219  1.00  0.00     0.046 A 
ENDROOT
BRANCH   1   8
HETATM    8  N   UNL     1      -5.435   2.124 -31.862  1.00  0.00    -0.309 N 
HETATM    9  C   UNL     1      -4.554   3.036 -31.346  1.00  0.00     0.247 C 
HETATM   10  O   UNL     1      -4.998   3.965 -30.664  1.00  0.00    -0.271 OA
HETATM   11  H   UNL     1      -6.409   2.382 -31.737  1.00  0.00     0.170 HD
BRANCH   9  12
HETATM   12  C   UNL     1      -3.071   2.967 -31.694  1.00  0.00     0.278 C 
BRANCH  12  13
HETATM   13  O   UNL     1      -2.815   3.454 -33.009  1.00  0.00    -0.342 OA
BRANCH  13  14
HETATM   14  C   UNL     1      -2.232   4.697 -33.025  1.00  0.00     0.075 A 
HETATM   15  C   UNL     1      -1.221   5.053 -32.125  1.00  0.00     0.044 A 
HETATM   16  C   UNL     1      -0.659   6.335 -32.156  1.00  0.00    -0.059 A 
HETATM   17  C   UNL     1       0.423   6.718 -31.190  1.00  0.00     0.048 C 
HETATM   18  C   UNL     1      -1.080   7.235 -33.139  1.00  0.00     0.007 A 
HETATM   19  C   UNL     1      -2.058   6.866 -34.066  1.00  0.00     0.010 A 
HETATM   20  C   UNL     1      -2.646   5.595 -34.019  1.00  0.00    -0.029 A 
HETATM   21  C   UNL     1      -3.680   5.208 -35.037  1.00  0.00     0.051 C 
ENDBRANCH  13  14
ENDBRANCH  12  13
ENDBRANCH   9  12
ENDBRANCH   1   8
BRANCH   7  22
HETATM   22  C   UNL     1      -7.485   0.378 -33.373  1.00  0.00    -0.020 A 
HETATM   23  C   UNL     1      -7.956   1.116 -34.466  1.00  0.00     0.014 A 
HETATM   24  C   UNL     1      -9.324   1.367 -34.610  1.00  0.00     0.020 A 
HETATM   25  C   UNL     1     -10.223   0.879 -33.663  1.00  0.00     0.011 A 
HETATM   26 BR   UNL     1     -12.071   1.215 -33.860  1.00  0.00    -0.051 Br
HETATM   27  C   UNL     1      -9.767   0.146 -32.569  1.00  0.00     0.020 A 
HETATM   28  C   UNL     1      -8.399  -0.099 -32.423  1.00  0.00     0.014 A 
ENDBRANCH   7  22
TORSDOF 5
ENDMDL
MODEL 4
REMARK VINA RESULT:      -8.3      2.609      3.847
REMARK  5 active torsions:
REMARK  status: ('A' for Active; 'I' for Inactive)
REMARK    1  A    between atoms: C_4  and  O_5 
REMARK    2  A    between atoms: O_5  and  C_6 
REMARK    3  A    between atoms: C_6  and  C_7 
REMARK       I    between atoms: C_7  and  N_8 
REMARK    4  A    between atoms: N_8  and  C_9 
REMARK    5  A    between atoms: C_15  and  C_16 
ROOT
HETATM    1  C   UNL     1      -4.158   2.942 -31.335  1.00  0.00     0.137 A 
HETATM    2  N   UNL     1      -2.798   3.033 -31.184  1.00  0.00    -0.262 N 
HETATM    3  H   UNL     1      -2.200   2.487 -30.570  1.00  0.00     0.191 HD
HETATM    4  N   UNL     1      -2.216   3.928 -31.998  1.00  0.00    -0.177 NA
HETATM    5  C   UNL     1      -3.228   4.402 -32.735  1.00  0.00     0.065 A 
HETATM    6  C   UNL     1      -2.974   5.450 -33.755  1.00  0.00     0.073 C 
HETATM    7  C   UNL     1      -4.466   3.796 -32.380  1.00  0.00     0.046 A 
ENDROOT
BRANCH   1   8
HETATM    8  N   UNL     1      -4.995   2.095 -30.632  1.00  0.00    -0.309 N 
HETATM    9  C   UNL     1      -5.264   0.771 -30.850  1.00  0.00     0.247 C 
HETATM   10  O   UNL     1      -6.126   0.222 -30.156  1.00  0.00    -0.271 OA
HETATM   11  H   UNL     1      -5.453   2.475 -29.809  1.00  0.00     0.170 HD
BRANCH   9  12
HETATM   12  C   UNL     1      -4.445  -0.034 -31.853  1.00  0.00     0.278 C 
BRANCH  12  13
HETATM   13  O   UNL     1      -5.043  -0.027 -33.147  1.00  0.00    -0.342 OA
BRANCH  13  14
HETATM   14  C   UNL     1      -5.206  -1.283 -33.677  1.00  0.00     0.075 A 
HETATM   15  C   UNL     1      -4.275  -2.305 -33.459  1.00  0.00     0.044 A 
HETATM   16  C   UNL     1      -4.461  -3.572 -34.029  1.00  0.00    -0.059 A 
HETATM   17  C   UNL     1      -3.463  -4.666 -33.797  1.00  0.00     0.048 C 
HETATM   18  C   UNL     1      -5.622  -3.817 -34.769  1.00  0.00     0.007 A 
HETATM   19  C   UNL     1      -6.573  -2.810 -34.950  1.00  0.00     0.010 A 
HETATM   20  C   UNL     1      -6.376  -1.533 -34.408  1.00  0.00    -0.029 A 
HETATM   21  C   UNL     1      -7.419  -0.469 -34.595  1.00  0.00     0.051 C 
ENDBRANCH  13  14
ENDBRANCH  12  13
ENDBRANCH   9  12
ENDBRANCH   1   8
BRANCH   7  22
HETATM   22  C   UNL     1      -5.804   4.034 -32.895  1.00  0.00    -0.020 A 
HETATM   23  C   UNL     1      -6.458   3.049 -33.644  1.00  0.00     0.014 A 
HETATM   24  C   UNL     1      -7.742   3.282 -34.147  1.00  0.00     0.020 A 
HETATM   25  C   UNL     1      -8.375   4.499 -33.899  1.00  0.00     0.011 A 
HETATM   26 BR   UNL     1     -10.111   4.812 -34.575  1.00  0.00    -0.051 Br
HETATM   27  C   UNL     1      -7.734   5.490 -33.157  1.00  0.00     0.020 A 
HETATM   28  C   UNL     1      -6.448   5.258 -32.660  1.00  0.00     0.014 A 
ENDBRANCH   7  22
TORSDOF 5
ENDMDL
MODEL 5
REMARK VINA RESULT:      -8.3      2.203      3.546
REMARK  5 active torsions:
REMARK  status: ('A' for Active; 'I' for Inactive)
REMARK    1  A    between atoms: C_4  and  O_5 
REMARK    2  A    between atoms: O_5  and  C_6 
REMARK    3  A    between atoms: C_6  and  C_7 
REMARK       I    between atoms: C_7  and  N_8 
REMARK    4  A    between atoms: N_8  and  C_9 
REMARK    5  A    between atoms: C_15  and  C_16 
ROOT
HETATM    1  C   UNL     1      -3.579   4.504 -32.166  1.00  0.00     0.137 A 
HETATM    2  N   UNL     1      -3.989   4.398 -33.470  1.00  0.00    -0.262 N 
HETATM    3  H   UNL     1      -4.819   3.934 -33.828  1.00  0.00     0.191 HD
HETATM    4  N   UNL     1      -3.200   5.042 -34.345  1.00  0.00    -0.177 NA
HETATM    5  C   UNL     1      -2.269   5.622 -33.578  1.00  0.00     0.065 A 
HETATM    6  C   UNL     1      -1.186   6.421 -34.203  1.00  0.00     0.073 C 
HETATM    7  C   UNL     1      -2.476   5.341 -32.197  1.00  0.00     0.046 A 
ENDROOT
BRANCH   1   8
HETATM    8  N   UNL     1      -4.213   3.948 -31.071  1.00  0.00    -0.309 N 
HETATM    9  C   UNL     1      -4.493   2.633 -30.811  1.00  0.00     0.247 C 
HETATM   10  O   UNL     1      -5.161   2.359 -29.809  1.00  0.00    -0.271 OA
HETATM   11  H   UNL     1      -4.482   4.578 -30.321  1.00  0.00     0.170 HD
BRANCH   9  12
HETATM   12  C   UNL     1      -3.903   1.527 -31.679  1.00  0.00     0.278 C 
BRANCH  12  13
HETATM   13  O   UNL     1      -4.480   0.259 -31.379  1.00  0.00    -0.342 OA
BRANCH  13  14
HETATM   14  C   UNL     1      -4.986  -0.383 -32.482  1.00  0.00     0.075 A 
HETATM   15  C   UNL     1      -5.998   0.181 -33.267  1.00  0.00     0.044 A 
HETATM   16  C   UNL     1      -6.506  -0.507 -34.377  1.00  0.00    -0.059 A 
HETATM   17  C   UNL     1      -7.592   0.096 -35.217  1.00  0.00     0.048 C 
HETATM   18  C   UNL     1      -5.945  -1.740 -34.724  1.00  0.00     0.007 A 
HETATM   19  C   UNL     1      -4.904  -2.283 -33.966  1.00  0.00     0.010 A 
HETATM   20  C   UNL     1      -4.414  -1.613 -32.837  1.00  0.00    -0.029 A 
HETATM   21  C   UNL     1      -3.281  -2.202 -32.047  1.00  0.00     0.051 C 
ENDBRANCH  13  14
ENDBRANCH  12  13
ENDBRANCH   9  12
ENDBRANCH   1   8
BRANCH   7  22
HETATM   22  C   UNL     1      -1.697   5.736 -31.037  1.00  0.00    -0.020 A 
HETATM   23  C   UNL     1      -2.124   6.794 -30.227  1.00  0.00     0.014 A 
HETATM   24  C   UNL     1      -1.369   7.181 -29.114  1.00  0.00     0.020 A 
HETATM   25  C   UNL     1      -0.187   6.508 -28.810  1.00  0.00     0.011 A 
HETATM   26 BR   UNL     1       0.831   7.027 -27.305  1.00  0.00    -0.051 Br
HETATM   27  C   UNL     1       0.252   5.455 -29.610  1.00  0.00     0.020 A 
HETATM   28  C   UNL     1      -0.501   5.074 -30.724  1.00  0.00     0.014 A 
ENDBRANCH   7  22
TORSDOF 5
ENDMDL
MODEL 6
REMARK VINA RESULT:      -8.2      3.323      4.487
REMARK  5 active torsions:
REMARK  status: ('A' for Active; 'I' for Inactive)
REMARK    1  A    between atoms: C_4  and  O_5 
REMARK    2  A    between atoms: O_5  and  C_6 
REMARK    3  A    between atoms: C_6  and  C_7 
REMARK       I    between atoms: C_7  and  N_8 
REMARK    4  A    between atoms: N_8  and  C_9 
REMARK    5  A    between atoms: C_15  and  C_16 
ROOT
HETATM    1  C   UNL     1      -9.346   0.870 -32.188  1.00  0.00     0.137 A 
HETATM    2  N   UNL     1     -10.288  -0.039 -32.598  1.00  0.00    -0.262 N 
HETATM    3  H   UNL     1     -10.364  -1.019 -32.341  1.00  0.00     0.191 HD
HETATM    4  N   UNL     1     -11.237   0.479 -33.395  1.00  0.00    -0.177 NA
HETATM    5  C   UNL     1     -10.924   1.779 -33.469  1.00  0.00     0.065 A 
HETATM    6  C   UNL     1     -11.751   2.694 -34.295  1.00  0.00     0.073 C 
HETATM    7  C   UNL     1      -9.762   2.085 -32.706  1.00  0.00     0.046 A 
ENDROOT
BRANCH   1   8
HETATM    8  N   UNL     1      -8.272   0.603 -31.360  1.00  0.00    -0.309 N 
HETATM    9  C   UNL     1      -7.044   0.087 -31.678  1.00  0.00     0.247 C 
HETATM   10  O   UNL     1      -6.256  -0.165 -30.761  1.00  0.00    -0.271 OA
HETATM   11  H   UNL     1      -8.367   0.856 -30.381  1.00  0.00     0.170 HD
BRANCH   9  12
HETATM   12  C   UNL     1      -6.621  -0.072 -33.134  1.00  0.00     0.278 C 
BRANCH  12  13
HETATM   13  O   UNL     1      -5.234  -0.377 -33.249  1.00  0.00    -0.342 OA
BRANCH  13  14
HETATM   14  C   UNL     1      -4.988  -1.700 -33.520  1.00  0.00     0.075 A 
HETATM   15  C   UNL     1      -5.774  -2.430 -34.418  1.00  0.00     0.044 A 
HETATM   16  C   UNL     1      -5.507  -3.784 -34.661  1.00  0.00    -0.059 A 
HETATM   17  C   UNL     1      -6.351  -4.567 -35.621  1.00  0.00     0.048 C 
HETATM   18  C   UNL     1      -4.407  -4.379 -34.037  1.00  0.00     0.007 A 
HETATM   19  C   UNL     1      -3.595  -3.639 -33.174  1.00  0.00     0.010 A 
HETATM   20  C   UNL     1      -3.876  -2.293 -32.905  1.00  0.00    -0.029 A 
HETATM   21  C   UNL     1      -2.981  -1.507 -31.991  1.00  0.00     0.051 C 
ENDBRANCH  13  14
ENDBRANCH  12  13
ENDBRANCH   9  12
ENDBRANCH   1   8
BRANCH   7  22
HETATM   22  C   UNL     1      -9.062   3.347 -32.535  1.00  0.00    -0.020 A 
HETATM   23  C   UNL     1      -9.456   4.242 -31.534  1.00  0.00     0.014 A 
HETATM   24  C   UNL     1      -8.789   5.461 -31.375  1.00  0.00     0.020 A 
HETATM   25  C   UNL     1      -7.725   5.784 -32.216  1.00  0.00     0.011 A 
HETATM   26 BR   UNL     1      -6.821   7.429 -31.998  1.00  0.00    -0.051 Br
HETATM   27  C   UNL     1      -7.324   4.903 -33.218  1.00  0.00     0.020 A 
HETATM   28  C   UNL     1      -7.996   3.689 -33.379  1.00  0.00     0.014 A 
ENDBRANCH   7  22
TORSDOF 5
ENDMDL
MODEL 7
REMARK VINA RESULT:      -8.2      4.066      5.832
REMARK  5 active torsions:
REMARK  status: ('A' for Active; 'I' for Inactive)
REMARK    1  A    between atoms: C_4  and  O_5 
REMARK    2  A    between atoms: O_5  and  C_6 
REMARK    3  A    between atoms: C_6  and  C_7 
REMARK       I    between atoms: C_7  and  N_8 
REMARK    4  A    between atoms: N_8  and  C_9 
REMARK    5  A    between atoms: C_15  and  C_16 
ROOT
HETATM    1  C   UNL     1      -8.737   2.031 -31.365  1.00  0.00     0.137 A 
HETATM    2  N   UNL     1      -7.612   1.915 -30.589  1.00  0.00    -0.262 N 
HETATM    3  H   UNL     1      -7.262   1.086 -30.117  1.00  0.00     0.191 HD
HETATM    4  N   UNL     1      -6.885   3.040 -30.509  1.00  0.00    -0.177 NA
HETATM    5  C   UNL     1      -7.537   3.904 -31.297  1.00  0.00     0.065 A 
HETATM    6  C   UNL     1      -7.034   5.293 -31.447  1.00  0.00     0.073 C 
HETATM    7  C   UNL     1      -8.692   3.314 -31.882  1.00  0.00     0.046 A 
ENDROOT
BRANCH   1   8
HETATM    8  N   UNL     1      -9.650   1.025 -31.621  1.00  0.00    -0.309 N 
HETATM    9  C   UNL     1      -9.662   0.109 -32.638  1.00  0.00     0.247 C 
HETATM   10  O   UNL     1     -10.633  -0.648 -32.738  1.00  0.00    -0.271 OA
HETATM   11  H   UNL     1     -10.404   0.901 -30.951  1.00  0.00     0.170 HD
BRANCH   9  12
HETATM   12  C   UNL     1      -8.459  -0.043 -33.561  1.00  0.00     0.278 C 
BRANCH  12  13
HETATM   13  O   UNL     1      -7.261  -0.290 -32.829  1.00  0.00    -0.342 OA
BRANCH  13  14
HETATM   14  C   UNL     1      -6.440  -1.216 -33.424  1.00  0.00     0.075 A 
HETATM   15  C   UNL     1      -6.950  -2.314 -34.127  1.00  0.00     0.044 A 
HETATM   16  C   UNL     1      -6.086  -3.250 -34.709  1.00  0.00    -0.059 A 
HETATM   17  C   UNL     1      -6.631  -4.428 -35.460  1.00  0.00     0.048 C 
HETATM   18  C   UNL     1      -4.706  -3.039 -34.629  1.00  0.00     0.007 A 
HETATM   19  C   UNL     1      -4.197  -1.920 -33.965  1.00  0.00     0.010 A 
HETATM   20  C   UNL     1      -5.058  -0.997 -33.355  1.00  0.00    -0.029 A 
HETATM   21  C   UNL     1      -4.494   0.212 -32.664  1.00  0.00     0.051 C 
ENDBRANCH  13  14
ENDBRANCH  12  13
ENDBRANCH   9  12
ENDBRANCH   1   8
BRANCH   7  22
HETATM   22  C   UNL     1      -9.692   3.893 -32.763  1.00  0.00    -0.020 A 
HETATM   23  C   UNL     1     -10.731   4.670 -32.236  1.00  0.00     0.014 A 
HETATM   24  C   UNL     1     -11.699   5.220 -33.083  1.00  0.00     0.020 A 
HETATM   25  C   UNL     1     -11.628   4.996 -34.457  1.00  0.00     0.011 A 
HETATM   26 BR   UNL     1     -12.934   5.742 -35.600  1.00  0.00    -0.051 Br
HETATM   27  C   UNL     1     -10.602   4.221 -34.994  1.00  0.00     0.020 A 
HETATM   28  C   UNL     1      -9.638   3.668 -34.146  1.00  0.00     0.014 A 
ENDBRANCH   7  22
TORSDOF 5
ENDMDL
MODEL 8
REMARK VINA RESULT:      -8.0      2.276      3.229
REMARK  5 active torsions:
REMARK  status: ('A' for Active; 'I' for Inactive)
REMARK    1  A    between atoms: C_4  and  O_5 
REMARK    2  A    between atoms: O_5  and  C_6 
REMARK    3  A    between atoms: C_6  and  C_7 
REMARK       I    between atoms: C_7  and  N_8 
REMARK    4  A    between atoms: N_8  and  C_9 
REMARK    5  A    between atoms: C_15  and  C_16 
ROOT
HETATM    1  C   UNL     1      -3.526   4.641 -32.069  1.00  0.00     0.137 A 
HETATM    2  N   UNL     1      -3.958   4.544 -33.367  1.00  0.00    -0.262 N 
HETATM    3  H   UNL     1      -4.799   4.092 -33.713  1.00  0.00     0.191 HD
HETATM    4  N   UNL     1      -3.173   5.178 -34.253  1.00  0.00    -0.177 NA
HETATM    5  C   UNL     1      -2.224   5.744 -33.499  1.00  0.00     0.065 A 
HETATM    6  C   UNL     1      -1.140   6.530 -34.139  1.00  0.00     0.073 C 
HETATM    7  C   UNL     1      -2.413   5.464 -32.116  1.00  0.00     0.046 A 
ENDROOT
BRANCH   1   8
HETATM    8  N   UNL     1      -4.152   4.092 -30.966  1.00  0.00    -0.309 N 
HETATM    9  C   UNL     1      -4.600   2.813 -30.776  1.00  0.00     0.247 C 
HETATM   10  O   UNL     1      -5.225   2.554 -29.742  1.00  0.00    -0.271 OA
HETATM   11  H   UNL     1      -4.268   4.690 -30.153  1.00  0.00     0.170 HD
BRANCH   9  12
HETATM   12  C   UNL     1      -4.246   1.710 -31.768  1.00  0.00     0.278 C 
BRANCH  12  13
HETATM   13  O   UNL     1      -5.367   0.874 -32.048  1.00  0.00    -0.342 OA
BRANCH  13  14
HETATM   14  C   UNL     1      -5.020  -0.330 -32.610  1.00  0.00     0.075 A 
HETATM   15  C   UNL     1      -4.172  -1.233 -31.960  1.00  0.00     0.044 A 
HETATM   16  C   UNL     1      -3.824  -2.447 -32.567  1.00  0.00    -0.059 A 
HETATM   17  C   UNL     1      -2.912  -3.414 -31.872  1.00  0.00     0.048 C 
HETATM   18  C   UNL     1      -4.385  -2.768 -33.807  1.00  0.00     0.007 A 
HETATM   19  C   UNL     1      -5.266  -1.887 -34.436  1.00  0.00     0.010 A 
HETATM   20  C   UNL     1      -5.593  -0.658 -33.846  1.00  0.00    -0.029 A 
HETATM   21  C   UNL     1      -6.559   0.268 -34.527  1.00  0.00     0.051 C 
ENDBRANCH  13  14
ENDBRANCH  12  13
ENDBRANCH   9  12
ENDBRANCH   1   8
BRANCH   7  22
HETATM   22  C   UNL     1      -1.611   5.846 -30.967  1.00  0.00    -0.020 A 
HETATM   23  C   UNL     1      -0.450   5.132 -30.648  1.00  0.00     0.014 A 
HETATM   24  C   UNL     1       0.318   5.495 -29.537  1.00  0.00     0.020 A 
HETATM   25  C   UNL     1      -0.074   6.573 -28.744  1.00  0.00     0.011 A 
HETATM   26 BR   UNL     1       0.965   7.064 -27.245  1.00  0.00    -0.051 Br
HETATM   27  C   UNL     1      -1.229   7.290 -29.048  1.00  0.00     0.020 A 
HETATM   28  C   UNL     1      -1.998   6.923 -30.156  1.00  0.00     0.014 A 
ENDBRANCH   7  22
TORSDOF 5
ENDMDL
MODEL 9
REMARK VINA RESULT:      -7.9      2.081      3.351
REMARK  5 active torsions:
REMARK  status: ('A' for Active; 'I' for Inactive)
REMARK    1  A    between atoms: C_4  and  O_5 
REMARK    2  A    between atoms: O_5  and  C_6 
REMARK    3  A    between atoms: C_6  and  C_7 
REMARK       I    between atoms: C_7  and  N_8 
REMARK    4  A    between atoms: N_8  and  C_9 
REMARK    5  A    between atoms: C_15  and  C_16 
ROOT
HETATM    1  C   UNL     1      -7.384   2.638 -30.360  1.00  0.00     0.137 A 
HETATM    2  N   UNL     1      -8.750   2.598 -30.472  1.00  0.00    -0.262 N 
HETATM    3  H   UNL     1      -9.407   2.066 -29.908  1.00  0.00     0.191 HD
HETATM    4  N   UNL     1      -9.246   3.411 -31.418  1.00  0.00    -0.177 NA
HETATM    5  C   UNL     1      -8.168   4.034 -31.908  1.00  0.00     0.065 A 
HETATM    6  C   UNL     1      -8.317   5.017 -33.010  1.00  0.00     0.073 C 
HETATM    7  C   UNL     1      -6.974   3.608 -31.260  1.00  0.00     0.046 A 
ENDROOT
BRANCH   1   8
HETATM    8  N   UNL     1      -6.624   1.911 -29.464  1.00  0.00    -0.309 N 
HETATM    9  C   UNL     1      -5.791   0.851 -29.700  1.00  0.00     0.247 C 
HETATM   10  O   UNL     1      -5.276   0.279 -28.733  1.00  0.00    -0.271 OA
HETATM   11  H   UNL     1      -6.635   2.213 -28.494  1.00  0.00     0.170 HD
BRANCH   9  12
HETATM   12  C   UNL     1      -5.424   0.453 -31.125  1.00  0.00     0.278 C 
BRANCH  12  13
HETATM   13  O   UNL     1      -6.175  -0.676 -31.566  1.00  0.00    -0.342 OA
BRANCH  13  14
HETATM   14  C   UNL     1      -6.779  -0.484 -32.784  1.00  0.00     0.075 A 
HETATM   15  C   UNL     1      -7.926   0.307 -32.925  1.00  0.00     0.044 A 
HETATM   16  C   UNL     1      -8.529   0.468 -34.179  1.00  0.00    -0.059 A 
HETATM   17  C   UNL     1      -9.759   1.313 -34.330  1.00  0.00     0.048 C 
HETATM   18  C   UNL     1      -7.935  -0.123 -35.297  1.00  0.00     0.007 A 
HETATM   19  C   UNL     1      -6.766  -0.875 -35.164  1.00  0.00     0.010 A 
HETATM   20  C   UNL     1      -6.176  -1.066 -33.907  1.00  0.00    -0.029 A 
HETATM   21  C   UNL     1      -4.908  -1.860 -33.786  1.00  0.00     0.051 C 
ENDBRANCH  13  14
ENDBRANCH  12  13
ENDBRANCH   9  12
ENDBRANCH   1   8
BRANCH   7  22
HETATM   22  C   UNL     1      -5.593   3.994 -31.497  1.00  0.00    -0.020 A 
HETATM   23  C   UNL     1      -4.970   4.931 -30.664  1.00  0.00     0.014 A 
HETATM   24  C   UNL     1      -3.644   5.309 -30.897  1.00  0.00     0.020 A 
HETATM   25  C   UNL     1      -2.939   4.750 -31.962  1.00  0.00     0.011 A 
HETATM   26 BR   UNL     1      -1.147   5.258 -32.275  1.00  0.00    -0.051 Br
HETATM   27  C   UNL     1      -3.549   3.819 -32.801  1.00  0.00     0.020 A 
HETATM   28  C   UNL     1      -4.876   3.446 -32.569  1.00  0.00     0.014 A 
ENDBRANCH   7  22
TORSDOF 5
ENDMDL
MODEL 10
REMARK VINA RESULT:      -7.9      3.220      7.510
REMARK  5 active torsions:
REMARK  status: ('A' for Active; 'I' for Inactive)
REMARK    1  A    between atoms: C_4  and  O_5 
REMARK    2  A    between atoms: O_5  and  C_6 
REMARK    3  A    between atoms: C_6  and  C_7 
REMARK       I    between atoms: C_7  and  N_8 
REMARK    4  A    between atoms: N_8  and  C_9 
REMARK    5  A    between atoms: C_15  and  C_16 
ROOT
HETATM    1  C   UNL     1      -6.080   1.537 -31.374  1.00  0.00     0.137 A 
HETATM    2  N   UNL     1      -6.783   2.624 -30.921  1.00  0.00    -0.262 N 
HETATM    3  H   UNL     1      -6.456   3.368 -30.311  1.00  0.00     0.191 HD
HETATM    4  N   UNL     1      -8.033   2.707 -31.403  1.00  0.00    -0.177 NA
HETATM    5  C   UNL     1      -8.131   1.661 -32.233  1.00  0.00     0.065 A 
HETATM    6  C   UNL     1      -9.403   1.403 -32.952  1.00  0.00     0.073 C 
HETATM    7  C   UNL     1      -6.923   0.908 -32.276  1.00  0.00     0.046 A 
ENDROOT
BRANCH   1   8
HETATM    8  N   UNL     1      -4.775   1.222 -31.044  1.00  0.00    -0.309 N 
HETATM    9  C   UNL     1      -3.627   1.922 -31.301  1.00  0.00     0.247 C 
HETATM   10  O   UNL     1      -2.545   1.409 -31.001  1.00  0.00    -0.271 OA
HETATM   11  H   UNL     1      -4.626   0.379 -30.497  1.00  0.00     0.170 HD
BRANCH   9  12
HETATM   12  C   UNL     1      -3.690   3.344 -31.847  1.00  0.00     0.278 C 
BRANCH  12  13
HETATM   13  O   UNL     1      -2.838   3.512 -32.978  1.00  0.00    -0.342 OA
BRANCH  13  14
HETATM   14  C   UNL     1      -2.198   4.726 -33.001  1.00  0.00     0.075 A 
HETATM   15  C   UNL     1      -1.215   5.063 -32.064  1.00  0.00     0.044 A 
HETATM   16  C   UNL     1      -0.593   6.318 -32.105  1.00  0.00    -0.059 A 
HETATM   17  C   UNL     1       0.459   6.681 -31.099  1.00  0.00     0.048 C 
HETATM   18  C   UNL     1      -0.925   7.205 -33.133  1.00  0.00     0.007 A 
HETATM   19  C   UNL     1      -1.875   6.852 -34.094  1.00  0.00     0.010 A 
HETATM   20  C   UNL     1      -2.523   5.611 -34.039  1.00  0.00    -0.029 A 
HETATM   21  C   UNL     1      -3.525   5.239 -35.094  1.00  0.00     0.051 C 
ENDBRANCH  13  14
ENDBRANCH  12  13
ENDBRANCH   9  12
ENDBRANCH   1   8
BRANCH   7  22
HETATM   22  C   UNL     1      -6.604  -0.305 -33.008  1.00  0.00    -0.020 A 
HETATM   23  C   UNL     1      -5.271  -0.687 -33.195  1.00  0.00     0.014 A 
HETATM   24  C   UNL     1      -4.963  -1.850 -33.907  1.00  0.00     0.020 A 
HETATM   25  C   UNL     1      -5.989  -2.635 -34.432  1.00  0.00     0.011 A 
HETATM   26 BR   UNL     1      -5.574  -4.209 -35.391  1.00  0.00    -0.051 Br
HETATM   27  C   UNL     1      -7.321  -2.265 -34.256  1.00  0.00     0.020 A 
HETATM   28  C   UNL     1      -7.627  -1.099 -33.548  1.00  0.00     0.014 A 
ENDBRANCH   7  22
TORSDOF 5
ENDMDL
