MODEL 1
REMARK VINA RESULT:      -9.0      0.000      0.000
REMARK  7 active torsions:
REMARK  status: ('A' for Active; 'I' for Inactive)
REMARK    1  A    between atoms: O_2  and  C_3 
REMARK    2  A    between atoms: C_5  and  C_6 
REMARK    3  A    between atoms: C_6  and  N_7 
REMARK    4  A    between atoms: C_6  and  C_13 
REMARK    5  A    between atoms: C_13  and  N_14 
REMARK       I    between atoms: N_14  and  C_15 
REMARK       I    between atoms: C_15  and  N_16 
REMARK    6  A    between atoms: N_16  and  C_17 
REMARK    7  A    between atoms: C_18  and  O_19 
ROOT
HETATM    1  N   UNL     1      -3.144   2.607 -32.286  1.00  0.00    -0.341 N 
HETATM    2  C   UNL     1      -4.237   1.849 -31.950  1.00  0.00     0.316 C 
HETATM    3  N   UNL     1      -4.467   0.849 -32.842  1.00  0.00    -0.332 N 
HETATM    4  O   UNL     1      -4.847   1.996 -30.901  1.00  0.00    -0.247 OA
HETATM    5  H   UNL     1      -2.948   2.642 -33.278  1.00  0.00     0.164 HD
HETATM    6  H   UNL     1      -4.309   1.058 -33.819  1.00  0.00     0.165 HD
ENDROOT
BRANCH   1   7
HETATM    7  C   UNL     1      -2.799   3.780 -31.492  1.00  0.00     0.162 C 
BRANCH   7   8
HETATM    8  C   UNL     1      -1.918   4.868 -32.195  1.00  0.00     0.238 C 
BRANCH   8   9
HETATM    9  C   UNL     1      -1.251   5.816 -31.205  1.00  0.00    -0.023 A 
HETATM   10  C   UNL     1      -2.023   6.352 -30.158  1.00  0.00     0.046 A 
HETATM   11  C   UNL     1      -1.474   7.232 -29.220  1.00  0.00     0.068 A 
HETATM   12  C   UNL     1      -0.125   7.565 -29.304  1.00  0.00     0.037 A 
HETATM   13  C   UNL     1       0.660   7.032 -30.328  1.00  0.00     0.003 A 
HETATM   14  C   UNL     1       0.105   6.166 -31.272  1.00  0.00     0.009 A 
BRANCH  11  15
HETATM   15  O   UNL     1      -2.356   7.680 -28.278  1.00  0.00    -0.356 OA
HETATM   16  C   UNL     1      -2.236   7.124 -26.972  1.00  0.00     0.210 C 
ENDBRANCH  11  15
ENDBRANCH   8   9
BRANCH   8  17
HETATM   17  N   UNL     1      -2.644   5.668 -33.283  1.00  0.00    -0.061 N 
HETATM   18  H   UNL     1      -2.190   6.590 -33.244  1.00  0.00     0.280 HD
HETATM   19  C   UNL     1      -4.118   5.922 -33.116  1.00  0.00     0.236 C 
HETATM   20  C   UNL     1      -4.768   5.084 -34.196  1.00  0.00     0.029 C 
HETATM   21  C   UNL     1      -3.795   5.198 -35.350  1.00  0.00     0.029 C 
HETATM   22  C   UNL     1      -2.424   5.167 -34.699  1.00  0.00     0.236 C 
ENDBRANCH   8  17
ENDBRANCH   7   8
ENDBRANCH   1   7
BRANCH   3  23
HETATM   23  C   UNL     1      -5.582  -0.058 -32.631  1.00  0.00     0.149 C 
HETATM   24  C   UNL     1      -6.927   0.483 -33.203  1.00  0.00     0.149 C 
HETATM   25  C   UNL     1      -7.708  -0.741 -33.717  1.00  0.00     0.073 C 
HETATM   26  C   UNL     1      -6.610  -1.724 -33.999  1.00  0.00    -0.047 A 
HETATM   27  C   UNL     1      -5.412  -1.345 -33.387  1.00  0.00    -0.026 A 
HETATM   28  C   UNL     1      -6.707  -2.908 -34.713  1.00  0.00     0.008 A 
HETATM   29  C   UNL     1      -4.285  -2.150 -33.474  1.00  0.00     0.010 A 
HETATM   30  C   UNL     1      -4.369  -3.339 -34.202  1.00  0.00     0.001 A 
HETATM   31  C   UNL     1      -5.572  -3.714 -34.817  1.00  0.00     0.001 A 
BRANCH  24  32
HETATM   32  O   UNL     1      -6.690   1.388 -34.300  1.00  0.00    -0.393 OA
HETATM   33  H   UNL     1      -7.553   1.537 -34.724  1.00  0.00     0.210 HD
ENDBRANCH  24  32
ENDBRANCH   3  23
TORSDOF 7
ENDMDL
MODEL 2
REMARK VINA RESULT:      -8.9      2.652      8.950
REMARK  7 active torsions:
REMARK  status: ('A' for Active; 'I' for Inactive)
REMARK    1  A    between atoms: O_2  and  C_3 
REMARK    2  A    between atoms: C_5  and  C_6 
REMARK    3  A    between atoms: C_6  and  N_7 
REMARK    4  A    between atoms: C_6  and  C_13 
REMARK    5  A    between atoms: C_13  and  N_14 
REMARK       I    between atoms: N_14  and  C_15 
REMARK       I    between atoms: C_15  and  N_16 
REMARK    6  A    between atoms: N_16  and  C_17 
REMARK    7  A    between atoms: C_18  and  O_19 
ROOT
HETATM    1  N   UNL     1      -5.953   3.041 -32.533  1.00  0.00    -0.341 N 
HETATM    2  C   UNL     1      -4.594   3.016 -32.720  1.00  0.00     0.316 C 
HETATM    3  N   UNL     1      -4.116   4.196 -33.195  1.00  0.00    -0.332 N 
HETATM    4  O   UNL     1      -3.897   2.073 -32.374  1.00  0.00    -0.247 OA
HETATM    5  H   UNL     1      -6.448   3.676 -33.147  1.00  0.00     0.164 HD
HETATM    6  H   UNL     1      -4.684   4.683 -33.876  1.00  0.00     0.165 HD
ENDROOT
BRANCH   1   7
HETATM    7  C   UNL     1      -6.653   1.834 -32.113  1.00  0.00     0.162 C 
BRANCH   7   8
HETATM    8  C   UNL     1      -7.191   0.902 -33.251  1.00  0.00     0.238 C 
BRANCH   8   9
HETATM    9  C   UNL     1      -8.701   1.006 -33.436  1.00  0.00    -0.023 A 
HETATM   10  C   UNL     1      -9.217   2.080 -34.183  1.00  0.00     0.046 A 
HETATM   11  C   UNL     1     -10.592   2.237 -34.385  1.00  0.00     0.068 A 
HETATM   12  C   UNL     1     -11.471   1.295 -33.860  1.00  0.00     0.037 A 
HETATM   13  C   UNL     1     -10.976   0.214 -33.127  1.00  0.00     0.003 A 
HETATM   14  C   UNL     1      -9.603   0.069 -32.914  1.00  0.00     0.009 A 
BRANCH  11  15
HETATM   15  O   UNL     1     -10.936   3.340 -35.114  1.00  0.00    -0.356 OA
HETATM   16  C   UNL     1     -12.229   3.334 -35.711  1.00  0.00     0.210 C 
ENDBRANCH  11  15
ENDBRANCH   8   9
BRANCH   8  17
HETATM   17  N   UNL     1      -6.776  -0.569 -33.117  1.00  0.00    -0.061 N 
HETATM   18  H   UNL     1      -7.606  -1.013 -32.702  1.00  0.00     0.280 HD
HETATM   19  C   UNL     1      -5.626  -0.904 -32.207  1.00  0.00     0.236 C 
HETATM   20  C   UNL     1      -4.522  -1.343 -33.144  1.00  0.00     0.029 C 
HETATM   21  C   UNL     1      -5.269  -2.089 -34.229  1.00  0.00     0.029 C 
HETATM   22  C   UNL     1      -6.545  -1.291 -34.432  1.00  0.00     0.236 C 
ENDBRANCH   8  17
ENDBRANCH   7   8
ENDBRANCH   1   7
BRANCH   3  23
HETATM   23  C   UNL     1      -2.691   4.346 -33.440  1.00  0.00     0.149 C 
HETATM   24  C   UNL     1      -2.373   5.027 -34.805  1.00  0.00     0.149 C 
HETATM   25  C   UNL     1      -1.110   5.881 -34.584  1.00  0.00     0.073 C 
HETATM   26  C   UNL     1      -1.160   6.150 -33.109  1.00  0.00    -0.047 A 
HETATM   27  C   UNL     1      -2.048   5.286 -32.460  1.00  0.00    -0.026 A 
HETATM   28  C   UNL     1      -0.413   7.075 -32.398  1.00  0.00     0.008 A 
HETATM   29  C   UNL     1      -2.199   5.328 -31.081  1.00  0.00     0.010 A 
HETATM   30  C   UNL     1      -1.459   6.266 -30.357  1.00  0.00     0.001 A 
HETATM   31  C   UNL     1      -0.572   7.133 -31.013  1.00  0.00     0.001 A 
BRANCH  24  32
HETATM   32  O   UNL     1      -3.457   5.883 -35.215  1.00  0.00    -0.393 OA
HETATM   33  H   UNL     1      -3.066   6.566 -35.788  1.00  0.00     0.210 HD
ENDBRANCH  24  32
ENDBRANCH   3  23
TORSDOF 7
ENDMDL
MODEL 3
REMARK VINA RESULT:      -8.7      5.801      8.654
REMARK  7 active torsions:
REMARK  status: ('A' for Active; 'I' for Inactive)
REMARK    1  A    between atoms: O_2  and  C_3 
REMARK    2  A    between atoms: C_5  and  C_6 
REMARK    3  A    between atoms: C_6  and  N_7 
REMARK    4  A    between atoms: C_6  and  C_13 
REMARK    5  A    between atoms: C_13  and  N_14 
REMARK       I    between atoms: N_14  and  C_15 
REMARK       I    between atoms: C_15  and  N_16 
REMARK    6  A    between atoms: N_16  and  C_17 
REMARK    7  A    between atoms: C_18  and  O_19 
ROOT
HETATM    1  N   UNL     1      -9.451   0.350 -33.500  1.00  0.00    -0.341 N 
HETATM    2  C   UNL     1      -8.275   0.168 -34.183  1.00  0.00     0.316 C 
HETATM    3  N   UNL     1      -7.358  -0.526 -33.460  1.00  0.00    -0.332 N 
HETATM    4  O   UNL     1      -8.134   0.494 -35.354  1.00  0.00    -0.247 OA
HETATM    5  H   UNL     1      -9.350   0.374 -32.493  1.00  0.00     0.164 HD
HETATM    6  H   UNL     1      -7.311  -0.333 -32.468  1.00  0.00     0.165 HD
ENDROOT
BRANCH   1   7
HETATM    7  C   UNL     1     -10.518   1.151 -34.086  1.00  0.00     0.162 C 
BRANCH   7   8
HETATM    8  C   UNL     1     -10.649   2.626 -33.576  1.00  0.00     0.238 C 
BRANCH   8   9
HETATM    9  C   UNL     1     -11.993   2.905 -32.913  1.00  0.00    -0.023 A 
HETATM   10  C   UNL     1     -13.104   2.127 -33.285  1.00  0.00     0.046 A 
HETATM   11  C   UNL     1     -14.366   2.335 -32.720  1.00  0.00     0.068 A 
HETATM   12  C   UNL     1     -14.524   3.315 -31.744  1.00  0.00     0.037 A 
HETATM   13  C   UNL     1     -13.429   4.088 -31.352  1.00  0.00     0.003 A 
HETATM   14  C   UNL     1     -12.174   3.889 -31.930  1.00  0.00     0.009 A 
BRANCH  11  15
HETATM   15  O   UNL     1     -15.345   1.512 -33.200  1.00  0.00    -0.356 OA
HETATM   16  C   UNL     1     -15.004   0.694 -34.315  1.00  0.00     0.210 C 
ENDBRANCH  11  15
ENDBRANCH   8   9
BRANCH   8  17
HETATM   17  N   UNL     1     -10.354   3.693 -34.638  1.00  0.00    -0.061 N 
HETATM   18  H   UNL     1      -9.889   3.162 -35.387  1.00  0.00     0.280 HD
HETATM   19  C   UNL     1      -9.416   4.815 -34.280  1.00  0.00     0.236 C 
HETATM   20  C   UNL     1     -10.304   6.039 -34.217  1.00  0.00     0.029 C 
HETATM   21  C   UNL     1     -11.297   5.801 -35.334  1.00  0.00     0.029 C 
HETATM   22  C   UNL     1     -11.582   4.311 -35.282  1.00  0.00     0.236 C 
ENDBRANCH   8  17
ENDBRANCH   7   8
ENDBRANCH   1   7
BRANCH   3  23
HETATM   23  C   UNL     1      -6.058  -0.817 -34.040  1.00  0.00     0.149 C 
HETATM   24  C   UNL     1      -4.872  -0.443 -33.102  1.00  0.00     0.149 C 
HETATM   25  C   UNL     1      -3.774  -1.496 -33.342  1.00  0.00     0.073 C 
HETATM   26  C   UNL     1      -4.562  -2.670 -33.844  1.00  0.00    -0.047 A 
HETATM   27  C   UNL     1      -5.849  -2.291 -34.241  1.00  0.00    -0.026 A 
HETATM   28  C   UNL     1      -4.125  -3.977 -33.985  1.00  0.00     0.008 A 
HETATM   29  C   UNL     1      -6.722  -3.218 -34.794  1.00  0.00     0.010 A 
HETATM   30  C   UNL     1      -6.294  -4.541 -34.928  1.00  0.00     0.001 A 
HETATM   31  C   UNL     1      -5.004  -4.916 -34.525  1.00  0.00     0.001 A 
BRANCH  24  32
HETATM   32  O   UNL     1      -5.278  -0.489 -31.719  1.00  0.00    -0.393 OA
HETATM   33  H   UNL     1      -4.622   0.032 -31.223  1.00  0.00     0.210 HD
ENDBRANCH  24  32
ENDBRANCH   3  23
TORSDOF 7
ENDMDL
MODEL 4
REMARK VINA RESULT:      -8.7      6.033      8.616
REMARK  7 active torsions:
REMARK  status: ('A' for Active; 'I' for Inactive)
REMARK    1  A    between atoms: O_2  and  C_3 
REMARK    2  A    between atoms: C_5  and  C_6 
REMARK    3  A    between atoms: C_6  and  N_7 
REMARK    4  A    between atoms: C_6  and  C_13 
REMARK    5  A    between atoms: C_13  and  N_14 
REMARK       I    between atoms: N_14  and  C_15 
REMARK       I    between atoms: C_15  and  N_16 
REMARK    6  A    between atoms: N_16  and  C_17 
REMARK    7  A    between atoms: C_18  and  O_19 
ROOT
HETATM    1  N   UNL     1      -9.547   0.406 -33.015  1.00  0.00    -0.341 N 
HETATM    2  C   UNL     1      -8.315   0.413 -33.620  1.00  0.00     0.316 C 
HETATM    3  N   UNL     1      -7.700  -0.797 -33.555  1.00  0.00    -0.332 N 
HETATM    4  O   UNL     1      -7.893   1.374 -34.247  1.00  0.00    -0.247 OA
HETATM    5  H   UNL     1      -9.640  -0.267 -32.263  1.00  0.00     0.164 HD
HETATM    6  H   UNL     1      -7.811  -1.325 -32.700  1.00  0.00     0.165 HD
ENDROOT
BRANCH   1   7
HETATM    7  C   UNL     1     -10.314   1.640 -32.908  1.00  0.00     0.162 C 
BRANCH   7   8
HETATM    8  C   UNL     1     -11.598   1.748 -33.800  1.00  0.00     0.238 C 
BRANCH   8   9
HETATM    9  C   UNL     1     -11.875   3.173 -34.266  1.00  0.00    -0.023 A 
HETATM   10  C   UNL     1     -11.395   4.243 -33.488  1.00  0.00     0.046 A 
HETATM   11  C   UNL     1     -11.619   5.573 -33.856  1.00  0.00     0.068 A 
HETATM   12  C   UNL     1     -12.308   5.849 -35.033  1.00  0.00     0.037 A 
HETATM   13  C   UNL     1     -12.780   4.800 -35.825  1.00  0.00     0.003 A 
HETATM   14  C   UNL     1     -12.568   3.473 -35.447  1.00  0.00     0.009 A 
BRANCH  11  15
HETATM   15  O   UNL     1     -11.108   6.496 -32.988  1.00  0.00    -0.356 OA
HETATM   16  C   UNL     1     -11.450   6.339 -31.614  1.00  0.00     0.210 C 
ENDBRANCH  11  15
ENDBRANCH   8   9
BRANCH   8  17
HETATM   17  N   UNL     1     -12.860   1.145 -33.170  1.00  0.00    -0.061 N 
HETATM   18  H   UNL     1     -12.511   0.712 -32.305  1.00  0.00     0.280 HD
HETATM   19  C   UNL     1     -13.579   0.057 -33.921  1.00  0.00     0.236 C 
HETATM   20  C   UNL     1     -14.879   0.699 -34.358  1.00  0.00     0.029 C 
HETATM   21  C   UNL     1     -15.230   1.593 -33.188  1.00  0.00     0.029 C 
HETATM   22  C   UNL     1     -13.899   2.158 -32.725  1.00  0.00     0.236 C 
ENDBRANCH   8  17
ENDBRANCH   7   8
ENDBRANCH   1   7
BRANCH   3  23
HETATM   23  C   UNL     1      -6.389  -0.968 -34.158  1.00  0.00     0.149 C 
HETATM   24  C   UNL     1      -5.228  -0.458 -33.252  1.00  0.00     0.149 C 
HETATM   25  C   UNL     1      -4.035  -1.401 -33.497  1.00  0.00     0.073 C 
HETATM   26  C   UNL     1      -4.711  -2.657 -33.961  1.00  0.00    -0.047 A 
HETATM   27  C   UNL     1      -6.037  -2.418 -34.337  1.00  0.00    -0.026 A 
HETATM   28  C   UNL     1      -4.148  -3.917 -34.088  1.00  0.00     0.008 A 
HETATM   29  C   UNL     1      -6.824  -3.438 -34.854  1.00  0.00     0.010 A 
HETATM   30  C   UNL     1      -6.268  -4.713 -34.973  1.00  0.00     0.001 A 
HETATM   31  C   UNL     1      -4.939  -4.950 -34.592  1.00  0.00     0.001 A 
BRANCH  24  32
HETATM   32  O   UNL     1      -5.600  -0.517 -31.861  1.00  0.00    -0.393 OA
HETATM   33  H   UNL     1      -5.061   0.153 -31.404  1.00  0.00     0.210 HD
ENDBRANCH  24  32
ENDBRANCH   3  23
TORSDOF 7
ENDMDL
MODEL 5
REMARK VINA RESULT:      -8.6      2.130      9.084
REMARK  7 active torsions:
REMARK  status: ('A' for Active; 'I' for Inactive)
REMARK    1  A    between atoms: O_2  and  C_3 
REMARK    2  A    between atoms: C_5  and  C_6 
REMARK    3  A    between atoms: C_6  and  N_7 
REMARK    4  A    between atoms: C_6  and  C_13 
REMARK    5  A    between atoms: C_13  and  N_14 
REMARK       I    between atoms: N_14  and  C_15 
REMARK       I    between atoms: C_15  and  N_16 
REMARK    6  A    between atoms: N_16  and  C_17 
REMARK    7  A    between atoms: C_18  and  O_19 
ROOT
HETATM    1  N   UNL     1      -3.242   1.893 -31.492  1.00  0.00    -0.341 N 
HETATM    2  C   UNL     1      -3.137   3.195 -31.916  1.00  0.00     0.316 C 
HETATM    3  N   UNL     1      -3.001   4.066 -30.882  1.00  0.00    -0.332 N 
HETATM    4  O   UNL     1      -3.054   3.501 -33.096  1.00  0.00    -0.247 OA
HETATM    5  H   UNL     1      -3.645   1.785 -30.570  1.00  0.00     0.164 HD
HETATM    6  H   UNL     1      -3.536   3.875 -30.045  1.00  0.00     0.165 HD
ENDROOT
BRANCH   1   7
HETATM    7  C   UNL     1      -3.485   0.830 -32.459  1.00  0.00     0.162 C 
BRANCH   7   8
HETATM    8  C   UNL     1      -4.602  -0.207 -32.096  1.00  0.00     0.238 C 
BRANCH   8   9
HETATM    9  C   UNL     1      -4.294  -1.609 -32.607  1.00  0.00    -0.023 A 
HETATM   10  C   UNL     1      -4.947  -2.063 -33.768  1.00  0.00     0.046 A 
HETATM   11  C   UNL     1      -4.715  -3.341 -34.286  1.00  0.00     0.068 A 
HETATM   12  C   UNL     1      -3.794  -4.175 -33.659  1.00  0.00     0.037 A 
HETATM   13  C   UNL     1      -3.126  -3.737 -32.514  1.00  0.00     0.003 A 
HETATM   14  C   UNL     1      -3.372  -2.466 -31.989  1.00  0.00     0.009 A 
BRANCH  11  15
HETATM   15  O   UNL     1      -5.440  -3.640 -35.405  1.00  0.00    -0.356 OA
HETATM   16  C   UNL     1      -6.681  -4.308 -35.203  1.00  0.00     0.210 C 
ENDBRANCH  11  15
ENDBRANCH   8   9
BRANCH   8  17
HETATM   17  N   UNL     1      -6.016   0.210 -32.519  1.00  0.00    -0.061 N 
HETATM   18  H   UNL     1      -6.325  -0.569 -33.115  1.00  0.00     0.280 HD
HETATM   19  C   UNL     1      -6.174   1.457 -33.345  1.00  0.00     0.236 C 
HETATM   20  C   UNL     1      -6.854   2.440 -32.416  1.00  0.00     0.029 C 
HETATM   21  C   UNL     1      -7.801   1.564 -31.624  1.00  0.00     0.029 C 
HETATM   22  C   UNL     1      -7.027   0.280 -31.388  1.00  0.00     0.236 C 
ENDBRANCH   8  17
ENDBRANCH   7   8
ENDBRANCH   1   7
BRANCH   3  23
HETATM   23  C   UNL     1      -2.866   5.486 -31.154  1.00  0.00     0.149 C 
HETATM   24  C   UNL     1      -3.997   6.343 -30.511  1.00  0.00     0.149 C 
HETATM   25  C   UNL     1      -3.354   7.679 -30.096  1.00  0.00     0.073 C 
HETATM   26  C   UNL     1      -1.913   7.299 -29.924  1.00  0.00    -0.047 A 
HETATM   27  C   UNL     1      -1.633   6.065 -30.520  1.00  0.00    -0.026 A 
HETATM   28  C   UNL     1      -0.914   8.045 -29.319  1.00  0.00     0.008 A 
HETATM   29  C   UNL     1      -0.341   5.558 -30.527  1.00  0.00     0.010 A 
HETATM   30  C   UNL     1       0.670   6.297 -29.908  1.00  0.00     0.001 A 
HETATM   31  C   UNL     1       0.384   7.532 -29.308  1.00  0.00     0.001 A 
BRANCH  24  32
HETATM   32  O   UNL     1      -4.532   5.692 -29.342  1.00  0.00    -0.393 OA
HETATM   33  H   UNL     1      -5.389   5.313 -29.606  1.00  0.00     0.210 HD
ENDBRANCH  24  32
ENDBRANCH   3  23
TORSDOF 7
ENDMDL
MODEL 6
REMARK VINA RESULT:      -8.2      2.124      8.873
REMARK  7 active torsions:
REMARK  status: ('A' for Active; 'I' for Inactive)
REMARK    1  A    between atoms: O_2  and  C_3 
REMARK    2  A    between atoms: C_5  and  C_6 
REMARK    3  A    between atoms: C_6  and  N_7 
REMARK    4  A    between atoms: C_6  and  C_13 
REMARK    5  A    between atoms: C_13  and  N_14 
REMARK       I    between atoms: N_14  and  C_15 
REMARK       I    between atoms: C_15  and  N_16 
REMARK    6  A    between atoms: N_16  and  C_17 
REMARK    7  A    between atoms: C_18  and  O_19 
ROOT
HETATM    1  N   UNL     1      -5.337   2.617 -32.683  1.00  0.00    -0.341 N 
HETATM    2  C   UNL     1      -4.892   3.842 -33.115  1.00  0.00     0.316 C 
HETATM    3  N   UNL     1      -4.063   4.436 -32.217  1.00  0.00    -0.332 N 
HETATM    4  O   UNL     1      -5.128   4.273 -34.234  1.00  0.00    -0.247 OA
HETATM    5  H   UNL     1      -5.388   2.522 -31.676  1.00  0.00     0.164 HD
HETATM    6  H   UNL     1      -4.290   4.327 -31.238  1.00  0.00     0.165 HD
ENDROOT
BRANCH   1   7
HETATM    7  C   UNL     1      -6.307   1.873 -33.476  1.00  0.00     0.162 C 
BRANCH   7   8
HETATM    8  C   UNL     1      -6.823   0.524 -32.870  1.00  0.00     0.238 C 
BRANCH   8   9
HETATM    9  C   UNL     1      -5.795  -0.598 -32.967  1.00  0.00    -0.023 A 
HETATM   10  C   UNL     1      -5.946  -1.566 -33.976  1.00  0.00     0.046 A 
HETATM   11  C   UNL     1      -5.042  -2.624 -34.116  1.00  0.00     0.068 A 
HETATM   12  C   UNL     1      -3.950  -2.708 -33.257  1.00  0.00     0.037 A 
HETATM   13  C   UNL     1      -3.777  -1.748 -32.258  1.00  0.00     0.003 A 
HETATM   14  C   UNL     1      -4.690  -0.702 -32.110  1.00  0.00     0.009 A 
BRANCH  11  15
HETATM   15  O   UNL     1      -5.336  -3.491 -35.130  1.00  0.00    -0.356 OA
HETATM   16  C   UNL     1      -6.630  -4.086 -35.109  1.00  0.00     0.210 C 
ENDBRANCH  11  15
ENDBRANCH   8   9
BRANCH   8  17
HETATM   17  N   UNL     1      -8.172   0.052 -33.427  1.00  0.00    -0.061 N 
HETATM   18  H   UNL     1      -8.000  -0.934 -33.664  1.00  0.00     0.280 HD
HETATM   19  C   UNL     1      -8.690   0.700 -34.683  1.00  0.00     0.236 C 
HETATM   20  C   UNL     1      -9.886   1.506 -34.223  1.00  0.00     0.029 C 
HETATM   21  C   UNL     1     -10.497   0.631 -33.150  1.00  0.00     0.029 C 
HETATM   22  C   UNL     1      -9.308   0.034 -32.420  1.00  0.00     0.236 C 
ENDBRANCH   8  17
ENDBRANCH   7   8
ENDBRANCH   1   7
BRANCH   3  23
HETATM   23  C   UNL     1      -3.491   5.737 -32.522  1.00  0.00     0.149 C 
HETATM   24  C   UNL     1      -4.235   6.912 -31.820  1.00  0.00     0.149 C 
HETATM   25  C   UNL     1      -3.164   7.963 -31.472  1.00  0.00     0.073 C 
HETATM   26  C   UNL     1      -1.917   7.132 -31.390  1.00  0.00    -0.047 A 
HETATM   27  C   UNL     1      -2.096   5.878 -31.982  1.00  0.00    -0.026 A 
HETATM   28  C   UNL     1      -0.691   7.508 -30.865  1.00  0.00     0.008 A 
HETATM   29  C   UNL     1      -1.044   4.976 -32.067  1.00  0.00     0.010 A 
HETATM   30  C   UNL     1       0.192   5.342 -31.529  1.00  0.00     0.001 A 
HETATM   31  C   UNL     1       0.366   6.599 -30.933  1.00  0.00     0.001 A 
BRANCH  24  32
HETATM   32  O   UNL     1      -4.871   6.464 -30.607  1.00  0.00    -0.393 OA
HETATM   33  H   UNL     1      -5.444   7.193 -30.312  1.00  0.00     0.210 HD
ENDBRANCH  24  32
ENDBRANCH   3  23
TORSDOF 7
ENDMDL
MODEL 7
REMARK VINA RESULT:      -8.2      2.192      8.713
REMARK  7 active torsions:
REMARK  status: ('A' for Active; 'I' for Inactive)
REMARK    1  A    between atoms: O_2  and  C_3 
REMARK    2  A    between atoms: C_5  and  C_6 
REMARK    3  A    between atoms: C_6  and  N_7 
REMARK    4  A    between atoms: C_6  and  C_13 
REMARK    5  A    between atoms: C_13  and  N_14 
REMARK       I    between atoms: N_14  and  C_15 
REMARK       I    between atoms: C_15  and  N_16 
REMARK    6  A    between atoms: N_16  and  C_17 
REMARK    7  A    between atoms: C_18  and  O_19 
ROOT
HETATM    1  N   UNL     1      -5.183   2.566 -32.826  1.00  0.00    -0.341 N 
HETATM    2  C   UNL     1      -4.811   3.838 -33.180  1.00  0.00     0.316 C 
HETATM    3  N   UNL     1      -3.925   4.381 -32.303  1.00  0.00    -0.332 N 
HETATM    4  O   UNL     1      -5.153   4.358 -34.232  1.00  0.00    -0.247 OA
HETATM    5  H   UNL     1      -5.146   2.380 -31.831  1.00  0.00     0.164 HD
HETATM    6  H   UNL     1      -4.065   4.177 -31.322  1.00  0.00     0.165 HD
ENDROOT
BRANCH   1   7
HETATM    7  C   UNL     1      -6.196   1.861 -33.601  1.00  0.00     0.162 C 
BRANCH   7   8
HETATM    8  C   UNL     1      -6.753   0.533 -32.985  1.00  0.00     0.238 C 
BRANCH   8   9
HETATM    9  C   UNL     1      -5.966  -0.697 -33.423  1.00  0.00    -0.023 A 
HETATM   10  C   UNL     1      -4.833  -1.073 -32.679  1.00  0.00     0.046 A 
HETATM   11  C   UNL     1      -4.064  -2.187 -33.031  1.00  0.00     0.068 A 
HETATM   12  C   UNL     1      -4.442  -2.961 -34.124  1.00  0.00     0.037 A 
HETATM   13  C   UNL     1      -5.573  -2.611 -34.865  1.00  0.00     0.003 A 
HETATM   14  C   UNL     1      -6.330  -1.489 -34.521  1.00  0.00     0.009 A 
BRANCH  11  15
HETATM   15  O   UNL     1      -2.985  -2.409 -32.223  1.00  0.00    -0.356 OA
HETATM   16  C   UNL     1      -2.907  -3.686 -31.596  1.00  0.00     0.210 C 
ENDBRANCH  11  15
ENDBRANCH   8   9
BRANCH   8  17
HETATM   17  N   UNL     1      -8.254   0.308 -33.213  1.00  0.00    -0.061 N 
HETATM   18  H   UNL     1      -8.343  -0.717 -33.209  1.00  0.00     0.280 HD
HETATM   19  C   UNL     1      -8.854   0.775 -34.511  1.00  0.00     0.236 C 
HETATM   20  C   UNL     1      -9.740   1.937 -34.118  1.00  0.00     0.029 C 
HETATM   21  C   UNL     1     -10.305   1.502 -32.783  1.00  0.00     0.029 C 
HETATM   22  C   UNL     1      -9.151   0.797 -32.091  1.00  0.00     0.236 C 
ENDBRANCH   8  17
ENDBRANCH   7   8
ENDBRANCH   1   7
BRANCH   3  23
HETATM   23  C   UNL     1      -3.418   5.722 -32.535  1.00  0.00     0.149 C 
HETATM   24  C   UNL     1      -4.282   6.829 -31.859  1.00  0.00     0.149 C 
HETATM   25  C   UNL     1      -3.307   7.933 -31.410  1.00  0.00     0.073 C 
HETATM   26  C   UNL     1      -2.019   7.179 -31.259  1.00  0.00    -0.047 A 
HETATM   27  C   UNL     1      -2.076   5.934 -31.893  1.00  0.00    -0.026 A 
HETATM   28  C   UNL     1      -0.858   7.615 -30.640  1.00  0.00     0.008 A 
HETATM   29  C   UNL     1      -0.965   5.102 -31.925  1.00  0.00     0.010 A 
HETATM   30  C   UNL     1       0.205   5.528 -31.292  1.00  0.00     0.001 A 
HETATM   31  C   UNL     1       0.257   6.776 -30.654  1.00  0.00     0.001 A 
BRANCH  24  32
HETATM   32  O   UNL     1      -4.971   6.307 -30.705  1.00  0.00    -0.393 OA
HETATM   33  H   UNL     1      -4.287   5.927 -30.126  1.00  0.00     0.210 HD
ENDBRANCH  24  32
ENDBRANCH   3  23
TORSDOF 7
ENDMDL
MODEL 8
REMARK VINA RESULT:      -8.0      1.819      2.768
REMARK  7 active torsions:
REMARK  status: ('A' for Active; 'I' for Inactive)
REMARK    1  A    between atoms: O_2  and  C_3 
REMARK    2  A    between atoms: C_5  and  C_6 
REMARK    3  A    between atoms: C_6  and  N_7 
REMARK    4  A    between atoms: C_6  and  C_13 
REMARK    5  A    between atoms: C_13  and  N_14 
REMARK       I    between atoms: N_14  and  C_15 
REMARK       I    between atoms: C_15  and  N_16 
REMARK    6  A    between atoms: N_16  and  C_17 
REMARK    7  A    between atoms: C_18  and  O_19 
ROOT
HETATM    1  N   UNL     1      -3.234   3.968 -30.830  1.00  0.00    -0.341 N 
HETATM    2  C   UNL     1      -3.370   3.200 -31.960  1.00  0.00     0.316 C 
HETATM    3  N   UNL     1      -3.580   1.889 -31.672  1.00  0.00    -0.332 N 
HETATM    4  O   UNL     1      -3.418   3.680 -33.083  1.00  0.00    -0.247 OA
HETATM    5  H   UNL     1      -2.864   3.471 -30.029  1.00  0.00     0.164 HD
HETATM    6  H   UNL     1      -3.072   1.502 -30.888  1.00  0.00     0.165 HD
ENDROOT
BRANCH   1   7
HETATM    7  C   UNL     1      -2.913   5.384 -30.946  1.00  0.00     0.162 C 
BRANCH   7   8
HETATM    8  C   UNL     1      -1.393   5.763 -30.930  1.00  0.00     0.238 C 
BRANCH   8   9
HETATM    9  C   UNL     1      -1.033   6.710 -29.790  1.00  0.00    -0.023 A 
HETATM   10  C   UNL     1      -2.055   7.145 -28.926  1.00  0.00     0.046 A 
HETATM   11  C   UNL     1      -1.793   8.018 -27.865  1.00  0.00     0.068 A 
HETATM   12  C   UNL     1      -0.488   8.445 -27.637  1.00  0.00     0.037 A 
HETATM   13  C   UNL     1       0.541   8.012 -28.476  1.00  0.00     0.003 A 
HETATM   14  C   UNL     1       0.274   7.153 -29.544  1.00  0.00     0.009 A 
BRANCH  11  15
HETATM   15  O   UNL     1      -2.892   8.363 -27.131  1.00  0.00    -0.356 OA
HETATM   16  C   UNL     1      -3.679   7.294 -26.615  1.00  0.00     0.210 C 
ENDBRANCH  11  15
ENDBRANCH   8   9
BRANCH   8  17
HETATM   17  N   UNL     1      -0.861   6.314 -32.259  1.00  0.00    -0.061 N 
HETATM   18  H   UNL     1       0.096   6.610 -32.028  1.00  0.00     0.280 HD
HETATM   19  C   UNL     1      -1.539   7.519 -32.853  1.00  0.00     0.236 C 
HETATM   20  C   UNL     1      -2.236   6.987 -34.087  1.00  0.00     0.029 C 
HETATM   21  C   UNL     1      -1.265   5.950 -34.609  1.00  0.00     0.029 C 
HETATM   22  C   UNL     1      -0.711   5.282 -33.363  1.00  0.00     0.236 C 
ENDBRANCH   8  17
ENDBRANCH   7   8
ENDBRANCH   1   7
BRANCH   3  23
HETATM   23  C   UNL     1      -3.758   0.936 -32.754  1.00  0.00     0.149 C 
HETATM   24  C   UNL     1      -3.144  -0.462 -32.446  1.00  0.00     0.149 C 
HETATM   25  C   UNL     1      -4.066  -1.502 -33.110  1.00  0.00     0.073 C 
HETATM   26  C   UNL     1      -5.375  -0.771 -33.177  1.00  0.00    -0.047 A 
HETATM   27  C   UNL     1      -5.206   0.603 -32.979  1.00  0.00    -0.026 A 
HETATM   28  C   UNL     1      -6.623  -1.306 -33.452  1.00  0.00     0.008 A 
HETATM   29  C   UNL     1      -6.286   1.471 -33.061  1.00  0.00     0.010 A 
HETATM   30  C   UNL     1      -7.550   0.938 -33.326  1.00  0.00     0.001 A 
HETATM   31  C   UNL     1      -7.716  -0.441 -33.520  1.00  0.00     0.001 A 
BRANCH  24  32
HETATM   32  O   UNL     1      -3.105  -0.703 -31.025  1.00  0.00    -0.393 OA
HETATM   33  H   UNL     1      -3.947  -1.136 -30.797  1.00  0.00     0.210 HD
ENDBRANCH  24  32
ENDBRANCH   3  23
TORSDOF 7
ENDMDL
MODEL 9
REMARK VINA RESULT:      -8.0      1.986      9.076
REMARK  7 active torsions:
REMARK  status: ('A' for Active; 'I' for Inactive)
REMARK    1  A    between atoms: O_2  and  C_3 
REMARK    2  A    between atoms: C_5  and  C_6 
REMARK    3  A    between atoms: C_6  and  N_7 
REMARK    4  A    between atoms: C_6  and  C_13 
REMARK    5  A    between atoms: C_13  and  N_14 
REMARK       I    between atoms: N_14  and  C_15 
REMARK       I    between atoms: C_15  and  N_16 
REMARK    6  A    between atoms: N_16  and  C_17 
REMARK    7  A    between atoms: C_18  and  O_19 
ROOT
HETATM    1  N   UNL     1      -2.813   3.346 -31.234  1.00  0.00    -0.341 N 
HETATM    2  C   UNL     1      -2.350   4.604 -31.530  1.00  0.00     0.316 C 
HETATM    3  N   UNL     1      -1.994   5.299 -30.419  1.00  0.00    -0.332 N 
HETATM    4  O   UNL     1      -2.170   4.988 -32.677  1.00  0.00    -0.247 OA
HETATM    5  H   UNL     1      -3.243   3.263 -30.321  1.00  0.00     0.164 HD
HETATM    6  H   UNL     1      -2.573   5.183 -29.597  1.00  0.00     0.165 HD
ENDROOT
BRANCH   1   7
HETATM    7  C   UNL     1      -3.325   2.490 -32.296  1.00  0.00     0.162 C 
BRANCH   7   8
HETATM    8  C   UNL     1      -4.701   1.788 -32.030  1.00  0.00     0.238 C 
BRANCH   8   9
HETATM    9  C   UNL     1      -4.813   0.431 -32.715  1.00  0.00    -0.023 A 
HETATM   10  C   UNL     1      -5.891   0.203 -33.590  1.00  0.00     0.046 A 
HETATM   11  C   UNL     1      -6.055  -1.021 -34.246  1.00  0.00     0.068 A 
HETATM   12  C   UNL     1      -5.117  -2.031 -34.053  1.00  0.00     0.037 A 
HETATM   13  C   UNL     1      -4.033  -1.818 -33.199  1.00  0.00     0.003 A 
HETATM   14  C   UNL     1      -3.880  -0.600 -32.533  1.00  0.00     0.009 A 
BRANCH  11  15
HETATM   15  O   UNL     1      -7.161  -1.092 -35.045  1.00  0.00    -0.356 OA
HETATM   16  C   UNL     1      -7.909   0.109 -35.212  1.00  0.00     0.210 C 
ENDBRANCH  11  15
ENDBRANCH   8   9
BRANCH   8  17
HETATM   17  N   UNL     1      -5.927   2.648 -32.361  1.00  0.00    -0.061 N 
HETATM   18  H   UNL     1      -6.512   2.020 -32.927  1.00  0.00     0.280 HD
HETATM   19  C   UNL     1      -5.724   3.889 -33.187  1.00  0.00     0.236 C 
HETATM   20  C   UNL     1      -5.982   5.028 -32.224  1.00  0.00     0.029 C 
HETATM   21  C   UNL     1      -7.108   4.499 -31.361  1.00  0.00     0.029 C 
HETATM   22  C   UNL     1      -6.781   3.029 -31.165  1.00  0.00     0.236 C 
ENDBRANCH   8  17
ENDBRANCH   7   8
ENDBRANCH   1   7
BRANCH   3  23
HETATM   23  C   UNL     1      -1.470   6.648 -30.553  1.00  0.00     0.149 C 
HETATM   24  C   UNL     1      -2.582   7.739 -30.554  1.00  0.00     0.149 C 
HETATM   25  C   UNL     1      -1.990   8.969 -29.841  1.00  0.00     0.073 C 
HETATM   26  C   UNL     1      -0.934   8.355 -28.970  1.00  0.00    -0.047 A 
HETATM   27  C   UNL     1      -0.636   7.048 -29.370  1.00  0.00    -0.026 A 
HETATM   28  C   UNL     1      -0.251   8.958 -27.926  1.00  0.00     0.008 A 
HETATM   29  C   UNL     1       0.360   6.320 -28.732  1.00  0.00     0.010 A 
HETATM   30  C   UNL     1       1.044   6.916 -27.670  1.00  0.00     0.001 A 
HETATM   31  C   UNL     1       0.740   8.225 -27.271  1.00  0.00     0.001 A 
BRANCH  24  32
HETATM   32  O   UNL     1      -3.745   7.286 -29.831  1.00  0.00    -0.393 OA
HETATM   33  H   UNL     1      -3.812   7.849 -29.040  1.00  0.00     0.210 HD
ENDBRANCH  24  32
ENDBRANCH   3  23
TORSDOF 7
ENDMDL
MODEL 10
REMARK VINA RESULT:      -8.0      2.280      8.966
REMARK  7 active torsions:
REMARK  status: ('A' for Active; 'I' for Inactive)
REMARK    1  A    between atoms: O_2  and  C_3 
REMARK    2  A    between atoms: C_5  and  C_6 
REMARK    3  A    between atoms: C_6  and  N_7 
REMARK    4  A    between atoms: C_6  and  C_13 
REMARK    5  A    between atoms: C_13  and  N_14 
REMARK       I    between atoms: N_14  and  C_15 
REMARK       I    between atoms: C_15  and  N_16 
REMARK    6  A    between atoms: N_16  and  C_17 
REMARK    7  A    between atoms: C_18  and  O_19 
ROOT
HETATM    1  N   UNL     1      -3.959   3.316 -31.675  1.00  0.00    -0.341 N 
HETATM    2  C   UNL     1      -3.265   4.456 -31.994  1.00  0.00     0.316 C 
HETATM    3  N   UNL     1      -2.810   5.110 -30.893  1.00  0.00    -0.332 N 
HETATM    4  O   UNL     1      -2.993   4.763 -33.146  1.00  0.00    -0.247 OA
HETATM    5  H   UNL     1      -4.416   3.344 -30.772  1.00  0.00     0.164 HD
HETATM    6  H   UNL     1      -3.417   5.129 -30.085  1.00  0.00     0.165 HD
ENDROOT
BRANCH   1   7
HETATM    7  C   UNL     1      -4.598   2.534 -32.725  1.00  0.00     0.162 C 
BRANCH   7   8
HETATM    8  C   UNL     1      -5.748   1.567 -32.280  1.00  0.00     0.238 C 
BRANCH   8   9
HETATM    9  C   UNL     1      -5.813   0.299 -33.124  1.00  0.00    -0.023 A 
HETATM   10  C   UNL     1      -4.891  -0.731 -32.865  1.00  0.00     0.046 A 
HETATM   11  C   UNL     1      -4.892  -1.917 -33.606  1.00  0.00     0.068 A 
HETATM   12  C   UNL     1      -5.845  -2.098 -34.605  1.00  0.00     0.037 A 
HETATM   13  C   UNL     1      -6.778  -1.091 -34.865  1.00  0.00     0.003 A 
HETATM   14  C   UNL     1      -6.763   0.098 -34.134  1.00  0.00     0.009 A 
BRANCH  11  15
HETATM   15  O   UNL     1      -3.923  -2.811 -33.249  1.00  0.00    -0.356 OA
HETATM   16  C   UNL     1      -3.199  -2.526 -32.056  1.00  0.00     0.210 C 
ENDBRANCH  11  15
ENDBRANCH   8   9
BRANCH   8  17
HETATM   17  N   UNL     1      -7.133   2.221 -32.203  1.00  0.00    -0.061 N 
HETATM   18  H   UNL     1      -7.731   1.575 -32.735  1.00  0.00     0.280 HD
HETATM   19  C   UNL     1      -7.318   3.575 -32.834  1.00  0.00     0.236 C 
HETATM   20  C   UNL     1      -7.516   4.511 -31.662  1.00  0.00     0.029 C 
HETATM   21  C   UNL     1      -8.319   3.676 -30.688  1.00  0.00     0.029 C 
HETATM   22  C   UNL     1      -7.737   2.279 -30.811  1.00  0.00     0.236 C 
ENDBRANCH   8  17
ENDBRANCH   7   8
ENDBRANCH   1   7
BRANCH   3  23
HETATM   23  C   UNL     1      -2.043   6.334 -31.052  1.00  0.00     0.149 C 
HETATM   24  C   UNL     1      -2.903   7.622 -30.878  1.00  0.00     0.149 C 
HETATM   25  C   UNL     1      -1.993   8.669 -30.209  1.00  0.00     0.073 C 
HETATM   26  C   UNL     1      -0.988   7.811 -29.499  1.00  0.00    -0.047 A 
HETATM   27  C   UNL     1      -1.011   6.495 -29.973  1.00  0.00    -0.026 A 
HETATM   28  C   UNL     1      -0.079   8.208 -28.532  1.00  0.00     0.008 A 
HETATM   29  C   UNL     1      -0.115   5.551 -29.489  1.00  0.00     0.010 A 
HETATM   30  C   UNL     1       0.797   5.940 -28.505  1.00  0.00     0.001 A 
HETATM   31  C   UNL     1       0.814   7.260 -28.031  1.00  0.00     0.001 A 
BRANCH  24  32
HETATM   32  O   UNL     1      -4.039   7.368 -30.028  1.00  0.00    -0.393 OA
HETATM   33  H   UNL     1      -4.830   7.516 -30.575  1.00  0.00     0.210 HD
ENDBRANCH  24  32
ENDBRANCH   3  23
TORSDOF 7
ENDMDL
