MODEL 1
REMARK VINA RESULT:      -8.4      0.000      0.000
REMARK  8 active torsions:
REMARK  status: ('A' for Active; 'I' for Inactive)
REMARK    1  A    between atoms: O_2  and  C_3 
REMARK    2  A    between atoms: C_5  and  N_6 
REMARK       I    between atoms: N_6  and  C_7 
REMARK    3  A    between atoms: C_7  and  C_8 
REMARK       I    between atoms: C_8  and  N_9 
REMARK    4  A    between atoms: N_9  and  C_10 
REMARK    5  A    between atoms: C_10  and  C_11 
REMARK    6  A    between atoms: C_11  and  S_12 
REMARK    7  A    between atoms: S_12  and  C_13 
REMARK    8  A    between atoms: C_26  and  O_27 
ROOT
HETATM    1  C   UNL     1      -3.762   3.723 -31.617  1.00  0.00     0.309 C 
HETATM    2  N   UNL     1      -2.583   4.273 -31.163  1.00  0.00    -0.351 N 
HETATM    3  O   UNL     1      -4.802   4.326 -31.842  1.00  0.00    -0.262 OA
HETATM    4  H   UNL     1      -1.863   3.598 -30.915  1.00  0.00     0.162 HD
ENDROOT
BRANCH   1   5
HETATM    5  C   UNL     1      -3.697   2.191 -31.811  1.00  0.00     0.314 C 
HETATM    6  N   UNL     1      -4.594   1.753 -32.755  1.00  0.00    -0.316 N 
HETATM    7  H   UNL     1      -5.143   2.479 -33.216  1.00  0.00     0.169 HD
HETATM    8  O   UNL     1      -2.896   1.550 -31.145  1.00  0.00    -0.262 OA
BRANCH   6   9
HETATM    9  C   UNL     1      -4.860   0.437 -33.181  1.00  0.00     0.071 A 
HETATM   10  C   UNL     1      -4.015  -0.644 -32.906  1.00  0.00     0.069 A 
HETATM   11  C   UNL     1      -4.352  -1.927 -33.343  1.00  0.00     0.070 A 
HETATM   12  C   UNL     1      -5.521  -2.118 -34.081  1.00  0.00     0.039 A 
HETATM   13  C   UNL     1      -6.374  -1.048 -34.360  1.00  0.00     0.042 A 
HETATM   14  C   UNL     1      -6.054   0.232 -33.907  1.00  0.00     0.095 A 
BRANCH  11  15
HETATM   15  O   UNL     1      -3.624  -3.065 -33.125  1.00  0.00    -0.356 OA
HETATM   16  C   UNL     1      -3.014  -3.193 -31.845  1.00  0.00     0.210 C 
ENDBRANCH  11  15
BRANCH  14  17
HETATM   17  O   UNL     1      -6.820   1.356 -34.112  1.00  0.00    -0.354 OA
HETATM   18  C   UNL     1      -8.187   1.156 -34.450  1.00  0.00     0.210 C 
ENDBRANCH  14  17
ENDBRANCH   6   9
ENDBRANCH   1   5
BRANCH   2  19
HETATM   19  C   UNL     1      -2.511   5.645 -30.694  1.00  0.00     0.144 C 
BRANCH  19  20
HETATM   20  C   UNL     1      -1.171   6.393 -30.992  1.00  0.00     0.033 C 
HETATM   21  C   UNL     1      -0.794   6.164 -32.473  1.00  0.00     0.049 C 
HETATM   22  C   UNL     1      -1.727   6.923 -33.415  1.00  0.00     0.169 C 
HETATM   23  O   UNL     1      -1.760   8.310 -33.091  1.00  0.00    -0.391 OA
HETATM   24  C   UNL     1      -2.217   8.566 -31.764  1.00  0.00     0.169 C 
HETATM   25  C   UNL     1      -1.293   7.910 -30.743  1.00  0.00     0.049 C 
BRANCH  20  26
HETATM   26  S   UNL     1       0.093   5.627 -29.837  1.00  0.00    -0.118 SA
BRANCH  26  27
HETATM   27  C   UNL     1       0.192   6.782 -28.485  1.00  0.00     0.001 A 
HETATM   28  C   UNL     1      -0.633   6.633 -27.366  1.00  0.00     0.018 A 
HETATM   29  C   UNL     1      -0.532   7.520 -26.292  1.00  0.00     0.001 A 
HETATM   30  C   UNL     1       0.407   8.550 -26.324  1.00  0.00     0.000 A 
HETATM   31  C   UNL     1       1.253   8.686 -27.422  1.00  0.00     0.001 A 
HETATM   32  C   UNL     1       1.154   7.797 -28.495  1.00  0.00     0.018 A 
ENDBRANCH  26  27
ENDBRANCH  20  26
ENDBRANCH  19  20
ENDBRANCH   2  19
TORSDOF 8
ENDMDL
MODEL 2
REMARK VINA RESULT:      -8.3      3.053      9.024
REMARK  8 active torsions:
REMARK  status: ('A' for Active; 'I' for Inactive)
REMARK    1  A    between atoms: O_2  and  C_3 
REMARK    2  A    between atoms: C_5  and  N_6 
REMARK       I    between atoms: N_6  and  C_7 
REMARK    3  A    between atoms: C_7  and  C_8 
REMARK       I    between atoms: C_8  and  N_9 
REMARK    4  A    between atoms: N_9  and  C_10 
REMARK    5  A    between atoms: C_10  and  C_11 
REMARK    6  A    between atoms: C_11  and  S_12 
REMARK    7  A    between atoms: S_12  and  C_13 
REMARK    8  A    between atoms: C_26  and  O_27 
ROOT
HETATM    1  C   UNL     1      -5.778   2.615 -30.864  1.00  0.00     0.309 C 
HETATM    2  N   UNL     1      -6.680   2.635 -31.907  1.00  0.00    -0.351 N 
HETATM    3  O   UNL     1      -5.692   1.755 -30.000  1.00  0.00    -0.262 OA
HETATM    4  H   UNL     1      -6.683   3.492 -32.454  1.00  0.00     0.162 HD
ENDROOT
BRANCH   1   5
HETATM    5  C   UNL     1      -4.837   3.841 -30.835  1.00  0.00     0.314 C 
HETATM    6  N   UNL     1      -3.813   3.727 -31.744  1.00  0.00    -0.316 N 
HETATM    7  H   UNL     1      -3.829   2.890 -32.327  1.00  0.00     0.169 HD
HETATM    8  O   UNL     1      -5.081   4.747 -30.050  1.00  0.00    -0.262 OA
BRANCH   6   9
HETATM    9  C   UNL     1      -2.743   4.610 -31.988  1.00  0.00     0.071 A 
HETATM   10  C   UNL     1      -1.609   4.685 -31.171  1.00  0.00     0.069 A 
HETATM   11  C   UNL     1      -0.576   5.570 -31.485  1.00  0.00     0.070 A 
HETATM   12  C   UNL     1      -0.696   6.401 -32.601  1.00  0.00     0.039 A 
HETATM   13  C   UNL     1      -1.822   6.334 -33.424  1.00  0.00     0.042 A 
HETATM   14  C   UNL     1      -2.847   5.434 -33.129  1.00  0.00     0.095 A 
BRANCH  11  15
HETATM   15  O   UNL     1       0.588   5.727 -30.782  1.00  0.00    -0.356 OA
HETATM   16  C   UNL     1       0.561   5.331 -29.415  1.00  0.00     0.210 C 
ENDBRANCH  11  15
BRANCH  14  17
HETATM   17  O   UNL     1      -3.993   5.274 -33.871  1.00  0.00    -0.354 OA
HETATM   18  C   UNL     1      -3.846   5.195 -35.284  1.00  0.00     0.210 C 
ENDBRANCH  14  17
ENDBRANCH   6   9
ENDBRANCH   1   5
BRANCH   2  19
HETATM   19  C   UNL     1      -7.793   1.706 -31.971  1.00  0.00     0.144 C 
BRANCH  19  20
HETATM   20  C   UNL     1      -8.243   1.286 -33.408  1.00  0.00     0.033 C 
HETATM   21  C   UNL     1      -8.812  -0.149 -33.349  1.00  0.00     0.049 C 
HETATM   22  C   UNL     1     -10.162  -0.191 -32.635  1.00  0.00     0.169 C 
HETATM   23  O   UNL     1     -11.084   0.716 -33.234  1.00  0.00    -0.391 OA
HETATM   24  C   UNL     1     -10.641   2.071 -33.201  1.00  0.00     0.169 C 
HETATM   25  C   UNL     1      -9.331   2.227 -33.965  1.00  0.00     0.049 C 
BRANCH  20  26
HETATM   26  S   UNL     1      -6.691   1.365 -34.458  1.00  0.00    -0.118 SA
BRANCH  26  27
HETATM   27  C   UNL     1      -5.921  -0.220 -34.202  1.00  0.00     0.001 A 
HETATM   28  C   UNL     1      -6.280  -1.317 -34.990  1.00  0.00     0.018 A 
HETATM   29  C   UNL     1      -5.653  -2.551 -34.809  1.00  0.00     0.001 A 
HETATM   30  C   UNL     1      -4.649  -2.691 -33.852  1.00  0.00     0.000 A 
HETATM   31  C   UNL     1      -4.263  -1.594 -33.085  1.00  0.00     0.001 A 
HETATM   32  C   UNL     1      -4.890  -0.358 -33.267  1.00  0.00     0.018 A 
ENDBRANCH  26  27
ENDBRANCH  20  26
ENDBRANCH  19  20
ENDBRANCH   2  19
TORSDOF 8
ENDMDL
MODEL 3
REMARK VINA RESULT:      -8.2      1.882      2.496
REMARK  8 active torsions:
REMARK  status: ('A' for Active; 'I' for Inactive)
REMARK    1  A    between atoms: O_2  and  C_3 
REMARK    2  A    between atoms: C_5  and  N_6 
REMARK       I    between atoms: N_6  and  C_7 
REMARK    3  A    between atoms: C_7  and  C_8 
REMARK       I    between atoms: C_8  and  N_9 
REMARK    4  A    between atoms: N_9  and  C_10 
REMARK    5  A    between atoms: C_10  and  C_11 
REMARK    6  A    between atoms: C_11  and  S_12 
REMARK    7  A    between atoms: S_12  and  C_13 
REMARK    8  A    between atoms: C_26  and  O_27 
ROOT
HETATM    1  C   UNL     1      -4.391   2.314 -31.136  1.00  0.00     0.309 C 
HETATM    2  N   UNL     1      -3.406   3.021 -31.792  1.00  0.00    -0.351 N 
HETATM    3  O   UNL     1      -5.179   2.763 -30.316  1.00  0.00    -0.262 OA
HETATM    4  H   UNL     1      -2.768   2.454 -32.345  1.00  0.00     0.162 HD
ENDROOT
BRANCH   1   5
HETATM    5  C   UNL     1      -4.425   0.813 -31.503  1.00  0.00     0.314 C 
HETATM    6  N   UNL     1      -5.046   0.591 -32.709  1.00  0.00    -0.316 N 
HETATM    7  H   UNL     1      -5.360   1.425 -33.206  1.00  0.00     0.169 HD
HETATM    8  O   UNL     1      -3.923   0.009 -30.730  1.00  0.00    -0.262 OA
BRANCH   6   9
HETATM    9  C   UNL     1      -5.306  -0.631 -33.360  1.00  0.00     0.071 A 
HETATM   10  C   UNL     1      -4.330  -1.611 -33.570  1.00  0.00     0.069 A 
HETATM   11  C   UNL     1      -4.664  -2.808 -34.206  1.00  0.00     0.070 A 
HETATM   12  C   UNL     1      -5.969  -3.008 -34.657  1.00  0.00     0.039 A 
HETATM   13  C   UNL     1      -6.953  -2.038 -34.452  1.00  0.00     0.042 A 
HETATM   14  C   UNL     1      -6.631  -0.849 -33.796  1.00  0.00     0.095 A 
BRANCH  11  15
HETATM   15  O   UNL     1      -3.811  -3.850 -34.454  1.00  0.00    -0.356 OA
HETATM   16  C   UNL     1      -4.206  -5.125 -33.963  1.00  0.00     0.210 C 
ENDBRANCH  11  15
BRANCH  14  17
HETATM   17  O   UNL     1      -7.515   0.169 -33.530  1.00  0.00    -0.354 OA
HETATM   18  C   UNL     1      -8.186   0.753 -34.641  1.00  0.00     0.210 C 
ENDBRANCH  14  17
ENDBRANCH   6   9
ENDBRANCH   1   5
BRANCH   2  19
HETATM   19  C   UNL     1      -3.058   4.378 -31.411  1.00  0.00     0.144 C 
BRANCH  19  20
HETATM   20  C   UNL     1      -2.870   5.386 -32.591  1.00  0.00     0.033 C 
HETATM   21  C   UNL     1      -3.533   4.795 -33.856  1.00  0.00     0.049 C 
HETATM   22  C   UNL     1      -5.057   4.806 -33.751  1.00  0.00     0.169 C 
HETATM   23  O   UNL     1      -5.539   6.117 -33.468  1.00  0.00    -0.391 OA
HETATM   24  C   UNL     1      -5.037   6.648 -32.243  1.00  0.00     0.169 C 
HETATM   25  C   UNL     1      -3.515   6.752 -32.287  1.00  0.00     0.049 C 
BRANCH  20  26
HETATM   26  S   UNL     1      -1.015   5.557 -32.807  1.00  0.00    -0.118 SA
BRANCH  26  27
HETATM   27  C   UNL     1      -0.427   5.935 -31.169  1.00  0.00     0.001 A 
HETATM   28  C   UNL     1       0.259   4.973 -30.423  1.00  0.00     0.018 A 
HETATM   29  C   UNL     1       0.747   5.280 -29.152  1.00  0.00     0.001 A 
HETATM   30  C   UNL     1       0.568   6.559 -28.626  1.00  0.00     0.000 A 
HETATM   31  C   UNL     1      -0.087   7.533 -29.377  1.00  0.00     0.001 A 
HETATM   32  C   UNL     1      -0.574   7.226 -30.650  1.00  0.00     0.018 A 
ENDBRANCH  26  27
ENDBRANCH  20  26
ENDBRANCH  19  20
ENDBRANCH   2  19
TORSDOF 8
ENDMDL
MODEL 4
REMARK VINA RESULT:      -8.1      2.902      4.048
REMARK  8 active torsions:
REMARK  status: ('A' for Active; 'I' for Inactive)
REMARK    1  A    between atoms: O_2  and  C_3 
REMARK    2  A    between atoms: C_5  and  N_6 
REMARK       I    between atoms: N_6  and  C_7 
REMARK    3  A    between atoms: C_7  and  C_8 
REMARK       I    between atoms: C_8  and  N_9 
REMARK    4  A    between atoms: N_9  and  C_10 
REMARK    5  A    between atoms: C_10  and  C_11 
REMARK    6  A    between atoms: C_11  and  S_12 
REMARK    7  A    between atoms: S_12  and  C_13 
REMARK    8  A    between atoms: C_26  and  O_27 
ROOT
HETATM    1  C   UNL     1      -3.652   2.123 -31.549  1.00  0.00     0.309 C 
HETATM    2  N   UNL     1      -4.742   2.904 -31.869  1.00  0.00    -0.351 N 
HETATM    3  O   UNL     1      -2.597   2.515 -31.072  1.00  0.00    -0.262 OA
HETATM    4  H   UNL     1      -5.484   2.419 -32.370  1.00  0.00     0.162 HD
ENDROOT
BRANCH   1   5
HETATM    5  C   UNL     1      -3.846   0.625 -31.875  1.00  0.00     0.314 C 
HETATM    6  N   UNL     1      -4.666   0.436 -32.961  1.00  0.00    -0.316 N 
HETATM    7  H   UNL     1      -5.000   1.285 -33.418  1.00  0.00     0.169 HD
HETATM    8  O   UNL     1      -3.280  -0.204 -31.176  1.00  0.00    -0.262 OA
BRANCH   6   9
HETATM    9  C   UNL     1      -5.108  -0.771 -33.538  1.00  0.00     0.071 A 
HETATM   10  C   UNL     1      -4.265  -1.863 -33.774  1.00  0.00     0.069 A 
HETATM   11  C   UNL     1      -4.777  -3.036 -34.331  1.00  0.00     0.070 A 
HETATM   12  C   UNL     1      -6.128  -3.102 -34.678  1.00  0.00     0.039 A 
HETATM   13  C   UNL     1      -6.980  -2.020 -34.445  1.00  0.00     0.042 A 
HETATM   14  C   UNL     1      -6.479  -0.853 -33.867  1.00  0.00     0.095 A 
BRANCH  11  15
HETATM   15  O   UNL     1      -4.066  -4.176 -34.594  1.00  0.00    -0.356 OA
HETATM   16  C   UNL     1      -3.655  -4.942 -33.468  1.00  0.00     0.210 C 
ENDBRANCH  11  15
BRANCH  14  17
HETATM   17  O   UNL     1      -7.222   0.268 -33.583  1.00  0.00    -0.354 OA
HETATM   18  C   UNL     1      -8.638   0.129 -33.602  1.00  0.00     0.210 C 
ENDBRANCH  14  17
ENDBRANCH   6   9
ENDBRANCH   1   5
BRANCH   2  19
HETATM   19  C   UNL     1      -4.672   4.354 -31.861  1.00  0.00     0.144 C 
BRANCH  19  20
HETATM   20  C   UNL     1      -5.224   5.066 -33.138  1.00  0.00     0.033 C 
HETATM   21  C   UNL     1      -6.326   4.180 -33.760  1.00  0.00     0.049 C 
HETATM   22  C   UNL     1      -7.592   4.171 -32.905  1.00  0.00     0.169 C 
HETATM   23  O   UNL     1      -8.055   5.497 -32.666  1.00  0.00    -0.391 OA
HETATM   24  C   UNL     1      -7.103   6.311 -31.986  1.00  0.00     0.169 C 
HETATM   25  C   UNL     1      -5.826   6.446 -32.809  1.00  0.00     0.049 C 
BRANCH  20  26
HETATM   26  S   UNL     1      -3.752   5.236 -34.288  1.00  0.00    -0.118 SA
BRANCH  26  27
HETATM   27  C   UNL     1      -2.472   5.907 -33.247  1.00  0.00     0.001 A 
HETATM   28  C   UNL     1      -1.435   5.092 -32.786  1.00  0.00     0.018 A 
HETATM   29  C   UNL     1      -0.415   5.626 -31.996  1.00  0.00     0.001 A 
HETATM   30  C   UNL     1      -0.416   6.984 -31.679  1.00  0.00     0.000 A 
HETATM   31  C   UNL     1      -1.430   7.809 -32.161  1.00  0.00     0.001 A 
HETATM   32  C   UNL     1      -2.449   7.274 -32.952  1.00  0.00     0.018 A 
ENDBRANCH  26  27
ENDBRANCH  20  26
ENDBRANCH  19  20
ENDBRANCH   2  19
TORSDOF 8
ENDMDL
MODEL 5
REMARK VINA RESULT:      -8.0      3.511      9.199
REMARK  8 active torsions:
REMARK  status: ('A' for Active; 'I' for Inactive)
REMARK    1  A    between atoms: O_2  and  C_3 
REMARK    2  A    between atoms: C_5  and  N_6 
REMARK       I    between atoms: N_6  and  C_7 
REMARK    3  A    between atoms: C_7  and  C_8 
REMARK       I    between atoms: C_8  and  N_9 
REMARK    4  A    between atoms: N_9  and  C_10 
REMARK    5  A    between atoms: C_10  and  C_11 
REMARK    6  A    between atoms: C_11  and  S_12 
REMARK    7  A    between atoms: S_12  and  C_13 
REMARK    8  A    between atoms: C_26  and  O_27 
ROOT
HETATM    1  C   UNL     1      -6.576   4.249 -33.813  1.00  0.00     0.309 C 
HETATM    2  N   UNL     1      -6.636   2.909 -33.495  1.00  0.00    -0.351 N 
HETATM    3  O   UNL     1      -7.484   4.922 -34.280  1.00  0.00    -0.262 OA
HETATM    4  H   UNL     1      -5.746   2.492 -33.233  1.00  0.00     0.162 HD
ENDROOT
BRANCH   1   5
HETATM    5  C   UNL     1      -5.194   4.888 -33.551  1.00  0.00     0.314 C 
HETATM    6  N   UNL     1      -4.799   4.745 -32.243  1.00  0.00    -0.316 N 
HETATM    7  H   UNL     1      -5.435   4.219 -31.643  1.00  0.00     0.169 HD
HETATM    8  O   UNL     1      -4.613   5.428 -34.483  1.00  0.00    -0.262 OA
BRANCH   6   9
HETATM    9  C   UNL     1      -3.632   5.220 -31.613  1.00  0.00     0.071 A 
HETATM   10  C   UNL     1      -2.386   4.595 -31.735  1.00  0.00     0.069 A 
HETATM   11  C   UNL     1      -1.266   5.134 -31.098  1.00  0.00     0.070 A 
HETATM   12  C   UNL     1      -1.404   6.281 -30.314  1.00  0.00     0.039 A 
HETATM   13  C   UNL     1      -2.643   6.914 -30.186  1.00  0.00     0.042 A 
HETATM   14  C   UNL     1      -3.760   6.394 -30.839  1.00  0.00     0.095 A 
BRANCH  11  15
HETATM   15  O   UNL     1       0.007   4.633 -31.152  1.00  0.00    -0.356 OA
HETATM   16  C   UNL     1       0.842   4.900 -30.032  1.00  0.00     0.210 C 
ENDBRANCH  11  15
BRANCH  14  17
HETATM   17  O   UNL     1      -5.023   6.936 -30.794  1.00  0.00    -0.354 OA
HETATM   18  C   UNL     1      -5.616   7.094 -29.511  1.00  0.00     0.210 C 
ENDBRANCH  14  17
ENDBRANCH   6   9
ENDBRANCH   1   5
BRANCH   2  19
HETATM   19  C   UNL     1      -7.762   2.081 -33.886  1.00  0.00     0.144 C 
BRANCH  19  20
HETATM   20  C   UNL     1      -8.602   1.481 -32.712  1.00  0.00     0.033 C 
HETATM   21  C   UNL     1      -9.228   2.642 -31.908  1.00  0.00     0.049 C 
HETATM   22  C   UNL     1     -10.341   3.334 -32.692  1.00  0.00     0.169 C 
HETATM   23  O   UNL     1     -11.327   2.395 -33.114  1.00  0.00    -0.391 OA
HETATM   24  C   UNL     1     -10.803   1.371 -33.957  1.00  0.00     0.169 C 
HETATM   25  C   UNL     1      -9.733   0.568 -33.225  1.00  0.00     0.049 C 
BRANCH  20  26
HETATM   26  S   UNL     1      -7.379   0.509 -31.672  1.00  0.00    -0.118 SA
BRANCH  26  27
HETATM   27  C   UNL     1      -6.582  -0.568 -32.845  1.00  0.00     0.001 A 
HETATM   28  C   UNL     1      -5.187  -0.637 -32.909  1.00  0.00     0.018 A 
HETATM   29  C   UNL     1      -4.563  -1.505 -33.807  1.00  0.00     0.001 A 
HETATM   30  C   UNL     1      -5.331  -2.324 -34.634  1.00  0.00     0.000 A 
HETATM   31  C   UNL     1      -6.721  -2.283 -34.555  1.00  0.00     0.001 A 
HETATM   32  C   UNL     1      -7.346  -1.415 -33.655  1.00  0.00     0.018 A 
ENDBRANCH  26  27
ENDBRANCH  20  26
ENDBRANCH  19  20
ENDBRANCH   2  19
TORSDOF 8
ENDMDL
MODEL 6
REMARK VINA RESULT:      -7.8      3.099      4.775
REMARK  8 active torsions:
REMARK  status: ('A' for Active; 'I' for Inactive)
REMARK    1  A    between atoms: O_2  and  C_3 
REMARK    2  A    between atoms: C_5  and  N_6 
REMARK       I    between atoms: N_6  and  C_7 
REMARK    3  A    between atoms: C_7  and  C_8 
REMARK       I    between atoms: C_8  and  N_9 
REMARK    4  A    between atoms: N_9  and  C_10 
REMARK    5  A    between atoms: C_10  and  C_11 
REMARK    6  A    between atoms: C_11  and  S_12 
REMARK    7  A    between atoms: S_12  and  C_13 
REMARK    8  A    between atoms: C_26  and  O_27 
ROOT
HETATM    1  C   UNL     1      -7.720   2.688 -33.839  1.00  0.00     0.309 C 
HETATM    2  N   UNL     1      -6.618   3.468 -34.118  1.00  0.00    -0.351 N 
HETATM    3  O   UNL     1      -8.801   3.087 -33.429  1.00  0.00    -0.262 OA
HETATM    4  H   UNL     1      -5.770   2.948 -34.331  1.00  0.00     0.162 HD
ENDROOT
BRANCH   1   5
HETATM    5  C   UNL     1      -7.485   1.178 -34.064  1.00  0.00     0.314 C 
HETATM    6  N   UNL     1      -6.202   0.803 -33.746  1.00  0.00    -0.316 N 
HETATM    7  H   UNL     1      -5.603   1.542 -33.378  1.00  0.00     0.169 HD
HETATM    8  O   UNL     1      -8.413   0.497 -34.480  1.00  0.00    -0.262 OA
BRANCH   6   9
HETATM    9  C   UNL     1      -5.598  -0.466 -33.851  1.00  0.00     0.071 A 
HETATM   10  C   UNL     1      -6.077  -1.476 -34.693  1.00  0.00     0.069 A 
HETATM   11  C   UNL     1      -5.415  -2.703 -34.762  1.00  0.00     0.070 A 
HETATM   12  C   UNL     1      -4.293  -2.926 -33.963  1.00  0.00     0.039 A 
HETATM   13  C   UNL     1      -3.804  -1.926 -33.121  1.00  0.00     0.042 A 
HETATM   14  C   UNL     1      -4.447  -0.689 -33.065  1.00  0.00     0.095 A 
BRANCH  11  15
HETATM   15  O   UNL     1      -5.769  -3.762 -35.555  1.00  0.00    -0.356 OA
HETATM   16  C   UNL     1      -6.845  -4.570 -35.091  1.00  0.00     0.210 C 
ENDBRANCH  11  15
BRANCH  14  17
HETATM   17  O   UNL     1      -4.052   0.371 -32.283  1.00  0.00    -0.354 OA
HETATM   18  C   UNL     1      -3.723   0.090 -30.927  1.00  0.00     0.210 C 
ENDBRANCH  14  17
ENDBRANCH   6   9
ENDBRANCH   1   5
BRANCH   2  19
HETATM   19  C   UNL     1      -6.560   4.870 -33.746  1.00  0.00     0.144 C 
BRANCH  19  20
HETATM   20  C   UNL     1      -5.281   5.311 -32.963  1.00  0.00     0.033 C 
HETATM   21  C   UNL     1      -5.540   6.698 -32.334  1.00  0.00     0.049 C 
HETATM   22  C   UNL     1      -6.534   6.616 -31.177  1.00  0.00     0.169 C 
HETATM   23  O   UNL     1      -6.104   5.669 -30.203  1.00  0.00    -0.391 OA
HETATM   24  C   UNL     1      -5.968   4.349 -30.724  1.00  0.00     0.169 C 
HETATM   25  C   UNL     1      -4.927   4.317 -31.838  1.00  0.00     0.049 C 
BRANCH  20  26
HETATM   26  S   UNL     1      -3.913   5.384 -34.244  1.00  0.00    -0.118 SA
BRANCH  26  27
HETATM   27  C   UNL     1      -2.477   5.870 -33.309  1.00  0.00     0.001 A 
HETATM   28  C   UNL     1      -2.166   7.222 -33.141  1.00  0.00     0.018 A 
HETATM   29  C   UNL     1      -1.058   7.602 -32.382  1.00  0.00     0.001 A 
HETATM   30  C   UNL     1      -0.265   6.633 -31.771  1.00  0.00     0.000 A 
HETATM   31  C   UNL     1      -0.586   5.284 -31.908  1.00  0.00     0.001 A 
HETATM   32  C   UNL     1      -1.696   4.904 -32.667  1.00  0.00     0.018 A 
ENDBRANCH  26  27
ENDBRANCH  20  26
ENDBRANCH  19  20
ENDBRANCH   2  19
TORSDOF 8
ENDMDL
MODEL 7
REMARK VINA RESULT:      -7.8      3.422      4.618
REMARK  8 active torsions:
REMARK  status: ('A' for Active; 'I' for Inactive)
REMARK    1  A    between atoms: O_2  and  C_3 
REMARK    2  A    between atoms: C_5  and  N_6 
REMARK       I    between atoms: N_6  and  C_7 
REMARK    3  A    between atoms: C_7  and  C_8 
REMARK       I    between atoms: C_8  and  N_9 
REMARK    4  A    between atoms: N_9  and  C_10 
REMARK    5  A    between atoms: C_10  and  C_11 
REMARK    6  A    between atoms: C_11  and  S_12 
REMARK    7  A    between atoms: S_12  and  C_13 
REMARK    8  A    between atoms: C_26  and  O_27 
ROOT
HETATM    1  C   UNL     1      -3.513   2.648 -31.297  1.00  0.00     0.309 C 
HETATM    2  N   UNL     1      -4.500   3.458 -30.777  1.00  0.00    -0.351 N 
HETATM    3  O   UNL     1      -2.364   2.980 -31.550  1.00  0.00    -0.262 OA
HETATM    4  H   UNL     1      -5.427   3.039 -30.750  1.00  0.00     0.162 HD
ENDROOT
BRANCH   1   5
HETATM    5  C   UNL     1      -3.984   1.205 -31.586  1.00  0.00     0.314 C 
HETATM    6  N   UNL     1      -4.791   1.138 -32.696  1.00  0.00    -0.316 N 
HETATM    7  H   UNL     1      -4.940   2.019 -33.190  1.00  0.00     0.169 HD
HETATM    8  O   UNL     1      -3.612   0.307 -30.842  1.00  0.00    -0.262 OA
BRANCH   6   9
HETATM    9  C   UNL     1      -5.442   0.019 -33.253  1.00  0.00     0.071 A 
HETATM   10  C   UNL     1      -4.760  -1.105 -33.732  1.00  0.00     0.069 A 
HETATM   11  C   UNL     1      -5.472  -2.187 -34.253  1.00  0.00     0.070 A 
HETATM   12  C   UNL     1      -6.865  -2.127 -34.320  1.00  0.00     0.039 A 
HETATM   13  C   UNL     1      -7.557  -1.012 -33.843  1.00  0.00     0.042 A 
HETATM   14  C   UNL     1      -6.853   0.063 -33.300  1.00  0.00     0.095 A 
BRANCH  11  15
HETATM   15  O   UNL     1      -4.929  -3.347 -34.735  1.00  0.00    -0.356 OA
HETATM   16  C   UNL     1      -5.833  -4.419 -34.978  1.00  0.00     0.210 C 
ENDBRANCH  11  15
BRANCH  14  17
HETATM   17  O   UNL     1      -7.425   1.205 -32.793  1.00  0.00    -0.354 OA
HETATM   18  C   UNL     1      -8.330   1.050 -31.705  1.00  0.00     0.210 C 
ENDBRANCH  14  17
ENDBRANCH   6   9
ENDBRANCH   1   5
BRANCH   2  19
HETATM   19  C   UNL     1      -4.327   4.894 -30.662  1.00  0.00     0.144 C 
BRANCH  19  20
HETATM   20  C   UNL     1      -5.570   5.759 -31.049  1.00  0.00     0.033 C 
HETATM   21  C   UNL     1      -6.830   5.126 -30.416  1.00  0.00     0.049 C 
HETATM   22  C   UNL     1      -6.852   5.310 -28.900  1.00  0.00     0.169 C 
HETATM   23  O   UNL     1      -6.723   6.686 -28.551  1.00  0.00    -0.391 OA
HETATM   24  C   UNL     1      -5.512   7.274 -29.021  1.00  0.00     0.169 C 
HETATM   25  C   UNL     1      -5.439   7.210 -30.543  1.00  0.00     0.049 C 
BRANCH  20  26
HETATM   26  S   UNL     1      -5.647   5.710 -32.922  1.00  0.00    -0.118 SA
BRANCH  26  27
HETATM   27  C   UNL     1      -3.949   5.906 -33.425  1.00  0.00     0.001 A 
HETATM   28  C   UNL     1      -3.174   6.949 -32.911  1.00  0.00     0.018 A 
HETATM   29  C   UNL     1      -1.835   7.083 -33.281  1.00  0.00     0.001 A 
HETATM   30  C   UNL     1      -1.257   6.162 -34.154  1.00  0.00     0.000 A 
HETATM   31  C   UNL     1      -2.015   5.102 -34.647  1.00  0.00     0.001 A 
HETATM   32  C   UNL     1      -3.355   4.967 -34.275  1.00  0.00     0.018 A 
ENDBRANCH  26  27
ENDBRANCH  20  26
ENDBRANCH  19  20
ENDBRANCH   2  19
TORSDOF 8
ENDMDL
MODEL 8
REMARK VINA RESULT:      -7.8      6.355     10.359
REMARK  8 active torsions:
REMARK  status: ('A' for Active; 'I' for Inactive)
REMARK    1  A    between atoms: O_2  and  C_3 
REMARK    2  A    between atoms: C_5  and  N_6 
REMARK       I    between atoms: N_6  and  C_7 
REMARK    3  A    between atoms: C_7  and  C_8 
REMARK       I    between atoms: C_8  and  N_9 
REMARK    4  A    between atoms: N_9  and  C_10 
REMARK    5  A    between atoms: C_10  and  C_11 
REMARK    6  A    between atoms: C_11  and  S_12 
REMARK    7  A    between atoms: S_12  and  C_13 
REMARK    8  A    between atoms: C_26  and  O_27 
ROOT
HETATM    1  C   UNL     1     -10.706   1.062 -33.527  1.00  0.00     0.309 C 
HETATM    2  N   UNL     1      -9.750   1.966 -33.938  1.00  0.00    -0.351 N 
HETATM    3  O   UNL     1     -10.498  -0.056 -33.078  1.00  0.00    -0.262 OA
HETATM    4  H   UNL     1     -10.115   2.796 -34.398  1.00  0.00     0.162 HD
ENDROOT
BRANCH   1   5
HETATM    5  C   UNL     1     -12.155   1.569 -33.705  1.00  0.00     0.314 C 
HETATM    6  N   UNL     1     -12.562   2.347 -32.648  1.00  0.00    -0.316 N 
HETATM    7  H   UNL     1     -11.862   2.514 -31.924  1.00  0.00     0.169 HD
HETATM    8  O   UNL     1     -12.768   1.249 -34.714  1.00  0.00    -0.262 OA
BRANCH   6   9
HETATM    9  C   UNL     1     -13.813   2.955 -32.425  1.00  0.00     0.071 A 
HETATM   10  C   UNL     1     -15.022   2.250 -32.447  1.00  0.00     0.069 A 
HETATM   11  C   UNL     1     -16.225   2.914 -32.197  1.00  0.00     0.070 A 
HETATM   12  C   UNL     1     -16.216   4.289 -31.956  1.00  0.00     0.039 A 
HETATM   13  C   UNL     1     -15.016   5.003 -31.930  1.00  0.00     0.042 A 
HETATM   14  C   UNL     1     -13.809   4.341 -32.155  1.00  0.00     0.095 A 
BRANCH  11  15
HETATM   15  O   UNL     1     -17.468   2.341 -32.171  1.00  0.00    -0.356 OA
HETATM   16  C   UNL     1     -18.562   3.181 -32.521  1.00  0.00     0.210 C 
ENDBRANCH  11  15
BRANCH  14  17
HETATM   17  O   UNL     1     -12.569   4.935 -32.144  1.00  0.00    -0.354 OA
HETATM   18  C   UNL     1     -12.127   5.490 -30.911  1.00  0.00     0.210 C 
ENDBRANCH  14  17
ENDBRANCH   6   9
ENDBRANCH   1   5
BRANCH   2  19
HETATM   19  C   UNL     1      -8.354   1.591 -34.075  1.00  0.00     0.144 C 
BRANCH  19  20
HETATM   20  C   UNL     1      -7.426   1.990 -32.882  1.00  0.00     0.033 C 
HETATM   21  C   UNL     1      -6.042   2.388 -33.443  1.00  0.00     0.049 C 
HETATM   22  C   UNL     1      -6.097   3.723 -34.183  1.00  0.00     0.169 C 
HETATM   23  O   UNL     1      -6.640   4.745 -33.351  1.00  0.00    -0.391 OA
HETATM   24  C   UNL     1      -7.966   4.463 -32.909  1.00  0.00     0.169 C 
HETATM   25  C   UNL     1      -7.996   3.180 -32.085  1.00  0.00     0.049 C 
BRANCH  20  26
HETATM   26  S   UNL     1      -7.313   0.458 -31.806  1.00  0.00    -0.118 SA
BRANCH  26  27
HETATM   27  C   UNL     1      -6.505  -0.739 -32.848  1.00  0.00     0.001 A 
HETATM   28  C   UNL     1      -7.230  -1.440 -33.815  1.00  0.00     0.018 A 
HETATM   29  C   UNL     1      -6.589  -2.354 -34.653  1.00  0.00     0.001 A 
HETATM   30  C   UNL     1      -5.215  -2.560 -34.540  1.00  0.00     0.000 A 
HETATM   31  C   UNL     1      -4.480  -1.842 -33.599  1.00  0.00     0.001 A 
HETATM   32  C   UNL     1      -5.121  -0.926 -32.762  1.00  0.00     0.018 A 
ENDBRANCH  26  27
ENDBRANCH  20  26
ENDBRANCH  19  20
ENDBRANCH   2  19
TORSDOF 8
ENDMDL
MODEL 9
REMARK VINA RESULT:      -7.7      5.374      9.718
REMARK  8 active torsions:
REMARK  status: ('A' for Active; 'I' for Inactive)
REMARK    1  A    between atoms: O_2  and  C_3 
REMARK    2  A    between atoms: C_5  and  N_6 
REMARK       I    between atoms: N_6  and  C_7 
REMARK    3  A    between atoms: C_7  and  C_8 
REMARK       I    between atoms: C_8  and  N_9 
REMARK    4  A    between atoms: N_9  and  C_10 
REMARK    5  A    between atoms: C_10  and  C_11 
REMARK    6  A    between atoms: C_11  and  S_12 
REMARK    7  A    between atoms: S_12  and  C_13 
REMARK    8  A    between atoms: C_26  and  O_27 
ROOT
HETATM    1  C   UNL     1      -8.769   0.924 -32.168  1.00  0.00     0.309 C 
HETATM    2  N   UNL     1      -7.503   1.165 -31.678  1.00  0.00    -0.351 N 
HETATM    3  O   UNL     1      -9.241  -0.169 -32.444  1.00  0.00    -0.262 OA
HETATM    4  H   UNL     1      -7.244   2.147 -31.625  1.00  0.00     0.162 HD
ENDROOT
BRANCH   1   5
HETATM    5  C   UNL     1      -9.602   2.206 -32.389  1.00  0.00     0.314 C 
HETATM    6  N   UNL     1      -9.913   2.398 -33.714  1.00  0.00    -0.316 N 
HETATM    7  H   UNL     1      -9.593   1.670 -34.354  1.00  0.00     0.169 HD
HETATM    8  O   UNL     1      -9.892   2.891 -31.417  1.00  0.00    -0.262 OA
BRANCH   6   9
HETATM    9  C   UNL     1     -10.617   3.460 -34.314  1.00  0.00     0.071 A 
HETATM   10  C   UNL     1     -10.098   4.753 -34.435  1.00  0.00     0.069 A 
HETATM   11  C   UNL     1     -10.846   5.753 -35.061  1.00  0.00     0.070 A 
HETATM   12  C   UNL     1     -12.125   5.461 -35.536  1.00  0.00     0.039 A 
HETATM   13  C   UNL     1     -12.654   4.173 -35.422  1.00  0.00     0.042 A 
HETATM   14  C   UNL     1     -11.902   3.164 -34.819  1.00  0.00     0.095 A 
BRANCH  11  15
HETATM   15  O   UNL     1     -10.447   7.047 -35.259  1.00  0.00    -0.356 OA
HETATM   16  C   UNL     1     -11.265   7.840 -36.112  1.00  0.00     0.210 C 
ENDBRANCH  11  15
BRANCH  14  17
HETATM   17  O   UNL     1     -12.314   1.862 -34.661  1.00  0.00    -0.354 OA
HETATM   18  C   UNL     1     -13.700   1.643 -34.426  1.00  0.00     0.210 C 
ENDBRANCH  14  17
ENDBRANCH   6   9
ENDBRANCH   1   5
BRANCH   2  19
HETATM   19  C   UNL     1      -6.493   0.123 -31.628  1.00  0.00     0.144 C 
BRANCH  19  20
HETATM   20  C   UNL     1      -5.331   0.257 -32.665  1.00  0.00     0.033 C 
HETATM   21  C   UNL     1      -4.838   1.721 -32.670  1.00  0.00     0.049 C 
HETATM   22  C   UNL     1      -4.079   2.065 -31.389  1.00  0.00     0.169 C 
HETATM   23  O   UNL     1      -3.008   1.150 -31.171  1.00  0.00    -0.391 OA
HETATM   24  C   UNL     1      -3.441  -0.202 -31.044  1.00  0.00     0.169 C 
HETATM   25  C   UNL     1      -4.143  -0.663 -32.317  1.00  0.00     0.049 C 
BRANCH  20  26
HETATM   26  S   UNL     1      -6.081  -0.218 -34.317  1.00  0.00    -0.118 SA
BRANCH  26  27
HETATM   27  C   UNL     1      -5.849  -1.982 -34.401  1.00  0.00     0.001 A 
HETATM   28  C   UNL     1      -6.945  -2.834 -34.561  1.00  0.00     0.018 A 
HETATM   29  C   UNL     1      -6.758  -4.214 -34.659  1.00  0.00     0.001 A 
HETATM   30  C   UNL     1      -5.471  -4.749 -34.615  1.00  0.00     0.000 A 
HETATM   31  C   UNL     1      -4.371  -3.904 -34.487  1.00  0.00     0.001 A 
HETATM   32  C   UNL     1      -4.558  -2.522 -34.391  1.00  0.00     0.018 A 
ENDBRANCH  26  27
ENDBRANCH  20  26
ENDBRANCH  19  20
ENDBRANCH   2  19
TORSDOF 8
ENDMDL
MODEL 10
REMARK VINA RESULT:      -7.7      2.862      8.908
REMARK  8 active torsions:
REMARK  status: ('A' for Active; 'I' for Inactive)
REMARK    1  A    between atoms: O_2  and  C_3 
REMARK    2  A    between atoms: C_5  and  N_6 
REMARK       I    between atoms: N_6  and  C_7 
REMARK    3  A    between atoms: C_7  and  C_8 
REMARK       I    between atoms: C_8  and  N_9 
REMARK    4  A    between atoms: N_9  and  C_10 
REMARK    5  A    between atoms: C_10  and  C_11 
REMARK    6  A    between atoms: C_11  and  S_12 
REMARK    7  A    between atoms: S_12  and  C_13 
REMARK    8  A    between atoms: C_26  and  O_27 
ROOT
HETATM    1  C   UNL     1      -5.743   5.336 -30.153  1.00  0.00     0.309 C 
HETATM    2  N   UNL     1      -5.531   4.006 -30.448  1.00  0.00    -0.351 N 
HETATM    3  O   UNL     1      -6.810   5.845 -29.837  1.00  0.00    -0.262 OA
HETATM    4  H   UNL     1      -4.605   3.791 -30.809  1.00  0.00     0.162 HD
ENDROOT
BRANCH   1   5
HETATM    5  C   UNL     1      -4.476   6.210 -30.281  1.00  0.00     0.314 C 
HETATM    6  N   UNL     1      -3.344   5.453 -30.468  1.00  0.00    -0.316 N 
HETATM    7  H   UNL     1      -3.491   4.445 -30.533  1.00  0.00     0.169 HD
HETATM    8  O   UNL     1      -4.593   7.426 -30.210  1.00  0.00    -0.262 OA
BRANCH   6   9
HETATM    9  C   UNL     1      -2.005   5.875 -30.588  1.00  0.00     0.071 A 
HETATM   10  C   UNL     1      -1.378   6.709 -29.656  1.00  0.00     0.069 A 
HETATM   11  C   UNL     1      -0.040   7.071 -29.828  1.00  0.00     0.070 A 
HETATM   12  C   UNL     1       0.656   6.621 -30.951  1.00  0.00     0.039 A 
HETATM   13  C   UNL     1       0.041   5.787 -31.887  1.00  0.00     0.042 A 
HETATM   14  C   UNL     1      -1.288   5.402 -31.708  1.00  0.00     0.095 A 
BRANCH  11  15
HETATM   15  O   UNL     1       0.692   7.862 -28.984  1.00  0.00    -0.356 OA
HETATM   16  C   UNL     1       0.968   7.328 -27.694  1.00  0.00     0.210 C 
ENDBRANCH  11  15
BRANCH  14  17
HETATM   17  O   UNL     1      -1.992   4.579 -32.556  1.00  0.00    -0.354 OA
HETATM   18  C   UNL     1      -1.917   4.864 -33.947  1.00  0.00     0.210 C 
ENDBRANCH  14  17
ENDBRANCH   6   9
ENDBRANCH   1   5
BRANCH   2  19
HETATM   19  C   UNL     1      -6.632   3.076 -30.617  1.00  0.00     0.144 C 
BRANCH  19  20
HETATM   20  C   UNL     1      -6.525   2.115 -31.845  1.00  0.00     0.033 C 
HETATM   21  C   UNL     1      -7.780   2.297 -32.727  1.00  0.00     0.049 C 
HETATM   22  C   UNL     1      -7.768   3.641 -33.452  1.00  0.00     0.169 C 
HETATM   23  O   UNL     1      -6.568   3.804 -34.204  1.00  0.00    -0.391 OA
HETATM   24  C   UNL     1      -5.391   3.758 -33.401  1.00  0.00     0.169 C 
HETATM   25  C   UNL     1      -5.274   2.410 -32.696  1.00  0.00     0.049 C 
BRANCH  20  26
HETATM   26  S   UNL     1      -6.444   0.387 -31.118  1.00  0.00    -0.118 SA
BRANCH  26  27
HETATM   27  C   UNL     1      -6.085  -0.650 -32.520  1.00  0.00     0.001 A 
HETATM   28  C   UNL     1      -4.811  -1.201 -32.687  1.00  0.00     0.018 A 
HETATM   29  C   UNL     1      -4.540  -2.039 -33.769  1.00  0.00     0.001 A 
HETATM   30  C   UNL     1      -5.548  -2.348 -34.683  1.00  0.00     0.000 A 
HETATM   31  C   UNL     1      -6.828  -1.828 -34.506  1.00  0.00     0.001 A 
HETATM   32  C   UNL     1      -7.099  -0.990 -33.422  1.00  0.00     0.018 A 
ENDBRANCH  26  27
ENDBRANCH  20  26
ENDBRANCH  19  20
ENDBRANCH   2  19
TORSDOF 8
ENDMDL
