MODEL 1
REMARK VINA RESULT:      -9.7      0.000      0.000
REMARK  4 active torsions:
REMARK  status: ('A' for Active; 'I' for Inactive)
REMARK    1  A    between atoms: N_5  and  C_6 
REMARK    2  A    between atoms: C_6  and  C_7 
REMARK    3  A    between atoms: C_7  and  C_8 
REMARK    4  A    between atoms: C_8  and  N_9 
ROOT
HETATM    1  C   UNL     1      -8.112   6.087 -32.478  1.00  0.00     0.236 C 
ENDROOT
BRANCH   1   2
HETATM    2  C   UNL     1      -6.655   5.659 -32.664  1.00  0.00     0.048 C 
BRANCH   2   3
HETATM    3  C   UNL     1      -6.359   4.802 -33.899  1.00  0.00     0.131 C 
BRANCH   3   4
HETATM    4  N   UNL     1      -5.233   3.870 -33.658  1.00  0.00    -0.346 N 
HETATM    5  C   UNL     1      -3.946   4.451 -33.507  1.00  0.00     0.041 A 
HETATM    6  C   UNL     1      -2.988   4.052 -32.552  1.00  0.00    -0.031 A 
HETATM    7  C   UNL     1      -3.545   5.447 -34.434  1.00  0.00     0.030 A 
HETATM    8  C   UNL     1      -1.710   4.666 -32.545  1.00  0.00     0.009 A 
HETATM    9  C   UNL     1      -3.172   2.968 -31.514  1.00  0.00     0.045 C 
HETATM   10  C   UNL     1      -1.365   5.662 -33.451  1.00  0.00     0.001 A 
HETATM   11  C   UNL     1      -2.287   6.051 -34.404  1.00  0.00     0.002 A 
HETATM   12  C   UNL     1      -4.589   2.773 -30.998  1.00  0.00     0.045 C 
HETATM   13  C   UNL     1      -5.418   2.028 -32.008  1.00  0.00    -0.031 A 
HETATM   14  C   UNL     1      -5.657   2.572 -33.278  1.00  0.00     0.042 A 
HETATM   15  C   UNL     1      -5.934   0.762 -31.672  1.00  0.00     0.011 A 
HETATM   16  C   UNL     1      -6.385   1.798 -34.203  1.00  0.00     0.054 A 
HETATM   17  C   UNL     1      -6.898   0.548 -33.858  1.00  0.00     0.036 A 
HETATM   18 CL   UNL     1      -7.867  -0.312 -34.990  1.00  0.00    -0.084 Cl
HETATM   19  C   UNL     1      -6.681   0.027 -32.591  1.00  0.00     0.024 A 
ENDBRANCH   3   4
ENDBRANCH   2   3
ENDBRANCH   1   2
BRANCH   1  20
HETATM   20  N   UNL     1      -9.195   5.020 -32.754  1.00  0.00    -0.071 N 
HETATM   21  H   UNL     1      -8.641   4.289 -33.245  1.00  0.00     0.279 HD
HETATM   22  C   UNL     1     -10.256   5.414 -33.760  1.00  0.00     0.238 C 
HETATM   23  C   UNL     1     -11.602   4.754 -33.455  1.00  0.00     0.077 C 
HETATM   24  C   UNL     1     -11.437   3.298 -33.038  1.00  0.00     0.212 C 
HETATM   25  N   UNL     1     -12.778   2.590 -32.840  1.00  0.00    -0.032 N 
HETATM   26  C   UNL     1     -10.861   2.501 -34.220  1.00  0.00     0.256 C 
HETATM   27  C   UNL     1     -10.546   3.123 -31.805  1.00  0.00     0.077 C 
HETATM   28  H   UNL     1     -12.576   1.728 -32.313  1.00  0.00     0.283 HD
HETATM   29  C   UNL     1     -13.148   2.077 -34.198  1.00  0.00     0.290 C 
HETATM   30  C   UNL     1     -13.928   3.255 -32.151  1.00  0.00     0.239 C 
HETATM   31  C   UNL     1     -14.188   0.983 -34.042  1.00  0.00     0.055 C 
HETATM   32  N   UNL     1     -11.877   1.699 -34.705  1.00  0.00    -0.331 N 
HETATM   33  C   UNL     1     -15.411   1.530 -33.293  1.00  0.00     0.005 C 
HETATM   34  C   UNL     1     -15.032   2.216 -31.974  1.00  0.00     0.028 C 
HETATM   35  H   UNL     1     -11.751   1.215 -35.592  1.00  0.00     0.164 HD
HETATM   36  O   UNL     1      -9.722   2.597 -34.637  1.00  0.00    -0.271 OA
HETATM   37  C   UNL     1      -9.685   4.348 -31.498  1.00  0.00     0.238 C 
ENDBRANCH   1  20
TORSDOF 4
ENDMDL
MODEL 2
REMARK VINA RESULT:      -9.6      4.388      8.289
REMARK  4 active torsions:
REMARK  status: ('A' for Active; 'I' for Inactive)
REMARK    1  A    between atoms: N_5  and  C_6 
REMARK    2  A    between atoms: C_6  and  C_7 
REMARK    3  A    between atoms: C_7  and  C_8 
REMARK    4  A    between atoms: C_8  and  N_9 
ROOT
HETATM    1  C   UNL     1      -6.428   7.081 -31.990  1.00  0.00     0.236 C 
ENDROOT
BRANCH   1   2
HETATM    2  C   UNL     1      -6.692   5.592 -32.225  1.00  0.00     0.048 C 
BRANCH   2   3
HETATM    3  C   UNL     1      -6.312   5.053 -33.608  1.00  0.00     0.131 C 
BRANCH   3   4
HETATM    4  N   UNL     1      -5.196   4.081 -33.525  1.00  0.00    -0.346 N 
HETATM    5  C   UNL     1      -3.890   4.623 -33.398  1.00  0.00     0.041 A 
HETATM    6  C   UNL     1      -2.886   4.116 -32.545  1.00  0.00    -0.031 A 
HETATM    7  C   UNL     1      -3.520   5.696 -34.248  1.00  0.00     0.030 A 
HETATM    8  C   UNL     1      -1.596   4.703 -32.557  1.00  0.00     0.009 A 
HETATM    9  C   UNL     1      -3.035   2.940 -31.606  1.00  0.00     0.045 C 
HETATM   10  C   UNL     1      -1.282   5.776 -33.383  1.00  0.00     0.001 A 
HETATM   11  C   UNL     1      -2.248   6.272 -34.237  1.00  0.00     0.002 A 
HETATM   12  C   UNL     1      -4.423   2.721 -31.027  1.00  0.00     0.045 C 
HETATM   13  C   UNL     1      -5.328   2.093 -32.050  1.00  0.00    -0.031 A 
HETATM   14  C   UNL     1      -5.628   2.761 -33.246  1.00  0.00     0.042 A 
HETATM   15  C   UNL     1      -5.853   0.809 -31.807  1.00  0.00     0.011 A 
HETATM   16  C   UNL     1      -6.426   2.093 -34.195  1.00  0.00     0.054 A 
HETATM   17  C   UNL     1      -6.948   0.825 -33.940  1.00  0.00     0.036 A 
HETATM   18 CL   UNL     1      -8.002   0.096 -35.088  1.00  0.00    -0.084 Cl
HETATM   19  C   UNL     1      -6.669   0.180 -32.745  1.00  0.00     0.024 A 
ENDBRANCH   3   4
ENDBRANCH   2   3
ENDBRANCH   1   2
BRANCH   1  20
HETATM   20  N   UNL     1      -5.278   7.444 -31.026  1.00  0.00    -0.071 N 
HETATM   21  H   UNL     1      -5.764   8.075 -30.356  1.00  0.00     0.279 HD
HETATM   22  C   UNL     1      -4.183   8.309 -31.615  1.00  0.00     0.238 C 
HETATM   23  C   UNL     1      -2.824   8.020 -30.973  1.00  0.00     0.077 C 
HETATM   24  C   UNL     1      -2.936   7.840 -29.465  1.00  0.00     0.212 C 
HETATM   25  N   UNL     1      -1.574   7.665 -28.793  1.00  0.00    -0.032 N 
HETATM   26  C   UNL     1      -3.401   9.164 -28.836  1.00  0.00     0.256 C 
HETATM   27  C   UNL     1      -3.886   6.709 -29.064  1.00  0.00     0.077 C 
HETATM   28  H   UNL     1      -1.761   7.289 -27.852  1.00  0.00     0.283 HD
HETATM   29  C   UNL     1      -1.100   9.059 -28.511  1.00  0.00     0.290 C 
HETATM   30  C   UNL     1      -0.501   6.810 -29.392  1.00  0.00     0.239 C 
HETATM   31  C   UNL     1      -0.015   9.003 -27.452  1.00  0.00     0.055 C 
HETATM   32  N   UNL     1      -2.319   9.698 -28.162  1.00  0.00    -0.331 N 
HETATM   33  C   UNL     1       1.132   8.102 -27.929  1.00  0.00     0.005 C 
HETATM   34  C   UNL     1       0.643   6.721 -28.386  1.00  0.00     0.028 C 
HETATM   35  H   UNL     1      -2.369  10.655 -27.816  1.00  0.00     0.164 HD
HETATM   36  O   UNL     1      -4.518   9.634 -28.947  1.00  0.00    -0.271 OA
HETATM   37  C   UNL     1      -4.827   6.276 -30.189  1.00  0.00     0.238 C 
ENDBRANCH   1  20
TORSDOF 4
ENDMDL
MODEL 3
REMARK VINA RESULT:      -9.6      4.292      9.180
REMARK  4 active torsions:
REMARK  status: ('A' for Active; 'I' for Inactive)
REMARK    1  A    between atoms: N_5  and  C_6 
REMARK    2  A    between atoms: C_6  and  C_7 
REMARK    3  A    between atoms: C_7  and  C_8 
REMARK    4  A    between atoms: C_8  and  N_9 
ROOT
HETATM    1  C   UNL     1      -4.111   5.585 -33.779  1.00  0.00     0.236 C 
ENDROOT
BRANCH   1   2
HETATM    2  C   UNL     1      -4.615   4.151 -33.952  1.00  0.00     0.048 C 
BRANCH   2   3
HETATM    3  C   UNL     1      -6.135   3.980 -34.042  1.00  0.00     0.131 C 
BRANCH   3   4
HETATM    4  N   UNL     1      -6.625   2.956 -33.089  1.00  0.00    -0.346 N 
HETATM    5  C   UNL     1      -6.557   1.605 -33.518  1.00  0.00     0.041 A 
HETATM    6  C   UNL     1      -6.154   0.522 -32.708  1.00  0.00    -0.031 A 
HETATM    7  C   UNL     1      -7.008   1.289 -34.825  1.00  0.00     0.030 A 
HETATM    8  C   UNL     1      -6.193  -0.795 -33.231  1.00  0.00     0.009 A 
HETATM    9  C   UNL     1      -5.701   0.615 -31.268  1.00  0.00     0.045 C 
HETATM   10  C   UNL     1      -6.612  -1.061 -34.530  1.00  0.00     0.001 A 
HETATM   11  C   UNL     1      -7.027  -0.013 -35.329  1.00  0.00     0.002 A 
HETATM   12  C   UNL     1      -4.992   1.901 -30.874  1.00  0.00     0.045 C 
HETATM   13  C   UNL     1      -5.985   3.015 -30.695  1.00  0.00    -0.031 A 
HETATM   14  C   UNL     1      -6.774   3.451 -31.770  1.00  0.00     0.042 A 
HETATM   15  C   UNL     1      -6.134   3.604 -29.424  1.00  0.00     0.011 A 
HETATM   16  C   UNL     1      -7.733   4.453 -31.524  1.00  0.00     0.054 A 
HETATM   17  C   UNL     1      -7.866   5.035 -30.263  1.00  0.00     0.036 A 
HETATM   18 CL   UNL     1      -8.981   6.325 -30.040  1.00  0.00    -0.084 Cl
HETATM   19  C   UNL     1      -7.066   4.618 -29.210  1.00  0.00     0.024 A 
ENDBRANCH   3   4
ENDBRANCH   2   3
ENDBRANCH   1   2
BRANCH   1  20
HETATM   20  N   UNL     1      -3.069   5.833 -32.666  1.00  0.00    -0.071 N 
HETATM   21  H   UNL     1      -2.361   5.103 -32.884  1.00  0.00     0.279 HD
HETATM   22  C   UNL     1      -3.524   5.495 -31.261  1.00  0.00     0.238 C 
HETATM   23  C   UNL     1      -2.860   6.394 -30.217  1.00  0.00     0.077 C 
HETATM   24  C   UNL     1      -1.383   6.615 -30.517  1.00  0.00     0.212 C 
HETATM   25  N   UNL     1      -0.677   7.416 -29.423  1.00  0.00    -0.032 N 
HETATM   26  C   UNL     1      -0.645   5.270 -30.413  1.00  0.00     0.256 C 
HETATM   27  C   UNL     1      -1.136   7.242 -31.891  1.00  0.00     0.077 C 
HETATM   28  H   UNL     1       0.214   7.739 -29.829  1.00  0.00     0.283 HD
HETATM   29  C   UNL     1      -0.238   6.394 -28.418  1.00  0.00     0.290 C 
HETATM   30  C   UNL     1      -1.314   8.608 -28.780  1.00  0.00     0.239 C 
HETATM   31  C   UNL     1       0.854   6.995 -27.552  1.00  0.00     0.055 C 
HETATM   32  N   UNL     1       0.123   5.313 -29.264  1.00  0.00    -0.331 N 
HETATM   33  C   UNL     1       0.336   8.270 -26.873  1.00  0.00     0.005 C 
HETATM   34  C   UNL     1      -0.275   9.261 -27.872  1.00  0.00     0.028 C 
HETATM   35  H   UNL     1       0.561   4.459 -28.923  1.00  0.00     0.164 HD
HETATM   36  O   UNL     1      -0.753   4.352 -31.204  1.00  0.00    -0.271 OA
HETATM   37  C   UNL     1      -2.336   7.137 -32.832  1.00  0.00     0.238 C 
ENDBRANCH   1  20
TORSDOF 4
ENDMDL
MODEL 4
REMARK VINA RESULT:      -9.5      2.628      8.173
REMARK  4 active torsions:
REMARK  status: ('A' for Active; 'I' for Inactive)
REMARK    1  A    between atoms: N_5  and  C_6 
REMARK    2  A    between atoms: C_6  and  C_7 
REMARK    3  A    between atoms: C_7  and  C_8 
REMARK    4  A    between atoms: C_8  and  N_9 
ROOT
HETATM    1  C   UNL     1      -6.446   3.366 -34.231  1.00  0.00     0.236 C 
ENDROOT
BRANCH   1   2
HETATM    2  C   UNL     1      -6.420   1.852 -34.456  1.00  0.00     0.048 C 
BRANCH   2   3
HETATM    3  C   UNL     1      -7.767   1.132 -34.330  1.00  0.00     0.131 C 
BRANCH   3   4
HETATM    4  N   UNL     1      -8.329   1.264 -32.964  1.00  0.00    -0.346 N 
HETATM    5  C   UNL     1      -7.414   1.140 -31.886  1.00  0.00     0.041 A 
HETATM    6  C   UNL     1      -7.413   1.952 -30.732  1.00  0.00    -0.031 A 
HETATM    7  C   UNL     1      -6.482   0.071 -31.914  1.00  0.00     0.030 A 
HETATM    8  C   UNL     1      -6.489   1.686 -29.690  1.00  0.00     0.009 A 
HETATM    9  C   UNL     1      -8.358   3.101 -30.459  1.00  0.00     0.045 C 
HETATM   10  C   UNL     1      -5.569   0.647 -29.768  1.00  0.00     0.001 A 
HETATM   11  C   UNL     1      -5.569  -0.168 -30.884  1.00  0.00     0.002 A 
HETATM   12  C   UNL     1      -8.848   3.865 -31.678  1.00  0.00     0.045 C 
HETATM   13  C   UNL     1      -9.914   3.083 -32.395  1.00  0.00    -0.031 A 
HETATM   14  C   UNL     1      -9.629   1.827 -32.950  1.00  0.00     0.042 A 
HETATM   15  C   UNL     1     -11.214   3.616 -32.482  1.00  0.00     0.011 A 
HETATM   16  C   UNL     1     -10.685   1.114 -33.550  1.00  0.00     0.054 A 
HETATM   17  C   UNL     1     -11.968   1.655 -33.638  1.00  0.00     0.036 A 
HETATM   18 CL   UNL     1     -13.197   0.787 -34.472  1.00  0.00    -0.084 Cl
HETATM   19  C   UNL     1     -12.237   2.908 -33.110  1.00  0.00     0.024 A 
ENDBRANCH   3   4
ENDBRANCH   2   3
ENDBRANCH   1   2
BRANCH   1  20
HETATM   20  N   UNL     1      -5.457   3.935 -33.190  1.00  0.00    -0.071 N 
HETATM   21  H   UNL     1      -6.067   4.016 -32.352  1.00  0.00     0.279 HD
HETATM   22  C   UNL     1      -4.990   5.354 -33.443  1.00  0.00     0.238 C 
HETATM   23  C   UNL     1      -3.570   5.586 -32.924  1.00  0.00     0.077 C 
HETATM   24  C   UNL     1      -3.348   4.932 -31.567  1.00  0.00     0.212 C 
HETATM   25  N   UNL     1      -1.973   5.250 -30.981  1.00  0.00    -0.032 N 
HETATM   26  C   UNL     1      -4.266   5.604 -30.532  1.00  0.00     0.256 C 
HETATM   27  C   UNL     1      -3.595   3.421 -31.580  1.00  0.00     0.077 C 
HETATM   28  H   UNL     1      -1.815   4.568 -30.224  1.00  0.00     0.283 HD
HETATM   29  C   UNL     1      -2.156   6.540 -30.241  1.00  0.00     0.290 C 
HETATM   30  C   UNL     1      -0.735   5.249 -31.824  1.00  0.00     0.239 C 
HETATM   31  C   UNL     1      -1.016   6.705 -29.253  1.00  0.00     0.055 C 
HETATM   32  N   UNL     1      -3.460   6.368 -29.707  1.00  0.00    -0.331 N 
HETATM   33  C   UNL     1       0.326   6.666 -29.996  1.00  0.00     0.005 C 
HETATM   34  C   UNL     1       0.463   5.431 -30.896  1.00  0.00     0.028 C 
HETATM   35  H   UNL     1      -3.890   7.025 -29.059  1.00  0.00     0.164 HD
HETATM   36  O   UNL     1      -5.475   5.481 -30.487  1.00  0.00    -0.271 OA
HETATM   37  C   UNL     1      -4.394   2.945 -32.793  1.00  0.00     0.238 C 
ENDBRANCH   1  20
TORSDOF 4
ENDMDL
MODEL 5
REMARK VINA RESULT:      -9.5      5.002      7.816
REMARK  4 active torsions:
REMARK  status: ('A' for Active; 'I' for Inactive)
REMARK    1  A    between atoms: N_5  and  C_6 
REMARK    2  A    between atoms: C_6  and  C_7 
REMARK    3  A    between atoms: C_7  and  C_8 
REMARK    4  A    between atoms: C_8  and  N_9 
ROOT
HETATM    1  C   UNL     1      -4.961   6.349 -29.840  1.00  0.00     0.236 C 
ENDROOT
BRANCH   1   2
HETATM    2  C   UNL     1      -3.657   6.828 -29.196  1.00  0.00     0.048 C 
BRANCH   2   3
HETATM    3  C   UNL     1      -3.204   8.243 -29.572  1.00  0.00     0.131 C 
BRANCH   3   4
HETATM    4  N   UNL     1      -1.726   8.358 -29.573  1.00  0.00    -0.346 N 
HETATM    5  C   UNL     1      -1.150   9.165 -28.557  1.00  0.00     0.041 A 
HETATM    6  C   UNL     1       0.015   8.838 -27.831  1.00  0.00    -0.031 A 
HETATM    7  C   UNL     1      -1.724  10.437 -28.301  1.00  0.00     0.030 A 
HETATM    8  C   UNL     1       0.532   9.759 -26.886  1.00  0.00     0.009 A 
HETATM    9  C   UNL     1       0.827   7.572 -27.987  1.00  0.00     0.045 C 
HETATM   10  C   UNL     1      -0.078  10.984 -26.641  1.00  0.00     0.001 A 
HETATM   11  C   UNL     1      -1.209  11.327 -27.356  1.00  0.00     0.002 A 
HETATM   12  C   UNL     1       0.051   6.327 -28.388  1.00  0.00     0.045 C 
HETATM   13  C   UNL     1      -0.281   6.364 -29.854  1.00  0.00    -0.031 A 
HETATM   14  C   UNL     1      -1.093   7.379 -30.379  1.00  0.00     0.042 A 
HETATM   15  C   UNL     1       0.257   5.378 -30.704  1.00  0.00     0.011 A 
HETATM   16  C   UNL     1      -1.313   7.399 -31.770  1.00  0.00     0.054 A 
HETATM   17  C   UNL     1      -0.784   6.412 -32.602  1.00  0.00     0.036 A 
HETATM   18 CL   UNL     1      -1.166   6.423 -34.279  1.00  0.00    -0.084 Cl
HETATM   19  C   UNL     1      -0.002   5.396 -32.074  1.00  0.00     0.024 A 
ENDBRANCH   3   4
ENDBRANCH   2   3
ENDBRANCH   1   2
BRANCH   1  20
HETATM   20  N   UNL     1      -4.903   5.029 -30.640  1.00  0.00    -0.071 N 
HETATM   21  H   UNL     1      -5.378   5.305 -31.523  1.00  0.00     0.279 HD
HETATM   22  C   UNL     1      -5.758   3.902 -30.099  1.00  0.00     0.238 C 
HETATM   23  C   UNL     1      -5.143   2.532 -30.391  1.00  0.00     0.077 C 
HETATM   24  C   UNL     1      -4.568   2.456 -31.799  1.00  0.00     0.212 C 
HETATM   25  N   UNL     1      -4.052   1.060 -32.147  1.00  0.00    -0.032 N 
HETATM   26  C   UNL     1      -5.712   2.604 -32.815  1.00  0.00     0.256 C 
HETATM   27  C   UNL     1      -3.492   3.512 -32.066  1.00  0.00     0.077 C 
HETATM   28  H   UNL     1      -3.456   1.170 -32.980  1.00  0.00     0.283 HD
HETATM   29  C   UNL     1      -5.246   0.329 -32.681  1.00  0.00     0.290 C 
HETATM   30  C   UNL     1      -3.273   0.239 -31.167  1.00  0.00     0.239 C 
HETATM   31  C   UNL     1      -4.770  -0.872 -33.477  1.00  0.00     0.055 C 
HETATM   32  N   UNL     1      -5.906   1.363 -33.395  1.00  0.00    -0.331 N 
HETATM   33  C   UNL     1      -3.905  -1.776 -32.588  1.00  0.00     0.005 C 
HETATM   34  C   UNL     1      -2.773  -1.007 -31.894  1.00  0.00     0.028 C 
HETATM   35  H   UNL     1      -6.728   1.206 -33.974  1.00  0.00     0.164 HD
HETATM   36  O   UNL     1      -6.325   3.632 -33.031  1.00  0.00    -0.271 OA
HETATM   37  C   UNL     1      -3.504   4.662 -31.058  1.00  0.00     0.238 C 
ENDBRANCH   1  20
TORSDOF 4
ENDMDL
MODEL 6
REMARK VINA RESULT:      -9.5      4.847      6.833
REMARK  4 active torsions:
REMARK  status: ('A' for Active; 'I' for Inactive)
REMARK    1  A    between atoms: N_5  and  C_6 
REMARK    2  A    between atoms: C_6  and  C_7 
REMARK    3  A    between atoms: C_7  and  C_8 
REMARK    4  A    between atoms: C_8  and  N_9 
ROOT
HETATM    1  C   UNL     1      -5.928   3.902 -30.378  1.00  0.00     0.236 C 
ENDROOT
BRANCH   1   2
HETATM    2  C   UNL     1      -4.743   4.823 -30.078  1.00  0.00     0.048 C 
BRANCH   2   3
HETATM    3  C   UNL     1      -4.997   6.324 -30.261  1.00  0.00     0.131 C 
BRANCH   3   4
HETATM    4  N   UNL     1      -3.778   7.029 -30.722  1.00  0.00    -0.346 N 
HETATM    5  C   UNL     1      -3.295   8.074 -29.891  1.00  0.00     0.041 A 
HETATM    6  C   UNL     1      -1.936   8.305 -29.593  1.00  0.00    -0.031 A 
HETATM    7  C   UNL     1      -4.227   9.018 -29.388  1.00  0.00     0.030 A 
HETATM    8  C   UNL     1      -1.573   9.425 -28.803  1.00  0.00     0.009 A 
HETATM    9  C   UNL     1      -0.771   7.470 -30.076  1.00  0.00     0.045 C 
HETATM   10  C   UNL     1      -2.520  10.310 -28.302  1.00  0.00     0.001 A 
HETATM   11  C   UNL     1      -3.854  10.109 -28.600  1.00  0.00     0.002 A 
HETATM   12  C   UNL     1      -1.053   5.992 -30.289  1.00  0.00     0.045 C 
HETATM   13  C   UNL     1      -1.811   5.780 -31.570  1.00  0.00    -0.031 A 
HETATM   14  C   UNL     1      -3.087   6.335 -31.746  1.00  0.00     0.042 A 
HETATM   15  C   UNL     1      -1.214   5.037 -32.606  1.00  0.00     0.011 A 
HETATM   16  C   UNL     1      -3.719   6.158 -32.993  1.00  0.00     0.054 A 
HETATM   17  C   UNL     1      -3.122   5.413 -34.009  1.00  0.00     0.036 A 
HETATM   18 CL   UNL     1      -3.979   5.141 -35.475  1.00  0.00    -0.084 Cl
HETATM   19  C   UNL     1      -1.871   4.845 -33.820  1.00  0.00     0.024 A 
ENDBRANCH   3   4
ENDBRANCH   2   3
ENDBRANCH   1   2
BRANCH   1  20
HETATM   20  N   UNL     1      -5.601   2.507 -30.955  1.00  0.00    -0.071 N 
HETATM   21  H   UNL     1      -4.813   2.212 -30.343  1.00  0.00     0.279 HD
HETATM   22  C   UNL     1      -5.006   2.502 -32.348  1.00  0.00     0.238 C 
HETATM   23  C   UNL     1      -5.395   1.243 -33.127  1.00  0.00     0.077 C 
HETATM   24  C   UNL     1      -5.333  -0.005 -32.257  1.00  0.00     0.212 C 
HETATM   25  N   UNL     1      -5.607  -1.284 -33.047  1.00  0.00    -0.032 N 
HETATM   26  C   UNL     1      -3.876  -0.239 -31.823  1.00  0.00     0.256 C 
HETATM   27  C   UNL     1      -6.238   0.075 -31.025  1.00  0.00     0.077 C 
HETATM   28  H   UNL     1      -5.808  -2.018 -32.351  1.00  0.00     0.283 HD
HETATM   29  C   UNL     1      -4.273  -1.695 -33.593  1.00  0.00     0.290 C 
HETATM   30  C   UNL     1      -6.691  -1.360 -34.076  1.00  0.00     0.239 C 
HETATM   31  C   UNL     1      -4.333  -3.160 -33.983  1.00  0.00     0.055 C 
HETATM   32  N   UNL     1      -3.415  -1.341 -32.519  1.00  0.00    -0.331 N 
HETATM   33  C   UNL     1      -5.454  -3.381 -35.007  1.00  0.00     0.005 C 
HETATM   34  C   UNL     1      -6.799  -2.812 -34.535  1.00  0.00     0.028 C 
HETATM   35  H   UNL     1      -2.421  -1.563 -32.501  1.00  0.00     0.164 HD
HETATM   36  O   UNL     1      -3.266   0.449 -31.026  1.00  0.00    -0.271 OA
HETATM   37  C   UNL     1      -6.687   1.498 -30.691  1.00  0.00     0.238 C 
ENDBRANCH   1  20
TORSDOF 4
ENDMDL
MODEL 7
REMARK VINA RESULT:      -9.3      3.643      8.899
REMARK  4 active torsions:
REMARK  status: ('A' for Active; 'I' for Inactive)
REMARK    1  A    between atoms: N_5  and  C_6 
REMARK    2  A    between atoms: C_6  and  C_7 
REMARK    3  A    between atoms: C_7  and  C_8 
REMARK    4  A    between atoms: C_8  and  N_9 
ROOT
HETATM    1  C   UNL     1      -5.327   5.021 -33.415  1.00  0.00     0.236 C 
ENDROOT
BRANCH   1   2
HETATM    2  C   UNL     1      -5.445   3.563 -33.867  1.00  0.00     0.048 C 
BRANCH   2   3
HETATM    3  C   UNL     1      -5.245   2.505 -32.777  1.00  0.00     0.131 C 
BRANCH   3   4
HETATM    4  N   UNL     1      -6.343   1.510 -32.777  1.00  0.00    -0.346 N 
HETATM    5  C   UNL     1      -7.663   2.019 -32.653  1.00  0.00     0.041 A 
HETATM    6  C   UNL     1      -8.777   1.557 -33.385  1.00  0.00    -0.031 A 
HETATM    7  C   UNL     1      -7.915   3.002 -31.662  1.00  0.00     0.030 A 
HETATM    8  C   UNL     1     -10.060   2.101 -33.123  1.00  0.00     0.009 A 
HETATM    9  C   UNL     1      -8.755   0.473 -34.439  1.00  0.00     0.045 C 
HETATM   10  C   UNL     1     -10.261   3.086 -32.164  1.00  0.00     0.001 A 
HETATM   11  C   UNL     1      -9.183   3.536 -31.426  1.00  0.00     0.002 A 
HETATM   12  C   UNL     1      -7.469   0.349 -35.241  1.00  0.00     0.045 C 
HETATM   13  C   UNL     1      -6.406  -0.337 -34.429  1.00  0.00    -0.031 A 
HETATM   14  C   UNL     1      -5.936   0.233 -33.237  1.00  0.00     0.042 A 
HETATM   15  C   UNL     1      -5.903  -1.578 -34.867  1.00  0.00     0.011 A 
HETATM   16  C   UNL     1      -4.989  -0.490 -32.486  1.00  0.00     0.054 A 
HETATM   17  C   UNL     1      -4.491  -1.714 -32.933  1.00  0.00     0.036 A 
HETATM   18 CL   UNL     1      -3.260  -2.508 -32.031  1.00  0.00    -0.084 Cl
HETATM   19  C   UNL     1      -4.940  -2.261 -34.126  1.00  0.00     0.024 A 
ENDBRANCH   3   4
ENDBRANCH   2   3
ENDBRANCH   1   2
BRANCH   1  20
HETATM   20  N   UNL     1      -4.119   5.382 -32.523  1.00  0.00    -0.071 N 
HETATM   21  H   UNL     1      -3.417   4.682 -32.838  1.00  0.00     0.279 HD
HETATM   22  C   UNL     1      -4.290   5.091 -31.047  1.00  0.00     0.238 C 
HETATM   23  C   UNL     1      -3.505   6.077 -30.179  1.00  0.00     0.077 C 
HETATM   24  C   UNL     1      -2.125   6.365 -30.754  1.00  0.00     0.212 C 
HETATM   25  N   UNL     1      -1.284   7.258 -29.841  1.00  0.00    -0.032 N 
HETATM   26  C   UNL     1      -1.295   5.070 -30.734  1.00  0.00     0.256 C 
HETATM   27  C   UNL     1      -2.171   6.934 -32.174  1.00  0.00     0.077 C 
HETATM   28  H   UNL     1      -0.504   7.609 -30.417  1.00  0.00     0.283 HD
HETATM   29  C   UNL     1      -0.607   6.315 -28.894  1.00  0.00     0.290 C 
HETATM   30  C   UNL     1      -1.869   8.444 -29.141  1.00  0.00     0.239 C 
HETATM   31  C   UNL     1       0.583   7.019 -28.269  1.00  0.00     0.055 C 
HETATM   32  N   UNL     1      -0.337   5.214 -29.748  1.00  0.00    -0.331 N 
HETATM   33  C   UNL     1       0.118   8.296 -27.557  1.00  0.00     0.005 C 
HETATM   34  C   UNL     1      -0.727   9.199 -28.465  1.00  0.00     0.028 C 
HETATM   35  H   UNL     1       0.209   4.404 -29.460  1.00  0.00     0.164 HD
HETATM   36  O   UNL     1      -1.486   4.108 -31.454  1.00  0.00    -0.271 OA
HETATM   37  C   UNL     1      -3.513   6.715 -32.874  1.00  0.00     0.238 C 
ENDBRANCH   1  20
TORSDOF 4
ENDMDL
MODEL 8
REMARK VINA RESULT:      -9.2      3.367      8.534
REMARK  4 active torsions:
REMARK  status: ('A' for Active; 'I' for Inactive)
REMARK    1  A    between atoms: N_5  and  C_6 
REMARK    2  A    between atoms: C_6  and  C_7 
REMARK    3  A    between atoms: C_7  and  C_8 
REMARK    4  A    between atoms: C_8  and  N_9 
ROOT
HETATM    1  C   UNL     1      -7.938   3.446 -32.679  1.00  0.00     0.236 C 
ENDROOT
BRANCH   1   2
HETATM    2  C   UNL     1      -9.466   3.411 -32.739  1.00  0.00     0.048 C 
BRANCH   2   3
HETATM    3  C   UNL     1     -10.079   3.192 -34.127  1.00  0.00     0.131 C 
BRANCH   3   4
HETATM    4  N   UNL     1     -11.478   3.676 -34.186  1.00  0.00    -0.346 N 
HETATM    5  C   UNL     1     -12.492   2.730 -33.880  1.00  0.00     0.041 A 
HETATM    6  C   UNL     1     -13.635   2.999 -33.097  1.00  0.00    -0.031 A 
HETATM    7  C   UNL     1     -12.411   1.443 -34.469  1.00  0.00     0.030 A 
HETATM    8  C   UNL     1     -14.613   1.988 -32.918  1.00  0.00     0.009 A 
HETATM    9  C   UNL     1     -13.961   4.316 -32.431  1.00  0.00     0.045 C 
HETATM   10  C   UNL     1     -14.482   0.727 -33.486  1.00  0.00     0.001 A 
HETATM   11  C   UNL     1     -13.377   0.454 -34.270  1.00  0.00     0.002 A 
HETATM   12  C   UNL     1     -12.770   5.150 -31.985  1.00  0.00     0.045 C 
HETATM   13  C   UNL     1     -12.137   5.836 -33.163  1.00  0.00    -0.031 A 
HETATM   14  C   UNL     1     -11.577   5.089 -34.210  1.00  0.00     0.042 A 
HETATM   15  C   UNL     1     -12.135   7.243 -33.219  1.00  0.00     0.011 A 
HETATM   16  C   UNL     1     -11.059   5.788 -35.318  1.00  0.00     0.054 A 
HETATM   17  C   UNL     1     -11.054   7.182 -35.359  1.00  0.00     0.036 A 
HETATM   18 CL   UNL     1     -10.318   7.988 -36.688  1.00  0.00    -0.084 Cl
HETATM   19  C   UNL     1     -11.586   7.916 -34.309  1.00  0.00     0.024 A 
ENDBRANCH   3   4
ENDBRANCH   2   3
ENDBRANCH   1   2
BRANCH   1  20
HETATM   20  N   UNL     1      -7.199   2.100 -32.855  1.00  0.00    -0.071 N 
HETATM   21  H   UNL     1      -6.344   2.262 -32.286  1.00  0.00     0.279 HD
HETATM   22  C   UNL     1      -6.667   1.827 -34.247  1.00  0.00     0.238 C 
HETATM   23  C   UNL     1      -6.656   0.330 -34.566  1.00  0.00     0.077 C 
HETATM   24  C   UNL     1      -6.179  -0.499 -33.381  1.00  0.00     0.212 C 
HETATM   25  N   UNL     1      -6.051  -1.984 -33.718  1.00  0.00    -0.032 N 
HETATM   26  C   UNL     1      -4.713  -0.144 -33.080  1.00  0.00     0.256 C 
HETATM   27  C   UNL     1      -7.032  -0.300 -32.126  1.00  0.00     0.077 C 
HETATM   28  H   UNL     1      -5.992  -2.482 -32.817  1.00  0.00     0.283 HD
HETATM   29  C   UNL     1      -4.670  -2.137 -34.279  1.00  0.00     0.290 C 
HETATM   30  C   UNL     1      -7.080  -2.699 -34.538  1.00  0.00     0.239 C 
HETATM   31  C   UNL     1      -4.271  -3.599 -34.209  1.00  0.00     0.055 C 
HETATM   32  N   UNL     1      -3.943  -1.224 -33.472  1.00  0.00    -0.331 N 
HETATM   33  C   UNL     1      -5.289  -4.454 -34.975  1.00  0.00     0.005 C 
HETATM   34  C   UNL     1      -6.733  -4.186 -34.531  1.00  0.00     0.028 C 
HETATM   35  H   UNL     1      -2.930  -1.126 -33.511  1.00  0.00     0.164 HD
HETATM   36  O   UNL     1      -4.334   0.909 -32.603  1.00  0.00    -0.271 OA
HETATM   37  C   UNL     1      -7.902   0.957 -32.173  1.00  0.00     0.238 C 
ENDBRANCH   1  20
TORSDOF 4
ENDMDL
MODEL 9
REMARK VINA RESULT:      -9.2     17.018     20.138
REMARK  4 active torsions:
REMARK  status: ('A' for Active; 'I' for Inactive)
REMARK    1  A    between atoms: N_5  and  C_6 
REMARK    2  A    between atoms: C_6  and  C_7 
REMARK    3  A    between atoms: C_7  and  C_8 
REMARK    4  A    between atoms: C_8  and  N_9 
ROOT
HETATM    1  C   UNL     1      -4.942 -11.942 -40.114  1.00  0.00     0.236 C 
ENDROOT
BRANCH   1   2
HETATM    2  C   UNL     1      -6.289 -12.614 -39.839  1.00  0.00     0.048 C 
BRANCH   2   3
HETATM    3  C   UNL     1      -6.898 -12.354 -38.457  1.00  0.00     0.131 C 
BRANCH   3   4
HETATM    4  N   UNL     1      -7.864 -13.414 -38.080  1.00  0.00    -0.346 N 
HETATM    5  C   UNL     1      -8.930 -13.653 -38.986  1.00  0.00     0.041 A 
HETATM    6  C   UNL     1      -9.412 -14.930 -39.345  1.00  0.00    -0.031 A 
HETATM    7  C   UNL     1      -9.632 -12.538 -39.510  1.00  0.00     0.030 A 
HETATM    8  C   UNL     1     -10.530 -15.039 -40.210  1.00  0.00     0.009 A 
HETATM    9  C   UNL     1      -8.863 -16.252 -38.855  1.00  0.00     0.045 C 
HETATM   10  C   UNL     1     -11.172 -13.920 -40.728  1.00  0.00     0.001 A 
HETATM   11  C   UNL     1     -10.724 -12.663 -40.372  1.00  0.00     0.002 A 
HETATM   12  C   UNL     1      -7.375 -16.283 -38.548  1.00  0.00     0.045 C 
HETATM   13  C   UNL     1      -7.095 -15.612 -37.231  1.00  0.00    -0.031 A 
HETATM   14  C   UNL     1      -7.390 -14.254 -37.043  1.00  0.00     0.042 A 
HETATM   15  C   UNL     1      -6.556 -16.372 -36.175  1.00  0.00     0.011 A 
HETATM   16  C   UNL     1      -7.169 -13.700 -35.767  1.00  0.00     0.054 A 
HETATM   17  C   UNL     1      -6.626 -14.459 -34.730  1.00  0.00     0.036 A 
HETATM   18 CL   UNL     1      -6.279 -13.709 -33.222  1.00  0.00    -0.084 Cl
HETATM   19  C   UNL     1      -6.312 -15.795 -34.930  1.00  0.00     0.024 A 
ENDBRANCH   3   4
ENDBRANCH   2   3
ENDBRANCH   1   2
BRANCH   1  20
HETATM   20  N   UNL     1      -3.682 -12.653 -39.575  1.00  0.00    -0.071 N 
HETATM   21  H   UNL     1      -2.991 -12.440 -40.324  1.00  0.00     0.279 HD
HETATM   22  C   UNL     1      -3.746 -14.166 -39.556  1.00  0.00     0.238 C 
HETATM   23  C   UNL     1      -2.920 -14.755 -38.410  1.00  0.00     0.077 C 
HETATM   24  C   UNL     1      -1.587 -14.038 -38.245  1.00  0.00     0.212 C 
HETATM   25  N   UNL     1      -0.700 -14.685 -37.182  1.00  0.00    -0.032 N 
HETATM   26  C   UNL     1      -0.737 -14.264 -39.507  1.00  0.00     0.256 C 
HETATM   27  C   UNL     1      -1.740 -12.538 -37.981  1.00  0.00     0.077 C 
HETATM   28  H   UNL     1       0.032 -13.996 -36.955  1.00  0.00     0.283 HD
HETATM   29  C   UNL     1       0.056 -15.756 -37.908  1.00  0.00     0.290 C 
HETATM   30  C   UNL     1      -1.255 -15.166 -35.877  1.00  0.00     0.239 C 
HETATM   31  C   UNL     1       1.274 -16.138 -37.089  1.00  0.00     0.055 C 
HETATM   32  N   UNL     1       0.285 -15.130 -39.161  1.00  0.00    -0.331 N 
HETATM   33  C   UNL     1       0.838 -16.603 -35.693  1.00  0.00     0.005 C 
HETATM   34  C   UNL     1      -0.081 -15.590 -34.998  1.00  0.00     0.028 C 
HETATM   35  H   UNL     1       0.862 -15.539 -39.894  1.00  0.00     0.164 HD
HETATM   36  O   UNL     1      -0.962 -13.773 -40.597  1.00  0.00    -0.271 OA
HETATM   37  C   UNL     1      -3.123 -11.994 -38.342  1.00  0.00     0.238 C 
ENDBRANCH   1  20
TORSDOF 4
ENDMDL
MODEL 10
REMARK VINA RESULT:      -9.1      4.772      7.084
REMARK  4 active torsions:
REMARK  status: ('A' for Active; 'I' for Inactive)
REMARK    1  A    between atoms: N_5  and  C_6 
REMARK    2  A    between atoms: C_6  and  C_7 
REMARK    3  A    between atoms: C_7  and  C_8 
REMARK    4  A    between atoms: C_8  and  N_9 
ROOT
HETATM    1  C   UNL     1      -6.596   4.766 -31.487  1.00  0.00     0.236 C 
ENDROOT
BRANCH   1   2
HETATM    2  C   UNL     1      -5.493   5.811 -31.306  1.00  0.00     0.048 C 
BRANCH   2   3
HETATM    3  C   UNL     1      -4.455   5.509 -30.220  1.00  0.00     0.131 C 
BRANCH   3   4
HETATM    4  N   UNL     1      -3.173   6.206 -30.484  1.00  0.00    -0.346 N 
HETATM    5  C   UNL     1      -2.622   6.053 -31.784  1.00  0.00     0.041 A 
HETATM    6  C   UNL     1      -2.027   7.089 -32.534  1.00  0.00    -0.031 A 
HETATM    7  C   UNL     1      -2.579   4.753 -32.347  1.00  0.00     0.030 A 
HETATM    8  C   UNL     1      -1.450   6.796 -33.796  1.00  0.00     0.009 A 
HETATM    9  C   UNL     1      -1.900   8.533 -32.103  1.00  0.00     0.045 C 
HETATM   10  C   UNL     1      -1.455   5.513 -34.328  1.00  0.00     0.001 A 
HETATM   11  C   UNL     1      -2.018   4.484 -33.598  1.00  0.00     0.002 A 
HETATM   12  C   UNL     1      -3.007   9.060 -31.204  1.00  0.00     0.045 C 
HETATM   13  C   UNL     1      -2.824   8.563 -29.797  1.00  0.00    -0.031 A 
HETATM   14  C   UNL     1      -2.865   7.190 -29.512  1.00  0.00     0.042 A 
HETATM   15  C   UNL     1      -2.585   9.492 -28.766  1.00  0.00     0.011 A 
HETATM   16  C   UNL     1      -2.620   6.781 -28.186  1.00  0.00     0.054 A 
HETATM   17  C   UNL     1      -2.393   7.711 -27.172  1.00  0.00     0.036 A 
HETATM   18 CL   UNL     1      -2.201   7.166 -25.551  1.00  0.00    -0.084 Cl
HETATM   19  C   UNL     1      -2.379   9.068 -27.454  1.00  0.00     0.024 A 
ENDBRANCH   3   4
ENDBRANCH   2   3
ENDBRANCH   1   2
BRANCH   1  20
HETATM   20  N   UNL     1      -6.149   3.332 -31.846  1.00  0.00    -0.071 N 
HETATM   21  H   UNL     1      -5.280   3.242 -31.281  1.00  0.00     0.279 HD
HETATM   22  C   UNL     1      -5.681   3.133 -33.273  1.00  0.00     0.238 C 
HETATM   23  C   UNL     1      -5.977   1.718 -33.775  1.00  0.00     0.077 C 
HETATM   24  C   UNL     1      -5.683   0.667 -32.714  1.00  0.00     0.212 C 
HETATM   25  N   UNL     1      -5.862  -0.759 -33.235  1.00  0.00    -0.032 N 
HETATM   26  C   UNL     1      -4.176   0.674 -32.406  1.00  0.00     0.256 C 
HETATM   27  C   UNL     1      -6.480   0.875 -31.424  1.00  0.00     0.077 C 
HETATM   28  H   UNL     1      -5.909  -1.369 -32.405  1.00  0.00     0.283 HD
HETATM   29  C   UNL     1      -4.540  -1.118 -33.844  1.00  0.00     0.290 C 
HETATM   30  C   UNL     1      -7.014  -1.140 -34.113  1.00  0.00     0.239 C 
HETATM   31  C   UNL     1      -4.450  -2.628 -33.965  1.00  0.00     0.055 C 
HETATM   32  N   UNL     1      -3.643  -0.482 -32.946  1.00  0.00    -0.331 N 
HETATM   33  C   UNL     1      -5.620  -3.153 -34.807  1.00  0.00     0.005 C 
HETATM   34  C   UNL     1      -6.979  -2.655 -34.299  1.00  0.00     0.028 C 
HETATM   35  H   UNL     1      -2.631  -0.589 -32.997  1.00  0.00     0.164 HD
HETATM   36  O   UNL     1      -3.590   1.559 -31.811  1.00  0.00    -0.271 OA
HETATM   37  C   UNL     1      -7.073   2.278 -31.295  1.00  0.00     0.238 C 
ENDBRANCH   1  20
TORSDOF 4
ENDMDL
