MODEL 1
REMARK VINA RESULT:      -8.8      0.000      0.000
REMARK  7 active torsions:
REMARK  status: ('A' for Active; 'I' for Inactive)
REMARK    1  A    between atoms: O_2  and  C_3 
REMARK    2  A    between atoms: C_5  and  C_6 
REMARK    3  A    between atoms: C_6  and  O_7 
REMARK    4  A    between atoms: C_6  and  C_8 
REMARK    5  A    between atoms: C_8  and  N_9 
REMARK       I    between atoms: N_9  and  C_10 
REMARK    6  A    between atoms: C_10  and  C_11 
REMARK    7  A    between atoms: C_12  and  C_13 
ROOT
HETATM    1  C   UNL     1      -3.864   4.072 -31.928  1.00  0.00     0.089 C 
HETATM    2  C   UNL     1      -4.227   4.021 -33.433  1.00  0.00     0.068 C 
HETATM    3  C   UNL     1      -3.825   5.327 -34.151  1.00  0.00     0.013 C 
HETATM    4  C   UNL     1      -2.371   5.708 -33.913  1.00  0.00     0.001 C 
HETATM    5  C   UNL     1      -2.069   5.808 -32.425  1.00  0.00     0.001 C 
HETATM    6  C   UNL     1      -2.398   4.500 -31.721  1.00  0.00     0.015 C 
ENDROOT
BRANCH   1   7
HETATM    7  C   UNL     1      -4.077   2.714 -31.254  1.00  0.00     0.222 C 
HETATM    8  N   UNL     1      -3.316   1.690 -31.770  1.00  0.00    -0.358 N 
HETATM    9  H   UNL     1      -2.525   1.948 -32.364  1.00  0.00     0.162 HD
HETATM   10  O   UNL     1      -4.861   2.540 -30.324  1.00  0.00    -0.273 OA
BRANCH   8  11
HETATM   11  C   UNL     1      -3.318   0.364 -31.165  1.00  0.00     0.159 C 
BRANCH  11  12
HETATM   12  C   UNL     1      -3.036  -0.741 -32.200  1.00  0.00     0.169 C 
BRANCH  12  13
HETATM   13  C   UNL     1      -4.302  -1.179 -32.903  1.00  0.00    -0.025 A 
HETATM   14  C   UNL     1      -4.287  -2.190 -33.881  1.00  0.00     0.046 A 
HETATM   15  C   UNL     1      -5.470  -2.605 -34.499  1.00  0.00     0.068 A 
HETATM   16  C   UNL     1      -6.677  -2.007 -34.134  1.00  0.00     0.037 A 
HETATM   17  C   UNL     1      -6.709  -1.006 -33.165  1.00  0.00     0.003 A 
HETATM   18  C   UNL     1      -5.528  -0.596 -32.549  1.00  0.00     0.010 A 
BRANCH  15  19
HETATM   19  O   UNL     1      -5.580  -3.577 -35.456  1.00  0.00    -0.356 OA
HETATM   20  C   UNL     1      -6.680  -4.470 -35.338  1.00  0.00     0.210 C 
ENDBRANCH  15  19
ENDBRANCH  12  13
BRANCH  12  21
HETATM   21  O   UNL     1      -2.442  -1.864 -31.534  1.00  0.00    -0.389 OA
HETATM   22  H   UNL     1      -1.635  -2.060 -32.044  1.00  0.00     0.210 HD
ENDBRANCH  12  21
ENDBRANCH  11  12
ENDBRANCH   8  11
ENDBRANCH   1   7
BRANCH   2  23
HETATM   23  C   UNL     1      -5.696   3.786 -33.669  1.00  0.00     0.110 A 
HETATM   24  N   UNL     1      -6.301   2.622 -33.817  1.00  0.00    -0.233 NA
HETATM   25  C   UNL     1      -7.636   2.911 -33.966  1.00  0.00     0.087 A 
HETATM   26  C   UNL     1      -7.852   4.283 -33.925  1.00  0.00     0.062 A 
HETATM   27  C   UNL     1      -8.722   2.044 -34.144  1.00  0.00     0.057 A 
HETATM   28  N   UNL     1      -6.602   4.818 -33.749  1.00  0.00    -0.342 N 
HETATM   29  C   UNL     1      -9.115   4.866 -34.045  1.00  0.00     0.034 A 
HETATM   30  H   UNL     1      -6.384   5.802 -33.670  1.00  0.00     0.167 HD
HETATM   31  C   UNL     1     -10.193   3.989 -34.217  1.00  0.00     0.026 A 
HETATM   32  C   UNL     1      -9.996   2.606 -34.268  1.00  0.00     0.036 A 
HETATM   33 CL   UNL     1     -11.355   1.570 -34.484  1.00  0.00    -0.084 Cl
ENDBRANCH   2  23
TORSDOF 7
ENDMDL
MODEL 2
REMARK VINA RESULT:      -8.7      2.718      5.479
REMARK  7 active torsions:
REMARK  status: ('A' for Active; 'I' for Inactive)
REMARK    1  A    between atoms: O_2  and  C_3 
REMARK    2  A    between atoms: C_5  and  C_6 
REMARK    3  A    between atoms: C_6  and  O_7 
REMARK    4  A    between atoms: C_6  and  C_8 
REMARK    5  A    between atoms: C_8  and  N_9 
REMARK       I    between atoms: N_9  and  C_10 
REMARK    6  A    between atoms: C_10  and  C_11 
REMARK    7  A    between atoms: C_12  and  C_13 
ROOT
HETATM    1  C   UNL     1      -9.233   2.964 -34.235  1.00  0.00     0.089 C 
HETATM    2  C   UNL     1      -8.629   4.107 -33.381  1.00  0.00     0.068 C 
HETATM    3  C   UNL     1      -9.213   5.477 -33.784  1.00  0.00     0.013 C 
HETATM    4  C   UNL     1     -10.735   5.492 -33.787  1.00  0.00     0.001 C 
HETATM    5  C   UNL     1     -11.291   4.395 -34.683  1.00  0.00     0.001 C 
HETATM    6  C   UNL     1     -10.772   3.032 -34.249  1.00  0.00     0.015 C 
ENDROOT
BRANCH   1   7
HETATM    7  C   UNL     1      -8.808   1.589 -33.712  1.00  0.00     0.222 C 
HETATM    8  N   UNL     1      -8.418   0.699 -34.687  1.00  0.00    -0.358 N 
HETATM    9  H   UNL     1      -8.212   1.080 -35.613  1.00  0.00     0.162 HD
HETATM   10  O   UNL     1      -8.809   1.293 -32.520  1.00  0.00    -0.273 OA
BRANCH   8  11
HETATM   11  C   UNL     1      -7.878  -0.611 -34.346  1.00  0.00     0.159 C 
BRANCH  11  12
HETATM   12  C   UNL     1      -6.389  -0.735 -34.721  1.00  0.00     0.169 C 
BRANCH  12  13
HETATM   13  C   UNL     1      -5.909  -2.166 -34.621  1.00  0.00    -0.025 A 
HETATM   14  C   UNL     1      -4.734  -2.500 -33.922  1.00  0.00     0.046 A 
HETATM   15  C   UNL     1      -4.321  -3.830 -33.811  1.00  0.00     0.068 A 
HETATM   16  C   UNL     1      -5.090  -4.835 -34.400  1.00  0.00     0.037 A 
HETATM   17  C   UNL     1      -6.259  -4.522 -35.093  1.00  0.00     0.003 A 
HETATM   18  C   UNL     1      -6.669  -3.194 -35.200  1.00  0.00     0.010 A 
BRANCH  15  19
HETATM   19  O   UNL     1      -3.205  -4.274 -33.158  1.00  0.00    -0.356 OA
HETATM   20  C   UNL     1      -2.911  -3.666 -31.906  1.00  0.00     0.210 C 
ENDBRANCH  15  19
ENDBRANCH  12  13
BRANCH  12  21
HETATM   21  O   UNL     1      -5.616   0.096 -33.843  1.00  0.00    -0.389 OA
HETATM   22  H   UNL     1      -6.221   0.320 -33.114  1.00  0.00     0.210 HD
ENDBRANCH  12  21
ENDBRANCH  11  12
ENDBRANCH   8  11
ENDBRANCH   1   7
BRANCH   2  23
HETATM   23  C   UNL     1      -7.128   4.183 -33.492  1.00  0.00     0.110 A 
HETATM   24  N   UNL     1      -6.429   4.940 -34.318  1.00  0.00    -0.233 NA
HETATM   25  C   UNL     1      -5.110   4.696 -34.022  1.00  0.00     0.087 A 
HETATM   26  C   UNL     1      -4.996   3.757 -33.004  1.00  0.00     0.062 A 
HETATM   27  C   UNL     1      -3.952   5.244 -34.590  1.00  0.00     0.057 A 
HETATM   28  N   UNL     1      -6.293   3.435 -32.694  1.00  0.00    -0.342 N 
HETATM   29  C   UNL     1      -3.772   3.320 -32.494  1.00  0.00     0.034 A 
HETATM   30  H   UNL     1      -6.587   2.779 -31.985  1.00  0.00     0.167 HD
HETATM   31  C   UNL     1      -2.623   3.879 -33.066  1.00  0.00     0.026 A 
HETATM   32  C   UNL     1      -2.715   4.821 -34.095  1.00  0.00     0.036 A 
HETATM   33 CL   UNL     1      -1.271   5.476 -34.768  1.00  0.00    -0.084 Cl
ENDBRANCH   2  23
TORSDOF 7
ENDMDL
MODEL 3
REMARK VINA RESULT:      -8.6      2.855      7.126
REMARK  7 active torsions:
REMARK  status: ('A' for Active; 'I' for Inactive)
REMARK    1  A    between atoms: O_2  and  C_3 
REMARK    2  A    between atoms: C_5  and  C_6 
REMARK    3  A    between atoms: C_6  and  O_7 
REMARK    4  A    between atoms: C_6  and  C_8 
REMARK    5  A    between atoms: C_8  and  N_9 
REMARK       I    between atoms: N_9  and  C_10 
REMARK    6  A    between atoms: C_10  and  C_11 
REMARK    7  A    between atoms: C_12  and  C_13 
ROOT
HETATM    1  C   UNL     1      -7.907   1.630 -31.959  1.00  0.00     0.089 C 
HETATM    2  C   UNL     1      -7.558   1.409 -33.452  1.00  0.00     0.068 C 
HETATM    3  C   UNL     1      -8.819   1.476 -34.339  1.00  0.00     0.013 C 
HETATM    4  C   UNL     1      -9.634   2.741 -34.111  1.00  0.00     0.001 C 
HETATM    5  C   UNL     1     -10.009   2.893 -32.644  1.00  0.00     0.001 C 
HETATM    6  C   UNL     1      -8.765   2.895 -31.768  1.00  0.00     0.015 C 
ENDROOT
BRANCH   1   7
HETATM    7  C   UNL     1      -6.646   1.761 -31.101  1.00  0.00     0.222 C 
HETATM    8  N   UNL     1      -5.755   2.718 -31.531  1.00  0.00    -0.358 N 
HETATM    9  H   UNL     1      -6.097   3.407 -32.205  1.00  0.00     0.162 HD
HETATM   10  O   UNL     1      -6.434   1.073 -30.106  1.00  0.00    -0.273 OA
BRANCH   8  11
HETATM   11  C   UNL     1      -4.562   3.044 -30.760  1.00  0.00     0.159 C 
BRANCH  11  12
HETATM   12  C   UNL     1      -3.271   2.643 -31.500  1.00  0.00     0.169 C 
BRANCH  12  13
HETATM   13  C   UNL     1      -2.592   3.843 -32.121  1.00  0.00    -0.025 A 
HETATM   14  C   UNL     1      -1.707   4.650 -31.382  1.00  0.00     0.046 A 
HETATM   15  C   UNL     1      -1.062   5.736 -31.978  1.00  0.00     0.068 A 
HETATM   16  C   UNL     1      -1.301   6.017 -33.324  1.00  0.00     0.037 A 
HETATM   17  C   UNL     1      -2.172   5.226 -34.072  1.00  0.00     0.003 A 
HETATM   18  C   UNL     1      -2.812   4.141 -33.474  1.00  0.00     0.010 A 
BRANCH  15  19
HETATM   19  O   UNL     1      -0.183   6.586 -31.365  1.00  0.00    -0.356 OA
HETATM   20  C   UNL     1      -0.029   6.443 -29.958  1.00  0.00     0.210 C 
ENDBRANCH  15  19
ENDBRANCH  12  13
BRANCH  12  21
HETATM   21  O   UNL     1      -3.597   1.690 -32.522  1.00  0.00    -0.389 OA
HETATM   22  H   UNL     1      -2.742   1.449 -32.921  1.00  0.00     0.210 HD
ENDBRANCH  12  21
ENDBRANCH  11  12
ENDBRANCH   8  11
ENDBRANCH   1   7
BRANCH   2  23
HETATM   23  C   UNL     1      -6.877   0.087 -33.699  1.00  0.00     0.110 A 
HETATM   24  N   UNL     1      -5.644  -0.246 -33.367  1.00  0.00    -0.233 NA
HETATM   25  C   UNL     1      -5.491  -1.554 -33.760  1.00  0.00     0.087 A 
HETATM   26  C   UNL     1      -6.651  -2.027 -34.361  1.00  0.00     0.062 A 
HETATM   27  C   UNL     1      -4.381  -2.399 -33.635  1.00  0.00     0.057 A 
HETATM   28  N   UNL     1      -7.512  -0.961 -34.324  1.00  0.00    -0.342 N 
HETATM   29  C   UNL     1      -6.786  -3.327 -34.854  1.00  0.00     0.034 A 
HETATM   30  H   UNL     1      -8.460  -0.952 -34.674  1.00  0.00     0.167 HD
HETATM   31  C   UNL     1      -5.672  -4.164 -34.718  1.00  0.00     0.026 A 
HETATM   32  C   UNL     1      -4.494  -3.705 -34.122  1.00  0.00     0.036 A 
HETATM   33 CL   UNL     1      -3.150  -4.774 -33.981  1.00  0.00    -0.084 Cl
ENDBRANCH   2  23
TORSDOF 7
ENDMDL
MODEL 4
REMARK VINA RESULT:      -8.6      2.975      7.322
REMARK  7 active torsions:
REMARK  status: ('A' for Active; 'I' for Inactive)
REMARK    1  A    between atoms: O_2  and  C_3 
REMARK    2  A    between atoms: C_5  and  C_6 
REMARK    3  A    between atoms: C_6  and  O_7 
REMARK    4  A    between atoms: C_6  and  C_8 
REMARK    5  A    between atoms: C_8  and  N_9 
REMARK       I    between atoms: N_9  and  C_10 
REMARK    6  A    between atoms: C_10  and  C_11 
REMARK    7  A    between atoms: C_12  and  C_13 
ROOT
HETATM    1  C   UNL     1      -4.784   3.858 -31.815  1.00  0.00     0.089 C 
HETATM    2  C   UNL     1      -5.866   3.373 -32.811  1.00  0.00     0.068 C 
HETATM    3  C   UNL     1      -7.286   3.607 -32.255  1.00  0.00     0.013 C 
HETATM    4  C   UNL     1      -7.512   5.042 -31.800  1.00  0.00     0.001 C 
HETATM    5  C   UNL     1      -6.467   5.462 -30.777  1.00  0.00     0.001 C 
HETATM    6  C   UNL     1      -5.064   5.298 -31.344  1.00  0.00     0.015 C 
ENDROOT
BRANCH   1   7
HETATM    7  C   UNL     1      -3.386   3.810 -32.438  1.00  0.00     0.222 C 
HETATM    8  N   UNL     1      -3.192   4.686 -33.481  1.00  0.00    -0.358 N 
HETATM    9  H   UNL     1      -3.874   5.440 -33.593  1.00  0.00     0.162 HD
HETATM   10  O   UNL     1      -2.500   3.055 -32.046  1.00  0.00    -0.273 OA
BRANCH   8  11
HETATM   11  C   UNL     1      -1.884   4.845 -34.105  1.00  0.00     0.159 C 
BRANCH  11  12
HETATM   12  C   UNL     1      -1.356   6.286 -33.977  1.00  0.00     0.169 C 
BRANCH  12  13
HETATM   13  C   UNL     1      -1.196   6.691 -32.528  1.00  0.00    -0.025 A 
HETATM   14  C   UNL     1      -0.371   5.965 -31.649  1.00  0.00     0.046 A 
HETATM   15  C   UNL     1      -0.208   6.371 -30.322  1.00  0.00     0.068 A 
HETATM   16  C   UNL     1      -0.873   7.512 -29.871  1.00  0.00     0.037 A 
HETATM   17  C   UNL     1      -1.692   8.245 -30.729  1.00  0.00     0.003 A 
HETATM   18  C   UNL     1      -1.849   7.839 -32.053  1.00  0.00     0.010 A 
BRANCH  15  19
HETATM   19  O   UNL     1       0.566   5.750 -29.380  1.00  0.00    -0.356 OA
HETATM   20  C   UNL     1       0.301   6.072 -28.020  1.00  0.00     0.210 C 
ENDBRANCH  15  19
ENDBRANCH  12  13
BRANCH  12  21
HETATM   21  O   UNL     1      -2.271   7.178 -34.629  1.00  0.00    -0.389 OA
HETATM   22  H   UNL     1      -1.720   7.919 -34.939  1.00  0.00     0.210 HD
ENDBRANCH  12  21
ENDBRANCH  11  12
ENDBRANCH   8  11
ENDBRANCH   1   7
BRANCH   2  23
HETATM   23  C   UNL     1      -5.728   1.911 -33.152  1.00  0.00     0.110 A 
HETATM   24  N   UNL     1      -6.526   1.196 -33.922  1.00  0.00    -0.233 NA
HETATM   25  C   UNL     1      -5.976  -0.062 -33.965  1.00  0.00     0.087 A 
HETATM   26  C   UNL     1      -4.825  -0.125 -33.189  1.00  0.00     0.062 A 
HETATM   27  C   UNL     1      -6.414  -1.205 -34.647  1.00  0.00     0.057 A 
HETATM   28  N   UNL     1      -4.696   1.139 -32.671  1.00  0.00    -0.342 N 
HETATM   29  C   UNL     1      -4.053  -1.280 -33.051  1.00  0.00     0.034 A 
HETATM   30  H   UNL     1      -3.957   1.455 -32.059  1.00  0.00     0.167 HD
HETATM   31  C   UNL     1      -4.498  -2.413 -33.742  1.00  0.00     0.026 A 
HETATM   32  C   UNL     1      -5.657  -2.373 -34.522  1.00  0.00     0.036 A 
HETATM   33 CL   UNL     1      -6.163  -3.796 -35.351  1.00  0.00    -0.084 Cl
ENDBRANCH   2  23
TORSDOF 7
ENDMDL
MODEL 5
REMARK VINA RESULT:      -8.6      3.327      6.469
REMARK  7 active torsions:
REMARK  status: ('A' for Active; 'I' for Inactive)
REMARK    1  A    between atoms: O_2  and  C_3 
REMARK    2  A    between atoms: C_5  and  C_6 
REMARK    3  A    between atoms: C_6  and  O_7 
REMARK    4  A    between atoms: C_6  and  C_8 
REMARK    5  A    between atoms: C_8  and  N_9 
REMARK       I    between atoms: N_9  and  C_10 
REMARK    6  A    between atoms: C_10  and  C_11 
REMARK    7  A    between atoms: C_12  and  C_13 
ROOT
HETATM    1  C   UNL     1      -5.619   2.824 -32.172  1.00  0.00     0.089 C 
HETATM    2  C   UNL     1      -4.451   1.860 -31.844  1.00  0.00     0.068 C 
HETATM    3  C   UNL     1      -3.099   2.437 -32.313  1.00  0.00     0.013 C 
HETATM    4  C   UNL     1      -2.851   3.849 -31.803  1.00  0.00     0.001 C 
HETATM    5  C   UNL     1      -3.988   4.780 -32.196  1.00  0.00     0.001 C 
HETATM    6  C   UNL     1      -5.318   4.253 -31.678  1.00  0.00     0.015 C 
ENDROOT
BRANCH   1   7
HETATM    7  C   UNL     1      -6.930   2.353 -31.538  1.00  0.00     0.222 C 
HETATM    8  N   UNL     1      -7.938   2.084 -32.436  1.00  0.00    -0.358 N 
HETATM    9  H   UNL     1      -7.675   1.982 -33.419  1.00  0.00     0.162 HD
HETATM   10  O   UNL     1      -7.082   2.219 -30.327  1.00  0.00    -0.273 OA
BRANCH   8  11
HETATM   11  C   UNL     1      -9.209   1.518 -32.003  1.00  0.00     0.159 C 
BRANCH  11  12
HETATM   12  C   UNL     1      -9.829   0.605 -33.078  1.00  0.00     0.169 C 
BRANCH  12  13
HETATM   13  C   UNL     1     -10.917   1.318 -33.850  1.00  0.00    -0.025 A 
HETATM   14  C   UNL     1     -12.228   0.812 -33.909  1.00  0.00     0.046 A 
HETATM   15  C   UNL     1     -13.230   1.499 -34.600  1.00  0.00     0.068 A 
HETATM   16  C   UNL     1     -12.919   2.703 -35.235  1.00  0.00     0.037 A 
HETATM   17  C   UNL     1     -11.625   3.220 -35.183  1.00  0.00     0.003 A 
HETATM   18  C   UNL     1     -10.630   2.533 -34.491  1.00  0.00     0.010 A 
BRANCH  15  19
HETATM   19  O   UNL     1     -14.535   1.109 -34.723  1.00  0.00    -0.356 OA
HETATM   20  C   UNL     1     -15.373   1.307 -33.590  1.00  0.00     0.210 C 
ENDBRANCH  15  19
ENDBRANCH  12  13
BRANCH  12  21
HETATM   21  O   UNL     1     -10.373  -0.560 -32.442  1.00  0.00    -0.389 OA
HETATM   22  H   UNL     1     -10.865  -0.219 -31.673  1.00  0.00     0.210 HD
ENDBRANCH  12  21
ENDBRANCH  11  12
ENDBRANCH   8  11
ENDBRANCH   1   7
BRANCH   2  23
HETATM   23  C   UNL     1      -4.627   0.501 -32.470  1.00  0.00     0.110 A 
HETATM   24  N   UNL     1      -5.569   0.132 -33.317  1.00  0.00    -0.233 NA
HETATM   25  C   UNL     1      -5.294  -1.176 -33.636  1.00  0.00     0.087 A 
HETATM   26  C   UNL     1      -4.168  -1.624 -32.956  1.00  0.00     0.062 A 
HETATM   27  C   UNL     1      -5.972  -2.045 -34.502  1.00  0.00     0.057 A 
HETATM   28  N   UNL     1      -3.771  -0.544 -32.210  1.00  0.00    -0.342 N 
HETATM   29  C   UNL     1      -3.652  -2.914 -33.091  1.00  0.00     0.034 A 
HETATM   30  H   UNL     1      -2.972  -0.513 -31.593  1.00  0.00     0.167 HD
HETATM   31  C   UNL     1      -4.334  -3.771 -33.963  1.00  0.00     0.026 A 
HETATM   32  C   UNL     1      -5.472  -3.342 -34.652  1.00  0.00     0.036 A 
HETATM   33 CL   UNL     1      -6.278  -4.436 -35.711  1.00  0.00    -0.084 Cl
ENDBRANCH   2  23
TORSDOF 7
ENDMDL
MODEL 6
REMARK VINA RESULT:      -8.6      2.049      6.414
REMARK  7 active torsions:
REMARK  status: ('A' for Active; 'I' for Inactive)
REMARK    1  A    between atoms: O_2  and  C_3 
REMARK    2  A    between atoms: C_5  and  C_6 
REMARK    3  A    between atoms: C_6  and  O_7 
REMARK    4  A    between atoms: C_6  and  C_8 
REMARK    5  A    between atoms: C_8  and  N_9 
REMARK       I    between atoms: N_9  and  C_10 
REMARK    6  A    between atoms: C_10  and  C_11 
REMARK    7  A    between atoms: C_12  and  C_13 
ROOT
HETATM    1  C   UNL     1      -5.233  -0.948 -33.563  1.00  0.00     0.089 C 
HETATM    2  C   UNL     1      -6.721  -1.363 -33.443  1.00  0.00     0.068 C 
HETATM    3  C   UNL     1      -7.145  -2.271 -34.617  1.00  0.00     0.013 C 
HETATM    4  C   UNL     1      -6.219  -3.464 -34.806  1.00  0.00     0.001 C 
HETATM    5  C   UNL     1      -4.776  -3.012 -34.980  1.00  0.00     0.001 C 
HETATM    6  C   UNL     1      -4.328  -2.173 -33.793  1.00  0.00     0.015 C 
ENDROOT
BRANCH   1   7
HETATM    7  C   UNL     1      -4.754  -0.214 -32.307  1.00  0.00     0.222 C 
HETATM    8  N   UNL     1      -3.839   0.787 -32.541  1.00  0.00    -0.358 N 
HETATM    9  H   UNL     1      -3.741   1.117 -33.504  1.00  0.00     0.162 HD
HETATM   10  O   UNL     1      -5.149  -0.486 -31.177  1.00  0.00    -0.273 OA
BRANCH   8  11
HETATM   11  C   UNL     1      -3.372   1.654 -31.466  1.00  0.00     0.159 C 
BRANCH  11  12
HETATM   12  C   UNL     1      -3.917   3.088 -31.606  1.00  0.00     0.169 C 
BRANCH  12  13
HETATM   13  C   UNL     1      -2.866   4.030 -32.151  1.00  0.00    -0.025 A 
HETATM   14  C   UNL     1      -1.846   4.546 -31.330  1.00  0.00     0.046 A 
HETATM   15  C   UNL     1      -0.863   5.389 -31.855  1.00  0.00     0.068 A 
HETATM   16  C   UNL     1      -0.899   5.717 -33.212  1.00  0.00     0.037 A 
HETATM   17  C   UNL     1      -1.901   5.212 -34.039  1.00  0.00     0.003 A 
HETATM   18  C   UNL     1      -2.877   4.369 -33.512  1.00  0.00     0.010 A 
BRANCH  15  19
HETATM   19  O   UNL     1       0.174   5.947 -31.160  1.00  0.00    -0.356 OA
HETATM   20  C   UNL     1       0.480   5.373 -29.895  1.00  0.00     0.210 C 
ENDBRANCH  15  19
ENDBRANCH  12  13
BRANCH  12  21
HETATM   21  O   UNL     1      -4.356   3.547 -30.319  1.00  0.00    -0.389 OA
HETATM   22  H   UNL     1      -4.017   4.458 -30.250  1.00  0.00     0.210 HD
ENDBRANCH  12  21
ENDBRANCH  11  12
ENDBRANCH   8  11
ENDBRANCH   1   7
BRANCH   2  23
HETATM   23  C   UNL     1      -7.653  -0.180 -33.401  1.00  0.00     0.110 A 
HETATM   24  N   UNL     1      -8.260   0.391 -34.425  1.00  0.00    -0.233 NA
HETATM   25  C   UNL     1      -9.029   1.396 -33.891  1.00  0.00     0.087 A 
HETATM   26  C   UNL     1      -8.876   1.455 -32.511  1.00  0.00     0.062 A 
HETATM   27  C   UNL     1      -9.882   2.304 -34.532  1.00  0.00     0.057 A 
HETATM   28  N   UNL     1      -7.985   0.452 -32.225  1.00  0.00    -0.342 N 
HETATM   29  C   UNL     1      -9.542   2.378 -31.702  1.00  0.00     0.034 A 
HETATM   30  H   UNL     1      -7.647   0.204 -31.306  1.00  0.00     0.167 HD
HETATM   31  C   UNL     1     -10.396   3.276 -32.354  1.00  0.00     0.026 A 
HETATM   32  C   UNL     1     -10.559   3.238 -33.742  1.00  0.00     0.036 A 
HETATM   33 CL   UNL     1     -11.620   4.366 -34.496  1.00  0.00    -0.084 Cl
ENDBRANCH   2  23
TORSDOF 7
ENDMDL
MODEL 7
REMARK VINA RESULT:      -8.5      3.333      7.461
REMARK  7 active torsions:
REMARK  status: ('A' for Active; 'I' for Inactive)
REMARK    1  A    between atoms: O_2  and  C_3 
REMARK    2  A    between atoms: C_5  and  C_6 
REMARK    3  A    between atoms: C_6  and  O_7 
REMARK    4  A    between atoms: C_6  and  C_8 
REMARK    5  A    between atoms: C_8  and  N_9 
REMARK       I    between atoms: N_9  and  C_10 
REMARK    6  A    between atoms: C_10  and  C_11 
REMARK    7  A    between atoms: C_12  and  C_13 
ROOT
HETATM    1  C   UNL     1      -4.393   4.431 -31.200  1.00  0.00     0.089 C 
HETATM    2  C   UNL     1      -5.623   4.341 -32.138  1.00  0.00     0.068 C 
HETATM    3  C   UNL     1      -6.928   4.668 -31.383  1.00  0.00     0.013 C 
HETATM    4  C   UNL     1      -6.861   5.991 -30.633  1.00  0.00     0.001 C 
HETATM    5  C   UNL     1      -5.676   6.019 -29.678  1.00  0.00     0.001 C 
HETATM    6  C   UNL     1      -4.376   5.764 -30.427  1.00  0.00     0.015 C 
ENDROOT
BRANCH   1   7
HETATM    7  C   UNL     1      -3.082   4.302 -31.981  1.00  0.00     0.222 C 
HETATM    8  N   UNL     1      -2.936   5.202 -33.012  1.00  0.00    -0.358 N 
HETATM    9  H   UNL     1      -3.564   6.009 -33.022  1.00  0.00     0.162 HD
HETATM   10  O   UNL     1      -2.221   3.468 -31.717  1.00  0.00    -0.273 OA
BRANCH   8  11
HETATM   11  C   UNL     1      -1.699   5.285 -33.777  1.00  0.00     0.159 C 
BRANCH  11  12
HETATM   12  C   UNL     1      -1.031   6.667 -33.643  1.00  0.00     0.169 C 
BRANCH  12  13
HETATM   13  C   UNL     1      -0.892   7.077 -32.194  1.00  0.00    -0.025 A 
HETATM   14  C   UNL     1      -1.718   8.067 -31.629  1.00  0.00     0.046 A 
HETATM   15  C   UNL     1      -1.600   8.413 -30.280  1.00  0.00     0.068 A 
HETATM   16  C   UNL     1      -0.651   7.762 -29.489  1.00  0.00     0.037 A 
HETATM   17  C   UNL     1       0.173   6.777 -30.033  1.00  0.00     0.003 A 
HETATM   18  C   UNL     1       0.050   6.433 -31.377  1.00  0.00     0.010 A 
BRANCH  15  19
HETATM   19  O   UNL     1      -2.345   9.352 -29.621  1.00  0.00    -0.356 OA
HETATM   20  C   UNL     1      -2.163   9.442 -28.214  1.00  0.00     0.210 C 
ENDBRANCH  15  19
ENDBRANCH  12  13
BRANCH  12  21
HETATM   21  O   UNL     1      -1.820   7.637 -34.346  1.00  0.00    -0.389 OA
HETATM   22  H   UNL     1      -1.173   8.189 -34.821  1.00  0.00     0.210 HD
ENDBRANCH  12  21
ENDBRANCH  11  12
ENDBRANCH   8  11
ENDBRANCH   1   7
BRANCH   2  23
HETATM   23  C   UNL     1      -5.772   2.982 -32.771  1.00  0.00     0.110 A 
HETATM   24  N   UNL     1      -5.151   1.870 -32.423  1.00  0.00    -0.233 NA
HETATM   25  C   UNL     1      -5.638   0.893 -33.257  1.00  0.00     0.087 A 
HETATM   26  C   UNL     1      -6.565   1.421 -34.147  1.00  0.00     0.062 A 
HETATM   27  C   UNL     1      -5.327  -0.472 -33.310  1.00  0.00     0.057 A 
HETATM   28  N   UNL     1      -6.622   2.754 -33.828  1.00  0.00    -0.342 N 
HETATM   29  C   UNL     1      -7.228   0.656 -35.109  1.00  0.00     0.034 A 
HETATM   30  H   UNL     1      -7.206   3.446 -34.276  1.00  0.00     0.167 HD
HETATM   31  C   UNL     1      -6.913  -0.707 -35.148  1.00  0.00     0.026 A 
HETATM   32  C   UNL     1      -5.978  -1.256 -34.266  1.00  0.00     0.036 A 
HETATM   33 CL   UNL     1      -5.622  -2.940 -34.356  1.00  0.00    -0.084 Cl
ENDBRANCH   2  23
TORSDOF 7
ENDMDL
MODEL 8
REMARK VINA RESULT:      -8.5      2.183      6.605
REMARK  7 active torsions:
REMARK  status: ('A' for Active; 'I' for Inactive)
REMARK    1  A    between atoms: O_2  and  C_3 
REMARK    2  A    between atoms: C_5  and  C_6 
REMARK    3  A    between atoms: C_6  and  O_7 
REMARK    4  A    between atoms: C_6  and  C_8 
REMARK    5  A    between atoms: C_8  and  N_9 
REMARK       I    between atoms: N_9  and  C_10 
REMARK    6  A    between atoms: C_10  and  C_11 
REMARK    7  A    between atoms: C_12  and  C_13 
ROOT
HETATM    1  C   UNL     1      -5.653   0.187 -33.512  1.00  0.00     0.089 C 
HETATM    2  C   UNL     1      -7.002  -0.556 -33.347  1.00  0.00     0.068 C 
HETATM    3  C   UNL     1      -7.102  -1.758 -34.310  1.00  0.00     0.013 C 
HETATM    4  C   UNL     1      -5.905  -2.693 -34.213  1.00  0.00     0.001 C 
HETATM    5  C   UNL     1      -4.603  -1.939 -34.441  1.00  0.00     0.001 C 
HETATM    6  C   UNL     1      -4.465  -0.793 -33.450  1.00  0.00     0.015 C 
ENDROOT
BRANCH   1   7
HETATM    7  C   UNL     1      -5.465   1.254 -32.431  1.00  0.00     0.222 C 
HETATM    8  N   UNL     1      -5.122   2.499 -32.906  1.00  0.00    -0.358 N 
HETATM    9  H   UNL     1      -5.257   2.673 -33.905  1.00  0.00     0.162 HD
HETATM   10  O   UNL     1      -5.607   1.030 -31.232  1.00  0.00    -0.273 OA
BRANCH   8  11
HETATM   11  C   UNL     1      -5.018   3.649 -32.017  1.00  0.00     0.159 C 
BRANCH  11  12
HETATM   12  C   UNL     1      -3.571   3.882 -31.543  1.00  0.00     0.169 C 
BRANCH  12  13
HETATM   13  C   UNL     1      -2.854   4.882 -32.424  1.00  0.00    -0.025 A 
HETATM   14  C   UNL     1      -2.750   6.238 -32.061  1.00  0.00     0.046 A 
HETATM   15  C   UNL     1      -2.057   7.143 -32.869  1.00  0.00     0.068 A 
HETATM   16  C   UNL     1      -1.461   6.689 -34.047  1.00  0.00     0.037 A 
HETATM   17  C   UNL     1      -1.552   5.349 -34.419  1.00  0.00     0.003 A 
HETATM   18  C   UNL     1      -2.242   4.448 -33.609  1.00  0.00     0.010 A 
BRANCH  15  19
HETATM   19  O   UNL     1      -1.886   8.477 -32.620  1.00  0.00    -0.356 OA
HETATM   20  C   UNL     1      -2.280   8.944 -31.335  1.00  0.00     0.210 C 
ENDBRANCH  15  19
ENDBRANCH  12  13
BRANCH  12  21
HETATM   21  O   UNL     1      -2.868   2.632 -31.561  1.00  0.00    -0.389 OA
HETATM   22  H   UNL     1      -3.536   1.966 -31.319  1.00  0.00     0.210 HD
ENDBRANCH  12  21
ENDBRANCH  11  12
ENDBRANCH   8  11
ENDBRANCH   1   7
BRANCH   2  23
HETATM   23  C   UNL     1      -8.191   0.339 -33.584  1.00  0.00     0.110 A 
HETATM   24  N   UNL     1      -8.182   1.549 -34.111  1.00  0.00    -0.233 NA
HETATM   25  C   UNL     1      -9.497   1.945 -34.160  1.00  0.00     0.087 A 
HETATM   26  C   UNL     1     -10.329   0.963 -33.636  1.00  0.00     0.062 A 
HETATM   27  C   UNL     1     -10.052   3.138 -34.640  1.00  0.00     0.057 A 
HETATM   28  N   UNL     1      -9.473  -0.043 -33.264  1.00  0.00    -0.342 N 
HETATM   29  C   UNL     1     -11.717   1.090 -33.563  1.00  0.00     0.034 A 
HETATM   30  H   UNL     1      -9.740  -0.923 -32.846  1.00  0.00     0.167 HD
HETATM   31  C   UNL     1     -12.260   2.285 -34.051  1.00  0.00     0.026 A 
HETATM   32  C   UNL     1     -11.441   3.288 -34.576  1.00  0.00     0.036 A 
HETATM   33 CL   UNL     1     -12.158   4.741 -35.160  1.00  0.00    -0.084 Cl
ENDBRANCH   2  23
TORSDOF 7
ENDMDL
MODEL 9
REMARK VINA RESULT:      -8.3      3.758      6.221
REMARK  7 active torsions:
REMARK  status: ('A' for Active; 'I' for Inactive)
REMARK    1  A    between atoms: O_2  and  C_3 
REMARK    2  A    between atoms: C_5  and  C_6 
REMARK    3  A    between atoms: C_6  and  O_7 
REMARK    4  A    between atoms: C_6  and  C_8 
REMARK    5  A    between atoms: C_8  and  N_9 
REMARK       I    between atoms: N_9  and  C_10 
REMARK    6  A    between atoms: C_10  and  C_11 
REMARK    7  A    between atoms: C_12  and  C_13 
ROOT
HETATM    1  C   UNL     1      -5.149   4.075 -32.851  1.00  0.00     0.089 C 
HETATM    2  C   UNL     1      -5.233   5.196 -31.785  1.00  0.00     0.068 C 
HETATM    3  C   UNL     1      -6.064   6.393 -32.294  1.00  0.00     0.013 C 
HETATM    4  C   UNL     1      -7.433   5.980 -32.818  1.00  0.00     0.001 C 
HETATM    5  C   UNL     1      -7.306   4.923 -33.904  1.00  0.00     0.001 C 
HETATM    6  C   UNL     1      -6.546   3.710 -33.389  1.00  0.00     0.015 C 
ENDROOT
BRANCH   1   7
HETATM    7  C   UNL     1      -4.496   2.811 -32.285  1.00  0.00     0.222 C 
HETATM    8  N   UNL     1      -5.333   2.023 -31.528  1.00  0.00    -0.358 N 
HETATM    9  H   UNL     1      -6.337   2.198 -31.604  1.00  0.00     0.162 HD
HETATM   10  O   UNL     1      -3.322   2.513 -32.484  1.00  0.00    -0.273 OA
BRANCH   8  11
HETATM   11  C   UNL     1      -4.897   0.730 -31.014  1.00  0.00     0.159 C 
BRANCH  11  12
HETATM   12  C   UNL     1      -5.986  -0.348 -31.172  1.00  0.00     0.169 C 
BRANCH  12  13
HETATM   13  C   UNL     1      -6.669  -0.254 -32.518  1.00  0.00    -0.025 A 
HETATM   14  C   UNL     1      -7.963   0.284 -32.650  1.00  0.00     0.046 A 
HETATM   15  C   UNL     1      -8.567   0.394 -33.904  1.00  0.00     0.068 A 
HETATM   16  C   UNL     1      -7.873  -0.034 -35.037  1.00  0.00     0.037 A 
HETATM   17  C   UNL     1      -6.589  -0.566 -34.925  1.00  0.00     0.003 A 
HETATM   18  C   UNL     1      -5.988  -0.672 -33.672  1.00  0.00     0.010 A 
BRANCH  15  19
HETATM   19  O   UNL     1      -9.813   0.901 -34.156  1.00  0.00    -0.356 OA
HETATM   20  C   UNL     1     -10.208   2.037 -33.396  1.00  0.00     0.210 C 
ENDBRANCH  15  19
ENDBRANCH  12  13
BRANCH  12  21
HETATM   21  O   UNL     1      -6.956  -0.188 -30.127  1.00  0.00    -0.389 OA
HETATM   22  H   UNL     1      -7.547   0.520 -30.440  1.00  0.00     0.210 HD
ENDBRANCH  12  21
ENDBRANCH  11  12
ENDBRANCH   8  11
ENDBRANCH   1   7
BRANCH   2  23
HETATM   23  C   UNL     1      -3.877   5.707 -31.371  1.00  0.00     0.110 A 
HETATM   24  N   UNL     1      -3.561   6.287 -30.228  1.00  0.00    -0.233 NA
HETATM   25  C   UNL     1      -2.212   6.537 -30.296  1.00  0.00     0.087 A 
HETATM   26  C   UNL     1      -1.692   6.118 -31.515  1.00  0.00     0.062 A 
HETATM   27  C   UNL     1      -1.365   7.127 -29.349  1.00  0.00     0.057 A 
HETATM   28  N   UNL     1      -2.774   5.606 -32.186  1.00  0.00    -0.342 N 
HETATM   29  C   UNL     1      -0.345   6.242 -31.859  1.00  0.00     0.034 A 
HETATM   30  H   UNL     1      -2.759   5.203 -33.112  1.00  0.00     0.167 HD
HETATM   31  C   UNL     1       0.492   6.828 -30.902  1.00  0.00     0.026 A 
HETATM   32  C   UNL     1      -0.012   7.263 -29.673  1.00  0.00     0.036 A 
HETATM   33 CL   UNL     1       1.059   7.980 -28.530  1.00  0.00    -0.084 Cl
ENDBRANCH   2  23
TORSDOF 7
ENDMDL
MODEL 10
REMARK VINA RESULT:      -8.3      3.695      7.874
REMARK  7 active torsions:
REMARK  status: ('A' for Active; 'I' for Inactive)
REMARK    1  A    between atoms: O_2  and  C_3 
REMARK    2  A    between atoms: C_5  and  C_6 
REMARK    3  A    between atoms: C_6  and  O_7 
REMARK    4  A    between atoms: C_6  and  C_8 
REMARK    5  A    between atoms: C_8  and  N_9 
REMARK       I    between atoms: N_9  and  C_10 
REMARK    6  A    between atoms: C_10  and  C_11 
REMARK    7  A    between atoms: C_12  and  C_13 
ROOT
HETATM    1  C   UNL     1     -12.565   2.568 -32.872  1.00  0.00     0.089 C 
HETATM    2  C   UNL     1     -12.152   1.567 -33.979  1.00  0.00     0.068 C 
HETATM    3  C   UNL     1     -13.052   0.313 -33.965  1.00  0.00     0.013 C 
HETATM    4  C   UNL     1     -14.535   0.650 -34.006  1.00  0.00     0.001 C 
HETATM    5  C   UNL     1     -14.914   1.587 -32.868  1.00  0.00     0.001 C 
HETATM    6  C   UNL     1     -14.078   2.856 -32.916  1.00  0.00     0.015 C 
ENDROOT
BRANCH   1   7
HETATM    7  C   UNL     1     -11.810   3.893 -33.005  1.00  0.00     0.222 C 
HETATM    8  N   UNL     1     -10.572   3.912 -32.403  1.00  0.00    -0.358 N 
HETATM    9  H   UNL     1     -10.164   3.011 -32.143  1.00  0.00     0.162 HD
HETATM   10  O   UNL     1     -12.261   4.868 -33.600  1.00  0.00    -0.273 OA
BRANCH   8  11
HETATM   11  C   UNL     1      -9.681   5.057 -32.536  1.00  0.00     0.159 C 
BRANCH  11  12
HETATM   12  C   UNL     1      -8.562   4.800 -33.563  1.00  0.00     0.169 C 
BRANCH  12  13
HETATM   13  C   UNL     1      -7.324   4.232 -32.903  1.00  0.00    -0.025 A 
HETATM   14  C   UNL     1      -7.123   4.329 -31.514  1.00  0.00     0.046 A 
HETATM   15  C   UNL     1      -5.990   3.772 -30.915  1.00  0.00     0.068 A 
HETATM   16  C   UNL     1      -5.053   3.110 -31.710  1.00  0.00     0.037 A 
HETATM   17  C   UNL     1      -5.239   3.003 -33.088  1.00  0.00     0.003 A 
HETATM   18  C   UNL     1      -6.371   3.558 -33.681  1.00  0.00     0.010 A 
BRANCH  15  19
HETATM   19  O   UNL     1      -5.690   3.799 -29.581  1.00  0.00    -0.356 OA
HETATM   20  C   UNL     1      -5.728   5.069 -28.941  1.00  0.00     0.210 C 
ENDBRANCH  15  19
ENDBRANCH  12  13
BRANCH  12  21
HETATM   21  O   UNL     1      -8.237   6.034 -34.218  1.00  0.00    -0.389 OA
HETATM   22  H   UNL     1      -7.772   5.770 -35.032  1.00  0.00     0.210 HD
ENDBRANCH  12  21
ENDBRANCH  11  12
ENDBRANCH   8  11
ENDBRANCH   1   7
BRANCH   2  23
HETATM   23  C   UNL     1     -10.719   1.120 -33.854  1.00  0.00     0.110 A 
HETATM   24  N   UNL     1     -10.095   0.751 -32.751  1.00  0.00    -0.233 NA
HETATM   25  C   UNL     1      -8.826   0.397 -33.139  1.00  0.00     0.087 A 
HETATM   26  C   UNL     1      -8.662   0.568 -34.509  1.00  0.00     0.062 A 
HETATM   27  C   UNL     1      -7.757  -0.079 -32.369  1.00  0.00     0.057 A 
HETATM   28  N   UNL     1      -9.876   1.043 -34.938  1.00  0.00    -0.342 N 
HETATM   29  C   UNL     1      -7.474   0.281 -35.183  1.00  0.00     0.034 A 
HETATM   30  H   UNL     1     -10.117   1.274 -35.891  1.00  0.00     0.167 HD
HETATM   31  C   UNL     1      -6.415  -0.199 -34.403  1.00  0.00     0.026 A 
HETATM   32  C   UNL     1      -6.556  -0.373 -33.023  1.00  0.00     0.036 A 
HETATM   33 CL   UNL     1      -5.222  -0.963 -32.108  1.00  0.00    -0.084 Cl
ENDBRANCH   2  23
TORSDOF 7
ENDMDL
