MODEL 1
REMARK VINA RESULT:      -8.3      0.000      0.000
REMARK  9 active torsions:
REMARK  status: ('A' for Active; 'I' for Inactive)
REMARK    1  A    between atoms: C_2  and  C_3 
REMARK    2  A    between atoms: C_6  and  N_7 
REMARK    3  A    between atoms: C_8  and  O_9 
REMARK    4  A    between atoms: C_8  and  C_10 
REMARK       I    between atoms: C_10  and  N_11 
REMARK    5  A    between atoms: N_11  and  C_12 
REMARK    6  A    between atoms: C_12  and  C_13 
REMARK    7  A    between atoms: C_13  and  N_14 
REMARK    8  A    between atoms: N_14  and  C_16 
REMARK    9  A    between atoms: N_14  and  C_18 
ROOT
HETATM    1  N   UNL     1      -6.461   0.948 -32.865  1.00  0.00    -0.254 N 
HETATM    2  C   UNL     1      -6.749   2.100 -33.727  1.00  0.00     0.256 C 
HETATM    3  C   UNL     1      -5.899   3.285 -33.354  1.00  0.00     0.034 A 
HETATM    4  C   UNL     1      -5.598   3.433 -31.998  1.00  0.00     0.048 A 
HETATM    5  N   UNL     1      -6.050   2.453 -31.113  1.00  0.00    -0.308 N 
HETATM    6  C   UNL     1      -6.471   1.195 -31.493  1.00  0.00     0.330 C 
HETATM    7  O   UNL     1      -6.781   0.398 -30.610  1.00  0.00    -0.246 OA
HETATM    8  C   UNL     1      -5.476   4.265 -34.259  1.00  0.00     0.015 A 
HETATM    9  C   UNL     1      -4.762   5.373 -33.802  1.00  0.00     0.001 A 
HETATM   10  C   UNL     1      -4.480   5.514 -32.444  1.00  0.00     0.002 A 
HETATM   11  C   UNL     1      -4.904   4.546 -31.533  1.00  0.00     0.030 A 
HETATM   12  H   UNL     1      -5.867   2.550 -30.120  1.00  0.00     0.170 HD
ENDROOT
BRANCH   2  13
HETATM   13  O   UNL     1      -6.609   1.817 -35.117  1.00  0.00    -0.359 OA
HETATM   14  H   UNL     1      -7.491   1.971 -35.505  1.00  0.00     0.213 HD
ENDBRANCH   2  13
BRANCH   2  15
HETATM   15  C   UNL     1      -8.312   2.348 -33.537  1.00  0.00     0.279 C 
HETATM   16  N   UNL     1      -9.193   1.885 -34.495  1.00  0.00    -0.355 N 
HETATM   17  H   UNL     1      -8.831   1.182 -35.134  1.00  0.00     0.162 HD
HETATM   18  O   UNL     1      -8.737   3.078 -32.632  1.00  0.00    -0.268 OA
BRANCH  16  19
HETATM   19  C   UNL     1     -10.649   1.917 -34.377  1.00  0.00     0.150 C 
BRANCH  19  20
HETATM   20  C   UNL     1     -11.352   0.874 -33.478  1.00  0.00     0.254 C 
BRANCH  20  21
HETATM   21  N   UNL     1     -12.832   1.140 -33.259  1.00  0.00    -0.070 N 
HETATM   22  H   UNL     1     -12.942   1.003 -32.237  1.00  0.00     0.279 HD
BRANCH  21  23
HETATM   23  C   UNL     1     -13.304   2.548 -33.540  1.00  0.00     0.230 C 
HETATM   24  C   UNL     1     -13.414   3.376 -32.272  1.00  0.00     0.034 C 
ENDBRANCH  21  23
BRANCH  21  25
HETATM   25  C   UNL     1     -13.721   0.089 -33.896  1.00  0.00     0.230 C 
HETATM   26  C   UNL     1     -15.052   0.681 -34.321  1.00  0.00     0.034 C 
ENDBRANCH  21  25
ENDBRANCH  20  21
ENDBRANCH  19  20
ENDBRANCH  16  19
ENDBRANCH   2  15
BRANCH   1  27
HETATM   27  C   UNL     1      -6.250  -0.369 -33.380  1.00  0.00     0.043 A 
HETATM   28  C   UNL     1      -4.968  -0.891 -33.578  1.00  0.00     0.030 A 
HETATM   29  C   UNL     1      -4.786  -2.174 -34.115  1.00  0.00     0.009 A 
HETATM   30  C   UNL     1      -5.883  -2.955 -34.489  1.00  0.00    -0.058 A 
HETATM   31  C   UNL     1      -7.165  -2.427 -34.325  1.00  0.00     0.009 A 
HETATM   32  C   UNL     1      -7.343  -1.150 -33.782  1.00  0.00     0.030 A 
BRANCH  30  33
HETATM   33  C   UNL     1      -5.692  -4.327 -35.084  1.00  0.00     0.034 C 
HETATM   34  C   UNL     1      -4.699  -5.168 -34.293  1.00  0.00     0.010 C 
ENDBRANCH  30  33
ENDBRANCH   1  27
TORSDOF 9
ENDMDL
MODEL 2
REMARK VINA RESULT:      -8.1      1.756      2.439
REMARK  9 active torsions:
REMARK  status: ('A' for Active; 'I' for Inactive)
REMARK    1  A    between atoms: C_2  and  C_3 
REMARK    2  A    between atoms: C_6  and  N_7 
REMARK    3  A    between atoms: C_8  and  O_9 
REMARK    4  A    between atoms: C_8  and  C_10 
REMARK       I    between atoms: C_10  and  N_11 
REMARK    5  A    between atoms: N_11  and  C_12 
REMARK    6  A    between atoms: C_12  and  C_13 
REMARK    7  A    between atoms: C_13  and  N_14 
REMARK    8  A    between atoms: N_14  and  C_16 
REMARK    9  A    between atoms: N_14  and  C_18 
ROOT
HETATM    1  N   UNL     1      -5.260   1.416 -32.426  1.00  0.00    -0.254 N 
HETATM    2  C   UNL     1      -5.531   2.744 -32.988  1.00  0.00     0.256 C 
HETATM    3  C   UNL     1      -4.307   3.618 -32.938  1.00  0.00     0.034 A 
HETATM    4  C   UNL     1      -3.458   3.438 -31.844  1.00  0.00     0.048 A 
HETATM    5  N   UNL     1      -3.773   2.435 -30.924  1.00  0.00    -0.308 N 
HETATM    6  C   UNL     1      -4.647   1.397 -31.173  1.00  0.00     0.330 C 
HETATM    7  O   UNL     1      -4.787   0.539 -30.305  1.00  0.00    -0.246 OA
HETATM    8  C   UNL     1      -4.025   4.630 -33.863  1.00  0.00     0.015 A 
HETATM    9  C   UNL     1      -2.907   5.444 -33.684  1.00  0.00     0.001 A 
HETATM   10  C   UNL     1      -2.075   5.262 -32.579  1.00  0.00     0.002 A 
HETATM   11  C   UNL     1      -2.352   4.260 -31.649  1.00  0.00     0.030 A 
HETATM   12  H   UNL     1      -3.187   2.302 -30.108  1.00  0.00     0.170 HD
ENDROOT
BRANCH   2  13
HETATM   13  O   UNL     1      -6.048   2.702 -34.315  1.00  0.00    -0.359 OA
HETATM   14  H   UNL     1      -5.268   2.667 -34.899  1.00  0.00     0.213 HD
ENDBRANCH   2  13
BRANCH   2  15
HETATM   15  C   UNL     1      -6.746   3.295 -32.116  1.00  0.00     0.279 C 
HETATM   16  N   UNL     1      -8.029   3.234 -32.626  1.00  0.00    -0.355 N 
HETATM   17  H   UNL     1      -8.170   2.604 -33.411  1.00  0.00     0.162 HD
HETATM   18  O   UNL     1      -6.547   3.914 -31.062  1.00  0.00    -0.268 OA
BRANCH  16  19
HETATM   19  C   UNL     1      -9.241   3.568 -31.882  1.00  0.00     0.150 C 
BRANCH  19  20
HETATM   20  C   UNL     1     -10.567   3.759 -32.654  1.00  0.00     0.254 C 
BRANCH  20  21
HETATM   21  N   UNL     1     -10.719   2.852 -33.862  1.00  0.00    -0.070 N 
HETATM   22  H   UNL     1      -9.747   2.539 -34.040  1.00  0.00     0.279 HD
BRANCH  21  23
HETATM   23  C   UNL     1     -11.527   1.592 -33.650  1.00  0.00     0.230 C 
HETATM   24  C   UNL     1     -10.654   0.419 -33.238  1.00  0.00     0.034 C 
ENDBRANCH  21  23
BRANCH  21  25
HETATM   25  C   UNL     1     -11.129   3.602 -35.115  1.00  0.00     0.230 C 
HETATM   26  C   UNL     1     -12.364   2.984 -35.745  1.00  0.00     0.034 C 
ENDBRANCH  21  25
ENDBRANCH  20  21
ENDBRANCH  19  20
ENDBRANCH  16  19
ENDBRANCH   2  15
BRANCH   1  27
HETATM   27  C   UNL     1      -5.655   0.206 -33.076  1.00  0.00     0.043 A 
HETATM   28  C   UNL     1      -6.997  -0.167 -33.197  1.00  0.00     0.030 A 
HETATM   29  C   UNL     1      -7.358  -1.376 -33.811  1.00  0.00     0.009 A 
HETATM   30  C   UNL     1      -6.381  -2.250 -34.297  1.00  0.00    -0.058 A 
HETATM   31  C   UNL     1      -5.038  -1.900 -34.149  1.00  0.00     0.009 A 
HETATM   32  C   UNL     1      -4.683  -0.690 -33.544  1.00  0.00     0.030 A 
BRANCH  30  33
HETATM   33  C   UNL     1      -6.764  -3.560 -34.940  1.00  0.00     0.034 C 
HETATM   34  C   UNL     1      -5.675  -4.615 -34.798  1.00  0.00     0.010 C 
ENDBRANCH  30  33
ENDBRANCH   1  27
TORSDOF 9
ENDMDL
MODEL 3
REMARK VINA RESULT:      -7.9      1.926      7.069
REMARK  9 active torsions:
REMARK  status: ('A' for Active; 'I' for Inactive)
REMARK    1  A    between atoms: C_2  and  C_3 
REMARK    2  A    between atoms: C_6  and  N_7 
REMARK    3  A    between atoms: C_8  and  O_9 
REMARK    4  A    between atoms: C_8  and  C_10 
REMARK       I    between atoms: C_10  and  N_11 
REMARK    5  A    between atoms: N_11  and  C_12 
REMARK    6  A    between atoms: C_12  and  C_13 
REMARK    7  A    between atoms: C_13  and  N_14 
REMARK    8  A    between atoms: N_14  and  C_16 
REMARK    9  A    between atoms: N_14  and  C_18 
ROOT
HETATM    1  N   UNL     1      -9.031   1.438 -32.739  1.00  0.00    -0.254 N 
HETATM    2  C   UNL     1      -7.962   1.333 -33.739  1.00  0.00     0.256 C 
HETATM    3  C   UNL     1      -6.862   0.421 -33.267  1.00  0.00     0.034 A 
HETATM    4  C   UNL     1      -6.594   0.425 -31.896  1.00  0.00     0.048 A 
HETATM    5  N   UNL     1      -7.394   1.219 -31.072  1.00  0.00    -0.308 N 
HETATM    6  C   UNL     1      -8.622   1.729 -31.438  1.00  0.00     0.330 C 
HETATM    7  O   UNL     1      -9.261   2.358 -30.596  1.00  0.00    -0.246 OA
HETATM    8  C   UNL     1      -6.061  -0.350 -34.117  1.00  0.00     0.015 A 
HETATM    9  C   UNL     1      -5.009  -1.100 -33.592  1.00  0.00     0.001 A 
HETATM   10  C   UNL     1      -4.744  -1.075 -32.223  1.00  0.00     0.002 A 
HETATM   11  C   UNL     1      -5.534  -0.305 -31.368  1.00  0.00     0.030 A 
HETATM   12  H   UNL     1      -7.203   1.261 -30.077  1.00  0.00     0.170 HD
ENDROOT
BRANCH   2  13
HETATM   13  O   UNL     1      -8.425   0.918 -35.021  1.00  0.00    -0.359 OA
HETATM   14  H   UNL     1      -9.383   0.764 -34.916  1.00  0.00     0.213 HD
ENDBRANCH   2  13
BRANCH   2  15
HETATM   15  C   UNL     1      -7.492   2.838 -33.966  1.00  0.00     0.279 C 
HETATM   16  N   UNL     1      -6.146   3.143 -33.910  1.00  0.00    -0.355 N 
HETATM   17  H   UNL     1      -5.504   2.359 -33.992  1.00  0.00     0.162 HD
HETATM   18  O   UNL     1      -8.315   3.761 -34.037  1.00  0.00    -0.268 OA
BRANCH  16  19
HETATM   19  C   UNL     1      -5.569   4.445 -34.239  1.00  0.00     0.150 C 
BRANCH  19  20
HETATM   20  C   UNL     1      -4.968   5.308 -33.106  1.00  0.00     0.254 C 
BRANCH  20  21
HETATM   21  N   UNL     1      -3.467   5.154 -32.936  1.00  0.00    -0.070 N 
HETATM   22  H   UNL     1      -3.293   5.589 -32.011  1.00  0.00     0.279 HD
BRANCH  21  23
HETATM   23  C   UNL     1      -2.951   3.737 -32.829  1.00  0.00     0.230 C 
HETATM   24  C   UNL     1      -3.321   3.095 -31.503  1.00  0.00     0.034 C 
ENDBRANCH  21  23
BRANCH  21  25
HETATM   25  C   UNL     1      -2.672   5.990 -33.921  1.00  0.00     0.230 C 
HETATM   26  C   UNL     1      -1.890   5.112 -34.881  1.00  0.00     0.034 C 
ENDBRANCH  21  25
ENDBRANCH  20  21
ENDBRANCH  19  20
ENDBRANCH  16  19
ENDBRANCH   2  15
BRANCH   1  27
HETATM   27  C   UNL     1     -10.416   1.319 -33.072  1.00  0.00     0.043 A 
HETATM   28  C   UNL     1     -11.052   0.077 -33.170  1.00  0.00     0.030 A 
HETATM   29  C   UNL     1     -12.404  -0.015 -33.530  1.00  0.00     0.009 A 
HETATM   30  C   UNL     1     -13.145   1.133 -33.825  1.00  0.00    -0.058 A 
HETATM   31  C   UNL     1     -12.508   2.374 -33.762  1.00  0.00     0.009 A 
HETATM   32  C   UNL     1     -11.162   2.462 -33.394  1.00  0.00     0.030 A 
BRANCH  30  33
HETATM   33  C   UNL     1     -14.595   1.037 -34.232  1.00  0.00     0.034 C 
HETATM   34  C   UNL     1     -15.531   1.616 -33.180  1.00  0.00     0.010 C 
ENDBRANCH  30  33
ENDBRANCH   1  27
TORSDOF 9
ENDMDL
MODEL 4
REMARK VINA RESULT:      -7.7      2.398      6.237
REMARK  9 active torsions:
REMARK  status: ('A' for Active; 'I' for Inactive)
REMARK    1  A    between atoms: C_2  and  C_3 
REMARK    2  A    between atoms: C_6  and  N_7 
REMARK    3  A    between atoms: C_8  and  O_9 
REMARK    4  A    between atoms: C_8  and  C_10 
REMARK       I    between atoms: C_10  and  N_11 
REMARK    5  A    between atoms: N_11  and  C_12 
REMARK    6  A    between atoms: C_12  and  C_13 
REMARK    7  A    between atoms: C_13  and  N_14 
REMARK    8  A    between atoms: N_14  and  C_16 
REMARK    9  A    between atoms: N_14  and  C_18 
ROOT
HETATM    1  N   UNL     1      -4.958   3.024 -32.743  1.00  0.00    -0.254 N 
HETATM    2  C   UNL     1      -5.077   1.728 -32.067  1.00  0.00     0.256 C 
HETATM    3  C   UNL     1      -5.440   0.637 -33.038  1.00  0.00     0.034 A 
HETATM    4  C   UNL     1      -6.278   0.999 -34.096  1.00  0.00     0.048 A 
HETATM    5  N   UNL     1      -6.661   2.338 -34.203  1.00  0.00    -0.308 N 
HETATM    6  C   UNL     1      -6.024   3.383 -33.567  1.00  0.00     0.330 C 
HETATM    7  O   UNL     1      -6.417   4.525 -33.797  1.00  0.00    -0.246 OA
HETATM    8  C   UNL     1      -5.060  -0.702 -32.896  1.00  0.00     0.015 A 
HETATM    9  C   UNL     1      -5.518  -1.656 -33.804  1.00  0.00     0.001 A 
HETATM   10  C   UNL     1      -6.365  -1.283 -34.847  1.00  0.00     0.002 A 
HETATM   11  C   UNL     1      -6.755   0.049 -34.993  1.00  0.00     0.030 A 
HETATM   12  H   UNL     1      -7.290   2.622 -34.946  1.00  0.00     0.170 HD
ENDROOT
BRANCH   2  13
HETATM   13  O   UNL     1      -3.910   1.361 -31.335  1.00  0.00    -0.359 OA
HETATM   14  H   UNL     1      -3.196   1.931 -31.678  1.00  0.00     0.213 HD
ENDBRANCH   2  13
BRANCH   2  15
HETATM   15  C   UNL     1      -6.178   1.975 -30.941  1.00  0.00     0.279 C 
HETATM   16  N   UNL     1      -6.919   3.141 -30.963  1.00  0.00    -0.355 N 
HETATM   17  H   UNL     1      -6.915   3.659 -31.837  1.00  0.00     0.162 HD
HETATM   18  O   UNL     1      -6.275   1.218 -29.966  1.00  0.00    -0.268 OA
BRANCH  16  19
HETATM   19  C   UNL     1      -8.050   3.429 -30.084  1.00  0.00     0.150 C 
BRANCH  19  20
HETATM   20  C   UNL     1      -9.486   3.270 -30.632  1.00  0.00     0.254 C 
BRANCH  20  21
HETATM   21  N   UNL     1      -9.558   3.051 -32.134  1.00  0.00    -0.070 N 
HETATM   22  H   UNL     1      -8.560   2.983 -32.405  1.00  0.00     0.279 HD
BRANCH  21  23
HETATM   23  C   UNL     1     -10.199   1.759 -32.587  1.00  0.00     0.230 C 
HETATM   24  C   UNL     1      -9.357   0.548 -32.225  1.00  0.00     0.034 C 
ENDBRANCH  21  23
BRANCH  21  25
HETATM   25  C   UNL     1     -10.089   4.259 -32.881  1.00  0.00     0.230 C 
HETATM   26  C   UNL     1     -10.062   4.031 -34.382  1.00  0.00     0.034 C 
ENDBRANCH  21  25
ENDBRANCH  20  21
ENDBRANCH  19  20
ENDBRANCH  16  19
ENDBRANCH   2  15
BRANCH   1  27
HETATM   27  C   UNL     1      -3.856   3.909 -32.530  1.00  0.00     0.043 A 
HETATM   28  C   UNL     1      -3.790   4.758 -31.420  1.00  0.00     0.030 A 
HETATM   29  C   UNL     1      -2.714   5.641 -31.249  1.00  0.00     0.009 A 
HETATM   30  C   UNL     1      -1.689   5.712 -32.198  1.00  0.00    -0.058 A 
HETATM   31  C   UNL     1      -1.766   4.891 -33.325  1.00  0.00     0.009 A 
HETATM   32  C   UNL     1      -2.836   4.006 -33.488  1.00  0.00     0.030 A 
BRANCH  30  33
HETATM   33  C   UNL     1      -0.540   6.673 -32.028  1.00  0.00     0.034 C 
HETATM   34  C   UNL     1       0.429   6.232 -30.940  1.00  0.00     0.010 C 
ENDBRANCH  30  33
ENDBRANCH   1  27
TORSDOF 9
ENDMDL
MODEL 5
REMARK VINA RESULT:      -7.6      1.973      5.534
REMARK  9 active torsions:
REMARK  status: ('A' for Active; 'I' for Inactive)
REMARK    1  A    between atoms: C_2  and  C_3 
REMARK    2  A    between atoms: C_6  and  N_7 
REMARK    3  A    between atoms: C_8  and  O_9 
REMARK    4  A    between atoms: C_8  and  C_10 
REMARK       I    between atoms: C_10  and  N_11 
REMARK    5  A    between atoms: N_11  and  C_12 
REMARK    6  A    between atoms: C_12  and  C_13 
REMARK    7  A    between atoms: C_13  and  N_14 
REMARK    8  A    between atoms: N_14  and  C_16 
REMARK    9  A    between atoms: N_14  and  C_18 
ROOT
HETATM    1  N   UNL     1      -8.207   1.715 -33.453  1.00  0.00    -0.254 N 
HETATM    2  C   UNL     1      -9.435   1.763 -32.651  1.00  0.00     0.256 C 
HETATM    3  C   UNL     1     -10.523   2.518 -33.365  1.00  0.00     0.034 A 
HETATM    4  C   UNL     1     -10.118   3.592 -34.161  1.00  0.00     0.048 A 
HETATM    5  N   UNL     1      -8.749   3.844 -34.278  1.00  0.00    -0.308 N 
HETATM    6  C   UNL     1      -7.761   2.936 -33.959  1.00  0.00     0.330 C 
HETATM    7  O   UNL     1      -6.593   3.255 -34.172  1.00  0.00    -0.246 OA
HETATM    8  C   UNL     1     -11.890   2.258 -33.214  1.00  0.00     0.015 A 
HETATM    9  C   UNL     1     -12.828   3.069 -33.853  1.00  0.00     0.001 A 
HETATM   10  C   UNL     1     -12.409   4.146 -34.633  1.00  0.00     0.002 A 
HETATM   11  C   UNL     1     -11.049   4.417 -34.785  1.00  0.00     0.030 A 
HETATM   12  H   UNL     1      -8.430   4.634 -34.828  1.00  0.00     0.170 HD
ENDROOT
BRANCH   2  13
HETATM   13  O   UNL     1      -9.907   0.476 -32.261  1.00  0.00    -0.359 OA
HETATM   14  H   UNL     1     -10.502   0.634 -31.505  1.00  0.00     0.213 HD
ENDBRANCH   2  13
BRANCH   2  15
HETATM   15  C   UNL     1      -8.980   2.440 -31.282  1.00  0.00     0.279 C 
HETATM   16  N   UNL     1      -7.738   2.139 -30.757  1.00  0.00    -0.355 N 
HETATM   17  H   UNL     1      -7.072   1.713 -31.396  1.00  0.00     0.162 HD
HETATM   18  O   UNL     1      -9.774   3.106 -30.604  1.00  0.00    -0.268 OA
BRANCH  16  19
HETATM   19  C   UNL     1      -7.141   2.792 -29.594  1.00  0.00     0.150 C 
BRANCH  19  20
HETATM   20  C   UNL     1      -5.867   3.646 -29.784  1.00  0.00     0.254 C 
BRANCH  20  21
HETATM   21  N   UNL     1      -5.630   4.101 -31.214  1.00  0.00    -0.070 N 
HETATM   22  H   UNL     1      -6.325   3.550 -31.750  1.00  0.00     0.279 HD
BRANCH  21  23
HETATM   23  C   UNL     1      -5.937   5.552 -31.510  1.00  0.00     0.230 C 
HETATM   24  C   UNL     1      -7.431   5.812 -31.596  1.00  0.00     0.034 C 
ENDBRANCH  21  23
BRANCH  21  25
HETATM   25  C   UNL     1      -4.281   3.669 -31.755  1.00  0.00     0.230 C 
HETATM   26  C   UNL     1      -3.848   2.344 -31.154  1.00  0.00     0.034 C 
ENDBRANCH  21  25
ENDBRANCH  20  21
ENDBRANCH  19  20
ENDBRANCH  16  19
ENDBRANCH   2  15
BRANCH   1  27
HETATM   27  C   UNL     1      -7.463   0.512 -33.657  1.00  0.00     0.043 A 
HETATM   28  C   UNL     1      -6.429   0.125 -32.798  1.00  0.00     0.030 A 
HETATM   29  C   UNL     1      -5.691  -1.043 -33.037  1.00  0.00     0.009 A 
HETATM   30  C   UNL     1      -5.957  -1.840 -34.155  1.00  0.00    -0.058 A 
HETATM   31  C   UNL     1      -6.965  -1.442 -35.035  1.00  0.00     0.009 A 
HETATM   32  C   UNL     1      -7.704  -0.280 -34.788  1.00  0.00     0.030 A 
BRANCH  30  33
HETATM   33  C   UNL     1      -5.153  -3.088 -34.427  1.00  0.00     0.034 C 
HETATM   34  C   UNL     1      -6.009  -4.217 -34.984  1.00  0.00     0.010 C 
ENDBRANCH  30  33
ENDBRANCH   1  27
TORSDOF 9
ENDMDL
MODEL 6
REMARK VINA RESULT:      -7.5      2.664      6.114
REMARK  9 active torsions:
REMARK  status: ('A' for Active; 'I' for Inactive)
REMARK    1  A    between atoms: C_2  and  C_3 
REMARK    2  A    between atoms: C_6  and  N_7 
REMARK    3  A    between atoms: C_8  and  O_9 
REMARK    4  A    between atoms: C_8  and  C_10 
REMARK       I    between atoms: C_10  and  N_11 
REMARK    5  A    between atoms: N_11  and  C_12 
REMARK    6  A    between atoms: C_12  and  C_13 
REMARK    7  A    between atoms: C_13  and  N_14 
REMARK    8  A    between atoms: N_14  and  C_16 
REMARK    9  A    between atoms: N_14  and  C_18 
ROOT
HETATM    1  N   UNL     1      -6.779   1.645 -32.970  1.00  0.00    -0.254 N 
HETATM    2  C   UNL     1      -7.146   1.960 -31.585  1.00  0.00     0.256 C 
HETATM    3  C   UNL     1      -8.380   2.820 -31.530  1.00  0.00     0.034 A 
HETATM    4  C   UNL     1      -8.542   3.743 -32.566  1.00  0.00     0.048 A 
HETATM    5  N   UNL     1      -7.593   3.756 -33.590  1.00  0.00    -0.308 N 
HETATM    6  C   UNL     1      -6.709   2.729 -33.845  1.00  0.00     0.330 C 
HETATM    7  O   UNL     1      -5.968   2.833 -34.820  1.00  0.00    -0.246 OA
HETATM    8  C   UNL     1      -9.305   2.801 -30.480  1.00  0.00     0.015 A 
HETATM    9  C   UNL     1     -10.373   3.698 -30.478  1.00  0.00     0.001 A 
HETATM   10  C   UNL     1     -10.516   4.622 -31.512  1.00  0.00     0.002 A 
HETATM   11  C   UNL     1      -9.595   4.653 -32.559  1.00  0.00     0.030 A 
HETATM   12  H   UNL     1      -7.674   4.434 -34.340  1.00  0.00     0.170 HD
ENDROOT
BRANCH   2  13
HETATM   13  O   UNL     1      -7.318   0.805 -30.768  1.00  0.00    -0.359 OA
HETATM   14  H   UNL     1      -6.508   0.275 -30.891  1.00  0.00     0.213 HD
ENDBRANCH   2  13
BRANCH   2  15
HETATM   15  C   UNL     1      -5.847   2.666 -30.990  1.00  0.00     0.279 C 
HETATM   16  N   UNL     1      -4.611   2.385 -31.539  1.00  0.00    -0.355 N 
HETATM   17  H   UNL     1      -4.616   1.953 -32.459  1.00  0.00     0.162 HD
HETATM   18  O   UNL     1      -5.905   3.338 -29.951  1.00  0.00    -0.268 OA
BRANCH  16  19
HETATM   19  C   UNL     1      -3.366   3.065 -31.188  1.00  0.00     0.150 C 
BRANCH  19  20
HETATM   20  C   UNL     1      -3.160   4.531 -31.632  1.00  0.00     0.254 C 
BRANCH  20  21
HETATM   21  N   UNL     1      -3.041   4.715 -33.135  1.00  0.00    -0.070 N 
HETATM   22  H   UNL     1      -3.164   3.751 -33.496  1.00  0.00     0.279 HD
BRANCH  21  23
HETATM   23  C   UNL     1      -4.124   5.542 -33.790  1.00  0.00     0.230 C 
HETATM   24  C   UNL     1      -5.080   6.139 -32.772  1.00  0.00     0.034 C 
ENDBRANCH  21  23
BRANCH  21  25
HETATM   25  C   UNL     1      -1.649   5.127 -33.571  1.00  0.00     0.230 C 
HETATM   26  C   UNL     1      -0.765   5.427 -32.374  1.00  0.00     0.034 C 
ENDBRANCH  21  25
ENDBRANCH  20  21
ENDBRANCH  19  20
ENDBRANCH  16  19
ENDBRANCH   2  15
BRANCH   1  27
HETATM   27  C   UNL     1      -6.445   0.323 -33.400  1.00  0.00     0.043 A 
HETATM   28  C   UNL     1      -5.153  -0.195 -33.268  1.00  0.00     0.030 A 
HETATM   29  C   UNL     1      -4.841  -1.483 -33.727  1.00  0.00     0.009 A 
HETATM   30  C   UNL     1      -5.811  -2.275 -34.350  1.00  0.00    -0.058 A 
HETATM   31  C   UNL     1      -7.095  -1.751 -34.515  1.00  0.00     0.009 A 
HETATM   32  C   UNL     1      -7.403  -0.469 -34.049  1.00  0.00     0.030 A 
BRANCH  30  33
HETATM   33  C   UNL     1      -5.476  -3.653 -34.862  1.00  0.00     0.034 C 
HETATM   34  C   UNL     1      -6.716  -4.440 -35.262  1.00  0.00     0.010 C 
ENDBRANCH  30  33
ENDBRANCH   1  27
TORSDOF 9
ENDMDL
MODEL 7
REMARK VINA RESULT:      -7.2      3.624      7.566
REMARK  9 active torsions:
REMARK  status: ('A' for Active; 'I' for Inactive)
REMARK    1  A    between atoms: C_2  and  C_3 
REMARK    2  A    between atoms: C_6  and  N_7 
REMARK    3  A    between atoms: C_8  and  O_9 
REMARK    4  A    between atoms: C_8  and  C_10 
REMARK       I    between atoms: C_10  and  N_11 
REMARK    5  A    between atoms: N_11  and  C_12 
REMARK    6  A    between atoms: C_12  and  C_13 
REMARK    7  A    between atoms: C_13  and  N_14 
REMARK    8  A    between atoms: N_14  and  C_16 
REMARK    9  A    between atoms: N_14  and  C_18 
ROOT
HETATM    1  N   UNL     1      -4.972   3.563 -32.844  1.00  0.00    -0.254 N 
HETATM    2  C   UNL     1      -5.347   2.409 -32.020  1.00  0.00     0.256 C 
HETATM    3  C   UNL     1      -5.717   1.226 -32.874  1.00  0.00     0.034 A 
HETATM    4  C   UNL     1      -6.352   1.507 -34.085  1.00  0.00     0.048 A 
HETATM    5  N   UNL     1      -6.541   2.846 -34.434  1.00  0.00    -0.308 N 
HETATM    6  C   UNL     1      -5.864   3.902 -33.862  1.00  0.00     0.330 C 
HETATM    7  O   UNL     1      -6.070   5.030 -34.305  1.00  0.00    -0.246 OA
HETATM    8  C   UNL     1      -5.535  -0.108 -32.491  1.00  0.00     0.015 A 
HETATM    9  C   UNL     1      -5.989  -1.137 -33.315  1.00  0.00     0.001 A 
HETATM   10  C   UNL     1      -6.634  -0.841 -34.516  1.00  0.00     0.002 A 
HETATM   11  C   UNL     1      -6.825   0.485 -34.903  1.00  0.00     0.030 A 
HETATM   12  H   UNL     1      -7.023   3.076 -35.296  1.00  0.00     0.170 HD
ENDROOT
BRANCH   2  13
HETATM   13  O   UNL     1      -4.346   2.037 -31.076  1.00  0.00    -0.359 OA
HETATM   14  H   UNL     1      -3.832   1.328 -31.506  1.00  0.00     0.213 HD
ENDBRANCH   2  13
BRANCH   2  15
HETATM   15  C   UNL     1      -6.547   2.947 -31.119  1.00  0.00     0.279 C 
HETATM   16  N   UNL     1      -6.265   3.682 -29.984  1.00  0.00    -0.355 N 
HETATM   17  H   UNL     1      -5.327   4.069 -29.920  1.00  0.00     0.162 HD
HETATM   18  O   UNL     1      -7.714   2.592 -31.331  1.00  0.00    -0.268 OA
BRANCH  16  19
HETATM   19  C   UNL     1      -7.262   4.353 -29.153  1.00  0.00     0.150 C 
BRANCH  19  20
HETATM   20  C   UNL     1      -7.712   5.783 -29.527  1.00  0.00     0.254 C 
BRANCH  20  21
HETATM   21  N   UNL     1      -6.605   6.821 -29.462  1.00  0.00    -0.070 N 
HETATM   22  H   UNL     1      -5.845   6.383 -30.015  1.00  0.00     0.279 HD
BRANCH  21  23
HETATM   23  C   UNL     1      -6.893   8.145 -30.133  1.00  0.00     0.230 C 
HETATM   24  C   UNL     1      -5.794   8.544 -31.102  1.00  0.00     0.034 C 
ENDBRANCH  21  23
BRANCH  21  25
HETATM   25  C   UNL     1      -6.033   6.987 -28.068  1.00  0.00     0.230 C 
HETATM   26  C   UNL     1      -4.539   6.719 -28.052  1.00  0.00     0.034 C 
ENDBRANCH  21  25
ENDBRANCH  20  21
ENDBRANCH  19  20
ENDBRANCH  16  19
ENDBRANCH   2  15
BRANCH   1  27
HETATM   27  C   UNL     1      -3.802   4.345 -32.592  1.00  0.00     0.043 A 
HETATM   28  C   UNL     1      -2.592   4.104 -33.250  1.00  0.00     0.030 A 
HETATM   29  C   UNL     1      -1.449   4.864 -32.962  1.00  0.00     0.009 A 
HETATM   30  C   UNL     1      -1.485   5.869 -31.991  1.00  0.00    -0.058 A 
HETATM   31  C   UNL     1      -2.681   6.094 -31.307  1.00  0.00     0.009 A 
HETATM   32  C   UNL     1      -3.821   5.339 -31.603  1.00  0.00     0.030 A 
BRANCH  30  33
HETATM   33  C   UNL     1      -0.254   6.677 -31.665  1.00  0.00     0.034 C 
HETATM   34  C   UNL     1      -0.225   7.127 -30.210  1.00  0.00     0.010 C 
ENDBRANCH  30  33
ENDBRANCH   1  27
TORSDOF 9
ENDMDL
MODEL 8
REMARK VINA RESULT:      -7.1      3.590      8.718
REMARK  9 active torsions:
REMARK  status: ('A' for Active; 'I' for Inactive)
REMARK    1  A    between atoms: C_2  and  C_3 
REMARK    2  A    between atoms: C_6  and  N_7 
REMARK    3  A    between atoms: C_8  and  O_9 
REMARK    4  A    between atoms: C_8  and  C_10 
REMARK       I    between atoms: C_10  and  N_11 
REMARK    5  A    between atoms: N_11  and  C_12 
REMARK    6  A    between atoms: C_12  and  C_13 
REMARK    7  A    between atoms: C_13  and  N_14 
REMARK    8  A    between atoms: N_14  and  C_16 
REMARK    9  A    between atoms: N_14  and  C_18 
ROOT
HETATM    1  N   UNL     1      -6.403   2.252 -31.152  1.00  0.00    -0.254 N 
HETATM    2  C   UNL     1      -5.969   2.370 -32.548  1.00  0.00     0.256 C 
HETATM    3  C   UNL     1      -6.437   1.197 -33.366  1.00  0.00     0.034 A 
HETATM    4  C   UNL     1      -6.493  -0.036 -32.711  1.00  0.00     0.048 A 
HETATM    5  N   UNL     1      -6.173  -0.074 -31.353  1.00  0.00    -0.308 N 
HETATM    6  C   UNL     1      -6.134   1.032 -30.530  1.00  0.00     0.330 C 
HETATM    7  O   UNL     1      -5.905   0.857 -29.336  1.00  0.00    -0.246 OA
HETATM    8  C   UNL     1      -6.733   1.258 -34.733  1.00  0.00     0.015 A 
HETATM    9  C   UNL     1      -7.077   0.097 -35.423  1.00  0.00     0.001 A 
HETATM   10  C   UNL     1      -7.117  -1.129 -34.760  1.00  0.00     0.002 A 
HETATM   11  C   UNL     1      -6.817  -1.201 -33.399  1.00  0.00     0.030 A 
HETATM   12  H   UNL     1      -6.180  -0.961 -30.860  1.00  0.00     0.170 HD
ENDROOT
BRANCH   2  13
HETATM   13  O   UNL     1      -6.373   3.589 -33.166  1.00  0.00    -0.359 OA
HETATM   14  H   UNL     1      -7.341   3.632 -33.051  1.00  0.00     0.213 HD
ENDBRANCH   2  13
BRANCH   2  15
HETATM   15  C   UNL     1      -4.382   2.491 -32.454  1.00  0.00     0.279 C 
HETATM   16  N   UNL     1      -3.797   3.743 -32.455  1.00  0.00    -0.355 N 
HETATM   17  H   UNL     1      -4.412   4.526 -32.248  1.00  0.00     0.162 HD
HETATM   18  O   UNL     1      -3.659   1.489 -32.535  1.00  0.00    -0.268 OA
BRANCH  16  19
HETATM   19  C   UNL     1      -2.377   4.002 -32.231  1.00  0.00     0.150 C 
BRANCH  19  20
HETATM   20  C   UNL     1      -1.915   5.447 -31.934  1.00  0.00     0.254 C 
BRANCH  20  21
HETATM   21  N   UNL     1      -1.263   5.625 -30.574  1.00  0.00    -0.070 N 
HETATM   22  H   UNL     1      -1.485   4.734 -30.093  1.00  0.00     0.279 HD
BRANCH  21  23
HETATM   23  C   UNL     1       0.245   5.733 -30.568  1.00  0.00     0.230 C 
HETATM   24  C   UNL     1       0.886   4.710 -29.648  1.00  0.00     0.034 C 
ENDBRANCH  21  23
BRANCH  21  25
HETATM   25  C   UNL     1      -1.927   6.701 -29.737  1.00  0.00     0.230 C 
HETATM   26  C   UNL     1      -1.073   7.954 -29.675  1.00  0.00     0.034 C 
ENDBRANCH  21  25
ENDBRANCH  20  21
ENDBRANCH  19  20
ENDBRANCH  16  19
ENDBRANCH   2  15
BRANCH   1  27
HETATM   27  C   UNL     1      -7.004   3.333 -30.435  1.00  0.00     0.043 A 
HETATM   28  C   UNL     1      -8.370   3.618 -30.531  1.00  0.00     0.030 A 
HETATM   29  C   UNL     1      -8.931   4.704 -29.843  1.00  0.00     0.009 A 
HETATM   30  C   UNL     1      -8.132   5.545 -29.062  1.00  0.00    -0.058 A 
HETATM   31  C   UNL     1      -6.762   5.286 -28.989  1.00  0.00     0.009 A 
HETATM   32  C   UNL     1      -6.208   4.197 -29.670  1.00  0.00     0.030 A 
BRANCH  30  33
HETATM   33  C   UNL     1      -8.728   6.725 -28.336  1.00  0.00     0.034 C 
HETATM   34  C   UNL     1      -9.754   7.467 -29.182  1.00  0.00     0.010 C 
ENDBRANCH  30  33
ENDBRANCH   1  27
TORSDOF 9
ENDMDL
MODEL 9
REMARK VINA RESULT:      -7.1      2.492      5.710
REMARK  9 active torsions:
REMARK  status: ('A' for Active; 'I' for Inactive)
REMARK    1  A    between atoms: C_2  and  C_3 
REMARK    2  A    between atoms: C_6  and  N_7 
REMARK    3  A    between atoms: C_8  and  O_9 
REMARK    4  A    between atoms: C_8  and  C_10 
REMARK       I    between atoms: C_10  and  N_11 
REMARK    5  A    between atoms: N_11  and  C_12 
REMARK    6  A    between atoms: C_12  and  C_13 
REMARK    7  A    between atoms: C_13  and  N_14 
REMARK    8  A    between atoms: N_14  and  C_16 
REMARK    9  A    between atoms: N_14  and  C_18 
ROOT
HETATM    1  N   UNL     1      -8.338   1.902 -33.403  1.00  0.00    -0.254 N 
HETATM    2  C   UNL     1      -9.579   1.962 -32.623  1.00  0.00     0.256 C 
HETATM    3  C   UNL     1     -10.635   2.758 -33.340  1.00  0.00     0.034 A 
HETATM    4  C   UNL     1     -10.189   3.839 -34.104  1.00  0.00     0.048 A 
HETATM    5  N   UNL     1      -8.813   4.060 -34.191  1.00  0.00    -0.308 N 
HETATM    6  C   UNL     1      -7.853   3.122 -33.874  1.00  0.00     0.330 C 
HETATM    7  O   UNL     1      -6.674   3.416 -34.060  1.00  0.00    -0.246 OA
HETATM    8  C   UNL     1     -12.011   2.529 -33.219  1.00  0.00     0.015 A 
HETATM    9  C   UNL     1     -12.917   3.376 -33.856  1.00  0.00     0.001 A 
HETATM   10  C   UNL     1     -12.458   4.459 -34.605  1.00  0.00     0.002 A 
HETATM   11  C   UNL     1     -11.089   4.700 -34.726  1.00  0.00     0.030 A 
HETATM   12  H   UNL     1      -8.465   4.853 -34.718  1.00  0.00     0.170 HD
ENDROOT
BRANCH   2  13
HETATM   13  O   UNL     1     -10.089   0.679 -32.270  1.00  0.00    -0.359 OA
HETATM   14  H   UNL     1     -11.032   0.820 -32.065  1.00  0.00     0.213 HD
ENDBRANCH   2  13
BRANCH   2  15
HETATM   15  C   UNL     1      -9.133   2.598 -31.231  1.00  0.00     0.279 C 
HETATM   16  N   UNL     1      -7.869   2.334 -30.739  1.00  0.00    -0.355 N 
HETATM   17  H   UNL     1      -7.195   1.970 -31.407  1.00  0.00     0.162 HD
HETATM   18  O   UNL     1      -9.945   3.195 -30.512  1.00  0.00    -0.268 OA
BRANCH  16  19
HETATM   19  C   UNL     1      -7.284   2.963 -29.557  1.00  0.00     0.150 C 
BRANCH  19  20
HETATM   20  C   UNL     1      -6.781   4.421 -29.653  1.00  0.00     0.254 C 
BRANCH  20  21
HETATM   21  N   UNL     1      -7.255   5.319 -28.523  1.00  0.00    -0.070 N 
HETATM   22  H   UNL     1      -7.489   4.642 -27.774  1.00  0.00     0.279 HD
BRANCH  21  23
HETATM   23  C   UNL     1      -6.218   6.247 -27.932  1.00  0.00     0.230 C 
HETATM   24  C   UNL     1      -4.941   6.271 -28.753  1.00  0.00     0.034 C 
ENDBRANCH  21  23
BRANCH  21  25
HETATM   25  C   UNL     1      -8.558   6.026 -28.839  1.00  0.00     0.230 C 
HETATM   26  C   UNL     1      -8.691   7.312 -28.043  1.00  0.00     0.034 C 
ENDBRANCH  21  25
ENDBRANCH  20  21
ENDBRANCH  19  20
ENDBRANCH  16  19
ENDBRANCH   2  15
BRANCH   1  27
HETATM   27  C   UNL     1      -7.619   0.685 -33.620  1.00  0.00     0.043 A 
HETATM   28  C   UNL     1      -6.661   0.218 -32.714  1.00  0.00     0.030 A 
HETATM   29  C   UNL     1      -5.946  -0.962 -32.964  1.00  0.00     0.009 A 
HETATM   30  C   UNL     1      -6.156  -1.690 -34.140  1.00  0.00    -0.058 A 
HETATM   31  C   UNL     1      -7.086  -1.211 -35.064  1.00  0.00     0.009 A 
HETATM   32  C   UNL     1      -7.804  -0.038 -34.807  1.00  0.00     0.030 A 
BRANCH  30  33
HETATM   33  C   UNL     1      -5.375  -2.949 -34.422  1.00  0.00     0.034 C 
HETATM   34  C   UNL     1      -6.230  -4.027 -35.073  1.00  0.00     0.010 C 
ENDBRANCH  30  33
ENDBRANCH   1  27
TORSDOF 9
ENDMDL
MODEL 10
REMARK VINA RESULT:      -7.1      2.604      7.137
REMARK  9 active torsions:
REMARK  status: ('A' for Active; 'I' for Inactive)
REMARK    1  A    between atoms: C_2  and  C_3 
REMARK    2  A    between atoms: C_6  and  N_7 
REMARK    3  A    between atoms: C_8  and  O_9 
REMARK    4  A    between atoms: C_8  and  C_10 
REMARK       I    between atoms: C_10  and  N_11 
REMARK    5  A    between atoms: N_11  and  C_12 
REMARK    6  A    between atoms: C_12  and  C_13 
REMARK    7  A    between atoms: C_13  and  N_14 
REMARK    8  A    between atoms: N_14  and  C_16 
REMARK    9  A    between atoms: N_14  and  C_18 
ROOT
HETATM    1  N   UNL     1      -8.100   2.182 -32.304  1.00  0.00    -0.254 N 
HETATM    2  C   UNL     1      -6.835   2.253 -33.045  1.00  0.00     0.256 C 
HETATM    3  C   UNL     1      -5.780   1.391 -32.407  1.00  0.00     0.034 A 
HETATM    4  C   UNL     1      -5.817   1.290 -31.014  1.00  0.00     0.048 A 
HETATM    5  N   UNL     1      -6.849   1.940 -30.334  1.00  0.00    -0.308 N 
HETATM    6  C   UNL     1      -8.012   2.384 -30.927  1.00  0.00     0.330 C 
HETATM    7  O   UNL     1      -8.875   2.881 -30.206  1.00  0.00    -0.246 OA
HETATM    8  C   UNL     1      -4.743   0.766 -33.110  1.00  0.00     0.015 A 
HETATM    9  C   UNL     1      -3.763   0.056 -32.418  1.00  0.00     0.001 A 
HETATM   10  C   UNL     1      -3.804  -0.025 -31.026  1.00  0.00     0.002 A 
HETATM   11  C   UNL     1      -4.830   0.600 -30.317  1.00  0.00     0.030 A 
HETATM   12  H   UNL     1      -6.883   1.905 -29.321  1.00  0.00     0.170 HD
ENDROOT
BRANCH   2  13
HETATM   13  O   UNL     1      -6.968   1.923 -34.425  1.00  0.00    -0.359 OA
HETATM   14  H   UNL     1      -6.437   2.587 -34.904  1.00  0.00     0.213 HD
ENDBRANCH   2  13
BRANCH   2  15
HETATM   15  C   UNL     1      -6.474   3.806 -33.051  1.00  0.00     0.279 C 
HETATM   16  N   UNL     1      -5.525   4.284 -32.169  1.00  0.00    -0.355 N 
HETATM   17  H   UNL     1      -4.915   3.590 -31.746  1.00  0.00     0.162 HD
HETATM   18  O   UNL     1      -7.134   4.612 -33.720  1.00  0.00    -0.268 OA
BRANCH  16  19
HETATM   19  C   UNL     1      -4.998   5.648 -32.166  1.00  0.00     0.150 C 
BRANCH  19  20
HETATM   20  C   UNL     1      -3.474   5.863 -32.029  1.00  0.00     0.254 C 
BRANCH  20  21
HETATM   21  N   UNL     1      -2.827   6.516 -33.238  1.00  0.00    -0.070 N 
HETATM   22  H   UNL     1      -3.376   7.388 -33.351  1.00  0.00     0.279 HD
BRANCH  21  23
HETATM   23  C   UNL     1      -1.390   6.952 -33.069  1.00  0.00     0.230 C 
HETATM   24  C   UNL     1      -1.116   7.484 -31.673  1.00  0.00     0.034 C 
ENDBRANCH  21  23
BRANCH  21  25
HETATM   25  C   UNL     1      -3.053   5.739 -34.520  1.00  0.00     0.230 C 
HETATM   26  C   UNL     1      -1.788   5.023 -34.958  1.00  0.00     0.034 C 
ENDBRANCH  21  25
ENDBRANCH  20  21
ENDBRANCH  19  20
ENDBRANCH  16  19
ENDBRANCH   2  15
BRANCH   1  27
HETATM   27  C   UNL     1      -9.362   1.987 -32.946  1.00  0.00     0.043 A 
HETATM   28  C   UNL     1     -10.069   3.044 -33.529  1.00  0.00     0.030 A 
HETATM   29  C   UNL     1     -11.321   2.834 -34.124  1.00  0.00     0.009 A 
HETATM   30  C   UNL     1     -11.906   1.563 -34.130  1.00  0.00    -0.058 A 
HETATM   31  C   UNL     1     -11.220   0.510 -33.521  1.00  0.00     0.009 A 
HETATM   32  C   UNL     1      -9.968   0.723 -32.935  1.00  0.00     0.030 A 
BRANCH  30  33
HETATM   33  C   UNL     1     -13.260   1.336 -34.752  1.00  0.00     0.034 C 
HETATM   34  C   UNL     1     -14.032   0.217 -34.066  1.00  0.00     0.010 C 
ENDBRANCH  30  33
ENDBRANCH   1  27
TORSDOF 9
ENDMDL
