MODEL 1
REMARK VINA RESULT:      -9.1      0.000      0.000
REMARK  5 active torsions:
REMARK  status: ('A' for Active; 'I' for Inactive)
REMARK    1  A    between atoms: C_5  and  N_6 
REMARK    2  A    between atoms: C_7  and  N_8 
REMARK    3  A    between atoms: N_8  and  N_9 
REMARK    4  A    between atoms: N_13  and  C_14 
REMARK    5  A    between atoms: C_14  and  N_15 
ROOT
HETATM    1  N   UNL     1      -2.768   2.896 -31.526  1.00  0.00    -0.166 NA
HETATM    2  C   UNL     1      -3.754   2.273 -32.085  1.00  0.00     0.157 A 
HETATM    3  C   UNL     1      -5.015   2.831 -32.740  1.00  0.00     0.281 A 
HETATM    4  O   UNL     1      -5.245   4.019 -32.860  1.00  0.00    -0.265 OA
HETATM    5  N   UNL     1      -5.743   1.725 -33.140  1.00  0.00    -0.284 N 
HETATM    6  C   UNL     1      -3.846   0.823 -32.193  1.00  0.00     0.027 A 
HETATM    7  C   UNL     1      -5.048   0.538 -32.836  1.00  0.00     0.052 A 
HETATM    8  C   UNL     1      -5.403  -0.773 -33.088  1.00  0.00     0.031 A 
HETATM    9  C   UNL     1      -4.528  -1.786 -32.673  1.00  0.00     0.002 A 
HETATM   10  C   UNL     1      -3.316  -1.479 -32.022  1.00  0.00     0.001 A 
HETATM   11  C   UNL     1      -2.962  -0.153 -31.775  1.00  0.00     0.016 A 
ENDROOT
BRANCH   1  12
HETATM   12  N   UNL     1      -2.794   4.262 -31.489  1.00  0.00    -0.252 N 
HETATM   13  H   UNL     1      -3.557   4.717 -30.989  1.00  0.00     0.191 HD
BRANCH  12  14
HETATM   14  C   UNL     1      -1.991   4.996 -32.321  1.00  0.00     0.192 C 
HETATM   15  N   UNL     1      -1.136   5.916 -31.792  1.00  0.00    -0.332 N 
HETATM   16  H   UNL     1      -0.742   6.484 -32.532  1.00  0.00     0.168 HD
HETATM   17  S   UNL     1      -1.993   4.888 -34.002  1.00  0.00    -0.039 SA
BRANCH  15  18
HETATM   18  C   UNL     1      -0.599   6.147 -30.505  1.00  0.00     0.040 A 
HETATM   19  C   UNL     1      -0.905   7.379 -29.860  1.00  0.00    -0.029 A 
HETATM   20  C   UNL     1      -0.306   7.687 -28.613  1.00  0.00    -0.054 A 
HETATM   21  C   UNL     1      -1.834   8.376 -30.519  1.00  0.00     0.051 C 
HETATM   22  C   UNL     1      -0.542   8.998 -27.911  1.00  0.00     0.049 C 
HETATM   23  C   UNL     1       0.537   6.750 -28.004  1.00  0.00     0.007 A 
HETATM   24  C   UNL     1       0.828   5.546 -28.633  1.00  0.00     0.003 A 
HETATM   25  C   UNL     1       0.283   5.257 -29.884  1.00  0.00     0.030 A 
ENDBRANCH  15  18
ENDBRANCH  12  14
ENDBRANCH   1  12
BRANCH   5  26
HETATM   26  C   UNL     1      -6.984   1.795 -33.866  1.00  0.00     0.405 C 
BRANCH  26  27
HETATM   27  N   UNL     1      -8.057   2.269 -32.990  1.00  0.00     0.106 N 
HETATM   28  C   UNL     1      -9.267   2.678 -33.722  1.00  0.00     0.274 C 
HETATM   29  C   UNL     1     -10.091   1.511 -34.277  1.00  0.00     0.030 C 
HETATM   30  C   UNL     1     -10.418   0.493 -33.189  1.00  0.00     0.003 C 
HETATM   31  C   UNL     1      -9.156   0.073 -32.443  1.00  0.00     0.030 C 
HETATM   32  C   UNL     1      -8.385   1.295 -31.941  1.00  0.00     0.274 C 
ENDBRANCH  26  27
ENDBRANCH   5  26
TORSDOF 5
ENDMDL
MODEL 2
REMARK VINA RESULT:      -9.0      1.618      3.558
REMARK  5 active torsions:
REMARK  status: ('A' for Active; 'I' for Inactive)
REMARK    1  A    between atoms: C_5  and  N_6 
REMARK    2  A    between atoms: C_7  and  N_8 
REMARK    3  A    between atoms: N_8  and  N_9 
REMARK    4  A    between atoms: N_13  and  C_14 
REMARK    5  A    between atoms: C_14  and  N_15 
ROOT
HETATM    1  N   UNL     1      -4.390   3.944 -30.948  1.00  0.00    -0.166 NA
HETATM    2  C   UNL     1      -5.037   2.869 -31.262  1.00  0.00     0.157 A 
HETATM    3  C   UNL     1      -4.512   1.521 -31.750  1.00  0.00     0.281 A 
HETATM    4  O   UNL     1      -3.332   1.261 -31.874  1.00  0.00    -0.265 OA
HETATM    5  N   UNL     1      -5.636   0.746 -31.970  1.00  0.00    -0.284 N 
HETATM    6  C   UNL     1      -6.488   2.746 -31.208  1.00  0.00     0.027 A 
HETATM    7  C   UNL     1      -6.803   1.458 -31.632  1.00  0.00     0.052 A 
HETATM    8  C   UNL     1      -8.122   1.049 -31.676  1.00  0.00     0.031 A 
HETATM    9  C   UNL     1      -9.111   1.964 -31.290  1.00  0.00     0.002 A 
HETATM   10  C   UNL     1      -8.774   3.263 -30.863  1.00  0.00     0.001 A 
HETATM   11  C   UNL     1      -7.440   3.669 -30.818  1.00  0.00     0.016 A 
ENDROOT
BRANCH   1  12
HETATM   12  N   UNL     1      -3.026   3.935 -31.037  1.00  0.00    -0.252 N 
HETATM   13  H   UNL     1      -2.493   3.543 -30.262  1.00  0.00     0.191 HD
BRANCH  12  14
HETATM   14  C   UNL     1      -2.388   4.673 -31.999  1.00  0.00     0.192 C 
HETATM   15  N   UNL     1      -1.506   5.643 -31.628  1.00  0.00    -0.332 N 
HETATM   16  H   UNL     1      -1.251   6.202 -32.434  1.00  0.00     0.168 HD
HETATM   17  S   UNL     1      -2.634   4.511 -33.658  1.00  0.00    -0.039 SA
BRANCH  15  18
HETATM   18  C   UNL     1      -0.795   5.937 -30.443  1.00  0.00     0.040 A 
HETATM   19  C   UNL     1      -1.005   7.204 -29.829  1.00  0.00    -0.029 A 
HETATM   20  C   UNL     1      -0.238   7.573 -28.696  1.00  0.00    -0.054 A 
HETATM   21  C   UNL     1      -2.014   8.174 -30.406  1.00  0.00     0.051 C 
HETATM   22  C   UNL     1      -0.371   8.921 -28.039  1.00  0.00     0.049 C 
HETATM   23  C   UNL     1       0.680   6.660 -28.159  1.00  0.00     0.007 A 
HETATM   24  C   UNL     1       0.877   5.422 -28.757  1.00  0.00     0.003 A 
HETATM   25  C   UNL     1       0.163   5.072 -29.903  1.00  0.00     0.030 A 
ENDBRANCH  15  18
ENDBRANCH  12  14
ENDBRANCH   1  12
BRANCH   5  26
HETATM   26  C   UNL     1      -5.598  -0.635 -32.378  1.00  0.00     0.405 C 
BRANCH  26  27
HETATM   27  N   UNL     1      -5.268  -0.732 -33.801  1.00  0.00     0.106 N 
HETATM   28  C   UNL     1      -4.161  -1.661 -34.078  1.00  0.00     0.274 C 
HETATM   29  C   UNL     1      -4.536  -3.142 -33.955  1.00  0.00     0.030 C 
HETATM   30  C   UNL     1      -5.764  -3.477 -34.793  1.00  0.00     0.003 C 
HETATM   31  C   UNL     1      -6.906  -2.512 -34.493  1.00  0.00     0.030 C 
HETATM   32  C   UNL     1      -6.442  -1.060 -34.620  1.00  0.00     0.274 C 
ENDBRANCH  26  27
ENDBRANCH   5  26
TORSDOF 5
ENDMDL
MODEL 3
REMARK VINA RESULT:      -8.6      2.295      8.791
REMARK  5 active torsions:
REMARK  status: ('A' for Active; 'I' for Inactive)
REMARK    1  A    between atoms: C_5  and  N_6 
REMARK    2  A    between atoms: C_7  and  N_8 
REMARK    3  A    between atoms: N_8  and  N_9 
REMARK    4  A    between atoms: N_13  and  C_14 
REMARK    5  A    between atoms: C_14  and  N_15 
ROOT
HETATM    1  N   UNL     1      -4.747   3.814 -32.520  1.00  0.00    -0.166 NA
HETATM    2  C   UNL     1      -3.935   4.766 -32.197  1.00  0.00     0.157 A 
HETATM    3  C   UNL     1      -3.870   5.601 -30.920  1.00  0.00     0.281 A 
HETATM    4  O   UNL     1      -4.603   5.433 -29.965  1.00  0.00    -0.265 OA
HETATM    5  N   UNL     1      -2.837   6.499 -31.118  1.00  0.00    -0.284 N 
HETATM    6  C   UNL     1      -2.864   5.253 -33.056  1.00  0.00     0.027 A 
HETATM    7  C   UNL     1      -2.228   6.284 -32.370  1.00  0.00     0.052 A 
HETATM    8  C   UNL     1      -1.153   6.935 -32.944  1.00  0.00     0.031 A 
HETATM    9  C   UNL     1      -0.740   6.531 -34.221  1.00  0.00     0.002 A 
HETATM   10  C   UNL     1      -1.397   5.486 -34.901  1.00  0.00     0.001 A 
HETATM   11  C   UNL     1      -2.478   4.830 -34.314  1.00  0.00     0.016 A 
ENDROOT
BRANCH   1  12
HETATM   12  N   UNL     1      -5.712   3.444 -31.626  1.00  0.00    -0.252 N 
HETATM   13  H   UNL     1      -5.449   3.340 -30.647  1.00  0.00     0.191 HD
BRANCH  12  14
HETATM   14  C   UNL     1      -6.917   2.962 -32.063  1.00  0.00     0.192 C 
HETATM   15  N   UNL     1      -6.975   1.743 -32.669  1.00  0.00    -0.332 N 
HETATM   16  H   UNL     1      -7.891   1.606 -33.079  1.00  0.00     0.168 HD
HETATM   17  S   UNL     1      -8.382   3.788 -31.951  1.00  0.00    -0.039 SA
BRANCH  15  18
HETATM   18  C   UNL     1      -6.117   0.622 -32.726  1.00  0.00     0.040 A 
HETATM   19  C   UNL     1      -6.251  -0.272 -33.826  1.00  0.00    -0.029 A 
HETATM   20  C   UNL     1      -5.476  -1.458 -33.867  1.00  0.00    -0.054 A 
HETATM   21  C   UNL     1      -7.246   0.019 -34.929  1.00  0.00     0.051 C 
HETATM   22  C   UNL     1      -5.616  -2.473 -34.971  1.00  0.00     0.049 C 
HETATM   23  C   UNL     1      -4.545  -1.707 -32.850  1.00  0.00     0.007 A 
HETATM   24  C   UNL     1      -4.413  -0.829 -31.782  1.00  0.00     0.003 A 
HETATM   25  C   UNL     1      -5.208   0.314 -31.709  1.00  0.00     0.030 A 
ENDBRANCH  15  18
ENDBRANCH  12  14
ENDBRANCH   1  12
BRANCH   5  26
HETATM   26  C   UNL     1      -2.384   7.441 -30.128  1.00  0.00     0.405 C 
BRANCH  26  27
HETATM   27  N   UNL     1      -1.709   6.741 -29.035  1.00  0.00     0.106 N 
HETATM   28  C   UNL     1      -0.367   6.257 -29.395  1.00  0.00     0.274 C 
HETATM   29  C   UNL     1       0.695   7.357 -29.488  1.00  0.00     0.030 C 
HETATM   30  C   UNL     1       0.733   8.203 -28.220  1.00  0.00     0.003 C 
HETATM   31  C   UNL     1      -0.661   8.704 -27.860  1.00  0.00     0.030 C 
HETATM   32  C   UNL     1      -1.661   7.548 -27.808  1.00  0.00     0.274 C 
ENDBRANCH  26  27
ENDBRANCH   5  26
TORSDOF 5
ENDMDL
MODEL 4
REMARK VINA RESULT:      -8.6      3.101      5.158
REMARK  5 active torsions:
REMARK  status: ('A' for Active; 'I' for Inactive)
REMARK    1  A    between atoms: C_5  and  N_6 
REMARK    2  A    between atoms: C_7  and  N_8 
REMARK    3  A    between atoms: N_8  and  N_9 
REMARK    4  A    between atoms: N_13  and  C_14 
REMARK    5  A    between atoms: C_14  and  N_15 
ROOT
HETATM    1  N   UNL     1      -7.233   3.560 -30.314  1.00  0.00    -0.166 NA
HETATM    2  C   UNL     1      -7.377   2.485 -31.017  1.00  0.00     0.157 A 
HETATM    3  C   UNL     1      -6.427   1.304 -31.199  1.00  0.00     0.281 A 
HETATM    4  O   UNL     1      -5.356   1.205 -30.634  1.00  0.00    -0.265 OA
HETATM    5  N   UNL     1      -7.065   0.450 -32.081  1.00  0.00    -0.284 N 
HETATM    6  C   UNL     1      -8.555   2.188 -31.821  1.00  0.00     0.027 A 
HETATM    7  C   UNL     1      -8.330   0.959 -32.435  1.00  0.00     0.052 A 
HETATM    8  C   UNL     1      -9.292   0.412 -33.262  1.00  0.00     0.031 A 
HETATM    9  C   UNL     1     -10.479   1.132 -33.460  1.00  0.00     0.002 A 
HETATM   10  C   UNL     1     -10.689   2.375 -32.831  1.00  0.00     0.001 A 
HETATM   11  C   UNL     1      -9.715   2.919 -31.995  1.00  0.00     0.016 A 
ENDROOT
BRANCH   1  12
HETATM   12  N   UNL     1      -6.081   3.724 -29.598  1.00  0.00    -0.252 N 
HETATM   13  H   UNL     1      -5.698   2.916 -29.108  1.00  0.00     0.191 HD
BRANCH  12  14
HETATM   14  C   UNL     1      -5.609   4.979 -29.316  1.00  0.00     0.192 C 
HETATM   15  N   UNL     1      -4.490   5.435 -29.946  1.00  0.00    -0.332 N 
HETATM   16  H   UNL     1      -4.179   6.296 -29.513  1.00  0.00     0.168 HD
HETATM   17  S   UNL     1      -6.288   6.032 -28.189  1.00  0.00    -0.039 SA
BRANCH  15  18
HETATM   18  C   UNL     1      -3.784   5.056 -31.110  1.00  0.00     0.040 A 
HETATM   19  C   UNL     1      -3.271   6.086 -31.950  1.00  0.00    -0.029 A 
HETATM   20  C   UNL     1      -2.644   5.747 -33.174  1.00  0.00    -0.054 A 
HETATM   21  C   UNL     1      -3.430   7.539 -31.559  1.00  0.00     0.051 C 
HETATM   22  C   UNL     1      -2.136   6.791 -34.134  1.00  0.00     0.049 C 
HETATM   23  C   UNL     1      -2.485   4.398 -33.517  1.00  0.00     0.007 A 
HETATM   24  C   UNL     1      -2.981   3.396 -32.691  1.00  0.00     0.003 A 
HETATM   25  C   UNL     1      -3.645   3.723 -31.509  1.00  0.00     0.030 A 
ENDBRANCH  15  18
ENDBRANCH  12  14
ENDBRANCH   1  12
BRANCH   5  26
HETATM   26  C   UNL     1      -6.546  -0.831 -32.483  1.00  0.00     0.405 C 
BRANCH  26  27
HETATM   27  N   UNL     1      -5.761  -0.696 -33.712  1.00  0.00     0.106 N 
HETATM   28  C   UNL     1      -4.350  -1.079 -33.545  1.00  0.00     0.274 C 
HETATM   29  C   UNL     1      -4.117  -2.589 -33.436  1.00  0.00     0.030 C 
HETATM   30  C   UNL     1      -4.761  -3.339 -34.597  1.00  0.00     0.003 C 
HETATM   31  C   UNL     1      -6.224  -2.938 -34.756  1.00  0.00     0.030 C 
HETATM   32  C   UNL     1      -6.369  -1.418 -34.837  1.00  0.00     0.274 C 
ENDBRANCH  26  27
ENDBRANCH   5  26
TORSDOF 5
ENDMDL
MODEL 5
REMARK VINA RESULT:      -8.5      2.597      5.132
REMARK  5 active torsions:
REMARK  status: ('A' for Active; 'I' for Inactive)
REMARK    1  A    between atoms: C_5  and  N_6 
REMARK    2  A    between atoms: C_7  and  N_8 
REMARK    3  A    between atoms: N_8  and  N_9 
REMARK    4  A    between atoms: N_13  and  C_14 
REMARK    5  A    between atoms: C_14  and  N_15 
ROOT
HETATM    1  N   UNL     1      -7.831   4.656 -33.747  1.00  0.00    -0.166 NA
HETATM    2  C   UNL     1      -7.782   3.381 -33.536  1.00  0.00     0.157 A 
HETATM    3  C   UNL     1      -6.572   2.473 -33.327  1.00  0.00     0.281 A 
HETATM    4  O   UNL     1      -5.425   2.872 -33.292  1.00  0.00    -0.265 OA
HETATM    5  N   UNL     1      -7.089   1.198 -33.181  1.00  0.00    -0.284 N 
HETATM    6  C   UNL     1      -8.955   2.521 -33.459  1.00  0.00     0.027 A 
HETATM    7  C   UNL     1      -8.496   1.225 -33.238  1.00  0.00     0.052 A 
HETATM    8  C   UNL     1      -9.397   0.185 -33.111  1.00  0.00     0.031 A 
HETATM    9  C   UNL     1     -10.764   0.479 -33.217  1.00  0.00     0.002 A 
HETATM   10  C   UNL     1     -11.210   1.796 -33.440  1.00  0.00     0.001 A 
HETATM   11  C   UNL     1     -10.295   2.842 -33.564  1.00  0.00     0.016 A 
ENDROOT
BRANCH   1  12
HETATM   12  N   UNL     1      -6.659   5.357 -33.796  1.00  0.00    -0.252 N 
HETATM   13  H   UNL     1      -5.942   5.054 -34.454  1.00  0.00     0.191 HD
BRANCH  12  14
HETATM   14  C   UNL     1      -6.344   6.255 -32.810  1.00  0.00     0.192 C 
HETATM   15  N   UNL     1      -5.057   6.354 -32.376  1.00  0.00    -0.332 N 
HETATM   16  H   UNL     1      -5.019   6.930 -31.543  1.00  0.00     0.168 HD
HETATM   17  S   UNL     1      -7.453   7.255 -32.030  1.00  0.00    -0.039 SA
BRANCH  15  18
HETATM   18  C   UNL     1      -3.802   5.960 -32.893  1.00  0.00     0.040 A 
HETATM   19  C   UNL     1      -2.700   5.879 -31.994  1.00  0.00    -0.029 A 
HETATM   20  C   UNL     1      -1.407   5.582 -32.493  1.00  0.00    -0.054 A 
HETATM   21  C   UNL     1      -2.898   6.147 -30.518  1.00  0.00     0.051 C 
HETATM   22  C   UNL     1      -0.192   5.542 -31.604  1.00  0.00     0.049 C 
HETATM   23  C   UNL     1      -1.240   5.317 -33.858  1.00  0.00     0.007 A 
HETATM   24  C   UNL     1      -2.319   5.391 -34.730  1.00  0.00     0.003 A 
HETATM   25  C   UNL     1      -3.585   5.732 -34.255  1.00  0.00     0.030 A 
ENDBRANCH  15  18
ENDBRANCH  12  14
ENDBRANCH   1  12
BRANCH   5  26
HETATM   26  C   UNL     1      -6.295   0.032 -32.897  1.00  0.00     0.405 C 
BRANCH  26  27
HETATM   27  N   UNL     1      -5.488  -0.328 -34.064  1.00  0.00     0.106 N 
HETATM   28  C   UNL     1      -4.227  -1.000 -33.714  1.00  0.00     0.274 C 
HETATM   29  C   UNL     1      -4.394  -2.451 -33.250  1.00  0.00     0.030 C 
HETATM   30  C   UNL     1      -5.198  -3.268 -34.256  1.00  0.00     0.003 C 
HETATM   31  C   UNL     1      -6.505  -2.565 -34.605  1.00  0.00     0.030 C 
HETATM   32  C   UNL     1      -6.250  -1.120 -35.039  1.00  0.00     0.274 C 
ENDBRANCH  26  27
ENDBRANCH   5  26
TORSDOF 5
ENDMDL
MODEL 6
REMARK VINA RESULT:      -8.5      4.105      9.053
REMARK  5 active torsions:
REMARK  status: ('A' for Active; 'I' for Inactive)
REMARK    1  A    between atoms: C_5  and  N_6 
REMARK    2  A    between atoms: C_7  and  N_8 
REMARK    3  A    between atoms: N_8  and  N_9 
REMARK    4  A    between atoms: N_13  and  C_14 
REMARK    5  A    between atoms: C_14  and  N_15 
ROOT
HETATM    1  N   UNL     1      -8.209   3.455 -32.300  1.00  0.00    -0.166 NA
HETATM    2  C   UNL     1      -7.408   2.441 -32.290  1.00  0.00     0.157 A 
HETATM    3  C   UNL     1      -7.663   0.992 -32.698  1.00  0.00     0.281 A 
HETATM    4  O   UNL     1      -8.717   0.594 -33.155  1.00  0.00    -0.265 OA
HETATM    5  N   UNL     1      -6.477   0.325 -32.452  1.00  0.00    -0.284 N 
HETATM    6  C   UNL     1      -6.021   2.501 -31.849  1.00  0.00     0.027 A 
HETATM    7  C   UNL     1      -5.499   1.216 -31.969  1.00  0.00     0.052 A 
HETATM    8  C   UNL     1      -4.183   0.970 -31.628  1.00  0.00     0.031 A 
HETATM    9  C   UNL     1      -3.410   2.042 -31.159  1.00  0.00     0.002 A 
HETATM   10  C   UNL     1      -3.956   3.336 -31.044  1.00  0.00     0.001 A 
HETATM   11  C   UNL     1      -5.283   3.578 -31.394  1.00  0.00     0.016 A 
ENDROOT
BRANCH   1  12
HETATM   12  N   UNL     1      -9.490   3.273 -32.739  1.00  0.00    -0.252 N 
HETATM   13  H   UNL     1      -9.929   2.365 -32.587  1.00  0.00     0.191 HD
BRANCH  12  14
HETATM   14  C   UNL     1     -10.067   4.173 -33.595  1.00  0.00     0.192 C 
HETATM   15  N   UNL     1     -11.390   4.060 -33.900  1.00  0.00    -0.332 N 
HETATM   16  H   UNL     1     -11.622   4.686 -34.663  1.00  0.00     0.168 HD
HETATM   17  S   UNL     1      -9.249   5.430 -34.365  1.00  0.00    -0.039 SA
BRANCH  15  18
HETATM   18  C   UNL     1     -12.489   3.391 -33.316  1.00  0.00     0.040 A 
HETATM   19  C   UNL     1     -13.050   2.283 -34.014  1.00  0.00    -0.029 A 
HETATM   20  C   UNL     1     -14.212   1.649 -33.508  1.00  0.00    -0.054 A 
HETATM   21  C   UNL     1     -12.434   1.807 -35.312  1.00  0.00     0.051 C 
HETATM   22  C   UNL     1     -14.887   0.513 -34.231  1.00  0.00     0.049 C 
HETATM   23  C   UNL     1     -14.763   2.086 -32.296  1.00  0.00     0.007 A 
HETATM   24  C   UNL     1     -14.209   3.163 -31.616  1.00  0.00     0.003 A 
HETATM   25  C   UNL     1     -13.095   3.824 -32.133  1.00  0.00     0.030 A 
ENDBRANCH  15  18
ENDBRANCH  12  14
ENDBRANCH   1  12
BRANCH   5  26
HETATM   26  C   UNL     1      -6.252  -1.064 -32.758  1.00  0.00     0.405 C 
BRANCH  26  27
HETATM   27  N   UNL     1      -5.800  -1.210 -34.143  1.00  0.00     0.106 N 
HETATM   28  C   UNL     1      -4.473  -1.835 -34.258  1.00  0.00     0.274 C 
HETATM   29  C   UNL     1      -4.463  -3.343 -33.984  1.00  0.00     0.030 C 
HETATM   30  C   UNL     1      -5.495  -4.072 -34.837  1.00  0.00     0.003 C 
HETATM   31  C   UNL     1      -6.866  -3.418 -34.704  1.00  0.00     0.030 C 
HETATM   32  C   UNL     1      -6.784  -1.915 -34.974  1.00  0.00     0.274 C 
ENDBRANCH  26  27
ENDBRANCH   5  26
TORSDOF 5
ENDMDL
MODEL 7
REMARK VINA RESULT:      -8.2     17.919     20.524
REMARK  5 active torsions:
REMARK  status: ('A' for Active; 'I' for Inactive)
REMARK    1  A    between atoms: C_5  and  N_6 
REMARK    2  A    between atoms: C_7  and  N_8 
REMARK    3  A    between atoms: N_8  and  N_9 
REMARK    4  A    between atoms: N_13  and  C_14 
REMARK    5  A    between atoms: C_14  and  N_15 
ROOT
HETATM    1  N   UNL     1      -3.698 -13.218 -37.304  1.00  0.00    -0.166 NA
HETATM    2  C   UNL     1      -3.268 -13.531 -38.483  1.00  0.00     0.157 A 
HETATM    3  C   UNL     1      -4.020 -13.595 -39.810  1.00  0.00     0.281 A 
HETATM    4  O   UNL     1      -5.192 -13.300 -39.938  1.00  0.00    -0.265 OA
HETATM    5  N   UNL     1      -3.089 -14.019 -40.741  1.00  0.00    -0.284 N 
HETATM    6  C   UNL     1      -1.893 -13.911 -38.775  1.00  0.00     0.027 A 
HETATM    7  C   UNL     1      -1.827 -14.188 -40.137  1.00  0.00     0.052 A 
HETATM    8  C   UNL     1      -0.628 -14.570 -40.708  1.00  0.00     0.031 A 
HETATM    9  C   UNL     1       0.496 -14.672 -39.878  1.00  0.00     0.002 A 
HETATM   10  C   UNL     1       0.411 -14.389 -38.500  1.00  0.00     0.001 A 
HETATM   11  C   UNL     1      -0.801 -14.000 -37.931  1.00  0.00     0.016 A 
ENDROOT
BRANCH   1  12
HETATM   12  N   UNL     1      -5.013 -12.875 -37.157  1.00  0.00    -0.252 N 
HETATM   13  H   UNL     1      -5.332 -11.997 -37.563  1.00  0.00     0.191 HD
BRANCH  12  14
HETATM   14  C   UNL     1      -5.810 -13.543 -36.265  1.00  0.00     0.192 C 
HETATM   15  N   UNL     1      -7.136 -13.705 -36.536  1.00  0.00    -0.332 N 
HETATM   16  H   UNL     1      -7.613 -14.062 -35.717  1.00  0.00     0.168 HD
HETATM   17  S   UNL     1      -5.289 -14.169 -34.790  1.00  0.00    -0.039 SA
BRANCH  15  18
HETATM   18  C   UNL     1      -7.927 -13.617 -37.704  1.00  0.00     0.040 A 
HETATM   19  C   UNL     1      -8.454 -14.822 -38.249  1.00  0.00    -0.029 A 
HETATM   20  C   UNL     1      -9.170 -14.785 -39.472  1.00  0.00    -0.054 A 
HETATM   21  C   UNL     1      -8.220 -16.144 -37.551  1.00  0.00     0.051 C 
HETATM   22  C   UNL     1      -9.699 -16.031 -40.132  1.00  0.00     0.049 C 
HETATM   23  C   UNL     1      -9.397 -13.554 -40.100  1.00  0.00     0.007 A 
HETATM   24  C   UNL     1      -8.886 -12.380 -39.561  1.00  0.00     0.003 A 
HETATM   25  C   UNL     1      -8.138 -12.414 -38.384  1.00  0.00     0.030 A 
ENDBRANCH  15  18
ENDBRANCH  12  14
ENDBRANCH   1  12
BRANCH   5  26
HETATM   26  C   UNL     1      -3.358 -14.155 -42.149  1.00  0.00     0.405 C 
BRANCH  26  27
HETATM   27  N   UNL     1      -4.174 -15.345 -42.396  1.00  0.00     0.106 N 
HETATM   28  C   UNL     1      -4.956 -15.266 -43.639  1.00  0.00     0.274 C 
HETATM   29  C   UNL     1      -4.128 -15.439 -44.916  1.00  0.00     0.030 C 
HETATM   30  C   UNL     1      -3.290 -16.712 -44.869  1.00  0.00     0.003 C 
HETATM   31  C   UNL     1      -2.479 -16.780 -43.580  1.00  0.00     0.030 C 
HETATM   32  C   UNL     1      -3.377 -16.578 -42.357  1.00  0.00     0.274 C 
ENDBRANCH  26  27
ENDBRANCH   5  26
TORSDOF 5
ENDMDL
MODEL 8
REMARK VINA RESULT:      -8.2     18.108     20.840
REMARK  5 active torsions:
REMARK  status: ('A' for Active; 'I' for Inactive)
REMARK    1  A    between atoms: C_5  and  N_6 
REMARK    2  A    between atoms: C_7  and  N_8 
REMARK    3  A    between atoms: N_8  and  N_9 
REMARK    4  A    between atoms: N_13  and  C_14 
REMARK    5  A    between atoms: C_14  and  N_15 
ROOT
HETATM    1  N   UNL     1      -6.439 -13.008 -39.356  1.00  0.00    -0.166 NA
HETATM    2  C   UNL     1      -5.223 -13.298 -39.685  1.00  0.00     0.157 A 
HETATM    3  C   UNL     1      -3.933 -13.149 -38.881  1.00  0.00     0.281 A 
HETATM    4  O   UNL     1      -3.894 -12.747 -37.735  1.00  0.00    -0.265 OA
HETATM    5  N   UNL     1      -2.923 -13.575 -39.724  1.00  0.00    -0.284 N 
HETATM    6  C   UNL     1      -4.837 -13.852 -40.975  1.00  0.00     0.027 A 
HETATM    7  C   UNL     1      -3.454 -14.010 -40.954  1.00  0.00     0.052 A 
HETATM    8  C   UNL     1      -2.801 -14.532 -42.054  1.00  0.00     0.031 A 
HETATM    9  C   UNL     1      -3.569 -14.884 -43.172  1.00  0.00     0.002 A 
HETATM   10  C   UNL     1      -4.967 -14.718 -43.176  1.00  0.00     0.001 A 
HETATM   11  C   UNL     1      -5.621 -14.194 -42.061  1.00  0.00     0.016 A 
ENDROOT
BRANCH   1  12
HETATM   12  N   UNL     1      -6.676 -12.494 -38.112  1.00  0.00    -0.252 N 
HETATM   13  H   UNL     1      -6.207 -11.628 -37.850  1.00  0.00     0.191 HD
BRANCH  12  14
HETATM   14  C   UNL     1      -7.295 -13.251 -37.152  1.00  0.00     0.192 C 
HETATM   15  N   UNL     1      -8.543 -13.746 -37.387  1.00  0.00    -0.332 N 
HETATM   16  H   UNL     1      -8.925 -14.134 -36.533  1.00  0.00     0.168 HD
HETATM   17  S   UNL     1      -6.647 -13.604 -35.638  1.00  0.00    -0.039 SA
BRANCH  15  18
HETATM   18  C   UNL     1      -9.327 -13.952 -38.545  1.00  0.00     0.040 A 
HETATM   19  C   UNL     1      -9.306 -15.240 -39.150  1.00  0.00    -0.029 A 
HETATM   20  C   UNL     1     -10.001 -15.456 -40.366  1.00  0.00    -0.054 A 
HETATM   21  C   UNL     1      -8.514 -16.366 -38.522  1.00  0.00     0.051 C 
HETATM   22  C   UNL     1      -9.969 -16.778 -41.087  1.00  0.00     0.049 C 
HETATM   23  C   UNL     1     -10.747 -14.412 -40.928  1.00  0.00     0.007 A 
HETATM   24  C   UNL     1     -10.770 -13.158 -40.331  1.00  0.00     0.003 A 
HETATM   25  C   UNL     1     -10.047 -12.923 -39.161  1.00  0.00     0.030 A 
ENDBRANCH  15  18
ENDBRANCH  12  14
ENDBRANCH   1  12
BRANCH   5  26
HETATM   26  C   UNL     1      -1.537 -13.664 -39.343  1.00  0.00     0.405 C 
BRANCH  26  27
HETATM   27  N   UNL     1      -1.073 -15.049 -39.442  1.00  0.00     0.106 N 
HETATM   28  C   UNL     1       0.298 -15.166 -39.962  1.00  0.00     0.274 C 
HETATM   29  C   UNL     1       1.387 -14.761 -38.963  1.00  0.00     0.030 C 
HETATM   30  C   UNL     1       1.231 -15.500 -37.639  1.00  0.00     0.003 C 
HETATM   31  C   UNL     1      -0.192 -15.366 -37.107  1.00  0.00     0.030 C 
HETATM   32  C   UNL     1      -1.214 -15.770 -38.171  1.00  0.00     0.274 C 
ENDBRANCH  26  27
ENDBRANCH   5  26
TORSDOF 5
ENDMDL
MODEL 9
REMARK VINA RESULT:      -8.1      3.224      8.503
REMARK  5 active torsions:
REMARK  status: ('A' for Active; 'I' for Inactive)
REMARK    1  A    between atoms: C_5  and  N_6 
REMARK    2  A    between atoms: C_7  and  N_8 
REMARK    3  A    between atoms: N_8  and  N_9 
REMARK    4  A    between atoms: N_13  and  C_14 
REMARK    5  A    between atoms: C_14  and  N_15 
ROOT
HETATM    1  N   UNL     1      -7.332   2.819 -29.818  1.00  0.00    -0.166 NA
HETATM    2  C   UNL     1      -6.677   3.872 -30.185  1.00  0.00     0.157 A 
HETATM    3  C   UNL     1      -5.603   4.028 -31.258  1.00  0.00     0.281 A 
HETATM    4  O   UNL     1      -5.232   3.123 -31.980  1.00  0.00    -0.265 OA
HETATM    5  N   UNL     1      -5.219   5.356 -31.204  1.00  0.00    -0.284 N 
HETATM    6  C   UNL     1      -6.857   5.190 -29.592  1.00  0.00     0.027 A 
HETATM    7  C   UNL     1      -5.971   6.050 -30.236  1.00  0.00     0.052 A 
HETATM    8  C   UNL     1      -5.924   7.385 -29.885  1.00  0.00     0.031 A 
HETATM    9  C   UNL     1      -6.783   7.831 -28.870  1.00  0.00     0.002 A 
HETATM   10  C   UNL     1      -7.673   6.947 -28.229  1.00  0.00     0.001 A 
HETATM   11  C   UNL     1      -7.717   5.602 -28.592  1.00  0.00     0.016 A 
ENDROOT
BRANCH   1  12
HETATM   12  N   UNL     1      -7.076   1.636 -30.453  1.00  0.00    -0.252 N 
HETATM   13  H   UNL     1      -6.220   1.136 -30.217  1.00  0.00     0.191 HD
BRANCH  12  14
HETATM   14  C   UNL     1      -7.795   1.271 -31.561  1.00  0.00     0.192 C 
HETATM   15  N   UNL     1      -7.199   0.531 -32.537  1.00  0.00    -0.332 N 
HETATM   16  H   UNL     1      -7.799   0.488 -33.352  1.00  0.00     0.168 HD
HETATM   17  S   UNL     1      -9.396   1.706 -31.855  1.00  0.00    -0.039 SA
BRANCH  15  18
HETATM   18  C   UNL     1      -6.036  -0.271 -32.604  1.00  0.00     0.040 A 
HETATM   19  C   UNL     1      -5.918  -1.194 -33.681  1.00  0.00    -0.029 A 
HETATM   20  C   UNL     1      -4.815  -2.082 -33.727  1.00  0.00    -0.054 A 
HETATM   21  C   UNL     1      -6.984  -1.257 -34.754  1.00  0.00     0.051 C 
HETATM   22  C   UNL     1      -4.664  -3.121 -34.807  1.00  0.00     0.049 C 
HETATM   23  C   UNL     1      -3.824  -2.002 -32.740  1.00  0.00     0.007 A 
HETATM   24  C   UNL     1      -3.941  -1.095 -31.694  1.00  0.00     0.003 A 
HETATM   25  C   UNL     1      -5.049  -0.253 -31.614  1.00  0.00     0.030 A 
ENDBRANCH  15  18
ENDBRANCH  12  14
ENDBRANCH   1  12
BRANCH   5  26
HETATM   26  C   UNL     1      -4.263   5.957 -32.098  1.00  0.00     0.405 C 
BRANCH  26  27
HETATM   27  N   UNL     1      -2.901   5.709 -31.624  1.00  0.00     0.106 N 
HETATM   28  C   UNL     1      -2.104   4.890 -32.549  1.00  0.00     0.274 C 
HETATM   29  C   UNL     1      -1.644   5.630 -33.809  1.00  0.00     0.030 C 
HETATM   30  C   UNL     1      -0.926   6.930 -33.461  1.00  0.00     0.003 C 
HETATM   31  C   UNL     1      -1.765   7.773 -32.506  1.00  0.00     0.030 C 
HETATM   32  C   UNL     1      -2.197   6.954 -31.289  1.00  0.00     0.274 C 
ENDBRANCH  26  27
ENDBRANCH   5  26
TORSDOF 5
ENDMDL
MODEL 10
REMARK VINA RESULT:      -8.1     18.116     19.867
REMARK  5 active torsions:
REMARK  status: ('A' for Active; 'I' for Inactive)
REMARK    1  A    between atoms: C_5  and  N_6 
REMARK    2  A    between atoms: C_7  and  N_8 
REMARK    3  A    between atoms: N_8  and  N_9 
REMARK    4  A    between atoms: N_13  and  C_14 
REMARK    5  A    between atoms: C_14  and  N_15 
ROOT
HETATM    1  N   UNL     1      -5.074 -13.107 -41.040  1.00  0.00    -0.166 NA
HETATM    2  C   UNL     1      -5.732 -13.432 -39.976  1.00  0.00     0.157 A 
HETATM    3  C   UNL     1      -5.253 -14.138 -38.710  1.00  0.00     0.281 A 
HETATM    4  O   UNL     1      -4.100 -14.472 -38.517  1.00  0.00    -0.265 OA
HETATM    5  N   UNL     1      -6.375 -14.265 -37.911  1.00  0.00    -0.284 N 
HETATM    6  C   UNL     1      -7.151 -13.168 -39.782  1.00  0.00     0.027 A 
HETATM    7  C   UNL     1      -7.494 -13.675 -38.532  1.00  0.00     0.052 A 
HETATM    8  C   UNL     1      -8.791 -13.558 -38.070  1.00  0.00     0.031 A 
HETATM    9  C   UNL     1      -9.731 -12.927 -38.895  1.00  0.00     0.002 A 
HETATM   10  C   UNL     1      -9.367 -12.419 -40.158  1.00  0.00     0.001 A 
HETATM   11  C   UNL     1      -8.056 -12.537 -40.616  1.00  0.00     0.016 A 
ENDROOT
BRANCH   1  12
HETATM   12  N   UNL     1      -3.742 -13.407 -41.102  1.00  0.00    -0.252 N 
HETATM   13  H   UNL     1      -3.085 -12.791 -40.625  1.00  0.00     0.191 HD
BRANCH  12  14
HETATM   14  C   UNL     1      -3.279 -14.335 -41.997  1.00  0.00     0.192 C 
HETATM   15  N   UNL     1      -2.033 -14.864 -41.835  1.00  0.00    -0.332 N 
HETATM   16  H   UNL     1      -1.777 -15.398 -42.657  1.00  0.00     0.168 HD
HETATM   17  S   UNL     1      -4.125 -14.871 -43.352  1.00  0.00    -0.039 SA
BRANCH  15  18
HETATM   18  C   UNL     1      -1.120 -14.941 -40.759  1.00  0.00     0.040 A 
HETATM   19  C   UNL     1      -0.641 -16.226 -40.376  1.00  0.00    -0.029 A 
HETATM   20  C   UNL     1       0.198 -16.352 -39.240  1.00  0.00    -0.054 A 
HETATM   21  C   UNL     1      -1.055 -17.458 -41.150  1.00  0.00     0.051 C 
HETATM   22  C   UNL     1       0.689 -17.688 -38.748  1.00  0.00     0.049 C 
HETATM   23  C   UNL     1       0.590 -15.203 -38.542  1.00  0.00     0.007 A 
HETATM   24  C   UNL     1       0.125 -13.951 -38.924  1.00  0.00     0.003 A 
HETATM   25  C   UNL     1      -0.742 -13.823 -40.009  1.00  0.00     0.030 A 
ENDBRANCH  15  18
ENDBRANCH  12  14
ENDBRANCH   1  12
BRANCH   5  26
HETATM   26  C   UNL     1      -6.363 -14.821 -36.583  1.00  0.00     0.405 C 
BRANCH  26  27
HETATM   27  N   UNL     1      -5.999 -13.793 -35.607  1.00  0.00     0.106 N 
HETATM   28  C   UNL     1      -7.048 -13.545 -34.605  1.00  0.00     0.274 C 
HETATM   29  C   UNL     1      -7.183 -14.649 -33.550  1.00  0.00     0.030 C 
HETATM   30  C   UNL     1      -5.845 -14.954 -32.888  1.00  0.00     0.003 C 
HETATM   31  C   UNL     1      -4.768 -15.215 -33.936  1.00  0.00     0.030 C 
HETATM   32  C   UNL     1      -4.713 -14.078 -34.958  1.00  0.00     0.274 C 
ENDBRANCH  26  27
ENDBRANCH   5  26
TORSDOF 5
ENDMDL
