MODEL 1
REMARK VINA RESULT:      -9.1      0.000      0.000
REMARK  6 active torsions:
REMARK  status: ('A' for Active; 'I' for Inactive)
REMARK    1  A    between atoms: C_3  and  O_4 
REMARK    2  A    between atoms: O_4  and  C_5 
REMARK    3  A    between atoms: C_5  and  C_6 
REMARK       I    between atoms: C_6  and  N_7 
REMARK    4  A    between atoms: N_7  and  C_8 
REMARK    5  A    between atoms: C_8  and  C_9 
REMARK       I    between atoms: C_9  and  N_10 
REMARK    6  A    between atoms: N_10  and  N_11 
ROOT
HETATM    1  C   UNL     1      -5.143   2.454 -31.880  1.00  0.00     0.255 C 
HETATM    2  N   UNL     1      -4.207   1.645 -32.498  1.00  0.00    -0.245 N 
HETATM    3  O   UNL     1      -6.350   2.219 -31.821  1.00  0.00    -0.270 OA
HETATM    4  H   UNL     1      -3.228   1.944 -32.544  1.00  0.00     0.192 HD
ENDROOT
BRANCH   1   5
HETATM    5  C   UNL     1      -4.571   3.751 -31.307  1.00  0.00     0.227 C 
BRANCH   5   6
HETATM    6  N   UNL     1      -4.569   4.883 -32.228  1.00  0.00    -0.350 N 
HETATM    7  C   UNL     1      -3.558   5.277 -33.063  1.00  0.00     0.242 C 
HETATM    8  O   UNL     1      -3.801   6.118 -33.929  1.00  0.00    -0.271 OA
HETATM    9  H   UNL     1      -5.456   5.327 -32.441  1.00  0.00     0.163 HD
BRANCH   7  10
HETATM   10  C   UNL     1      -2.184   4.629 -32.929  1.00  0.00     0.278 C 
BRANCH  10  11
HETATM   11  O   UNL     1      -1.199   5.655 -32.888  1.00  0.00    -0.342 OA
BRANCH  11  12
HETATM   12  C   UNL     1      -0.668   5.949 -31.661  1.00  0.00     0.075 A 
HETATM   13  C   UNL     1      -0.967   7.220 -31.141  1.00  0.00    -0.029 A 
HETATM   14  C   UNL     1      -1.754   8.235 -31.925  1.00  0.00     0.051 C 
HETATM   15  C   UNL     1      -0.457   7.586 -29.885  1.00  0.00     0.009 A 
HETATM   16  C   UNL     1       0.308   6.692 -29.140  1.00  0.00     0.001 A 
HETATM   17  C   UNL     1       0.579   5.425 -29.645  1.00  0.00     0.003 A 
HETATM   18  C   UNL     1       0.093   5.053 -30.901  1.00  0.00     0.037 A 
ENDBRANCH  11  12
ENDBRANCH  10  11
ENDBRANCH   7  10
ENDBRANCH   5   6
ENDBRANCH   1   5
BRANCH   2  19
HETATM   19  N   UNL     1      -4.589   0.462 -33.058  1.00  0.00    -0.166 NA
HETATM   20  C   UNL     1      -3.960  -0.600 -32.673  1.00  0.00     0.157 A 
HETATM   21  C   UNL     1      -2.839  -0.726 -31.641  1.00  0.00     0.277 A 
HETATM   22  C   UNL     1      -4.214  -1.953 -33.155  1.00  0.00     0.028 A 
HETATM   23  O   UNL     1      -2.363   0.203 -31.023  1.00  0.00    -0.266 OA
HETATM   24  N   UNL     1      -2.534  -2.068 -31.586  1.00  0.00    -0.321 N 
HETATM   25  C   UNL     1      -3.334  -2.790 -32.469  1.00  0.00     0.048 A 
HETATM   26  H   UNL     1      -1.825  -2.451 -30.978  1.00  0.00     0.169 HD
HETATM   27  C   UNL     1      -3.321  -4.150 -32.693  1.00  0.00     0.032 A 
HETATM   28  C   UNL     1      -4.225  -4.653 -33.638  1.00  0.00     0.021 A 
HETATM   29  C   UNL     1      -5.108  -3.794 -34.325  1.00  0.00     0.012 A 
HETATM   30 BR   UNL     1      -6.307  -4.524 -35.594  1.00  0.00    -0.051 Br
HETATM   31  C   UNL     1      -5.114  -2.419 -34.090  1.00  0.00     0.035 A 
ENDBRANCH   2  19
TORSDOF 6
ENDMDL
MODEL 2
REMARK VINA RESULT:      -8.9      0.689      1.418
REMARK  6 active torsions:
REMARK  status: ('A' for Active; 'I' for Inactive)
REMARK    1  A    between atoms: C_3  and  O_4 
REMARK    2  A    between atoms: O_4  and  C_5 
REMARK    3  A    between atoms: C_5  and  C_6 
REMARK       I    between atoms: C_6  and  N_7 
REMARK    4  A    between atoms: N_7  and  C_8 
REMARK    5  A    between atoms: C_8  and  C_9 
REMARK       I    between atoms: C_9  and  N_10 
REMARK    6  A    between atoms: N_10  and  N_11 
ROOT
HETATM    1  C   UNL     1      -5.192   2.814 -32.759  1.00  0.00     0.255 C 
HETATM    2  N   UNL     1      -4.421   1.695 -32.498  1.00  0.00    -0.245 N 
HETATM    3  O   UNL     1      -6.164   2.841 -33.515  1.00  0.00    -0.270 OA
HETATM    4  H   UNL     1      -3.598   1.774 -31.895  1.00  0.00     0.192 HD
ENDROOT
BRANCH   1   5
HETATM    5  C   UNL     1      -4.698   4.089 -32.074  1.00  0.00     0.227 C 
BRANCH   5   6
HETATM    6  N   UNL     1      -4.359   5.183 -32.978  1.00  0.00    -0.350 N 
HETATM    7  C   UNL     1      -3.114   5.546 -33.417  1.00  0.00     0.242 C 
HETATM    8  O   UNL     1      -3.027   6.351 -34.345  1.00  0.00    -0.271 OA
HETATM    9  H   UNL     1      -5.109   5.614 -33.508  1.00  0.00     0.163 HD
BRANCH   7  10
HETATM   10  C   UNL     1      -1.883   4.910 -32.781  1.00  0.00     0.278 C 
BRANCH  10  11
HETATM   11  O   UNL     1      -0.868   5.899 -32.664  1.00  0.00    -0.342 OA
BRANCH  11  12
HETATM   12  C   UNL     1      -0.797   6.569 -31.471  1.00  0.00     0.075 A 
HETATM   13  C   UNL     1       0.210   6.153 -30.583  1.00  0.00    -0.029 A 
HETATM   14  C   UNL     1       1.104   4.982 -30.885  1.00  0.00     0.051 C 
HETATM   15  C   UNL     1       0.342   6.799 -29.343  1.00  0.00     0.009 A 
HETATM   16  C   UNL     1      -0.489   7.866 -29.005  1.00  0.00     0.001 A 
HETATM   17  C   UNL     1      -1.465   8.291 -29.898  1.00  0.00     0.003 A 
HETATM   18  C   UNL     1      -1.620   7.647 -31.127  1.00  0.00     0.037 A 
ENDBRANCH  11  12
ENDBRANCH  10  11
ENDBRANCH   7  10
ENDBRANCH   5   6
ENDBRANCH   1   5
BRANCH   2  19
HETATM   19  N   UNL     1      -4.750   0.494 -33.056  1.00  0.00    -0.166 NA
HETATM   20  C   UNL     1      -4.070  -0.537 -32.672  1.00  0.00     0.157 A 
HETATM   21  C   UNL     1      -2.942  -0.609 -31.641  1.00  0.00     0.277 A 
HETATM   22  C   UNL     1      -4.262  -1.900 -33.151  1.00  0.00     0.028 A 
HETATM   23  O   UNL     1      -2.508   0.342 -31.026  1.00  0.00    -0.266 OA
HETATM   24  N   UNL     1      -2.575  -1.935 -31.586  1.00  0.00    -0.321 N 
HETATM   25  C   UNL     1      -3.342  -2.695 -32.466  1.00  0.00     0.048 A 
HETATM   26  H   UNL     1      -1.847  -2.283 -30.979  1.00  0.00     0.169 HD
HETATM   27  C   UNL     1      -3.266  -4.053 -32.689  1.00  0.00     0.032 A 
HETATM   28  C   UNL     1      -4.149  -4.599 -33.631  1.00  0.00     0.021 A 
HETATM   29  C   UNL     1      -5.073  -3.782 -34.317  1.00  0.00     0.012 A 
HETATM   30 BR   UNL     1      -6.240  -4.569 -35.582  1.00  0.00    -0.051 Br
HETATM   31  C   UNL     1      -5.142  -2.409 -34.083  1.00  0.00     0.035 A 
ENDBRANCH   2  19
TORSDOF 6
ENDMDL
MODEL 3
REMARK VINA RESULT:      -8.9      1.921      2.836
REMARK  6 active torsions:
REMARK  status: ('A' for Active; 'I' for Inactive)
REMARK    1  A    between atoms: C_3  and  O_4 
REMARK    2  A    between atoms: O_4  and  C_5 
REMARK    3  A    between atoms: C_5  and  C_6 
REMARK       I    between atoms: C_6  and  N_7 
REMARK    4  A    between atoms: N_7  and  C_8 
REMARK    5  A    between atoms: C_8  and  C_9 
REMARK       I    between atoms: C_9  and  N_10 
REMARK    6  A    between atoms: N_10  and  N_11 
ROOT
HETATM    1  C   UNL     1      -5.216   2.226 -31.471  1.00  0.00     0.255 C 
HETATM    2  N   UNL     1      -4.356   1.605 -32.360  1.00  0.00    -0.245 N 
HETATM    3  O   UNL     1      -6.346   1.829 -31.189  1.00  0.00    -0.270 OA
HETATM    4  H   UNL     1      -3.451   2.033 -32.575  1.00  0.00     0.192 HD
ENDROOT
BRANCH   1   5
HETATM    5  C   UNL     1      -4.678   3.534 -30.889  1.00  0.00     0.227 C 
BRANCH   5   6
HETATM    6  N   UNL     1      -5.696   4.447 -30.380  1.00  0.00    -0.350 N 
HETATM    7  C   UNL     1      -5.704   5.813 -30.458  1.00  0.00     0.242 C 
HETATM    8  O   UNL     1      -6.740   6.415 -30.173  1.00  0.00    -0.271 OA
HETATM    9  H   UNL     1      -6.594   4.059 -30.111  1.00  0.00     0.163 HD
BRANCH   7  10
HETATM   10  C   UNL     1      -4.453   6.541 -30.939  1.00  0.00     0.278 C 
BRANCH  10  11
HETATM   11  O   UNL     1      -4.541   6.718 -32.347  1.00  0.00    -0.342 OA
BRANCH  11  12
HETATM   12  C   UNL     1      -3.424   6.410 -33.077  1.00  0.00     0.075 A 
HETATM   13  C   UNL     1      -3.598   5.490 -34.125  1.00  0.00    -0.029 A 
HETATM   14  C   UNL     1      -4.918   4.814 -34.379  1.00  0.00     0.051 C 
HETATM   15  C   UNL     1      -2.494   5.132 -34.916  1.00  0.00     0.009 A 
HETATM   16  C   UNL     1      -1.244   5.706 -34.693  1.00  0.00     0.001 A 
HETATM   17  C   UNL     1      -1.082   6.636 -33.673  1.00  0.00     0.003 A 
HETATM   18  C   UNL     1      -2.167   6.988 -32.866  1.00  0.00     0.037 A 
ENDBRANCH  11  12
ENDBRANCH  10  11
ENDBRANCH   7  10
ENDBRANCH   5   6
ENDBRANCH   1   5
BRANCH   2  19
HETATM   19  N   UNL     1      -4.719   0.434 -32.957  1.00  0.00    -0.166 NA
HETATM   20  C   UNL     1      -4.051  -0.624 -32.629  1.00  0.00     0.157 A 
HETATM   21  C   UNL     1      -2.903  -0.758 -31.628  1.00  0.00     0.277 A 
HETATM   22  C   UNL     1      -4.280  -1.964 -33.158  1.00  0.00     0.028 A 
HETATM   23  O   UNL     1      -2.437   0.159 -30.986  1.00  0.00    -0.266 OA
HETATM   24  N   UNL     1      -2.560  -2.092 -31.634  1.00  0.00    -0.321 N 
HETATM   25  C   UNL     1      -3.361  -2.802 -32.526  1.00  0.00     0.048 A 
HETATM   26  H   UNL     1      -1.825  -2.478 -31.059  1.00  0.00     0.169 HD
HETATM   27  C   UNL     1      -3.316  -4.151 -32.804  1.00  0.00     0.032 A 
HETATM   28  C   UNL     1      -4.229  -4.643 -33.746  1.00  0.00     0.021 A 
HETATM   29  C   UNL     1      -5.152  -3.782 -34.378  1.00  0.00     0.012 A 
HETATM   30 BR   UNL     1      -6.362  -4.496 -35.646  1.00  0.00    -0.051 Br
HETATM   31  C   UNL     1      -5.190  -2.419 -34.089  1.00  0.00     0.035 A 
ENDBRANCH   2  19
TORSDOF 6
ENDMDL
MODEL 4
REMARK VINA RESULT:      -8.8      1.524      2.480
REMARK  6 active torsions:
REMARK  status: ('A' for Active; 'I' for Inactive)
REMARK    1  A    between atoms: C_3  and  O_4 
REMARK    2  A    between atoms: O_4  and  C_5 
REMARK    3  A    between atoms: C_5  and  C_6 
REMARK       I    between atoms: C_6  and  N_7 
REMARK    4  A    between atoms: N_7  and  C_8 
REMARK    5  A    between atoms: C_8  and  C_9 
REMARK       I    between atoms: C_9  and  N_10 
REMARK    6  A    between atoms: N_10  and  N_11 
ROOT
HETATM    1  C   UNL     1      -3.653   2.873 -31.781  1.00  0.00     0.255 C 
HETATM    2  N   UNL     1      -4.531   2.202 -32.612  1.00  0.00    -0.245 N 
HETATM    3  O   UNL     1      -2.716   2.352 -31.175  1.00  0.00    -0.270 OA
HETATM    4  H   UNL     1      -5.315   2.705 -33.036  1.00  0.00     0.192 HD
ENDROOT
BRANCH   1   5
HETATM    5  C   UNL     1      -3.973   4.357 -31.597  1.00  0.00     0.227 C 
BRANCH   5   6
HETATM    6  N   UNL     1      -4.201   5.097 -32.834  1.00  0.00    -0.350 N 
HETATM    7  C   UNL     1      -3.295   5.358 -33.827  1.00  0.00     0.242 C 
HETATM    8  O   UNL     1      -3.707   5.804 -34.899  1.00  0.00    -0.271 OA
HETATM    9  H   UNL     1      -5.159   5.281 -33.111  1.00  0.00     0.163 HD
BRANCH   7  10
HETATM   10  C   UNL     1      -1.821   5.045 -33.595  1.00  0.00     0.278 C 
BRANCH  10  11
HETATM   11  O   UNL     1      -1.158   6.239 -33.200  1.00  0.00    -0.342 OA
BRANCH  11  12
HETATM   12  C   UNL     1      -0.694   6.287 -31.912  1.00  0.00     0.075 A 
HETATM   13  C   UNL     1      -1.120   7.381 -31.138  1.00  0.00    -0.029 A 
HETATM   14  C   UNL     1      -1.968   8.482 -31.714  1.00  0.00     0.051 C 
HETATM   15  C   UNL     1      -0.686   7.491 -29.807  1.00  0.00     0.009 A 
HETATM   16  C   UNL     1       0.130   6.513 -29.242  1.00  0.00     0.001 A 
HETATM   17  C   UNL     1       0.527   5.420 -30.003  1.00  0.00     0.003 A 
HETATM   18  C   UNL     1       0.117   5.306 -31.333  1.00  0.00     0.037 A 
ENDBRANCH  11  12
ENDBRANCH  10  11
ENDBRANCH   7  10
ENDBRANCH   5   6
ENDBRANCH   1   5
BRANCH   2  19
HETATM   19  N   UNL     1      -4.361   0.870 -32.853  1.00  0.00    -0.166 NA
HETATM   20  C   UNL     1      -5.300   0.268 -33.508  1.00  0.00     0.157 A 
HETATM   21  C   UNL     1      -6.589   0.852 -34.085  1.00  0.00     0.277 A 
HETATM   22  C   UNL     1      -5.309  -1.148 -33.859  1.00  0.00     0.028 A 
HETATM   23  O   UNL     1      -6.924   2.014 -33.990  1.00  0.00    -0.266 OA
HETATM   24  N   UNL     1      -7.228  -0.200 -34.704  1.00  0.00    -0.321 N 
HETATM   25  C   UNL     1      -6.485  -1.371 -34.575  1.00  0.00     0.048 A 
HETATM   26  H   UNL     1      -8.113  -0.107 -35.182  1.00  0.00     0.169 HD
HETATM   27  C   UNL     1      -6.798  -2.622 -35.062  1.00  0.00     0.032 A 
HETATM   28  C   UNL     1      -5.888  -3.656 -34.805  1.00  0.00     0.021 A 
HETATM   29  C   UNL     1      -4.704  -3.416 -34.077  1.00  0.00     0.012 A 
HETATM   30 BR   UNL     1      -3.511  -4.848 -33.754  1.00  0.00    -0.051 Br
HETATM   31  C   UNL     1      -4.396  -2.146 -33.590  1.00  0.00     0.035 A 
ENDBRANCH   2  19
TORSDOF 6
ENDMDL
MODEL 5
REMARK VINA RESULT:      -8.8      3.463      8.865
REMARK  6 active torsions:
REMARK  status: ('A' for Active; 'I' for Inactive)
REMARK    1  A    between atoms: C_3  and  O_4 
REMARK    2  A    between atoms: O_4  and  C_5 
REMARK    3  A    between atoms: C_5  and  C_6 
REMARK       I    between atoms: C_6  and  N_7 
REMARK    4  A    between atoms: N_7  and  C_8 
REMARK    5  A    between atoms: C_8  and  C_9 
REMARK       I    between atoms: C_9  and  N_10 
REMARK    6  A    between atoms: N_10  and  N_11 
ROOT
HETATM    1  C   UNL     1      -5.024   0.791 -31.193  1.00  0.00     0.255 C 
HETATM    2  N   UNL     1      -5.234   2.143 -31.400  1.00  0.00    -0.245 N 
HETATM    3  O   UNL     1      -3.925   0.267 -31.013  1.00  0.00    -0.270 OA
HETATM    4  H   UNL     1      -6.178   2.487 -31.593  1.00  0.00     0.192 HD
ENDROOT
BRANCH   1   5
HETATM    5  C   UNL     1      -6.292  -0.060 -31.275  1.00  0.00     0.227 C 
BRANCH   5   6
HETATM    6  N   UNL     1      -7.255   0.365 -32.285  1.00  0.00    -0.350 N 
HETATM    7  C   UNL     1      -7.207   0.129 -33.633  1.00  0.00     0.242 C 
HETATM    8  O   UNL     1      -8.208   0.367 -34.310  1.00  0.00    -0.271 OA
HETATM    9  H   UNL     1      -8.161   0.698 -31.972  1.00  0.00     0.163 HD
BRANCH   7  10
HETATM   10  C   UNL     1      -5.941  -0.463 -34.243  1.00  0.00     0.278 C 
BRANCH  10  11
HETATM   11  O   UNL     1      -6.205  -1.806 -34.628  1.00  0.00    -0.342 OA
BRANCH  11  12
HETATM   12  C   UNL     1      -5.326  -2.757 -34.183  1.00  0.00     0.075 A 
HETATM   13  C   UNL     1      -5.522  -4.062 -34.669  1.00  0.00    -0.029 A 
HETATM   14  C   UNL     1      -6.681  -4.413 -35.561  1.00  0.00     0.051 C 
HETATM   15  C   UNL     1      -4.655  -5.086 -34.256  1.00  0.00     0.009 A 
HETATM   16  C   UNL     1      -3.588  -4.814 -33.401  1.00  0.00     0.001 A 
HETATM   17  C   UNL     1      -3.383  -3.517 -32.944  1.00  0.00     0.003 A 
HETATM   18  C   UNL     1      -4.247  -2.491 -33.333  1.00  0.00     0.037 A 
ENDBRANCH  11  12
ENDBRANCH  10  11
ENDBRANCH   7  10
ENDBRANCH   5   6
ENDBRANCH   1   5
BRANCH   2  19
HETATM   19  N   UNL     1      -4.182   3.011 -31.362  1.00  0.00    -0.166 NA
HETATM   20  C   UNL     1      -4.057   3.826 -32.358  1.00  0.00     0.157 A 
HETATM   21  C   UNL     1      -4.951   3.975 -33.589  1.00  0.00     0.277 A 
HETATM   22  C   UNL     1      -3.001   4.821 -32.507  1.00  0.00     0.028 A 
HETATM   23  O   UNL     1      -5.940   3.309 -33.808  1.00  0.00    -0.266 OA
HETATM   24  N   UNL     1      -4.394   4.994 -34.330  1.00  0.00    -0.321 N 
HETATM   25  C   UNL     1      -3.254   5.492 -33.703  1.00  0.00     0.048 A 
HETATM   26  H   UNL     1      -4.781   5.318 -35.205  1.00  0.00     0.169 HD
HETATM   27  C   UNL     1      -2.432   6.508 -34.140  1.00  0.00     0.032 A 
HETATM   28  C   UNL     1      -1.334   6.837 -33.333  1.00  0.00     0.021 A 
HETATM   29  C   UNL     1      -1.090   6.148 -32.126  1.00  0.00     0.012 A 
HETATM   30 BR   UNL     1       0.408   6.628 -31.075  1.00  0.00    -0.051 Br
HETATM   31  C   UNL     1      -1.929   5.121 -31.693  1.00  0.00     0.035 A 
ENDBRANCH   2  19
TORSDOF 6
ENDMDL
MODEL 6
REMARK VINA RESULT:      -8.8      3.667      8.270
REMARK  6 active torsions:
REMARK  status: ('A' for Active; 'I' for Inactive)
REMARK    1  A    between atoms: C_3  and  O_4 
REMARK    2  A    between atoms: O_4  and  C_5 
REMARK    3  A    between atoms: C_5  and  C_6 
REMARK       I    between atoms: C_6  and  N_7 
REMARK    4  A    between atoms: N_7  and  C_8 
REMARK    5  A    between atoms: C_8  and  C_9 
REMARK       I    between atoms: C_9  and  N_10 
REMARK    6  A    between atoms: N_10  and  N_11 
ROOT
HETATM    1  C   UNL     1      -7.360   3.340 -30.854  1.00  0.00     0.255 C 
HETATM    2  N   UNL     1      -6.345   2.805 -31.628  1.00  0.00    -0.245 N 
HETATM    3  O   UNL     1      -7.224   4.267 -30.055  1.00  0.00    -0.270 OA
HETATM    4  H   UNL     1      -6.536   1.999 -32.230  1.00  0.00     0.192 HD
ENDROOT
BRANCH   1   5
HETATM    5  C   UNL     1      -8.706   2.632 -31.009  1.00  0.00     0.227 C 
BRANCH   5   6
HETATM    6  N   UNL     1      -9.140   2.425 -32.387  1.00  0.00    -0.350 N 
HETATM    7  C   UNL     1      -9.081   1.267 -33.115  1.00  0.00     0.242 C 
HETATM    8  O   UNL     1      -9.689   1.211 -34.184  1.00  0.00    -0.271 OA
HETATM    9  H   UNL     1      -9.728   3.134 -32.814  1.00  0.00     0.163 HD
BRANCH   7  10
HETATM   10  C   UNL     1      -8.310   0.074 -32.559  1.00  0.00     0.278 C 
BRANCH  10  11
HETATM   11  O   UNL     1      -6.951   0.180 -32.965  1.00  0.00    -0.342 OA
BRANCH  11  12
HETATM   12  C   UNL     1      -6.391  -0.932 -33.535  1.00  0.00     0.075 A 
HETATM   13  C   UNL     1      -5.006  -1.093 -33.355  1.00  0.00    -0.029 A 
HETATM   14  C   UNL     1      -4.170  -0.060 -32.651  1.00  0.00     0.051 C 
HETATM   15  C   UNL     1      -4.367  -2.214 -33.910  1.00  0.00     0.009 A 
HETATM   16  C   UNL     1      -5.097  -3.179 -34.601  1.00  0.00     0.001 A 
HETATM   17  C   UNL     1      -6.470  -3.029 -34.754  1.00  0.00     0.003 A 
HETATM   18  C   UNL     1      -7.117  -1.911 -34.223  1.00  0.00     0.037 A 
ENDBRANCH  11  12
ENDBRANCH  10  11
ENDBRANCH   7  10
ENDBRANCH   5   6
ENDBRANCH   1   5
BRANCH   2  19
HETATM   19  N   UNL     1      -5.092   3.340 -31.576  1.00  0.00    -0.166 NA
HETATM   20  C   UNL     1      -4.659   3.926 -32.645  1.00  0.00     0.157 A 
HETATM   21  C   UNL     1      -5.376   4.130 -33.980  1.00  0.00     0.277 A 
HETATM   22  C   UNL     1      -3.351   4.552 -32.793  1.00  0.00     0.028 A 
HETATM   23  O   UNL     1      -6.497   3.740 -34.228  1.00  0.00    -0.266 OA
HETATM   24  N   UNL     1      -4.491   4.827 -34.773  1.00  0.00    -0.321 N 
HETATM   25  C   UNL     1      -3.306   5.077 -34.085  1.00  0.00     0.048 A 
HETATM   26  H   UNL     1      -4.700   5.109 -35.720  1.00  0.00     0.169 HD
HETATM   27  C   UNL     1      -2.192   5.745 -34.546  1.00  0.00     0.032 A 
HETATM   28  C   UNL     1      -1.110   5.873 -33.665  1.00  0.00     0.021 A 
HETATM   29  C   UNL     1      -1.170   5.336 -32.361  1.00  0.00     0.012 A 
HETATM   30 BR   UNL     1       0.321   5.533 -31.212  1.00  0.00    -0.051 Br
HETATM   31  C   UNL     1      -2.302   4.663 -31.904  1.00  0.00     0.035 A 
ENDBRANCH   2  19
TORSDOF 6
ENDMDL
MODEL 7
REMARK VINA RESULT:      -8.7      3.436      8.937
REMARK  6 active torsions:
REMARK  status: ('A' for Active; 'I' for Inactive)
REMARK    1  A    between atoms: C_3  and  O_4 
REMARK    2  A    between atoms: O_4  and  C_5 
REMARK    3  A    between atoms: C_5  and  C_6 
REMARK       I    between atoms: C_6  and  N_7 
REMARK    4  A    between atoms: N_7  and  C_8 
REMARK    5  A    between atoms: C_8  and  C_9 
REMARK       I    between atoms: C_9  and  N_10 
REMARK    6  A    between atoms: N_10  and  N_11 
ROOT
HETATM    1  C   UNL     1      -6.557   3.761 -32.941  1.00  0.00     0.255 C 
HETATM    2  N   UNL     1      -5.275   3.415 -33.330  1.00  0.00    -0.245 N 
HETATM    3  O   UNL     1      -6.839   4.395 -31.924  1.00  0.00    -0.270 OA
HETATM    4  H   UNL     1      -5.135   2.840 -34.166  1.00  0.00     0.192 HD
ENDROOT
BRANCH   1   5
HETATM    5  C   UNL     1      -7.657   3.223 -33.856  1.00  0.00     0.227 C 
BRANCH   5   6
HETATM    6  N   UNL     1      -8.511   2.201 -33.260  1.00  0.00    -0.350 N 
HETATM    7  C   UNL     1      -8.348   0.843 -33.314  1.00  0.00     0.242 C 
HETATM    8  O   UNL     1      -9.033   0.135 -32.575  1.00  0.00    -0.271 OA
HETATM    9  H   UNL     1      -9.190   2.492 -32.564  1.00  0.00     0.163 HD
BRANCH   7  10
HETATM   10  C   UNL     1      -7.295   0.254 -34.247  1.00  0.00     0.278 C 
BRANCH  10  11
HETATM   11  O   UNL     1      -6.389  -0.528 -33.477  1.00  0.00    -0.342 OA
BRANCH  11  12
HETATM   12  C   UNL     1      -6.116  -1.787 -33.940  1.00  0.00     0.075 A 
HETATM   13  C   UNL     1      -4.781  -2.214 -33.830  1.00  0.00    -0.029 A 
HETATM   14  C   UNL     1      -3.696  -1.311 -33.311  1.00  0.00     0.051 C 
HETATM   15  C   UNL     1      -4.431  -3.497 -34.282  1.00  0.00     0.009 A 
HETATM   16  C   UNL     1      -5.397  -4.356 -34.803  1.00  0.00     0.001 A 
HETATM   17  C   UNL     1      -6.721  -3.938 -34.886  1.00  0.00     0.003 A 
HETATM   18  C   UNL     1      -7.081  -2.659 -34.456  1.00  0.00     0.037 A 
ENDBRANCH  11  12
ENDBRANCH  10  11
ENDBRANCH   7  10
ENDBRANCH   5   6
ENDBRANCH   1   5
BRANCH   2  19
HETATM   19  N   UNL     1      -4.203   3.825 -32.594  1.00  0.00    -0.166 NA
HETATM   20  C   UNL     1      -3.453   4.743 -33.110  1.00  0.00     0.157 A 
HETATM   21  C   UNL     1      -3.613   5.468 -34.447  1.00  0.00     0.277 A 
HETATM   22  C   UNL     1      -2.263   5.310 -32.488  1.00  0.00     0.028 A 
HETATM   23  O   UNL     1      -4.503   5.259 -35.244  1.00  0.00    -0.266 OA
HETATM   24  N   UNL     1      -2.568   6.363 -34.511  1.00  0.00    -0.321 N 
HETATM   25  C   UNL     1      -1.775   6.275 -33.369  1.00  0.00     0.048 A 
HETATM   26  H   UNL     1      -2.421   6.988 -35.290  1.00  0.00     0.169 HD
HETATM   27  C   UNL     1      -0.646   7.008 -33.073  1.00  0.00     0.032 A 
HETATM   28  C   UNL     1      -0.010   6.740 -31.853  1.00  0.00     0.021 A 
HETATM   29  C   UNL     1      -0.514   5.760 -30.972  1.00  0.00     0.012 A 
HETATM   30 BR   UNL     1       0.385   5.435 -29.339  1.00  0.00    -0.051 Br
HETATM   31  C   UNL     1      -1.658   5.025 -31.281  1.00  0.00     0.035 A 
ENDBRANCH   2  19
TORSDOF 6
ENDMDL
MODEL 8
REMARK VINA RESULT:      -8.5      4.552      9.149
REMARK  6 active torsions:
REMARK  status: ('A' for Active; 'I' for Inactive)
REMARK    1  A    between atoms: C_3  and  O_4 
REMARK    2  A    between atoms: O_4  and  C_5 
REMARK    3  A    between atoms: C_5  and  C_6 
REMARK       I    between atoms: C_6  and  N_7 
REMARK    4  A    between atoms: N_7  and  C_8 
REMARK    5  A    between atoms: C_8  and  C_9 
REMARK       I    between atoms: C_9  and  N_10 
REMARK    6  A    between atoms: N_10  and  N_11 
ROOT
HETATM    1  C   UNL     1      -1.792   6.656 -33.447  1.00  0.00     0.255 C 
HETATM    2  N   UNL     1      -1.856   6.241 -32.129  1.00  0.00    -0.245 N 
HETATM    3  O   UNL     1      -1.533   7.802 -33.815  1.00  0.00    -0.270 OA
HETATM    4  H   UNL     1      -2.130   5.279 -31.911  1.00  0.00     0.192 HD
ENDROOT
BRANCH   1   5
HETATM    5  C   UNL     1      -2.149   5.570 -34.463  1.00  0.00     0.227 C 
BRANCH   5   6
HETATM    6  N   UNL     1      -3.566   5.483 -34.802  1.00  0.00    -0.350 N 
HETATM    7  C   UNL     1      -4.537   4.773 -34.148  1.00  0.00     0.242 C 
HETATM    8  O   UNL     1      -5.716   4.984 -34.434  1.00  0.00    -0.271 OA
HETATM    9  H   UNL     1      -3.942   6.157 -35.460  1.00  0.00     0.163 HD
BRANCH   7  10
HETATM   10  C   UNL     1      -4.134   3.786 -33.058  1.00  0.00     0.278 C 
BRANCH  10  11
HETATM   11  O   UNL     1      -5.243   2.942 -32.775  1.00  0.00    -0.342 OA
BRANCH  11  12
HETATM   12  C   UNL     1      -4.963   1.628 -32.504  1.00  0.00     0.075 A 
HETATM   13  C   UNL     1      -5.595   0.677 -33.323  1.00  0.00    -0.029 A 
HETATM   14  C   UNL     1      -6.589   1.071 -34.382  1.00  0.00     0.051 C 
HETATM   15  C   UNL     1      -5.351  -0.689 -33.104  1.00  0.00     0.009 A 
HETATM   16  C   UNL     1      -4.465  -1.102 -32.110  1.00  0.00     0.001 A 
HETATM   17  C   UNL     1      -3.822  -0.156 -31.320  1.00  0.00     0.003 A 
HETATM   18  C   UNL     1      -4.069   1.205 -31.515  1.00  0.00     0.037 A 
ENDBRANCH  11  12
ENDBRANCH  10  11
ENDBRANCH   7  10
ENDBRANCH   5   6
ENDBRANCH   1   5
BRANCH   2  19
HETATM   19  N   UNL     1      -1.569   7.116 -31.122  1.00  0.00    -0.166 NA
HETATM   20  C   UNL     1      -0.794   6.691 -30.178  1.00  0.00     0.157 A 
HETATM   21  C   UNL     1      -0.120   5.327 -30.036  1.00  0.00     0.277 A 
HETATM   22  C   UNL     1      -0.376   7.467 -29.017  1.00  0.00     0.028 A 
HETATM   23  O   UNL     1      -0.237   4.414 -30.826  1.00  0.00    -0.266 OA
HETATM   24  N   UNL     1       0.611   5.394 -28.871  1.00  0.00    -0.321 N 
HETATM   25  C   UNL     1       0.465   6.642 -28.270  1.00  0.00     0.048 A 
HETATM   26  H   UNL     1       1.170   4.628 -28.522  1.00  0.00     0.169 HD
HETATM   27  C   UNL     1       1.041   7.082 -27.097  1.00  0.00     0.032 A 
HETATM   28  C   UNL     1       0.744   8.389 -26.688  1.00  0.00     0.021 A 
HETATM   29  C   UNL     1      -0.110   9.212 -27.453  1.00  0.00     0.012 A 
HETATM   30 BR   UNL     1      -0.482  10.968 -26.854  1.00  0.00    -0.051 Br
HETATM   31  C   UNL     1      -0.686   8.757 -28.639  1.00  0.00     0.035 A 
ENDBRANCH   2  19
TORSDOF 6
ENDMDL
MODEL 9
REMARK VINA RESULT:      -8.3      2.045      3.414
REMARK  6 active torsions:
REMARK  status: ('A' for Active; 'I' for Inactive)
REMARK    1  A    between atoms: C_3  and  O_4 
REMARK    2  A    between atoms: O_4  and  C_5 
REMARK    3  A    between atoms: C_5  and  C_6 
REMARK       I    between atoms: C_6  and  N_7 
REMARK    4  A    between atoms: N_7  and  C_8 
REMARK    5  A    between atoms: C_8  and  C_9 
REMARK       I    between atoms: C_9  and  N_10 
REMARK    6  A    between atoms: N_10  and  N_11 
ROOT
HETATM    1  C   UNL     1      -3.248   3.894 -32.365  1.00  0.00     0.255 C 
HETATM    2  N   UNL     1      -4.079   2.963 -31.766  1.00  0.00    -0.245 N 
HETATM    3  O   UNL     1      -2.438   3.646 -33.259  1.00  0.00    -0.270 OA
HETATM    4  H   UNL     1      -4.687   3.247 -30.993  1.00  0.00     0.192 HD
ENDROOT
BRANCH   1   5
HETATM    5  C   UNL     1      -3.353   5.300 -31.774  1.00  0.00     0.227 C 
BRANCH   5   6
HETATM    6  N   UNL     1      -2.839   6.367 -32.625  1.00  0.00    -0.350 N 
HETATM    7  C   UNL     1      -2.468   7.630 -32.247  1.00  0.00     0.242 C 
HETATM    8  O   UNL     1      -1.852   8.330 -33.051  1.00  0.00    -0.271 OA
HETATM    9  H   UNL     1      -2.526   6.125 -33.560  1.00  0.00     0.163 HD
BRANCH   7  10
HETATM   10  C   UNL     1      -2.784   8.110 -30.835  1.00  0.00     0.278 C 
BRANCH  10  11
HETATM   11  O   UNL     1      -1.571   8.501 -30.204  1.00  0.00    -0.342 OA
BRANCH  11  12
HETATM   12  C   UNL     1      -1.151   7.735 -29.149  1.00  0.00     0.075 A 
HETATM   13  C   UNL     1      -0.026   6.925 -29.377  1.00  0.00    -0.029 A 
HETATM   14  C   UNL     1       0.632   6.837 -30.727  1.00  0.00     0.051 C 
HETATM   15  C   UNL     1       0.461   6.116 -28.336  1.00  0.00     0.009 A 
HETATM   16  C   UNL     1      -0.139   6.139 -27.079  1.00  0.00     0.001 A 
HETATM   17  C   UNL     1      -1.235   6.962 -26.850  1.00  0.00     0.003 A 
HETATM   18  C   UNL     1      -1.741   7.758 -27.880  1.00  0.00     0.037 A 
ENDBRANCH  11  12
ENDBRANCH  10  11
ENDBRANCH   7  10
ENDBRANCH   5   6
ENDBRANCH   1   5
BRANCH   2  19
HETATM   19  N   UNL     1      -4.076   1.669 -32.196  1.00  0.00    -0.166 NA
HETATM   20  C   UNL     1      -5.097   1.277 -32.886  1.00  0.00     0.157 A 
HETATM   21  C   UNL     1      -6.323   2.081 -33.321  1.00  0.00     0.277 A 
HETATM   22  C   UNL     1      -5.285  -0.063 -33.428  1.00  0.00     0.028 A 
HETATM   23  O   UNL     1      -6.513   3.248 -33.052  1.00  0.00    -0.266 OA
HETATM   24  N   UNL     1      -7.099   1.209 -34.051  1.00  0.00    -0.321 N 
HETATM   25  C   UNL     1      -6.498  -0.046 -34.117  1.00  0.00     0.048 A 
HETATM   26  H   UNL     1      -7.979   1.469 -34.472  1.00  0.00     0.169 HD
HETATM   27  C   UNL     1      -6.972  -1.171 -34.757  1.00  0.00     0.032 A 
HETATM   28  C   UNL     1      -6.186  -2.329 -34.685  1.00  0.00     0.021 A 
HETATM   29  C   UNL     1      -4.962  -2.332 -33.984  1.00  0.00     0.012 A 
HETATM   30 BR   UNL     1      -3.940  -3.923 -33.913  1.00  0.00    -0.051 Br
HETATM   31  C   UNL     1      -4.491  -1.188 -33.340  1.00  0.00     0.035 A 
ENDBRANCH   2  19
TORSDOF 6
ENDMDL
MODEL 10
REMARK VINA RESULT:      -8.1      2.152      3.639
REMARK  6 active torsions:
REMARK  status: ('A' for Active; 'I' for Inactive)
REMARK    1  A    between atoms: C_3  and  O_4 
REMARK    2  A    between atoms: O_4  and  C_5 
REMARK    3  A    between atoms: C_5  and  C_6 
REMARK       I    between atoms: C_6  and  N_7 
REMARK    4  A    between atoms: N_7  and  C_8 
REMARK    5  A    between atoms: C_8  and  C_9 
REMARK       I    between atoms: C_9  and  N_10 
REMARK    6  A    between atoms: N_10  and  N_11 
ROOT
HETATM    1  C   UNL     1      -4.466   2.986 -31.832  1.00  0.00     0.255 C 
HETATM    2  N   UNL     1      -5.294   1.904 -31.591  1.00  0.00    -0.245 N 
HETATM    3  O   UNL     1      -3.379   2.929 -32.408  1.00  0.00    -0.270 OA
HETATM    4  H   UNL     1      -6.158   2.033 -31.058  1.00  0.00     0.192 HD
ENDROOT
BRANCH   1   5
HETATM    5  C   UNL     1      -4.975   4.306 -31.252  1.00  0.00     0.227 C 
BRANCH   5   6
HETATM    6  N   UNL     1      -4.074   4.950 -30.302  1.00  0.00    -0.350 N 
HETATM    7  C   UNL     1      -3.793   6.286 -30.194  1.00  0.00     0.242 C 
HETATM    8  O   UNL     1      -3.182   6.682 -29.201  1.00  0.00    -0.271 OA
HETATM    9  H   UNL     1      -3.759   4.412 -29.501  1.00  0.00     0.163 HD
BRANCH   7  10
HETATM   10  C   UNL     1      -4.284   7.242 -31.276  1.00  0.00     0.278 C 
BRANCH  10  11
HETATM   11  O   UNL     1      -3.173   7.639 -32.071  1.00  0.00    -0.342 OA
BRANCH  11  12
HETATM   12  C   UNL     1      -2.776   6.769 -33.052  1.00  0.00     0.075 A 
HETATM   13  C   UNL     1      -1.415   6.418 -33.059  1.00  0.00    -0.029 A 
HETATM   14  C   UNL     1      -0.431   7.027 -32.098  1.00  0.00     0.051 C 
HETATM   15  C   UNL     1      -0.941   5.527 -34.035  1.00  0.00     0.009 A 
HETATM   16  C   UNL     1      -1.810   4.966 -34.969  1.00  0.00     0.001 A 
HETATM   17  C   UNL     1      -3.160   5.296 -34.941  1.00  0.00     0.003 A 
HETATM   18  C   UNL     1      -3.644   6.194 -33.987  1.00  0.00     0.037 A 
ENDBRANCH  11  12
ENDBRANCH  10  11
ENDBRANCH   7  10
ENDBRANCH   5   6
ENDBRANCH   1   5
BRANCH   2  19
HETATM   19  N   UNL     1      -4.950   0.665 -32.048  1.00  0.00    -0.166 NA
HETATM   20  C   UNL     1      -5.796   0.071 -32.825  1.00  0.00     0.157 A 
HETATM   21  C   UNL     1      -7.145   0.579 -33.335  1.00  0.00     0.277 A 
HETATM   22  C   UNL     1      -5.619  -1.252 -33.411  1.00  0.00     0.028 A 
HETATM   23  O   UNL     1      -7.628   1.655 -33.056  1.00  0.00    -0.266 OA
HETATM   24  N   UNL     1      -7.636  -0.423 -34.144  1.00  0.00    -0.321 N 
HETATM   25  C   UNL     1      -6.749  -1.496 -34.192  1.00  0.00     0.048 A 
HETATM   26  H   UNL     1      -8.521  -0.361 -34.627  1.00  0.00     0.169 HD
HETATM   27  C   UNL     1      -6.892  -2.674 -34.893  1.00  0.00     0.032 A 
HETATM   28  C   UNL     1      -5.859  -3.614 -34.786  1.00  0.00     0.021 A 
HETATM   29  C   UNL     1      -4.722  -3.354 -33.991  1.00  0.00     0.012 A 
HETATM   30 BR   UNL     1      -3.357  -4.659 -33.878  1.00  0.00    -0.051 Br
HETATM   31  C   UNL     1      -4.586  -2.159 -33.287  1.00  0.00     0.035 A 
ENDBRANCH   2  19
TORSDOF 6
ENDMDL
