MODEL 1
REMARK VINA RESULT:      -8.4      0.000      0.000
REMARK  8 active torsions:
REMARK  status: ('A' for Active; 'I' for Inactive)
REMARK    1  A    between atoms: O_2  and  C_3 
REMARK    2  A    between atoms: C_3  and  C_4 
REMARK    3  A    between atoms: C_4  and  N_5 
REMARK    4  A    between atoms: N_5  and  C_6 
REMARK       I    between atoms: N_5  and  C_15 
REMARK    5  A    between atoms: C_6  and  C_7 
REMARK    6  A    between atoms: C_11  and  O_12 
REMARK    7  A    between atoms: C_15  and  C_17 
REMARK    8  A    between atoms: C_22  and  C_26 
ROOT
HETATM    1  N   UNL     1      -5.703   5.065 -32.868  1.00  0.00    -0.340 N 
HETATM    2  C   UNL     1      -6.691   4.086 -32.617  1.00  0.00     0.279 C 
HETATM    3  O   UNL     1      -7.706   4.389 -31.984  1.00  0.00    -0.265 OA
ENDROOT
BRANCH   2   4
HETATM    4  C   UNL     1      -6.504   2.715 -33.115  1.00  0.00     0.166 A 
HETATM    5  N   UNL     1      -7.196   2.150 -34.084  1.00  0.00    -0.235 NA
HETATM    6  C   UNL     1      -6.789   0.839 -34.259  1.00  0.00     0.075 A 
HETATM    7  C   UNL     1      -7.329  -0.082 -35.176  1.00  0.00     0.034 A 
HETATM    8  C   UNL     1      -5.755   0.419 -33.422  1.00  0.00     0.036 A 
HETATM    9  C   UNL     1      -6.834  -1.394 -35.220  1.00  0.00     0.014 A 
HETATM   10  C   UNL     1      -5.803  -1.807 -34.369  1.00  0.00    -0.022 A 
HETATM   11  C   UNL     1      -5.247  -0.891 -33.462  1.00  0.00     0.033 A 
HETATM   12  S   UNL     1      -5.279   1.731 -32.418  1.00  0.00    -0.063 SA
BRANCH  10  13
HETATM   13  C   UNL     1      -5.310  -3.174 -34.393  1.00  0.00     0.010 A 
HETATM   14  C   UNL     1      -5.911  -4.364 -34.869  1.00  0.00     0.152 A 
HETATM   15  N   UNL     1      -5.137  -5.439 -34.701  1.00  0.00    -0.187 NA
HETATM   16  N   UNL     1      -4.038  -4.944 -34.113  1.00  0.00    -0.289 N 
HETATM   17  H   UNL     1      -3.289  -5.587 -33.876  1.00  0.00     0.188 HD
HETATM   18  C   UNL     1      -4.091  -3.595 -33.908  1.00  0.00     0.123 A 
ENDBRANCH  10  13
ENDBRANCH   2   4
BRANCH   1  19
HETATM   19  C   UNL     1      -5.875   6.451 -32.399  1.00  0.00     0.152 C 
BRANCH  19  20
HETATM   20  C   UNL     1      -5.375   6.839 -31.001  1.00  0.00     0.187 C 
BRANCH  20  21
HETATM   21  O   UNL     1      -4.235   7.696 -31.146  1.00  0.00    -0.394 OA
HETATM   22  C   UNL     1      -3.286   7.474 -30.108  1.00  0.00     0.201 C 
ENDBRANCH  20  21
ENDBRANCH  19  20
ENDBRANCH   1  19
BRANCH   1  23
HETATM   23  C   UNL     1      -4.699   4.903 -33.927  1.00  0.00     0.164 C 
BRANCH  23  24
HETATM   24  C   UNL     1      -3.287   5.307 -33.561  1.00  0.00    -0.038 A 
HETATM   25  C   UNL     1      -2.594   6.341 -34.203  1.00  0.00     0.009 A 
HETATM   26  C   UNL     1      -1.299   6.677 -33.809  1.00  0.00     0.003 A 
HETATM   27  C   UNL     1      -0.689   5.992 -32.758  1.00  0.00     0.037 A 
HETATM   28  C   UNL     1      -1.365   4.972 -32.090  1.00  0.00     0.068 A 
HETATM   29  C   UNL     1      -2.658   4.634 -32.494  1.00  0.00     0.045 A 
BRANCH  28  30
HETATM   30  O   UNL     1      -0.661   4.389 -31.072  1.00  0.00    -0.356 OA
HETATM   31  C   UNL     1      -0.045   5.261 -30.132  1.00  0.00     0.210 C 
ENDBRANCH  28  30
ENDBRANCH  23  24
ENDBRANCH   1  23
TORSDOF 8
ENDMDL
MODEL 2
REMARK VINA RESULT:      -7.9      3.232      5.665
REMARK  8 active torsions:
REMARK  status: ('A' for Active; 'I' for Inactive)
REMARK    1  A    between atoms: O_2  and  C_3 
REMARK    2  A    between atoms: C_3  and  C_4 
REMARK    3  A    between atoms: C_4  and  N_5 
REMARK    4  A    between atoms: N_5  and  C_6 
REMARK       I    between atoms: N_5  and  C_15 
REMARK    5  A    between atoms: C_6  and  C_7 
REMARK    6  A    between atoms: C_11  and  O_12 
REMARK    7  A    between atoms: C_15  and  C_17 
REMARK    8  A    between atoms: C_22  and  C_26 
ROOT
HETATM    1  N   UNL     1      -7.700   4.095 -31.416  1.00  0.00    -0.340 N 
HETATM    2  C   UNL     1      -6.584   3.856 -32.249  1.00  0.00     0.279 C 
HETATM    3  O   UNL     1      -5.789   4.771 -32.485  1.00  0.00    -0.265 OA
ENDROOT
BRANCH   2   4
HETATM    4  C   UNL     1      -6.376   2.520 -32.827  1.00  0.00     0.166 A 
HETATM    5  N   UNL     1      -6.940   2.064 -33.928  1.00  0.00    -0.235 NA
HETATM    6  C   UNL     1      -6.560   0.752 -34.149  1.00  0.00     0.075 A 
HETATM    7  C   UNL     1      -6.994  -0.070 -35.207  1.00  0.00     0.034 A 
HETATM    8  C   UNL     1      -5.676   0.220 -33.211  1.00  0.00     0.036 A 
HETATM    9  C   UNL     1      -6.548  -1.397 -35.287  1.00  0.00     0.014 A 
HETATM   10  C   UNL     1      -5.668  -1.923 -34.335  1.00  0.00    -0.022 A 
HETATM   11  C   UNL     1      -5.217  -1.107 -33.285  1.00  0.00     0.033 A 
HETATM   12  S   UNL     1      -5.304   1.426 -32.045  1.00  0.00    -0.063 SA
BRANCH  10  13
HETATM   13  C   UNL     1      -5.228  -3.307 -34.401  1.00  0.00     0.010 A 
HETATM   14  C   UNL     1      -5.863  -4.453 -34.935  1.00  0.00     0.152 A 
HETATM   15  N   UNL     1      -5.135  -5.563 -34.792  1.00  0.00    -0.187 NA
HETATM   16  N   UNL     1      -4.032  -5.135 -34.161  1.00  0.00    -0.289 N 
HETATM   17  H   UNL     1      -3.314  -5.815 -33.932  1.00  0.00     0.188 HD
HETATM   18  C   UNL     1      -4.038  -3.793 -33.905  1.00  0.00     0.123 A 
ENDBRANCH  10  13
ENDBRANCH   2   4
BRANCH   1  19
HETATM   19  C   UNL     1      -7.921   5.419 -30.808  1.00  0.00     0.152 C 
BRANCH  19  20
HETATM   20  C   UNL     1      -9.179   5.657 -29.963  1.00  0.00     0.187 C 
BRANCH  20  21
HETATM   21  O   UNL     1      -8.793   6.301 -28.741  1.00  0.00    -0.394 OA
HETATM   22  C   UNL     1      -7.540   5.813 -28.273  1.00  0.00     0.201 C 
ENDBRANCH  20  21
ENDBRANCH  19  20
ENDBRANCH   1  19
BRANCH   1  23
HETATM   23  C   UNL     1      -8.439   3.001 -30.774  1.00  0.00     0.164 C 
BRANCH  23  24
HETATM   24  C   UNL     1      -9.253   2.124 -31.700  1.00  0.00    -0.038 A 
HETATM   25  C   UNL     1      -9.176   0.726 -31.697  1.00  0.00     0.009 A 
HETATM   26  C   UNL     1      -9.965  -0.029 -32.565  1.00  0.00     0.003 A 
HETATM   27  C   UNL     1     -10.851   0.606 -33.435  1.00  0.00     0.037 A 
HETATM   28  C   UNL     1     -10.960   1.996 -33.443  1.00  0.00     0.068 A 
HETATM   29  C   UNL     1     -10.162   2.747 -32.579  1.00  0.00     0.045 A 
BRANCH  28  30
HETATM   30  O   UNL     1     -11.873   2.494 -34.334  1.00  0.00    -0.356 OA
HETATM   31  C   UNL     1     -11.444   3.566 -35.164  1.00  0.00     0.210 C 
ENDBRANCH  28  30
ENDBRANCH  23  24
ENDBRANCH   1  23
TORSDOF 8
ENDMDL
MODEL 3
REMARK VINA RESULT:      -7.9      1.217      1.490
REMARK  8 active torsions:
REMARK  status: ('A' for Active; 'I' for Inactive)
REMARK    1  A    between atoms: O_2  and  C_3 
REMARK    2  A    between atoms: C_3  and  C_4 
REMARK    3  A    between atoms: C_4  and  N_5 
REMARK    4  A    between atoms: N_5  and  C_6 
REMARK       I    between atoms: N_5  and  C_15 
REMARK    5  A    between atoms: C_6  and  C_7 
REMARK    6  A    between atoms: C_11  and  O_12 
REMARK    7  A    between atoms: C_15  and  C_17 
REMARK    8  A    between atoms: C_22  and  C_26 
ROOT
HETATM    1  N   UNL     1      -6.091   5.345 -32.312  1.00  0.00    -0.340 N 
HETATM    2  C   UNL     1      -6.857   4.248 -31.859  1.00  0.00     0.279 C 
HETATM    3  O   UNL     1      -7.646   4.397 -30.922  1.00  0.00    -0.265 OA
ENDROOT
BRANCH   2   4
HETATM    4  C   UNL     1      -6.711   2.937 -32.511  1.00  0.00     0.166 A 
HETATM    5  N   UNL     1      -7.388   2.524 -33.564  1.00  0.00    -0.235 NA
HETATM    6  C   UNL     1      -7.033   1.225 -33.879  1.00  0.00     0.075 A 
HETATM    7  C   UNL     1      -7.576   0.446 -34.918  1.00  0.00     0.034 A 
HETATM    8  C   UNL     1      -6.054   0.659 -33.063  1.00  0.00     0.036 A 
HETATM    9  C   UNL     1      -7.140  -0.875 -35.101  1.00  0.00     0.014 A 
HETATM   10  C   UNL     1      -6.163  -1.435 -34.270  1.00  0.00    -0.022 A 
HETATM   11  C   UNL     1      -5.604  -0.661 -33.241  1.00  0.00     0.033 A 
HETATM   12  S   UNL     1      -5.562   1.818 -31.894  1.00  0.00    -0.063 SA
BRANCH  10  13
HETATM   13  C   UNL     1      -5.732  -2.812 -34.440  1.00  0.00     0.010 A 
HETATM   14  C   UNL     1      -4.477  -3.423 -34.205  1.00  0.00     0.152 A 
HETATM   15  N   UNL     1      -4.471  -4.725 -34.498  1.00  0.00    -0.187 NA
HETATM   16  N   UNL     1      -5.720  -4.956 -34.929  1.00  0.00    -0.289 N 
HETATM   17  H   UNL     1      -5.962  -5.897 -35.222  1.00  0.00     0.188 HD
HETATM   18  C   UNL     1      -6.514  -3.844 -34.912  1.00  0.00     0.123 A 
ENDBRANCH  10  13
ENDBRANCH   2   4
BRANCH   1  19
HETATM   19  C   UNL     1      -6.232   6.674 -31.692  1.00  0.00     0.152 C 
BRANCH  19  20
HETATM   20  C   UNL     1      -7.403   7.575 -32.104  1.00  0.00     0.187 C 
BRANCH  20  21
HETATM   21  O   UNL     1      -8.067   8.032 -30.918  1.00  0.00    -0.394 OA
HETATM   22  C   UNL     1      -7.309   7.731 -29.752  1.00  0.00     0.201 C 
ENDBRANCH  20  21
ENDBRANCH  19  20
ENDBRANCH   1  19
BRANCH   1  23
HETATM   23  C   UNL     1      -5.459   5.359 -33.637  1.00  0.00     0.164 C 
BRANCH  23  24
HETATM   24  C   UNL     1      -3.948   5.269 -33.646  1.00  0.00    -0.038 A 
HETATM   25  C   UNL     1      -3.166   5.596 -34.761  1.00  0.00     0.009 A 
HETATM   26  C   UNL     1      -1.775   5.508 -34.701  1.00  0.00     0.003 A 
HETATM   27  C   UNL     1      -1.151   5.106 -33.520  1.00  0.00     0.037 A 
HETATM   28  C   UNL     1      -1.906   4.794 -32.391  1.00  0.00     0.068 A 
HETATM   29  C   UNL     1      -3.298   4.876 -32.458  1.00  0.00     0.045 A 
BRANCH  28  30
HETATM   30  O   UNL     1      -1.173   4.426 -31.295  1.00  0.00    -0.356 OA
HETATM   31  C   UNL     1      -0.152   5.322 -30.872  1.00  0.00     0.210 C 
ENDBRANCH  28  30
ENDBRANCH  23  24
ENDBRANCH   1  23
TORSDOF 8
ENDMDL
MODEL 4
REMARK VINA RESULT:      -7.8      1.209      1.777
REMARK  8 active torsions:
REMARK  status: ('A' for Active; 'I' for Inactive)
REMARK    1  A    between atoms: O_2  and  C_3 
REMARK    2  A    between atoms: C_3  and  C_4 
REMARK    3  A    between atoms: C_4  and  N_5 
REMARK    4  A    between atoms: N_5  and  C_6 
REMARK       I    between atoms: N_5  and  C_15 
REMARK    5  A    between atoms: C_6  and  C_7 
REMARK    6  A    between atoms: C_11  and  O_12 
REMARK    7  A    between atoms: C_15  and  C_17 
REMARK    8  A    between atoms: C_22  and  C_26 
ROOT
HETATM    1  N   UNL     1      -5.398   4.981 -32.955  1.00  0.00    -0.340 N 
HETATM    2  C   UNL     1      -6.301   3.949 -32.615  1.00  0.00     0.279 C 
HETATM    3  O   UNL     1      -7.427   4.235 -32.198  1.00  0.00    -0.265 OA
ENDROOT
BRANCH   2   4
HETATM    4  C   UNL     1      -5.894   2.544 -32.763  1.00  0.00     0.166 A 
HETATM    5  N   UNL     1      -4.773   2.018 -32.312  1.00  0.00    -0.235 NA
HETATM    6  C   UNL     1      -4.693   0.685 -32.671  1.00  0.00     0.075 A 
HETATM    7  C   UNL     1      -3.622  -0.186 -32.395  1.00  0.00     0.034 A 
HETATM    8  C   UNL     1      -5.785   0.193 -33.385  1.00  0.00     0.036 A 
HETATM    9  C   UNL     1      -3.665  -1.511 -32.852  1.00  0.00     0.014 A 
HETATM   10  C   UNL     1      -4.762  -1.992 -33.576  1.00  0.00    -0.022 A 
HETATM   11  C   UNL     1      -5.842  -1.135 -33.843  1.00  0.00     0.033 A 
HETATM   12  S   UNL     1      -6.943   1.449 -33.574  1.00  0.00    -0.063 SA
BRANCH  10  13
HETATM   13  C   UNL     1      -4.794  -3.356 -34.075  1.00  0.00     0.010 A 
HETATM   14  C   UNL     1      -5.753  -4.026 -34.872  1.00  0.00     0.152 A 
HETATM   15  N   UNL     1      -5.429  -5.298 -35.113  1.00  0.00    -0.187 NA
HETATM   16  N   UNL     1      -4.264  -5.453 -34.468  1.00  0.00    -0.289 N 
HETATM   17  H   UNL     1      -3.812  -6.362 -34.501  1.00  0.00     0.188 HD
HETATM   18  C   UNL     1      -3.840  -4.320 -33.832  1.00  0.00     0.123 A 
ENDBRANCH  10  13
ENDBRANCH   2   4
BRANCH   1  19
HETATM   19  C   UNL     1      -5.786   6.397 -32.836  1.00  0.00     0.152 C 
BRANCH  19  20
HETATM   20  C   UNL     1      -5.539   7.135 -31.514  1.00  0.00     0.187 C 
BRANCH  20  21
HETATM   21  O   UNL     1      -6.437   8.251 -31.440  1.00  0.00    -0.394 OA
HETATM   22  C   UNL     1      -7.734   7.904 -31.912  1.00  0.00     0.201 C 
ENDBRANCH  20  21
ENDBRANCH  19  20
ENDBRANCH   1  19
BRANCH   1  23
HETATM   23  C   UNL     1      -4.233   4.742 -33.817  1.00  0.00     0.164 C 
BRANCH  23  24
HETATM   24  C   UNL     1      -2.916   5.289 -33.310  1.00  0.00    -0.038 A 
HETATM   25  C   UNL     1      -2.274   6.395 -33.880  1.00  0.00     0.009 A 
HETATM   26  C   UNL     1      -1.069   6.862 -33.357  1.00  0.00     0.003 A 
HETATM   27  C   UNL     1      -0.500   6.237 -32.247  1.00  0.00     0.037 A 
HETATM   28  C   UNL     1      -1.130   5.146 -31.649  1.00  0.00     0.068 A 
HETATM   29  C   UNL     1      -2.332   4.677 -32.182  1.00  0.00     0.045 A 
BRANCH  28  30
HETATM   30  O   UNL     1      -0.476   4.632 -30.562  1.00  0.00    -0.356 OA
HETATM   31  C   UNL     1       0.913   4.917 -30.451  1.00  0.00     0.210 C 
ENDBRANCH  28  30
ENDBRANCH  23  24
ENDBRANCH   1  23
TORSDOF 8
ENDMDL
MODEL 5
REMARK VINA RESULT:      -7.6      4.634      7.776
REMARK  8 active torsions:
REMARK  status: ('A' for Active; 'I' for Inactive)
REMARK    1  A    between atoms: O_2  and  C_3 
REMARK    2  A    between atoms: C_3  and  C_4 
REMARK    3  A    between atoms: C_4  and  N_5 
REMARK    4  A    between atoms: N_5  and  C_6 
REMARK       I    between atoms: N_5  and  C_15 
REMARK    5  A    between atoms: C_6  and  C_7 
REMARK    6  A    between atoms: C_11  and  O_12 
REMARK    7  A    between atoms: C_15  and  C_17 
REMARK    8  A    between atoms: C_22  and  C_26 
ROOT
HETATM    1  N   UNL     1      -5.816   2.060 -32.589  1.00  0.00    -0.340 N 
HETATM    2  C   UNL     1      -6.638   2.905 -33.369  1.00  0.00     0.279 C 
HETATM    3  O   UNL     1      -6.125   3.786 -34.064  1.00  0.00    -0.265 OA
ENDROOT
BRANCH   2   4
HETATM    4  C   UNL     1      -8.098   2.724 -33.349  1.00  0.00     0.166 A 
HETATM    5  N   UNL     1      -8.790   1.980 -34.188  1.00  0.00    -0.235 NA
HETATM    6  C   UNL     1     -10.141   2.079 -33.909  1.00  0.00     0.075 A 
HETATM    7  C   UNL     1     -11.183   1.454 -34.621  1.00  0.00     0.034 A 
HETATM    8  C   UNL     1     -10.469   2.893 -32.826  1.00  0.00     0.036 A 
HETATM    9  C   UNL     1     -12.516   1.672 -34.241  1.00  0.00     0.014 A 
HETATM   10  C   UNL     1     -12.833   2.499 -33.158  1.00  0.00    -0.022 A 
HETATM   11  C   UNL     1     -11.801   3.114 -32.433  1.00  0.00     0.033 A 
HETATM   12  S   UNL     1      -9.024   3.518 -32.138  1.00  0.00    -0.063 SA
BRANCH  10  13
HETATM   13  C   UNL     1     -14.215   2.749 -32.783  1.00  0.00     0.010 A 
HETATM   14  C   UNL     1     -15.332   1.880 -32.738  1.00  0.00     0.152 A 
HETATM   15  N   UNL     1     -16.451   2.495 -32.350  1.00  0.00    -0.187 NA
HETATM   16  N   UNL     1     -16.060   3.761 -32.148  1.00  0.00    -0.289 N 
HETATM   17  H   UNL     1     -16.754   4.437 -31.846  1.00  0.00     0.188 HD
HETATM   18  C   UNL     1     -14.731   3.965 -32.392  1.00  0.00     0.123 A 
ENDBRANCH  10  13
ENDBRANCH   2   4
BRANCH   1  19
HETATM   19  C   UNL     1      -4.350   2.205 -32.606  1.00  0.00     0.152 C 
BRANCH  19  20
HETATM   20  C   UNL     1      -3.611   2.524 -31.300  1.00  0.00     0.187 C 
BRANCH  20  21
HETATM   21  O   UNL     1      -2.456   3.315 -31.611  1.00  0.00    -0.394 OA
HETATM   22  C   UNL     1      -2.764   4.330 -32.560  1.00  0.00     0.201 C 
ENDBRANCH  20  21
ENDBRANCH  19  20
ENDBRANCH   1  19
BRANCH   1  23
HETATM   23  C   UNL     1      -6.292   0.770 -32.076  1.00  0.00     0.164 C 
BRANCH  23  24
HETATM   24  C   UNL     1      -5.942  -0.441 -32.913  1.00  0.00    -0.038 A 
HETATM   25  C   UNL     1      -6.629  -0.791 -34.082  1.00  0.00     0.009 A 
HETATM   26  C   UNL     1      -6.247  -1.911 -34.820  1.00  0.00     0.003 A 
HETATM   27  C   UNL     1      -5.163  -2.685 -34.406  1.00  0.00     0.037 A 
HETATM   28  C   UNL     1      -4.450  -2.346 -33.256  1.00  0.00     0.068 A 
HETATM   29  C   UNL     1      -4.842  -1.229 -32.516  1.00  0.00     0.045 A 
BRANCH  28  30
HETATM   30  O   UNL     1      -3.403  -3.178 -32.966  1.00  0.00    -0.356 OA
HETATM   31  C   UNL     1      -3.518  -4.531 -33.390  1.00  0.00     0.210 C 
ENDBRANCH  28  30
ENDBRANCH  23  24
ENDBRANCH   1  23
TORSDOF 8
ENDMDL
MODEL 6
REMARK VINA RESULT:      -7.4      3.263      7.951
REMARK  8 active torsions:
REMARK  status: ('A' for Active; 'I' for Inactive)
REMARK    1  A    between atoms: O_2  and  C_3 
REMARK    2  A    between atoms: C_3  and  C_4 
REMARK    3  A    between atoms: C_4  and  N_5 
REMARK    4  A    between atoms: N_5  and  C_6 
REMARK       I    between atoms: N_5  and  C_15 
REMARK    5  A    between atoms: C_6  and  C_7 
REMARK    6  A    between atoms: C_11  and  O_12 
REMARK    7  A    between atoms: C_15  and  C_17 
REMARK    8  A    between atoms: C_22  and  C_26 
ROOT
HETATM    1  N   UNL     1      -8.305   3.011 -33.678  1.00  0.00    -0.340 N 
HETATM    2  C   UNL     1      -7.726   4.284 -33.877  1.00  0.00     0.279 C 
HETATM    3  O   UNL     1      -8.369   5.164 -34.457  1.00  0.00    -0.265 OA
ENDROOT
BRANCH   2   4
HETATM    4  C   UNL     1      -6.365   4.552 -33.390  1.00  0.00     0.166 A 
HETATM    5  N   UNL     1      -5.250   4.232 -34.016  1.00  0.00    -0.235 NA
HETATM    6  C   UNL     1      -4.154   4.588 -33.250  1.00  0.00     0.075 A 
HETATM    7  C   UNL     1      -2.804   4.366 -33.580  1.00  0.00     0.034 A 
HETATM    8  C   UNL     1      -4.451   5.208 -32.037  1.00  0.00     0.036 A 
HETATM    9  C   UNL     1      -1.795   4.754 -32.686  1.00  0.00     0.014 A 
HETATM   10  C   UNL     1      -2.104   5.367 -31.467  1.00  0.00    -0.022 A 
HETATM   11  C   UNL     1      -3.448   5.606 -31.136  1.00  0.00     0.033 A 
HETATM   12  S   UNL     1      -6.156   5.363 -31.889  1.00  0.00    -0.063 SA
BRANCH  10  13
HETATM   13  C   UNL     1      -1.061   5.742 -30.528  1.00  0.00     0.010 A 
HETATM   14  C   UNL     1       0.049   5.012 -30.040  1.00  0.00     0.152 A 
HETATM   15  N   UNL     1       0.782   5.705 -29.166  1.00  0.00    -0.187 NA
HETATM   16  N   UNL     1       0.144   6.881 -29.084  1.00  0.00    -0.289 N 
HETATM   17  H   UNL     1       0.518   7.590 -28.462  1.00  0.00     0.188 HD
HETATM   18  C   UNL     1      -0.965   6.955 -29.880  1.00  0.00     0.123 A 
ENDBRANCH  10  13
ENDBRANCH   2   4
BRANCH   1  19
HETATM   19  C   UNL     1      -9.675   2.721 -34.137  1.00  0.00     0.152 C 
BRANCH  19  20
HETATM   20  C   UNL     1     -10.724   2.253 -33.121  1.00  0.00     0.187 C 
BRANCH  20  21
HETATM   21  O   UNL     1     -11.142   0.927 -33.474  1.00  0.00    -0.394 OA
HETATM   22  C   UNL     1     -12.514   0.901 -33.850  1.00  0.00     0.201 C 
ENDBRANCH  20  21
ENDBRANCH  19  20
ENDBRANCH   1  19
BRANCH   1  23
HETATM   23  C   UNL     1      -7.791   2.072 -32.672  1.00  0.00     0.164 C 
BRANCH  23  24
HETATM   24  C   UNL     1      -7.082   0.850 -33.214  1.00  0.00    -0.038 A 
HETATM   25  C   UNL     1      -7.705  -0.098 -34.034  1.00  0.00     0.009 A 
HETATM   26  C   UNL     1      -6.992  -1.195 -34.517  1.00  0.00     0.003 A 
HETATM   27  C   UNL     1      -5.643  -1.348 -34.196  1.00  0.00     0.037 A 
HETATM   28  C   UNL     1      -4.994  -0.407 -33.397  1.00  0.00     0.068 A 
HETATM   29  C   UNL     1      -5.715   0.685 -32.910  1.00  0.00     0.045 A 
BRANCH  28  30
HETATM   30  O   UNL     1      -3.670  -0.666 -33.167  1.00  0.00    -0.356 OA
HETATM   31  C   UNL     1      -3.368  -1.683 -32.220  1.00  0.00     0.210 C 
ENDBRANCH  28  30
ENDBRANCH  23  24
ENDBRANCH   1  23
TORSDOF 8
ENDMDL
MODEL 7
REMARK VINA RESULT:      -7.3      3.984      9.186
REMARK  8 active torsions:
REMARK  status: ('A' for Active; 'I' for Inactive)
REMARK    1  A    between atoms: O_2  and  C_3 
REMARK    2  A    between atoms: C_3  and  C_4 
REMARK    3  A    between atoms: C_4  and  N_5 
REMARK    4  A    between atoms: N_5  and  C_6 
REMARK       I    between atoms: N_5  and  C_15 
REMARK    5  A    between atoms: C_6  and  C_7 
REMARK    6  A    between atoms: C_11  and  O_12 
REMARK    7  A    between atoms: C_15  and  C_17 
REMARK    8  A    between atoms: C_22  and  C_26 
ROOT
HETATM    1  N   UNL     1      -4.640   4.407 -33.044  1.00  0.00    -0.340 N 
HETATM    2  C   UNL     1      -3.658   5.393 -33.296  1.00  0.00     0.279 C 
HETATM    3  O   UNL     1      -3.659   5.996 -34.372  1.00  0.00    -0.265 OA
ENDROOT
BRANCH   2   4
HETATM    4  C   UNL     1      -2.646   5.693 -32.272  1.00  0.00     0.166 A 
HETATM    5  N   UNL     1      -1.696   4.873 -31.868  1.00  0.00    -0.235 NA
HETATM    6  C   UNL     1      -0.955   5.462 -30.860  1.00  0.00     0.075 A 
HETATM    7  C   UNL     1       0.116   4.870 -30.164  1.00  0.00     0.034 A 
HETATM    8  C   UNL     1      -1.339   6.758 -30.516  1.00  0.00     0.036 A 
HETATM    9  C   UNL     1       0.757   5.579 -29.138  1.00  0.00     0.014 A 
HETATM   10  C   UNL     1       0.357   6.876 -28.794  1.00  0.00    -0.022 A 
HETATM   11  C   UNL     1      -0.699   7.480 -29.493  1.00  0.00     0.033 A 
HETATM   12  S   UNL     1      -2.650   7.238 -31.518  1.00  0.00    -0.063 SA
BRANCH  10  13
HETATM   13  C   UNL     1       1.002   7.600 -27.712  1.00  0.00     0.010 A 
HETATM   14  C   UNL     1       1.045   7.338 -26.322  1.00  0.00     0.152 A 
HETATM   15  N   UNL     1       1.738   8.254 -25.642  1.00  0.00    -0.187 NA
HETATM   16  N   UNL     1       2.138   9.112 -26.592  1.00  0.00    -0.289 N 
HETATM   17  H   UNL     1       2.689   9.917 -26.312  1.00  0.00     0.188 HD
HETATM   18  C   UNL     1       1.725   8.765 -27.847  1.00  0.00     0.123 A 
ENDBRANCH  10  13
ENDBRANCH   2   4
BRANCH   1  19
HETATM   19  C   UNL     1      -5.678   4.100 -34.044  1.00  0.00     0.152 C 
BRANCH  19  20
HETATM   20  C   UNL     1      -7.086   4.680 -33.866  1.00  0.00     0.187 C 
BRANCH  20  21
HETATM   21  O   UNL     1      -7.978   3.614 -33.514  1.00  0.00    -0.394 OA
HETATM   22  C   UNL     1      -9.285   3.842 -34.029  1.00  0.00     0.201 C 
ENDBRANCH  20  21
ENDBRANCH  19  20
ENDBRANCH   1  19
BRANCH   1  23
HETATM   23  C   UNL     1      -4.953   3.951 -31.684  1.00  0.00     0.164 C 
BRANCH  23  24
HETATM   24  C   UNL     1      -5.209   2.467 -31.531  1.00  0.00    -0.038 A 
HETATM   25  C   UNL     1      -6.326   1.946 -30.867  1.00  0.00     0.009 A 
HETATM   26  C   UNL     1      -6.515   0.567 -30.773  1.00  0.00     0.003 A 
HETATM   27  C   UNL     1      -5.595  -0.305 -31.355  1.00  0.00     0.037 A 
HETATM   28  C   UNL     1      -4.485   0.189 -32.038  1.00  0.00     0.068 A 
HETATM   29  C   UNL     1      -4.296   1.570 -32.122  1.00  0.00     0.045 A 
BRANCH  28  30
HETATM   30  O   UNL     1      -3.667  -0.769 -32.573  1.00  0.00    -0.356 OA
HETATM   31  C   UNL     1      -2.526  -1.141 -31.810  1.00  0.00     0.210 C 
ENDBRANCH  28  30
ENDBRANCH  23  24
ENDBRANCH   1  23
TORSDOF 8
ENDMDL
MODEL 8
REMARK VINA RESULT:      -7.3      2.590      5.215
REMARK  8 active torsions:
REMARK  status: ('A' for Active; 'I' for Inactive)
REMARK    1  A    between atoms: O_2  and  C_3 
REMARK    2  A    between atoms: C_3  and  C_4 
REMARK    3  A    between atoms: C_4  and  N_5 
REMARK    4  A    between atoms: N_5  and  C_6 
REMARK       I    between atoms: N_5  and  C_15 
REMARK    5  A    between atoms: C_6  and  C_7 
REMARK    6  A    between atoms: C_11  and  O_12 
REMARK    7  A    between atoms: C_15  and  C_17 
REMARK    8  A    between atoms: C_22  and  C_26 
ROOT
HETATM    1  N   UNL     1      -6.284   3.995 -30.259  1.00  0.00    -0.340 N 
HETATM    2  C   UNL     1      -5.180   3.576 -31.036  1.00  0.00     0.279 C 
HETATM    3  O   UNL     1      -4.141   4.242 -31.031  1.00  0.00    -0.265 OA
ENDROOT
BRANCH   2   4
HETATM    4  C   UNL     1      -5.277   2.350 -31.842  1.00  0.00     0.166 A 
HETATM    5  N   UNL     1      -5.995   2.207 -32.939  1.00  0.00    -0.235 NA
HETATM    6  C   UNL     1      -5.894   0.910 -33.409  1.00  0.00     0.075 A 
HETATM    7  C   UNL     1      -6.552   0.383 -34.536  1.00  0.00     0.034 A 
HETATM    8  C   UNL     1      -5.066   0.069 -32.666  1.00  0.00     0.036 A 
HETATM    9  C   UNL     1      -6.379  -0.967 -34.877  1.00  0.00     0.014 A 
HETATM   10  C   UNL     1      -5.553  -1.804 -34.119  1.00  0.00    -0.022 A 
HETATM   11  C   UNL     1      -4.880  -1.284 -33.002  1.00  0.00     0.033 A 
HETATM   12  S   UNL     1      -4.386   0.960 -31.363  1.00  0.00    -0.063 SA
BRANCH  10  13
HETATM   13  C   UNL     1      -5.396  -3.209 -34.454  1.00  0.00     0.010 A 
HETATM   14  C   UNL     1      -6.241  -4.087 -35.175  1.00  0.00     0.152 A 
HETATM   15  N   UNL     1      -5.749  -5.325 -35.262  1.00  0.00    -0.187 NA
HETATM   16  N   UNL     1      -4.589  -5.249 -34.593  1.00  0.00    -0.289 N 
HETATM   17  H   UNL     1      -4.023  -6.088 -34.516  1.00  0.00     0.188 HD
HETATM   18  C   UNL     1      -4.331  -4.005 -34.092  1.00  0.00     0.123 A 
ENDBRANCH  10  13
ENDBRANCH   2   4
BRANCH   1  19
HETATM   19  C   UNL     1      -6.207   5.208 -29.427  1.00  0.00     0.152 C 
BRANCH  19  20
HETATM   20  C   UNL     1      -6.587   6.563 -30.037  1.00  0.00     0.187 C 
BRANCH  20  21
HETATM   21  O   UNL     1      -5.410   7.379 -30.105  1.00  0.00    -0.394 OA
HETATM   22  C   UNL     1      -5.000   7.583 -31.452  1.00  0.00     0.201 C 
ENDBRANCH  20  21
ENDBRANCH  19  20
ENDBRANCH   1  19
BRANCH   1  23
HETATM   23  C   UNL     1      -7.371   3.077 -29.896  1.00  0.00     0.164 C 
BRANCH  23  24
HETATM   24  C   UNL     1      -8.682   3.291 -30.621  1.00  0.00    -0.038 A 
HETATM   25  C   UNL     1      -9.625   4.251 -30.234  1.00  0.00     0.009 A 
HETATM   26  C   UNL     1     -10.809   4.411 -30.955  1.00  0.00     0.003 A 
HETATM   27  C   UNL     1     -11.056   3.623 -32.079  1.00  0.00     0.037 A 
HETATM   28  C   UNL     1     -10.123   2.673 -32.495  1.00  0.00     0.068 A 
HETATM   29  C   UNL     1      -8.944   2.511 -31.766  1.00  0.00     0.045 A 
BRANCH  28  30
HETATM   30  O   UNL     1     -10.479   1.975 -33.617  1.00  0.00    -0.356 OA
HETATM   31  C   UNL     1     -11.612   1.121 -33.513  1.00  0.00     0.210 C 
ENDBRANCH  28  30
ENDBRANCH  23  24
ENDBRANCH   1  23
TORSDOF 8
ENDMDL
MODEL 9
REMARK VINA RESULT:      -7.2      3.100      8.163
REMARK  8 active torsions:
REMARK  status: ('A' for Active; 'I' for Inactive)
REMARK    1  A    between atoms: O_2  and  C_3 
REMARK    2  A    between atoms: C_3  and  C_4 
REMARK    3  A    between atoms: C_4  and  N_5 
REMARK    4  A    between atoms: N_5  and  C_6 
REMARK       I    between atoms: N_5  and  C_15 
REMARK    5  A    between atoms: C_6  and  C_7 
REMARK    6  A    between atoms: C_11  and  O_12 
REMARK    7  A    between atoms: C_15  and  C_17 
REMARK    8  A    between atoms: C_22  and  C_26 
ROOT
HETATM    1  N   UNL     1      -8.144   1.148 -33.344  1.00  0.00    -0.340 N 
HETATM    2  C   UNL     1      -7.813   1.863 -32.171  1.00  0.00     0.279 C 
HETATM    3  O   UNL     1      -8.507   1.733 -31.159  1.00  0.00    -0.265 OA
ENDROOT
BRANCH   2   4
HETATM    4  C   UNL     1      -6.643   2.754 -32.165  1.00  0.00     0.166 A 
HETATM    5  N   UNL     1      -6.443   3.763 -32.989  1.00  0.00    -0.235 NA
HETATM    6  C   UNL     1      -5.218   4.353 -32.732  1.00  0.00     0.075 A 
HETATM    7  C   UNL     1      -4.654   5.433 -33.436  1.00  0.00     0.034 A 
HETATM    8  C   UNL     1      -4.495   3.792 -31.680  1.00  0.00     0.036 A 
HETATM    9  C   UNL     1      -3.382   5.908 -33.083  1.00  0.00     0.014 A 
HETATM   10  C   UNL     1      -2.661   5.331 -32.031  1.00  0.00    -0.022 A 
HETATM   11  C   UNL     1      -3.222   4.264 -31.313  1.00  0.00     0.033 A 
HETATM   12  S   UNL     1      -5.409   2.509 -30.993  1.00  0.00    -0.063 SA
BRANCH  10  13
HETATM   13  C   UNL     1      -1.332   5.804 -31.683  1.00  0.00     0.010 A 
HETATM   14  C   UNL     1      -0.306   5.197 -30.920  1.00  0.00     0.152 A 
HETATM   15  N   UNL     1       0.782   5.963 -30.811  1.00  0.00    -0.187 NA
HETATM   16  N   UNL     1       0.458   7.067 -31.499  1.00  0.00    -0.289 N 
HETATM   17  H   UNL     1       1.140   7.816 -31.556  1.00  0.00     0.188 HD
HETATM   18  C   UNL     1      -0.795   7.021 -32.042  1.00  0.00     0.123 A 
ENDBRANCH  10  13
ENDBRANCH   2   4
BRANCH   1  19
HETATM   19  C   UNL     1      -9.298   0.233 -33.373  1.00  0.00     0.152 C 
BRANCH  19  20
HETATM   20  C   UNL     1     -10.716   0.813 -33.437  1.00  0.00     0.187 C 
BRANCH  20  21
HETATM   21  O   UNL     1     -10.769   1.773 -34.501  1.00  0.00    -0.394 OA
HETATM   22  C   UNL     1     -11.187   3.048 -34.028  1.00  0.00     0.201 C 
ENDBRANCH  20  21
ENDBRANCH  19  20
ENDBRANCH   1  19
BRANCH   1  23
HETATM   23  C   UNL     1      -7.172   0.932 -34.424  1.00  0.00     0.164 C 
BRANCH  23  24
HETATM   24  C   UNL     1      -6.198  -0.207 -34.214  1.00  0.00    -0.038 A 
HETATM   25  C   UNL     1      -5.108  -0.132 -33.337  1.00  0.00     0.009 A 
HETATM   26  C   UNL     1      -4.254  -1.223 -33.174  1.00  0.00     0.003 A 
HETATM   27  C   UNL     1      -4.490  -2.406 -33.875  1.00  0.00     0.037 A 
HETATM   28  C   UNL     1      -5.579  -2.512 -34.739  1.00  0.00     0.068 A 
HETATM   29  C   UNL     1      -6.426  -1.414 -34.905  1.00  0.00     0.045 A 
BRANCH  28  30
HETATM   30  O   UNL     1      -5.706  -3.727 -35.356  1.00  0.00    -0.356 OA
HETATM   31  C   UNL     1      -6.823  -4.525 -34.984  1.00  0.00     0.210 C 
ENDBRANCH  28  30
ENDBRANCH  23  24
ENDBRANCH   1  23
TORSDOF 8
ENDMDL
MODEL 10
REMARK VINA RESULT:      -7.2      1.689      2.306
REMARK  8 active torsions:
REMARK  status: ('A' for Active; 'I' for Inactive)
REMARK    1  A    between atoms: O_2  and  C_3 
REMARK    2  A    between atoms: C_3  and  C_4 
REMARK    3  A    between atoms: C_4  and  N_5 
REMARK    4  A    between atoms: N_5  and  C_6 
REMARK       I    between atoms: N_5  and  C_15 
REMARK    5  A    between atoms: C_6  and  C_7 
REMARK    6  A    between atoms: C_11  and  O_12 
REMARK    7  A    between atoms: C_15  and  C_17 
REMARK    8  A    between atoms: C_22  and  C_26 
ROOT
HETATM    1  N   UNL     1      -5.326   5.664 -31.081  1.00  0.00    -0.340 N 
HETATM    2  C   UNL     1      -5.578   4.482 -30.349  1.00  0.00     0.279 C 
HETATM    3  O   UNL     1      -5.931   4.557 -29.169  1.00  0.00    -0.265 OA
ENDROOT
BRANCH   2   4
HETATM    4  C   UNL     1      -5.421   3.173 -31.000  1.00  0.00     0.166 A 
HETATM    5  N   UNL     1      -4.273   2.582 -31.268  1.00  0.00    -0.235 NA
HETATM    6  C   UNL     1      -4.495   1.387 -31.928  1.00  0.00     0.075 A 
HETATM    7  C   UNL     1      -3.505   0.506 -32.403  1.00  0.00     0.034 A 
HETATM    8  C   UNL     1      -5.834   1.061 -32.138  1.00  0.00     0.036 A 
HETATM    9  C   UNL     1      -3.880  -0.661 -33.086  1.00  0.00     0.014 A 
HETATM   10  C   UNL     1      -5.227  -0.973 -33.299  1.00  0.00    -0.022 A 
HETATM   11  C   UNL     1      -6.221  -0.109 -32.815  1.00  0.00     0.033 A 
HETATM   12  S   UNL     1      -6.823   2.289 -31.455  1.00  0.00    -0.063 SA
BRANCH  10  13
HETATM   13  C   UNL     1      -5.615  -2.167 -34.032  1.00  0.00     0.010 A 
HETATM   14  C   UNL     1      -4.829  -3.194 -34.606  1.00  0.00     0.152 A 
HETATM   15  N   UNL     1      -5.562  -4.128 -35.218  1.00  0.00    -0.187 NA
HETATM   16  N   UNL     1      -6.822  -3.701 -35.043  1.00  0.00    -0.289 N 
HETATM   17  H   UNL     1      -7.576  -4.256 -35.435  1.00  0.00     0.188 HD
HETATM   18  C   UNL     1      -6.907  -2.533 -34.339  1.00  0.00     0.123 A 
ENDBRANCH  10  13
ENDBRANCH   2   4
BRANCH   1  19
HETATM   19  C   UNL     1      -5.495   6.990 -30.460  1.00  0.00     0.152 C 
BRANCH  19  20
HETATM   20  C   UNL     1      -4.313   7.631 -29.723  1.00  0.00     0.187 C 
BRANCH  20  21
HETATM   21  O   UNL     1      -3.756   8.655 -30.558  1.00  0.00    -0.394 OA
HETATM   22  C   UNL     1      -2.382   8.876 -30.259  1.00  0.00     0.201 C 
ENDBRANCH  20  21
ENDBRANCH  19  20
ENDBRANCH   1  19
BRANCH   1  23
HETATM   23  C   UNL     1      -5.305   5.681 -32.549  1.00  0.00     0.164 C 
BRANCH  23  24
HETATM   24  C   UNL     1      -3.939   5.550 -33.189  1.00  0.00    -0.038 A 
HETATM   25  C   UNL     1      -3.752   5.277 -34.549  1.00  0.00     0.009 A 
HETATM   26  C   UNL     1      -2.467   5.185 -35.083  1.00  0.00     0.003 A 
HETATM   27  C   UNL     1      -1.354   5.379 -34.264  1.00  0.00     0.037 A 
HETATM   28  C   UNL     1      -1.514   5.670 -32.910  1.00  0.00     0.068 A 
HETATM   29  C   UNL     1      -2.803   5.754 -32.379  1.00  0.00     0.045 A 
BRANCH  28  30
HETATM   30  O   UNL     1      -0.346   5.850 -32.220  1.00  0.00    -0.356 OA
HETATM   31  C   UNL     1      -0.269   5.273 -30.923  1.00  0.00     0.210 C 
ENDBRANCH  28  30
ENDBRANCH  23  24
ENDBRANCH   1  23
TORSDOF 8
ENDMDL
