MODEL 1
REMARK VINA RESULT:      -9.3      0.000      0.000
REMARK  6 active torsions:
REMARK  status: ('A' for Active; 'I' for Inactive)
REMARK    1  A    between atoms: C_4  and  C_5 
REMARK    2  A    between atoms: C_7  and  S_8 
REMARK    3  A    between atoms: S_8  and  C_9 
REMARK    4  A    between atoms: C_9  and  C_10 
REMARK       I    between atoms: C_10  and  N_11 
REMARK    5  A    between atoms: N_11  and  C_12 
REMARK    6  A    between atoms: C_26  and  C_27 
ROOT
HETATM    1  C   UNL     1      -6.813  -0.395 -34.025  1.00  0.00     0.076 A 
HETATM    2  N   UNL     1      -5.648  -0.153 -33.377  1.00  0.00    -0.239 NA
HETATM    3  C   UNL     1      -4.735  -1.143 -33.248  1.00  0.00     0.116 A 
HETATM    4  C   UNL     1      -4.938  -2.419 -33.774  1.00  0.00     0.095 A 
HETATM    5  C   UNL     1      -3.967  -3.458 -33.596  1.00  0.00     0.103 C 
HETATM    6  N   UNL     1      -3.204  -4.321 -33.458  1.00  0.00    -0.191 NA
HETATM    7  C   UNL     1      -6.137  -2.669 -34.462  1.00  0.00     0.073 A 
HETATM    8  C   UNL     1      -7.081  -1.636 -34.582  1.00  0.00     0.050 A 
ENDROOT
BRANCH   3   9
HETATM    9  S   UNL     1      -3.306  -0.753 -32.234  1.00  0.00    -0.100 SA
BRANCH   9  10
HETATM   10  C   UNL     1      -4.023   0.341 -30.956  1.00  0.00     0.184 C 
BRANCH  10  11
HETATM   11  C   UNL     1      -4.168   1.811 -31.341  1.00  0.00     0.231 C 
HETATM   12  N   UNL     1      -3.172   2.321 -32.152  1.00  0.00    -0.326 N 
HETATM   13  H   UNL     1      -2.457   1.654 -32.416  1.00  0.00     0.169 HD
HETATM   14  O   UNL     1      -5.137   2.447 -30.926  1.00  0.00    -0.272 OA
BRANCH  12  15
HETATM   15  C   UNL     1      -2.914   3.670 -32.460  1.00  0.00     0.037 A 
HETATM   16  C   UNL     1      -2.973   4.705 -31.520  1.00  0.00     0.061 A 
HETATM   17  C   UNL     1      -2.627   5.964 -31.954  1.00  0.00     0.065 A 
HETATM   18  C   UNL     1      -2.235   6.223 -33.264  1.00  0.00     0.063 A 
HETATM   19  N   UNL     1      -2.582   7.163 -31.250  1.00  0.00    -0.306 N 
HETATM   20  N   UNL     1      -1.943   7.577 -33.367  1.00  0.00    -0.307 N 
HETATM   21  C   UNL     1      -2.178   5.237 -34.216  1.00  0.00     0.034 A 
HETATM   22  C   UNL     1      -2.155   8.178 -32.117  1.00  0.00     0.325 A 
HETATM   23  H   UNL     1      -1.628   8.078 -34.181  1.00  0.00     0.170 HD
HETATM   24  O   UNL     1      -1.996   9.354 -31.840  1.00  0.00    -0.247 OA
HETATM   25  C   UNL     1      -2.529   3.946 -33.801  1.00  0.00     0.032 A 
HETATM   26  H   UNL     1      -2.810   7.307 -30.280  1.00  0.00     0.170 HD
ENDBRANCH  12  15
ENDBRANCH  10  11
ENDBRANCH   9  10
ENDBRANCH   3   9
BRANCH   7  27
HETATM   27  C   UNL     1      -6.438  -4.033 -35.028  1.00  0.00     0.419 C 
HETATM   28  F   UNL     1      -5.420  -4.522 -35.781  1.00  0.00    -0.166 F 
HETATM   29  F   UNL     1      -6.679  -4.948 -34.052  1.00  0.00    -0.166 F 
HETATM   30  F   UNL     1      -7.537  -4.049 -35.831  1.00  0.00    -0.166 F 
ENDBRANCH   7  27
BRANCH   1  31
HETATM   31  C   UNL     1      -7.748   0.745 -34.034  1.00  0.00     0.033 A 
HETATM   32  S   UNL     1      -7.204   2.368 -33.842  1.00  0.00    -0.100 SA
HETATM   33  C   UNL     1      -8.777   3.007 -34.006  1.00  0.00     0.050 A 
HETATM   34  C   UNL     1      -9.715   2.022 -34.200  1.00  0.00     0.008 A 
HETATM   35  C   UNL     1      -9.125   0.725 -34.209  1.00  0.00     0.021 A 
ENDBRANCH   1  31
TORSDOF 6
ENDMDL
MODEL 2
REMARK VINA RESULT:      -9.2      3.313      5.256
REMARK  6 active torsions:
REMARK  status: ('A' for Active; 'I' for Inactive)
REMARK    1  A    between atoms: C_4  and  C_5 
REMARK    2  A    between atoms: C_7  and  S_8 
REMARK    3  A    between atoms: S_8  and  C_9 
REMARK    4  A    between atoms: C_9  and  C_10 
REMARK       I    between atoms: C_10  and  N_11 
REMARK    5  A    between atoms: N_11  and  C_12 
REMARK    6  A    between atoms: C_26  and  C_27 
ROOT
HETATM    1  C   UNL     1      -6.484  -1.186 -33.127  1.00  0.00     0.076 A 
HETATM    2  N   UNL     1      -7.648  -0.532 -33.356  1.00  0.00    -0.239 NA
HETATM    3  C   UNL     1      -7.985   0.526 -32.583  1.00  0.00     0.116 A 
HETATM    4  C   UNL     1      -7.166   0.990 -31.554  1.00  0.00     0.095 A 
HETATM    5  C   UNL     1      -7.563   2.095 -30.730  1.00  0.00     0.103 C 
HETATM    6  N   UNL     1      -7.862   2.978 -30.042  1.00  0.00    -0.191 NA
HETATM    7  C   UNL     1      -5.950   0.327 -31.324  1.00  0.00     0.073 A 
HETATM    8  C   UNL     1      -5.614  -0.776 -32.127  1.00  0.00     0.050 A 
ENDROOT
BRANCH   3   9
HETATM    9  S   UNL     1      -9.620   1.209 -32.874  1.00  0.00    -0.100 SA
BRANCH   9  10
HETATM   10  C   UNL     1      -9.309   2.398 -34.228  1.00  0.00     0.184 C 
BRANCH  10  11
HETATM   11  C   UNL     1      -8.418   3.588 -33.879  1.00  0.00     0.231 C 
HETATM   12  N   UNL     1      -7.083   3.454 -34.208  1.00  0.00    -0.326 N 
HETATM   13  H   UNL     1      -6.842   2.581 -34.661  1.00  0.00     0.169 HD
HETATM   14  O   UNL     1      -8.919   4.576 -33.344  1.00  0.00    -0.272 OA
BRANCH  12  15
HETATM   15  C   UNL     1      -6.006   4.263 -33.798  1.00  0.00     0.037 A 
HETATM   16  C   UNL     1      -4.972   4.668 -34.650  1.00  0.00     0.061 A 
HETATM   17  C   UNL     1      -4.023   5.514 -34.124  1.00  0.00     0.065 A 
HETATM   18  C   UNL     1      -4.067   5.961 -32.806  1.00  0.00     0.063 A 
HETATM   19  N   UNL     1      -2.907   6.081 -34.729  1.00  0.00    -0.306 N 
HETATM   20  N   UNL     1      -2.983   6.805 -32.601  1.00  0.00    -0.307 N 
HETATM   21  C   UNL     1      -5.056   5.575 -31.938  1.00  0.00     0.034 A 
HETATM   22  C   UNL     1      -2.249   6.890 -33.793  1.00  0.00     0.325 A 
HETATM   23  H   UNL     1      -2.735   7.292 -31.756  1.00  0.00     0.170 HD
HETATM   24  O   UNL     1      -1.237   7.543 -33.978  1.00  0.00    -0.247 OA
HETATM   25  C   UNL     1      -6.033   4.709 -32.448  1.00  0.00     0.032 A 
HETATM   26  H   UNL     1      -2.600   5.951 -35.679  1.00  0.00     0.170 HD
ENDBRANCH  12  15
ENDBRANCH  10  11
ENDBRANCH   9  10
ENDBRANCH   3   9
BRANCH   7  27
HETATM   27  C   UNL     1      -5.031   0.752 -30.208  1.00  0.00     0.419 C 
HETATM   28  F   UNL     1      -3.846   0.089 -30.227  1.00  0.00    -0.166 F 
HETATM   29  F   UNL     1      -4.740   2.078 -30.264  1.00  0.00    -0.166 F 
HETATM   30  F   UNL     1      -5.557   0.538 -28.971  1.00  0.00    -0.166 F 
ENDBRANCH   7  27
BRANCH   1  31
HETATM   31  C   UNL     1      -6.270  -2.361 -33.991  1.00  0.00     0.033 A 
HETATM   32  S   UNL     1      -4.690  -2.898 -34.420  1.00  0.00    -0.100 SA
HETATM   33  C   UNL     1      -5.288  -4.219 -35.319  1.00  0.00     0.050 A 
HETATM   34  C   UNL     1      -6.661  -4.268 -35.309  1.00  0.00     0.008 A 
HETATM   35  C   UNL     1      -7.223  -3.198 -34.553  1.00  0.00     0.021 A 
ENDBRANCH   1  31
TORSDOF 6
ENDMDL
MODEL 3
REMARK VINA RESULT:      -9.0      3.793      5.923
REMARK  6 active torsions:
REMARK  status: ('A' for Active; 'I' for Inactive)
REMARK    1  A    between atoms: C_4  and  C_5 
REMARK    2  A    between atoms: C_7  and  S_8 
REMARK    3  A    between atoms: S_8  and  C_9 
REMARK    4  A    between atoms: C_9  and  C_10 
REMARK       I    between atoms: C_10  and  N_11 
REMARK    5  A    between atoms: N_11  and  C_12 
REMARK    6  A    between atoms: C_26  and  C_27 
ROOT
HETATM    1  C   UNL     1      -9.236   0.832 -32.945  1.00  0.00     0.076 A 
HETATM    2  N   UNL     1      -9.124   2.165 -32.729  1.00  0.00    -0.239 NA
HETATM    3  C   UNL     1     -10.217   2.955 -32.837  1.00  0.00     0.116 A 
HETATM    4  C   UNL     1     -11.477   2.447 -33.151  1.00  0.00     0.095 A 
HETATM    5  C   UNL     1     -12.613   3.311 -33.289  1.00  0.00     0.103 C 
HETATM    6  N   UNL     1     -13.546   3.987 -33.418  1.00  0.00    -0.191 NA
HETATM    7  C   UNL     1     -11.602   1.063 -33.358  1.00  0.00     0.073 A 
HETATM    8  C   UNL     1     -10.459   0.253 -33.252  1.00  0.00     0.050 A 
ENDROOT
BRANCH   3   9
HETATM    9  S   UNL     1      -9.916   4.719 -32.688  1.00  0.00    -0.100 SA
BRANCH   9  10
HETATM   10  C   UNL     1      -8.685   5.015 -34.007  1.00  0.00     0.184 C 
BRANCH  10  11
HETATM   11  C   UNL     1      -7.324   5.532 -33.546  1.00  0.00     0.231 C 
HETATM   12  N   UNL     1      -6.225   4.902 -34.095  1.00  0.00    -0.326 N 
HETATM   13  H   UNL     1      -6.443   4.170 -34.761  1.00  0.00     0.169 HD
HETATM   14  O   UNL     1      -7.278   6.458 -32.736  1.00  0.00    -0.272 OA
BRANCH  12  15
HETATM   15  C   UNL     1      -4.881   4.994 -33.686  1.00  0.00     0.037 A 
HETATM   16  C   UNL     1      -4.453   4.758 -32.374  1.00  0.00     0.061 A 
HETATM   17  C   UNL     1      -3.098   4.818 -32.139  1.00  0.00     0.065 A 
HETATM   18  C   UNL     1      -2.176   5.101 -33.142  1.00  0.00     0.063 A 
HETATM   19  N   UNL     1      -2.394   4.619 -30.956  1.00  0.00    -0.306 N 
HETATM   20  N   UNL     1      -0.905   5.071 -32.581  1.00  0.00    -0.307 N 
HETATM   21  C   UNL     1      -2.559   5.351 -34.435  1.00  0.00     0.034 A 
HETATM   22  C   UNL     1      -1.025   4.771 -31.216  1.00  0.00     0.325 A 
HETATM   23  H   UNL     1      -0.025   5.230 -33.042  1.00  0.00     0.170 HD
HETATM   24  O   UNL     1      -0.115   4.662 -30.413  1.00  0.00    -0.247 OA
HETATM   25  C   UNL     1      -3.934   5.300 -34.701  1.00  0.00     0.032 A 
HETATM   26  H   UNL     1      -2.777   4.399 -30.052  1.00  0.00     0.170 HD
ENDBRANCH  12  15
ENDBRANCH  10  11
ENDBRANCH   9  10
ENDBRANCH   3   9
BRANCH   7  27
HETATM   27  C   UNL     1     -12.926   0.449 -33.734  1.00  0.00     0.419 C 
HETATM   28  F   UNL     1     -12.914  -0.906 -33.650  1.00  0.00    -0.166 F 
HETATM   29  F   UNL     1     -13.934   0.883 -32.933  1.00  0.00    -0.166 F 
HETATM   30  F   UNL     1     -13.309   0.741 -35.006  1.00  0.00    -0.166 F 
ENDBRANCH   7  27
BRANCH   1  31
HETATM   31  C   UNL     1      -7.960   0.097 -32.866  1.00  0.00     0.033 A 
HETATM   32  S   UNL     1      -6.881   0.292 -31.538  1.00  0.00    -0.100 SA
HETATM   33  C   UNL     1      -5.774  -0.850 -32.157  1.00  0.00     0.050 A 
HETATM   34  C   UNL     1      -6.196  -1.379 -33.352  1.00  0.00     0.008 A 
HETATM   35  C   UNL     1      -7.446  -0.831 -33.761  1.00  0.00     0.021 A 
ENDBRANCH   1  31
TORSDOF 6
ENDMDL
MODEL 4
REMARK VINA RESULT:      -9.0      4.995      9.402
REMARK  6 active torsions:
REMARK  status: ('A' for Active; 'I' for Inactive)
REMARK    1  A    between atoms: C_4  and  C_5 
REMARK    2  A    between atoms: C_7  and  S_8 
REMARK    3  A    between atoms: S_8  and  C_9 
REMARK    4  A    between atoms: C_9  and  C_10 
REMARK       I    between atoms: C_10  and  N_11 
REMARK    5  A    between atoms: N_11  and  C_12 
REMARK    6  A    between atoms: C_26  and  C_27 
ROOT
HETATM    1  C   UNL     1      -3.607   6.632 -30.111  1.00  0.00     0.076 A 
HETATM    2  N   UNL     1      -4.754   6.198 -30.686  1.00  0.00    -0.239 NA
HETATM    3  C   UNL     1      -4.763   5.867 -31.998  1.00  0.00     0.116 A 
HETATM    4  C   UNL     1      -3.620   5.940 -32.794  1.00  0.00     0.095 A 
HETATM    5  C   UNL     1      -3.664   5.612 -34.189  1.00  0.00     0.103 C 
HETATM    6  N   UNL     1      -3.673   5.364 -35.322  1.00  0.00    -0.191 NA
HETATM    7  C   UNL     1      -2.423   6.372 -32.198  1.00  0.00     0.073 A 
HETATM    8  C   UNL     1      -2.428   6.722 -30.837  1.00  0.00     0.050 A 
ENDROOT
BRANCH   3   9
HETATM    9  S   UNL     1      -6.372   5.462 -32.685  1.00  0.00    -0.100 SA
BRANCH   9  10
HETATM   10  C   UNL     1      -6.687   3.803 -31.985  1.00  0.00     0.184 C 
BRANCH  10  11
HETATM   11  C   UNL     1      -6.438   2.624 -32.923  1.00  0.00     0.231 C 
HETATM   12  N   UNL     1      -6.468   1.374 -32.337  1.00  0.00    -0.326 N 
HETATM   13  H   UNL     1      -6.669   1.374 -31.345  1.00  0.00     0.169 HD
HETATM   14  O   UNL     1      -6.233   2.842 -34.117  1.00  0.00    -0.272 OA
BRANCH  12  15
HETATM   15  C   UNL     1      -6.042   0.150 -32.888  1.00  0.00     0.037 A 
HETATM   16  C   UNL     1      -6.917  -0.813 -33.404  1.00  0.00     0.061 A 
HETATM   17  C   UNL     1      -6.350  -1.931 -33.973  1.00  0.00     0.065 A 
HETATM   18  C   UNL     1      -4.972  -2.119 -34.043  1.00  0.00     0.063 A 
HETATM   19  N   UNL     1      -6.961  -3.030 -34.567  1.00  0.00    -0.306 N 
HETATM   20  N   UNL     1      -4.734  -3.329 -34.683  1.00  0.00    -0.307 N 
HETATM   21  C   UNL     1      -4.085  -1.204 -33.536  1.00  0.00     0.034 A 
HETATM   22  C   UNL     1      -5.966  -3.910 -35.017  1.00  0.00     0.325 A 
HETATM   23  H   UNL     1      -3.844  -3.748 -34.893  1.00  0.00     0.170 HD
HETATM   24  O   UNL     1      -6.137  -4.972 -35.590  1.00  0.00    -0.247 OA
HETATM   25  C   UNL     1      -4.637  -0.058 -32.948  1.00  0.00     0.032 A 
HETATM   26  H   UNL     1      -7.948  -3.193 -34.673  1.00  0.00     0.170 HD
ENDBRANCH  12  15
ENDBRANCH  10  11
ENDBRANCH   9  10
ENDBRANCH   3   9
BRANCH   7  27
HETATM   27  C   UNL     1      -1.158   6.507 -33.004  1.00  0.00     0.419 C 
HETATM   28  F   UNL     1      -1.264   7.434 -33.990  1.00  0.00    -0.166 F 
HETATM   29  F   UNL     1      -0.099   6.872 -32.234  1.00  0.00    -0.166 F 
HETATM   30  F   UNL     1      -0.789   5.351 -33.620  1.00  0.00    -0.166 F 
ENDBRANCH   7  27
BRANCH   1  31
HETATM   31  C   UNL     1      -3.750   7.026 -28.698  1.00  0.00     0.033 A 
HETATM   32  S   UNL     1      -5.292   7.150 -27.941  1.00  0.00    -0.100 SA
HETATM   33  C   UNL     1      -4.615   7.574 -26.433  1.00  0.00     0.050 A 
HETATM   34  C   UNL     1      -3.243   7.630 -26.483  1.00  0.00     0.008 A 
HETATM   35  C   UNL     1      -2.749   7.322 -27.784  1.00  0.00     0.021 A 
ENDBRANCH   1  31
TORSDOF 6
ENDMDL
MODEL 5
REMARK VINA RESULT:      -9.0      4.182      6.376
REMARK  6 active torsions:
REMARK  status: ('A' for Active; 'I' for Inactive)
REMARK    1  A    between atoms: C_4  and  C_5 
REMARK    2  A    between atoms: C_7  and  S_8 
REMARK    3  A    between atoms: S_8  and  C_9 
REMARK    4  A    between atoms: C_9  and  C_10 
REMARK       I    between atoms: C_10  and  N_11 
REMARK    5  A    between atoms: N_11  and  C_12 
REMARK    6  A    between atoms: C_26  and  C_27 
ROOT
HETATM    1  C   UNL     1      -9.845   1.352 -33.549  1.00  0.00     0.076 A 
HETATM    2  N   UNL     1      -9.787   2.633 -33.110  1.00  0.00    -0.239 NA
HETATM    3  C   UNL     1     -10.932   3.316 -32.883  1.00  0.00     0.116 A 
HETATM    4  C   UNL     1     -12.192   2.745 -33.071  1.00  0.00     0.095 A 
HETATM    5  C   UNL     1     -13.390   3.502 -32.853  1.00  0.00     0.103 C 
HETATM    6  N   UNL     1     -14.375   4.093 -32.695  1.00  0.00    -0.191 NA
HETATM    7  C   UNL     1     -12.257   1.412 -33.509  1.00  0.00     0.073 A 
HETATM    8  C   UNL     1     -11.061   0.715 -33.749  1.00  0.00     0.050 A 
ENDROOT
BRANCH   3   9
HETATM    9  S   UNL     1     -10.732   5.049 -32.461  1.00  0.00    -0.100 SA
BRANCH   9  10
HETATM   10  C   UNL     1      -9.479   4.983 -31.130  1.00  0.00     0.184 C 
BRANCH  10  11
HETATM   11  C   UNL     1      -8.053   5.345 -31.538  1.00  0.00     0.231 C 
HETATM   12  N   UNL     1      -7.426   4.452 -32.386  1.00  0.00    -0.326 N 
HETATM   13  H   UNL     1      -7.990   3.657 -32.658  1.00  0.00     0.169 HD
HETATM   14  O   UNL     1      -7.552   6.383 -31.107  1.00  0.00    -0.272 OA
BRANCH  12  15
HETATM   15  C   UNL     1      -6.061   4.396 -32.726  1.00  0.00     0.037 A 
HETATM   16  C   UNL     1      -5.515   5.031 -33.848  1.00  0.00     0.061 A 
HETATM   17  C   UNL     1      -4.152   4.944 -34.013  1.00  0.00     0.065 A 
HETATM   18  C   UNL     1      -3.331   4.260 -33.120  1.00  0.00     0.063 A 
HETATM   19  N   UNL     1      -3.344   5.477 -35.012  1.00  0.00    -0.306 N 
HETATM   20  N   UNL     1      -2.020   4.376 -33.565  1.00  0.00    -0.307 N 
HETATM   21  C   UNL     1      -3.831   3.615 -32.018  1.00  0.00     0.034 A 
HETATM   22  C   UNL     1      -2.012   5.133 -34.746  1.00  0.00     0.325 A 
HETATM   23  H   UNL     1      -1.191   3.998 -33.138  1.00  0.00     0.170 HD
HETATM   24  O   UNL     1      -1.035   5.435 -35.408  1.00  0.00    -0.247 OA
HETATM   25  C   UNL     1      -5.218   3.685 -31.828  1.00  0.00     0.032 A 
HETATM   26  H   UNL     1      -3.639   6.024 -35.804  1.00  0.00     0.170 HD
ENDBRANCH  12  15
ENDBRANCH  10  11
ENDBRANCH   9  10
ENDBRANCH   3   9
BRANCH   7  27
HETATM   27  C   UNL     1     -13.582   0.742 -33.765  1.00  0.00     0.419 C 
HETATM   28  F   UNL     1     -14.222   1.250 -34.849  1.00  0.00    -0.166 F 
HETATM   29  F   UNL     1     -13.445  -0.593 -33.980  1.00  0.00    -0.166 F 
HETATM   30  F   UNL     1     -14.453   0.864 -32.727  1.00  0.00    -0.166 F 
ENDBRANCH   7  27
BRANCH   1  31
HETATM   31  C   UNL     1      -8.529   0.746 -33.823  1.00  0.00     0.033 A 
HETATM   32  S   UNL     1      -7.346   0.546 -32.587  1.00  0.00    -0.100 SA
HETATM   33  C   UNL     1      -6.239  -0.204 -33.647  1.00  0.00     0.050 A 
HETATM   34  C   UNL     1      -6.738  -0.307 -34.922  1.00  0.00     0.008 A 
HETATM   35  C   UNL     1      -8.049   0.244 -35.024  1.00  0.00     0.021 A 
ENDBRANCH   1  31
TORSDOF 6
ENDMDL
MODEL 6
REMARK VINA RESULT:      -8.9      3.567      5.250
REMARK  6 active torsions:
REMARK  status: ('A' for Active; 'I' for Inactive)
REMARK    1  A    between atoms: C_4  and  C_5 
REMARK    2  A    between atoms: C_7  and  S_8 
REMARK    3  A    between atoms: S_8  and  C_9 
REMARK    4  A    between atoms: C_9  and  C_10 
REMARK       I    between atoms: C_10  and  N_11 
REMARK    5  A    between atoms: N_11  and  C_12 
REMARK    6  A    between atoms: C_26  and  C_27 
ROOT
HETATM    1  C   UNL     1      -7.465  -0.269 -33.404  1.00  0.00     0.076 A 
HETATM    2  N   UNL     1      -6.782   0.251 -32.355  1.00  0.00    -0.239 NA
HETATM    3  C   UNL     1      -5.590  -0.282 -32.003  1.00  0.00     0.116 A 
HETATM    4  C   UNL     1      -5.015  -1.350 -32.693  1.00  0.00     0.095 A 
HETATM    5  C   UNL     1      -3.764  -1.915 -32.279  1.00  0.00     0.103 C 
HETATM    6  N   UNL     1      -2.760  -2.399 -31.960  1.00  0.00    -0.191 NA
HETATM    7  C   UNL     1      -5.711  -1.879 -33.793  1.00  0.00     0.073 A 
HETATM    8  C   UNL     1      -6.953  -1.324 -34.144  1.00  0.00     0.050 A 
ENDROOT
BRANCH   3   9
HETATM    9  S   UNL     1      -4.857   0.380 -30.503  1.00  0.00    -0.100 SA
BRANCH   9  10
HETATM   10  C   UNL     1      -4.308   2.040 -31.038  1.00  0.00     0.184 C 
BRANCH  10  11
HETATM   11  C   UNL     1      -5.400   3.103 -31.138  1.00  0.00     0.231 C 
HETATM   12  N   UNL     1      -6.483   2.932 -30.299  1.00  0.00    -0.326 N 
HETATM   13  H   UNL     1      -6.428   2.122 -29.694  1.00  0.00     0.169 HD
HETATM   14  O   UNL     1      -5.260   4.032 -31.934  1.00  0.00    -0.272 OA
BRANCH  12  15
HETATM   15  C   UNL     1      -7.723   3.598 -30.341  1.00  0.00     0.037 A 
HETATM   16  C   UNL     1      -8.910   2.998 -30.776  1.00  0.00     0.061 A 
HETATM   17  C   UNL     1     -10.058   3.753 -30.696  1.00  0.00     0.065 A 
HETATM   18  C   UNL     1     -10.064   5.057 -30.208  1.00  0.00     0.063 A 
HETATM   19  N   UNL     1     -11.364   3.421 -31.039  1.00  0.00    -0.306 N 
HETATM   20  N   UNL     1     -11.371   5.526 -30.247  1.00  0.00    -0.307 N 
HETATM   21  C   UNL     1      -8.919   5.682 -29.785  1.00  0.00     0.034 A 
HETATM   22  C   UNL     1     -12.195   4.515 -30.763  1.00  0.00     0.325 A 
HETATM   23  H   UNL     1     -11.709   6.429 -29.959  1.00  0.00     0.170 HD
HETATM   24  O   UNL     1     -13.400   4.577 -30.935  1.00  0.00    -0.247 OA
HETATM   25  C   UNL     1      -7.735   4.936 -29.861  1.00  0.00     0.032 A 
HETATM   26  H   UNL     1     -11.688   2.548 -31.422  1.00  0.00     0.170 HD
ENDBRANCH  12  15
ENDBRANCH  10  11
ENDBRANCH   9  10
ENDBRANCH   3   9
BRANCH   7  27
HETATM   27  C   UNL     1      -5.167  -3.054 -34.564  1.00  0.00     0.419 C 
HETATM   28  F   UNL     1      -6.029  -3.496 -35.515  1.00  0.00    -0.166 F 
HETATM   29  F   UNL     1      -4.003  -2.753 -35.197  1.00  0.00    -0.166 F 
HETATM   30  F   UNL     1      -4.896  -4.131 -33.778  1.00  0.00    -0.166 F 
ENDBRANCH   7  27
BRANCH   1  31
HETATM   31  C   UNL     1      -8.779   0.356 -33.638  1.00  0.00     0.033 A 
HETATM   32  S   UNL     1     -10.193  -0.159 -32.799  1.00  0.00    -0.100 SA
HETATM   33  C   UNL     1     -11.177   1.010 -33.559  1.00  0.00     0.050 A 
HETATM   34  C   UNL     1     -10.465   1.786 -34.441  1.00  0.00     0.008 A 
HETATM   35  C   UNL     1      -9.092   1.406 -34.491  1.00  0.00     0.021 A 
ENDBRANCH   1  31
TORSDOF 6
ENDMDL
MODEL 7
REMARK VINA RESULT:      -8.9      2.857      3.937
REMARK  6 active torsions:
REMARK  status: ('A' for Active; 'I' for Inactive)
REMARK    1  A    between atoms: C_4  and  C_5 
REMARK    2  A    between atoms: C_7  and  S_8 
REMARK    3  A    between atoms: S_8  and  C_9 
REMARK    4  A    between atoms: C_9  and  C_10 
REMARK       I    between atoms: C_10  and  N_11 
REMARK    5  A    between atoms: N_11  and  C_12 
REMARK    6  A    between atoms: C_26  and  C_27 
ROOT
HETATM    1  C   UNL     1      -9.232   1.334 -33.573  1.00  0.00     0.076 A 
HETATM    2  N   UNL     1      -8.714   2.543 -33.246  1.00  0.00    -0.239 NA
HETATM    3  C   UNL     1      -7.398   2.649 -32.950  1.00  0.00     0.116 A 
HETATM    4  C   UNL     1      -6.534   1.554 -32.983  1.00  0.00     0.095 A 
HETATM    5  C   UNL     1      -5.150   1.690 -32.635  1.00  0.00     0.103 C 
HETATM    6  N   UNL     1      -4.029   1.769 -32.348  1.00  0.00    -0.191 NA
HETATM    7  C   UNL     1      -7.063   0.303 -33.339  1.00  0.00     0.073 A 
HETATM    8  C   UNL     1      -8.433   0.202 -33.635  1.00  0.00     0.050 A 
ENDROOT
BRANCH   3   9
HETATM    9  S   UNL     1      -6.860   4.263 -32.376  1.00  0.00    -0.100 SA
BRANCH   9  10
HETATM   10  C   UNL     1      -5.983   4.923 -33.838  1.00  0.00     0.184 C 
BRANCH  10  11
HETATM   11  C   UNL     1      -4.533   5.347 -33.611  1.00  0.00     0.231 C 
HETATM   12  N   UNL     1      -3.990   4.997 -32.390  1.00  0.00    -0.326 N 
HETATM   13  H   UNL     1      -4.612   4.482 -31.780  1.00  0.00     0.169 HD
HETATM   14  O   UNL     1      -3.940   5.955 -34.502  1.00  0.00    -0.272 OA
BRANCH  12  15
HETATM   15  C   UNL     1      -2.788   5.454 -31.816  1.00  0.00     0.037 A 
HETATM   16  C   UNL     1      -2.734   6.378 -30.766  1.00  0.00     0.061 A 
HETATM   17  C   UNL     1      -1.489   6.678 -30.261  1.00  0.00     0.065 A 
HETATM   18  C   UNL     1      -0.322   6.103 -30.757  1.00  0.00     0.063 A 
HETATM   19  N   UNL     1      -1.135   7.537 -29.227  1.00  0.00    -0.306 N 
HETATM   20  N   UNL     1       0.749   6.603 -30.026  1.00  0.00    -0.307 N 
HETATM   21  C   UNL     1      -0.335   5.204 -31.793  1.00  0.00     0.034 A 
HETATM   22  C   UNL     1       0.257   7.500 -29.066  1.00  0.00     0.325 A 
HETATM   23  H   UNL     1       1.724   6.381 -30.135  1.00  0.00     0.170 HD
HETATM   24  O   UNL     1       0.913   8.123 -28.250  1.00  0.00    -0.247 OA
HETATM   25  C   UNL     1      -1.590   4.885 -32.327  1.00  0.00     0.032 A 
HETATM   26  H   UNL     1      -1.753   8.102 -28.668  1.00  0.00     0.170 HD
ENDBRANCH  12  15
ENDBRANCH  10  11
ENDBRANCH   9  10
ENDBRANCH   3   9
BRANCH   7  27
HETATM   27  C   UNL     1      -6.196  -0.930 -33.362  1.00  0.00     0.419 C 
HETATM   28  F   UNL     1      -5.152  -0.816 -34.221  1.00  0.00    -0.166 F 
HETATM   29  F   UNL     1      -5.671  -1.206 -32.140  1.00  0.00    -0.166 F 
HETATM   30  F   UNL     1      -6.869  -2.051 -33.740  1.00  0.00    -0.166 F 
ENDBRANCH   7  27
BRANCH   1  31
HETATM   31  C   UNL     1     -10.688   1.342 -33.803  1.00  0.00     0.033 A 
HETATM   32  S   UNL     1     -11.475   2.653 -34.596  1.00  0.00    -0.100 SA
HETATM   33  C   UNL     1     -13.006   1.907 -34.500  1.00  0.00     0.050 A 
HETATM   34  C   UNL     1     -12.944   0.684 -33.877  1.00  0.00     0.008 A 
HETATM   35  C   UNL     1     -11.615   0.365 -33.471  1.00  0.00     0.021 A 
ENDBRANCH   1  31
TORSDOF 6
ENDMDL
MODEL 8
REMARK VINA RESULT:      -8.9      5.455      9.315
REMARK  6 active torsions:
REMARK  status: ('A' for Active; 'I' for Inactive)
REMARK    1  A    between atoms: C_4  and  C_5 
REMARK    2  A    between atoms: C_7  and  S_8 
REMARK    3  A    between atoms: S_8  and  C_9 
REMARK    4  A    between atoms: C_9  and  C_10 
REMARK       I    between atoms: C_10  and  N_11 
REMARK    5  A    between atoms: N_11  and  C_12 
REMARK    6  A    between atoms: C_26  and  C_27 
ROOT
HETATM    1  C   UNL     1      -2.109   6.252 -31.236  1.00  0.00     0.076 A 
HETATM    2  N   UNL     1      -3.213   6.803 -30.674  1.00  0.00    -0.239 NA
HETATM    3  C   UNL     1      -3.189   7.171 -29.373  1.00  0.00     0.116 A 
HETATM    4  C   UNL     1      -2.055   7.019 -28.574  1.00  0.00     0.095 A 
HETATM    5  C   UNL     1      -2.067   7.389 -27.189  1.00  0.00     0.103 C 
HETATM    6  N   UNL     1      -2.051   7.669 -26.064  1.00  0.00    -0.191 NA
HETATM    7  C   UNL     1      -0.903   6.465 -29.157  1.00  0.00     0.073 A 
HETATM    8  C   UNL     1      -0.942   6.078 -30.507  1.00  0.00     0.050 A 
ENDROOT
BRANCH   3   9
HETATM    9  S   UNL     1      -4.753   7.737 -28.698  1.00  0.00    -0.100 SA
BRANCH   9  10
HETATM   10  C   UNL     1      -5.525   6.176 -28.143  1.00  0.00     0.184 C 
BRANCH  10  11
HETATM   11  C   UNL     1      -5.889   5.183 -29.244  1.00  0.00     0.231 C 
HETATM   12  N   UNL     1      -5.270   3.950 -29.170  1.00  0.00    -0.326 N 
HETATM   13  H   UNL     1      -4.649   3.834 -28.379  1.00  0.00     0.169 HD
HETATM   14  O   UNL     1      -6.694   5.520 -30.113  1.00  0.00    -0.272 OA
BRANCH  12  15
HETATM   15  C   UNL     1      -5.222   2.946 -30.156  1.00  0.00     0.037 A 
HETATM   16  C   UNL     1      -6.199   1.954 -30.300  1.00  0.00     0.061 A 
HETATM   17  C   UNL     1      -6.053   1.081 -31.353  1.00  0.00     0.065 A 
HETATM   18  C   UNL     1      -4.989   1.159 -32.248  1.00  0.00     0.063 A 
HETATM   19  N   UNL     1      -6.862   0.020 -31.744  1.00  0.00    -0.306 N 
HETATM   20  N   UNL     1      -5.145   0.151 -33.191  1.00  0.00    -0.307 N 
HETATM   21  C   UNL     1      -4.006   2.108 -32.132  1.00  0.00     0.034 A 
HETATM   22  C   UNL     1      -6.311  -0.569 -32.890  1.00  0.00     0.325 A 
HETATM   23  H   UNL     1      -4.548  -0.056 -33.974  1.00  0.00     0.170 HD
HETATM   24  O   UNL     1      -6.757  -1.520 -33.508  1.00  0.00    -0.247 OA
HETATM   25  C   UNL     1      -4.130   3.008 -31.064  1.00  0.00     0.032 A 
HETATM   26  H   UNL     1      -7.709  -0.294 -31.299  1.00  0.00     0.170 HD
ENDBRANCH  12  15
ENDBRANCH  10  11
ENDBRANCH   9  10
ENDBRANCH   3   9
BRANCH   7  27
HETATM   27  C   UNL     1       0.347   6.240 -28.347  1.00  0.00     0.419 C 
HETATM   28  F   UNL     1       1.215   5.390 -28.952  1.00  0.00    -0.166 F 
HETATM   29  F   UNL     1       1.024   7.397 -28.122  1.00  0.00    -0.166 F 
HETATM   30  F   UNL     1       0.101   5.709 -27.118  1.00  0.00    -0.166 F 
ENDBRANCH   7  27
BRANCH   1  31
HETATM   31  C   UNL     1      -2.290   5.833 -32.637  1.00  0.00     0.033 A 
HETATM   32  S   UNL     1      -3.820   5.925 -33.424  1.00  0.00    -0.100 SA
HETATM   33  C   UNL     1      -3.195   5.342 -34.901  1.00  0.00     0.050 A 
HETATM   34  C   UNL     1      -1.850   5.073 -34.819  1.00  0.00     0.008 A 
HETATM   35  C   UNL     1      -1.334   5.348 -33.519  1.00  0.00     0.021 A 
ENDBRANCH   1  31
TORSDOF 6
ENDMDL
MODEL 9
REMARK VINA RESULT:      -8.6      4.567      9.021
REMARK  6 active torsions:
REMARK  status: ('A' for Active; 'I' for Inactive)
REMARK    1  A    between atoms: C_4  and  C_5 
REMARK    2  A    between atoms: C_7  and  S_8 
REMARK    3  A    between atoms: S_8  and  C_9 
REMARK    4  A    between atoms: C_9  and  C_10 
REMARK       I    between atoms: C_10  and  N_11 
REMARK    5  A    between atoms: N_11  and  C_12 
REMARK    6  A    between atoms: C_26  and  C_27 
ROOT
HETATM    1  C   UNL     1      -1.861   6.300 -30.779  1.00  0.00     0.076 A 
HETATM    2  N   UNL     1      -3.136   6.087 -30.374  1.00  0.00    -0.239 NA
HETATM    3  C   UNL     1      -4.066   5.690 -31.273  1.00  0.00     0.116 A 
HETATM    4  C   UNL     1      -3.761   5.474 -32.617  1.00  0.00     0.095 A 
HETATM    5  C   UNL     1      -4.774   5.084 -33.554  1.00  0.00     0.103 C 
HETATM    6  N   UNL     1      -5.574   4.779 -34.337  1.00  0.00    -0.191 NA
HETATM    7  C   UNL     1      -2.436   5.676 -33.037  1.00  0.00     0.073 A 
HETATM    8  C   UNL     1      -1.481   6.096 -32.097  1.00  0.00     0.050 A 
ENDROOT
BRANCH   3   9
HETATM    9  S   UNL     1      -5.750   5.597 -30.657  1.00  0.00    -0.100 SA
BRANCH   9  10
HETATM   10  C   UNL     1      -5.806   3.920 -29.930  1.00  0.00     0.184 C 
BRANCH  10  11
HETATM   11  C   UNL     1      -6.042   2.775 -30.913  1.00  0.00     0.231 C 
HETATM   12  N   UNL     1      -5.267   1.648 -30.719  1.00  0.00    -0.326 N 
HETATM   13  H   UNL     1      -4.632   1.699 -29.932  1.00  0.00     0.169 HD
HETATM   14  O   UNL     1      -6.888   2.909 -31.796  1.00  0.00    -0.272 OA
BRANCH  12  15
HETATM   15  C   UNL     1      -5.093   0.558 -31.592  1.00  0.00     0.037 A 
HETATM   16  C   UNL     1      -6.154  -0.134 -32.189  1.00  0.00     0.061 A 
HETATM   17  C   UNL     1      -5.827  -1.135 -33.075  1.00  0.00     0.065 A 
HETATM   18  C   UNL     1      -4.509  -1.466 -33.379  1.00  0.00     0.063 A 
HETATM   19  N   UNL     1      -6.658  -1.969 -33.816  1.00  0.00    -0.306 N 
HETATM   20  N   UNL     1      -4.527  -2.498 -34.309  1.00  0.00    -0.307 N 
HETATM   21  C   UNL     1      -3.445  -0.820 -32.804  1.00  0.00     0.034 A 
HETATM   22  C   UNL     1      -5.862  -2.823 -34.592  1.00  0.00     0.325 A 
HETATM   23  H   UNL     1      -3.739  -2.957 -34.733  1.00  0.00     0.170 HD
HETATM   24  O   UNL     1      -6.252  -3.681 -35.365  1.00  0.00    -0.247 OA
HETATM   25  C   UNL     1      -3.750   0.202 -31.895  1.00  0.00     0.032 A 
HETATM   26  H   UNL     1      -7.664  -1.979 -33.816  1.00  0.00     0.170 HD
ENDBRANCH  12  15
ENDBRANCH  10  11
ENDBRANCH   9  10
ENDBRANCH   3   9
BRANCH   7  27
HETATM   27  C   UNL     1      -2.042   5.494 -34.480  1.00  0.00     0.419 C 
HETATM   28  F   UNL     1      -2.929   6.058 -35.338  1.00  0.00    -0.166 F 
HETATM   29  F   UNL     1      -0.829   6.044 -34.750  1.00  0.00    -0.166 F 
HETATM   30  F   UNL     1      -1.947   4.187 -34.848  1.00  0.00    -0.166 F 
ENDBRANCH   7  27
BRANCH   1  31
HETATM   31  C   UNL     1      -0.965   6.796 -29.718  1.00  0.00     0.033 A 
HETATM   32  S   UNL     1      -1.299   8.245 -28.850  1.00  0.00    -0.100 SA
HETATM   33  C   UNL     1       0.085   8.080 -27.867  1.00  0.00     0.050 A 
HETATM   34  C   UNL     1       0.805   6.952 -28.178  1.00  0.00     0.008 A 
HETATM   35  C   UNL     1       0.206   6.220 -29.244  1.00  0.00     0.021 A 
ENDBRANCH   1  31
TORSDOF 6
ENDMDL
MODEL 10
REMARK VINA RESULT:      -8.6      4.883      9.302
REMARK  6 active torsions:
REMARK  status: ('A' for Active; 'I' for Inactive)
REMARK    1  A    between atoms: C_4  and  C_5 
REMARK    2  A    between atoms: C_7  and  S_8 
REMARK    3  A    between atoms: S_8  and  C_9 
REMARK    4  A    between atoms: C_9  and  C_10 
REMARK       I    between atoms: C_10  and  N_11 
REMARK    5  A    between atoms: N_11  and  C_12 
REMARK    6  A    between atoms: C_26  and  C_27 
ROOT
HETATM    1  C   UNL     1      -1.357   6.788 -29.729  1.00  0.00     0.076 A 
HETATM    2  N   UNL     1      -2.647   6.995 -29.371  1.00  0.00    -0.239 NA
HETATM    3  C   UNL     1      -3.635   6.776 -30.270  1.00  0.00     0.116 A 
HETATM    4  C   UNL     1      -3.379   6.325 -31.565  1.00  0.00     0.095 A 
HETATM    5  C   UNL     1      -4.443   6.131 -32.507  1.00  0.00     0.103 C 
HETATM    6  N   UNL     1      -5.281   5.977 -33.293  1.00  0.00    -0.191 NA
HETATM    7  C   UNL     1      -2.044   6.092 -31.934  1.00  0.00     0.073 A 
HETATM    8  C   UNL     1      -1.026   6.331 -30.996  1.00  0.00     0.050 A 
ENDROOT
BRANCH   3   9
HETATM    9  S   UNL     1      -5.286   7.238 -29.736  1.00  0.00    -0.100 SA
BRANCH   9  10
HETATM   10  C   UNL     1      -5.687   5.921 -28.532  1.00  0.00     0.184 C 
BRANCH  10  11
HETATM   11  C   UNL     1      -6.332   4.663 -29.110  1.00  0.00     0.231 C 
HETATM   12  N   UNL     1      -5.458   3.708 -29.593  1.00  0.00    -0.326 N 
HETATM   13  H   UNL     1      -4.477   3.943 -29.497  1.00  0.00     0.169 HD
HETATM   14  O   UNL     1      -7.559   4.565 -29.113  1.00  0.00    -0.272 OA
BRANCH  12  15
HETATM   15  C   UNL     1      -5.756   2.584 -30.386  1.00  0.00     0.037 A 
HETATM   16  C   UNL     1      -5.792   2.611 -31.785  1.00  0.00     0.061 A 
HETATM   17  C   UNL     1      -6.032   1.417 -32.427  1.00  0.00     0.065 A 
HETATM   18  C   UNL     1      -6.234   0.224 -31.738  1.00  0.00     0.063 A 
HETATM   19  N   UNL     1      -6.110   1.142 -33.788  1.00  0.00    -0.306 N 
HETATM   20  N   UNL     1      -6.431  -0.785 -32.672  1.00  0.00    -0.307 N 
HETATM   21  C   UNL     1      -6.219   0.162 -30.368  1.00  0.00     0.034 A 
HETATM   22  C   UNL     1      -6.357  -0.228 -33.957  1.00  0.00     0.325 A 
HETATM   23  H   UNL     1      -6.599  -1.761 -32.496  1.00  0.00     0.170 HD
HETATM   24  O   UNL     1      -6.480  -0.821 -35.014  1.00  0.00    -0.247 OA
HETATM   25  C   UNL     1      -5.981   1.365 -29.690  1.00  0.00     0.032 A 
HETATM   26  H   UNL     1      -6.009   1.796 -34.546  1.00  0.00     0.170 HD
ENDBRANCH  12  15
ENDBRANCH  10  11
ENDBRANCH   9  10
ENDBRANCH   3   9
BRANCH   7  27
HETATM   27  C   UNL     1      -1.691   5.637 -33.327  1.00  0.00     0.419 C 
HETATM   28  F   UNL     1      -0.352   5.521 -33.513  1.00  0.00    -0.166 F 
HETATM   29  F   UNL     1      -2.235   4.427 -33.621  1.00  0.00    -0.166 F 
HETATM   30  F   UNL     1      -2.130   6.487 -34.295  1.00  0.00    -0.166 F 
ENDBRANCH   7  27
BRANCH   1  31
HETATM   31  C   UNL     1      -0.377   7.129 -28.682  1.00  0.00     0.033 A 
HETATM   32  S   UNL     1      -0.429   6.409 -27.118  1.00  0.00    -0.100 SA
HETATM   33  C   UNL     1       0.959   7.248 -26.589  1.00  0.00     0.050 A 
HETATM   34  C   UNL     1       1.467   8.068 -27.566  1.00  0.00     0.008 A 
HETATM   35  C   UNL     1       0.697   8.005 -28.763  1.00  0.00     0.021 A 
ENDBRANCH   1  31
TORSDOF 6
ENDMDL
