MODEL 1
REMARK VINA RESULT:      -8.9      0.000      0.000
REMARK  5 active torsions:
REMARK  status: ('A' for Active; 'I' for Inactive)
REMARK    1  A    between atoms: O_2  and  C_3 
REMARK    2  A    between atoms: C_4  and  O_5 
REMARK    3  A    between atoms: C_8  and  C_9 
REMARK    4  A    between atoms: N_10  and  N_11 
REMARK       I    between atoms: N_11  and  C_12 
REMARK    5  A    between atoms: C_12  and  C_13 
ROOT
HETATM    1  N   UNL     1      -2.797   3.293 -31.222  1.00  0.00    -0.242 N 
HETATM    2  C   UNL     1      -2.265   4.325 -31.981  1.00  0.00     0.292 C 
HETATM    3  O   UNL     1      -2.574   4.580 -33.143  1.00  0.00    -0.264 OA
HETATM    4  H   UNL     1      -2.460   3.194 -30.268  1.00  0.00     0.192 HD
ENDROOT
BRANCH   2   5
HETATM    5  C   UNL     1      -1.268   5.115 -31.239  1.00  0.00     0.154 A 
HETATM    6  N   UNL     1       0.055   4.823 -31.270  1.00  0.00    -0.168 NA
HETATM    7  N   UNL     1       0.614   5.739 -30.447  1.00  0.00    -0.276 N 
HETATM    8  H   UNL     1       1.619   5.714 -30.310  1.00  0.00     0.189 HD
HETATM    9  C   UNL     1      -0.284   6.599 -29.896  1.00  0.00     0.069 A 
HETATM   10  C   UNL     1      -1.511   6.234 -30.403  1.00  0.00     0.007 A 
HETATM   11  C   UNL     1      -0.077   7.694 -28.965  1.00  0.00    -0.001 A 
HETATM   12  C   UNL     1      -2.761   6.939 -30.009  1.00  0.00     0.048 C 
HETATM   13  C   UNL     1      -2.461   8.387 -29.559  1.00  0.00     0.044 C 
HETATM   14  C   UNL     1      -1.180   8.557 -28.749  1.00  0.00    -0.045 A 
HETATM   15  C   UNL     1      -1.055   9.626 -27.854  1.00  0.00     0.008 A 
HETATM   16  C   UNL     1       0.139   9.822 -27.161  1.00  0.00     0.001 A 
HETATM   17  C   UNL     1       1.220   8.964 -27.368  1.00  0.00     0.001 A 
HETATM   18  C   UNL     1       1.117   7.902 -28.269  1.00  0.00     0.014 A 
ENDBRANCH   2   5
BRANCH   1  19
HETATM   19  N   UNL     1      -3.767   2.488 -31.735  1.00  0.00    -0.184 NA
HETATM   20  C   UNL     1      -3.405   1.289 -32.059  1.00  0.00     0.150 C 
BRANCH  20  21
HETATM   21  C   UNL     1      -4.383   0.328 -32.613  1.00  0.00    -0.014 A 
HETATM   22  C   UNL     1      -5.755   0.540 -32.429  1.00  0.00     0.016 A 
HETATM   23  C   UNL     1      -6.673  -0.373 -32.943  1.00  0.00     0.040 A 
HETATM   24  C   UNL     1      -6.207  -1.480 -33.639  1.00  0.00     0.099 A 
HETATM   25  C   UNL     1      -4.838  -1.701 -33.843  1.00  0.00     0.102 A 
HETATM   26  C   UNL     1      -3.919  -0.792 -33.318  1.00  0.00     0.052 A 
BRANCH  24  27
HETATM   27  O   UNL     1      -7.129  -2.363 -34.135  1.00  0.00    -0.358 OA
HETATM   28  H   UNL     1      -7.673  -1.843 -34.756  1.00  0.00     0.218 HD
ENDBRANCH  24  27
BRANCH  25  29
HETATM   29  O   UNL     1      -4.540  -2.835 -34.555  1.00  0.00    -0.353 OA
HETATM   30  C   UNL     1      -3.928  -3.900 -33.838  1.00  0.00     0.210 C 
ENDBRANCH  25  29
ENDBRANCH  20  21
ENDBRANCH   1  19
TORSDOF 5
ENDMDL
MODEL 2
REMARK VINA RESULT:      -8.9      2.668     10.459
REMARK  5 active torsions:
REMARK  status: ('A' for Active; 'I' for Inactive)
REMARK    1  A    between atoms: O_2  and  C_3 
REMARK    2  A    between atoms: C_4  and  O_5 
REMARK    3  A    between atoms: C_8  and  C_9 
REMARK    4  A    between atoms: N_10  and  N_11 
REMARK       I    between atoms: N_11  and  C_12 
REMARK    5  A    between atoms: C_12  and  C_13 
ROOT
HETATM    1  N   UNL     1      -3.336   2.400 -32.677  1.00  0.00    -0.242 N 
HETATM    2  C   UNL     1      -3.977   1.627 -31.721  1.00  0.00     0.292 C 
HETATM    3  O   UNL     1      -4.565   2.065 -30.735  1.00  0.00    -0.264 OA
HETATM    4  H   UNL     1      -2.892   1.912 -33.451  1.00  0.00     0.192 HD
ENDROOT
BRANCH   2   5
HETATM    5  C   UNL     1      -3.888   0.185 -32.009  1.00  0.00     0.154 A 
HETATM    6  N   UNL     1      -2.963  -0.614 -31.424  1.00  0.00    -0.168 NA
HETATM    7  N   UNL     1      -3.184  -1.831 -31.971  1.00  0.00    -0.276 N 
HETATM    8  H   UNL     1      -2.598  -2.604 -31.679  1.00  0.00     0.189 HD
HETATM    9  C   UNL     1      -4.204  -1.847 -32.871  1.00  0.00     0.069 A 
HETATM   10  C   UNL     1      -4.694  -0.561 -32.906  1.00  0.00     0.007 A 
HETATM   11  C   UNL     1      -4.727  -2.943 -33.668  1.00  0.00    -0.001 A 
HETATM   12  C   UNL     1      -5.816  -0.175 -33.804  1.00  0.00     0.048 C 
HETATM   13  C   UNL     1      -6.704  -1.396 -34.136  1.00  0.00     0.044 C 
HETATM   14  C   UNL     1      -5.947  -2.703 -34.348  1.00  0.00    -0.045 A 
HETATM   15  C   UNL     1      -6.503  -3.711 -35.145  1.00  0.00     0.008 A 
HETATM   16  C   UNL     1      -5.844  -4.933 -35.288  1.00  0.00     0.001 A 
HETATM   17  C   UNL     1      -4.638  -5.161 -34.625  1.00  0.00     0.001 A 
HETATM   18  C   UNL     1      -4.078  -4.172 -33.814  1.00  0.00     0.014 A 
ENDBRANCH   2   5
BRANCH   1  19
HETATM   19  N   UNL     1      -3.356   3.759 -32.594  1.00  0.00    -0.184 NA
HETATM   20  C   UNL     1      -2.331   4.314 -32.035  1.00  0.00     0.150 C 
BRANCH  20  21
HETATM   21  C   UNL     1      -2.246   5.785 -31.904  1.00  0.00    -0.014 A 
HETATM   22  C   UNL     1      -1.833   6.562 -32.994  1.00  0.00     0.016 A 
HETATM   23  C   UNL     1      -1.744   7.946 -32.864  1.00  0.00     0.040 A 
HETATM   24  C   UNL     1      -2.074   8.533 -31.650  1.00  0.00     0.099 A 
HETATM   25  C   UNL     1      -2.500   7.772 -30.553  1.00  0.00     0.102 A 
HETATM   26  C   UNL     1      -2.579   6.384 -30.681  1.00  0.00     0.052 A 
BRANCH  24  27
HETATM   27  O   UNL     1      -1.978   9.895 -31.547  1.00  0.00    -0.358 OA
HETATM   28  H   UNL     1      -2.886  10.226 -31.685  1.00  0.00     0.218 HD
ENDBRANCH  24  27
BRANCH  25  29
HETATM   29  O   UNL     1      -2.795   8.500 -29.429  1.00  0.00    -0.353 OA
HETATM   30  C   UNL     1      -2.005   8.245 -28.274  1.00  0.00     0.210 C 
ENDBRANCH  25  29
ENDBRANCH  20  21
ENDBRANCH   1  19
TORSDOF 5
ENDMDL
MODEL 3
REMARK VINA RESULT:      -8.8      1.443      2.006
REMARK  5 active torsions:
REMARK  status: ('A' for Active; 'I' for Inactive)
REMARK    1  A    between atoms: O_2  and  C_3 
REMARK    2  A    between atoms: C_4  and  O_5 
REMARK    3  A    between atoms: C_8  and  C_9 
REMARK    4  A    between atoms: N_10  and  N_11 
REMARK       I    between atoms: N_11  and  C_12 
REMARK    5  A    between atoms: C_12  and  C_13 
ROOT
HETATM    1  N   UNL     1      -3.194   3.000 -31.569  1.00  0.00    -0.242 N 
HETATM    2  C   UNL     1      -2.599   4.097 -32.174  1.00  0.00     0.292 C 
HETATM    3  O   UNL     1      -2.180   4.128 -33.329  1.00  0.00    -0.264 OA
HETATM    4  H   UNL     1      -3.505   3.109 -30.607  1.00  0.00     0.192 HD
ENDROOT
BRANCH   2   5
HETATM    5  C   UNL     1      -2.518   5.261 -31.275  1.00  0.00     0.154 A 
HETATM    6  N   UNL     1      -3.560   6.108 -31.093  1.00  0.00    -0.168 NA
HETATM    7  N   UNL     1      -3.081   7.044 -30.243  1.00  0.00    -0.276 N 
HETATM    8  H   UNL     1      -3.696   7.798 -29.959  1.00  0.00     0.189 HD
HETATM    9  C   UNL     1      -1.789   6.834 -29.873  1.00  0.00     0.069 A 
HETATM   10  C   UNL     1      -1.400   5.677 -30.509  1.00  0.00     0.007 A 
HETATM   11  C   UNL     1      -0.930   7.615 -28.998  1.00  0.00    -0.001 A 
HETATM   12  C   UNL     1      -0.023   5.130 -30.366  1.00  0.00     0.048 C 
HETATM   13  C   UNL     1       0.616   5.584 -29.033  1.00  0.00     0.044 C 
HETATM   14  C   UNL     1       0.299   7.018 -28.622  1.00  0.00    -0.045 A 
HETATM   15  C   UNL     1       1.181   7.719 -27.792  1.00  0.00     0.008 A 
HETATM   16  C   UNL     1       0.862   9.007 -27.362  1.00  0.00     0.001 A 
HETATM   17  C   UNL     1      -0.344   9.596 -27.743  1.00  0.00     0.001 A 
HETATM   18  C   UNL     1      -1.242   8.904 -28.558  1.00  0.00     0.014 A 
ENDBRANCH   2   5
BRANCH   1  19
HETATM   19  N   UNL     1      -3.391   1.849 -32.269  1.00  0.00    -0.184 NA
HETATM   20  C   UNL     1      -4.599   1.387 -32.284  1.00  0.00     0.150 C 
BRANCH  20  21
HETATM   21  C   UNL     1      -4.925   0.150 -33.025  1.00  0.00    -0.014 A 
HETATM   22  C   UNL     1      -5.996   0.135 -33.927  1.00  0.00     0.016 A 
HETATM   23  C   UNL     1      -6.308  -1.035 -34.615  1.00  0.00     0.040 A 
HETATM   24  C   UNL     1      -5.541  -2.171 -34.397  1.00  0.00     0.099 A 
HETATM   25  C   UNL     1      -4.458  -2.171 -33.507  1.00  0.00     0.102 A 
HETATM   26  C   UNL     1      -4.153  -1.002 -32.810  1.00  0.00     0.052 A 
BRANCH  24  27
HETATM   27  O   UNL     1      -5.866  -3.309 -35.085  1.00  0.00    -0.358 OA
HETATM   28  H   UNL     1      -5.804  -4.030 -34.431  1.00  0.00     0.218 HD
ENDBRANCH  24  27
BRANCH  25  29
HETATM   29  O   UNL     1      -3.796  -3.369 -33.409  1.00  0.00    -0.353 OA
HETATM   30  C   UNL     1      -3.134  -3.635 -32.178  1.00  0.00     0.210 C 
ENDBRANCH  25  29
ENDBRANCH  20  21
ENDBRANCH   1  19
TORSDOF 5
ENDMDL
MODEL 4
REMARK VINA RESULT:      -8.7      0.705      1.866
REMARK  5 active torsions:
REMARK  status: ('A' for Active; 'I' for Inactive)
REMARK    1  A    between atoms: O_2  and  C_3 
REMARK    2  A    between atoms: C_4  and  O_5 
REMARK    3  A    between atoms: C_8  and  C_9 
REMARK    4  A    between atoms: N_10  and  N_11 
REMARK       I    between atoms: N_11  and  C_12 
REMARK    5  A    between atoms: C_12  and  C_13 
ROOT
HETATM    1  N   UNL     1      -2.828   3.313 -31.205  1.00  0.00    -0.242 N 
HETATM    2  C   UNL     1      -2.280   4.321 -31.983  1.00  0.00     0.292 C 
HETATM    3  O   UNL     1      -2.580   4.555 -33.152  1.00  0.00    -0.264 OA
HETATM    4  H   UNL     1      -2.498   3.231 -30.246  1.00  0.00     0.192 HD
ENDROOT
BRANCH   2   5
HETATM    5  C   UNL     1      -1.278   5.115 -31.253  1.00  0.00     0.154 A 
HETATM    6  N   UNL     1       0.048   4.839 -31.313  1.00  0.00    -0.168 NA
HETATM    7  N   UNL     1       0.613   5.753 -30.492  1.00  0.00    -0.276 N 
HETATM    8  H   UNL     1       1.620   5.738 -30.376  1.00  0.00     0.189 HD
HETATM    9  C   UNL     1      -0.284   6.597 -29.915  1.00  0.00     0.069 A 
HETATM   10  C   UNL     1      -1.516   6.223 -30.401  1.00  0.00     0.007 A 
HETATM   11  C   UNL     1      -0.070   7.686 -28.977  1.00  0.00    -0.001 A 
HETATM   12  C   UNL     1      -2.766   6.910 -29.975  1.00  0.00     0.048 C 
HETATM   13  C   UNL     1      -2.473   8.357 -29.517  1.00  0.00     0.044 C 
HETATM   14  C   UNL     1      -1.178   8.534 -28.731  1.00  0.00    -0.045 A 
HETATM   15  C   UNL     1      -1.048   9.596 -27.828  1.00  0.00     0.008 A 
HETATM   16  C   UNL     1       0.159   9.798 -27.157  1.00  0.00     0.001 A 
HETATM   17  C   UNL     1       1.244   8.955 -27.394  1.00  0.00     0.001 A 
HETATM   18  C   UNL     1       1.135   7.900 -28.303  1.00  0.00     0.014 A 
ENDBRANCH   2   5
BRANCH   1  19
HETATM   19  N   UNL     1      -3.805   2.508 -31.705  1.00  0.00    -0.184 NA
HETATM   20  C   UNL     1      -3.442   1.320 -32.066  1.00  0.00     0.150 C 
BRANCH  20  21
HETATM   21  C   UNL     1      -4.426   0.361 -32.611  1.00  0.00    -0.014 A 
HETATM   22  C   UNL     1      -3.990  -0.768 -33.314  1.00  0.00     0.016 A 
HETATM   23  C   UNL     1      -4.920  -1.664 -33.835  1.00  0.00     0.040 A 
HETATM   24  C   UNL     1      -6.273  -1.422 -33.640  1.00  0.00     0.099 A 
HETATM   25  C   UNL     1      -6.728  -0.303 -32.928  1.00  0.00     0.102 A 
HETATM   26  C   UNL     1      -5.795   0.600 -32.416  1.00  0.00     0.052 A 
BRANCH  24  27
HETATM   27  O   UNL     1      -7.169  -2.316 -34.161  1.00  0.00    -0.358 OA
HETATM   28  H   UNL     1      -6.861  -3.192 -33.860  1.00  0.00     0.218 HD
ENDBRANCH  24  27
BRANCH  25  29
HETATM   29  O   UNL     1      -8.092  -0.210 -32.816  1.00  0.00    -0.353 OA
HETATM   30  C   UNL     1      -8.597   0.840 -31.999  1.00  0.00     0.210 C 
ENDBRANCH  25  29
ENDBRANCH  20  21
ENDBRANCH   1  19
TORSDOF 5
ENDMDL
MODEL 5
REMARK VINA RESULT:      -8.5      3.706     10.635
REMARK  5 active torsions:
REMARK  status: ('A' for Active; 'I' for Inactive)
REMARK    1  A    between atoms: O_2  and  C_3 
REMARK    2  A    between atoms: C_4  and  O_5 
REMARK    3  A    between atoms: C_8  and  C_9 
REMARK    4  A    between atoms: N_10  and  N_11 
REMARK       I    between atoms: N_11  and  C_12 
REMARK    5  A    between atoms: C_12  and  C_13 
ROOT
HETATM    1  N   UNL     1      -5.438   3.423 -33.884  1.00  0.00    -0.242 N 
HETATM    2  C   UNL     1      -6.156   2.556 -33.074  1.00  0.00     0.292 C 
HETATM    3  O   UNL     1      -6.547   2.811 -31.937  1.00  0.00    -0.264 OA
HETATM    4  H   UNL     1      -5.181   3.091 -34.810  1.00  0.00     0.192 HD
ENDROOT
BRANCH   2   5
HETATM    5  C   UNL     1      -6.419   1.262 -33.726  1.00  0.00     0.154 A 
HETATM    6  N   UNL     1      -7.464   1.076 -34.569  1.00  0.00    -0.168 NA
HETATM    7  N   UNL     1      -7.380  -0.228 -34.917  1.00  0.00    -0.276 N 
HETATM    8  H   UNL     1      -8.074  -0.603 -35.554  1.00  0.00     0.189 HD
HETATM    9  C   UNL     1      -6.334  -0.879 -34.342  1.00  0.00     0.069 A 
HETATM   10  C   UNL     1      -5.680   0.061 -33.578  1.00  0.00     0.007 A 
HETATM   11  C   UNL     1      -5.924  -2.269 -34.455  1.00  0.00    -0.001 A 
HETATM   12  C   UNL     1      -4.480  -0.284 -32.768  1.00  0.00     0.048 C 
HETATM   13  C   UNL     1      -3.745  -1.508 -33.363  1.00  0.00     0.044 C 
HETATM   14  C   UNL     1      -4.655  -2.599 -33.916  1.00  0.00    -0.045 A 
HETATM   15  C   UNL     1      -4.203  -3.922 -33.979  1.00  0.00     0.008 A 
HETATM   16  C   UNL     1      -5.008  -4.911 -34.544  1.00  0.00     0.001 A 
HETATM   17  C   UNL     1      -6.260  -4.584 -35.064  1.00  0.00     0.001 A 
HETATM   18  C   UNL     1      -6.721  -3.266 -35.023  1.00  0.00     0.014 A 
ENDBRANCH   2   5
BRANCH   1  19
HETATM   19  N   UNL     1      -5.144   4.682 -33.458  1.00  0.00    -0.184 NA
HETATM   20  C   UNL     1      -3.950   4.868 -32.999  1.00  0.00     0.150 C 
BRANCH  20  21
HETATM   21  C   UNL     1      -3.522   6.201 -32.523  1.00  0.00    -0.014 A 
HETATM   22  C   UNL     1      -2.277   6.715 -32.905  1.00  0.00     0.016 A 
HETATM   23  C   UNL     1      -1.873   7.967 -32.445  1.00  0.00     0.040 A 
HETATM   24  C   UNL     1      -2.721   8.688 -31.616  1.00  0.00     0.099 A 
HETATM   25  C   UNL     1      -3.975   8.193 -31.233  1.00  0.00     0.102 A 
HETATM   26  C   UNL     1      -4.375   6.935 -31.685  1.00  0.00     0.052 A 
BRANCH  24  27
HETATM   27  O   UNL     1      -2.302   9.915 -31.177  1.00  0.00    -0.358 OA
HETATM   28  H   UNL     1      -1.382   9.780 -30.880  1.00  0.00     0.218 HD
ENDBRANCH  24  27
BRANCH  25  29
HETATM   29  O   UNL     1      -4.697   9.028 -30.418  1.00  0.00    -0.353 OA
HETATM   30  C   UNL     1      -4.903   8.595 -29.079  1.00  0.00     0.210 C 
ENDBRANCH  25  29
ENDBRANCH  20  21
ENDBRANCH   1  19
TORSDOF 5
ENDMDL
MODEL 6
REMARK VINA RESULT:      -8.5      2.602     10.573
REMARK  5 active torsions:
REMARK  status: ('A' for Active; 'I' for Inactive)
REMARK    1  A    between atoms: O_2  and  C_3 
REMARK    2  A    between atoms: C_4  and  O_5 
REMARK    3  A    between atoms: C_8  and  C_9 
REMARK    4  A    between atoms: N_10  and  N_11 
REMARK       I    between atoms: N_11  and  C_12 
REMARK    5  A    between atoms: C_12  and  C_13 
ROOT
HETATM    1  N   UNL     1      -4.031   3.081 -32.410  1.00  0.00    -0.242 N 
HETATM    2  C   UNL     1      -4.727   2.072 -31.760  1.00  0.00     0.292 C 
HETATM    3  O   UNL     1      -4.903   2.002 -30.546  1.00  0.00    -0.264 OA
HETATM    4  H   UNL     1      -3.965   3.024 -33.423  1.00  0.00     0.192 HD
ENDROOT
BRANCH   2   5
HETATM    5  C   UNL     1      -5.257   1.062 -32.692  1.00  0.00     0.154 A 
HETATM    6  N   UNL     1      -6.229   1.349 -33.592  1.00  0.00    -0.168 NA
HETATM    7  N   UNL     1      -6.457   0.171 -34.218  1.00  0.00    -0.276 N 
HETATM    8  H   UNL     1      -7.161   0.141 -34.947  1.00  0.00     0.189 HD
HETATM    9  C   UNL     1      -5.680  -0.848 -33.763  1.00  0.00     0.069 A 
HETATM   10  C   UNL     1      -4.878  -0.300 -32.787  1.00  0.00     0.007 A 
HETATM   11  C   UNL     1      -5.641  -2.243 -34.167  1.00  0.00    -0.001 A 
HETATM   12  C   UNL     1      -3.895  -1.122 -32.030  1.00  0.00     0.048 C 
HETATM   13  C   UNL     1      -3.453  -2.355 -32.854  1.00  0.00     0.044 C 
HETATM   14  C   UNL     1      -4.561  -3.014 -33.668  1.00  0.00    -0.045 A 
HETATM   15  C   UNL     1      -4.469  -4.370 -34.005  1.00  0.00     0.008 A 
HETATM   16  C   UNL     1      -5.448  -4.960 -34.805  1.00  0.00     0.001 A 
HETATM   17  C   UNL     1      -6.514  -4.200 -35.285  1.00  0.00     0.001 A 
HETATM   18  C   UNL     1      -6.613  -2.843 -34.970  1.00  0.00     0.014 A 
ENDBRANCH   2   5
BRANCH   1  19
HETATM   19  N   UNL     1      -3.510   4.123 -31.706  1.00  0.00    -0.184 NA
HETATM   20  C   UNL     1      -2.223   4.147 -31.587  1.00  0.00     0.150 C 
BRANCH  20  21
HETATM   21  C   UNL     1      -1.552   5.242 -30.854  1.00  0.00    -0.014 A 
HETATM   22  C   UNL     1      -0.232   5.086 -30.412  1.00  0.00     0.016 A 
HETATM   23  C   UNL     1       0.392   6.115 -29.713  1.00  0.00     0.040 A 
HETATM   24  C   UNL     1      -0.308   7.289 -29.470  1.00  0.00     0.099 A 
HETATM   25  C   UNL     1      -1.626   7.468 -29.915  1.00  0.00     0.102 A 
HETATM   26  C   UNL     1      -2.255   6.431 -30.606  1.00  0.00     0.052 A 
BRANCH  24  27
HETATM   27  O   UNL     1       0.327   8.286 -28.780  1.00  0.00    -0.358 OA
HETATM   28  H   UNL     1      -0.061   9.117 -29.117  1.00  0.00     0.218 HD
ENDBRANCH  24  27
BRANCH  25  29
HETATM   29  O   UNL     1      -2.176   8.684 -29.602  1.00  0.00    -0.353 OA
HETATM   30  C   UNL     1      -3.593   8.734 -29.481  1.00  0.00     0.210 C 
ENDBRANCH  25  29
ENDBRANCH  20  21
ENDBRANCH   1  19
TORSDOF 5
ENDMDL
MODEL 7
REMARK VINA RESULT:      -8.4      1.450      2.450
REMARK  5 active torsions:
REMARK  status: ('A' for Active; 'I' for Inactive)
REMARK    1  A    between atoms: O_2  and  C_3 
REMARK    2  A    between atoms: C_4  and  O_5 
REMARK    3  A    between atoms: C_8  and  C_9 
REMARK    4  A    between atoms: N_10  and  N_11 
REMARK       I    between atoms: N_11  and  C_12 
REMARK    5  A    between atoms: C_12  and  C_13 
ROOT
HETATM    1  N   UNL     1      -2.879   3.650 -31.164  1.00  0.00    -0.242 N 
HETATM    2  C   UNL     1      -2.014   4.631 -31.624  1.00  0.00     0.292 C 
HETATM    3  O   UNL     1      -1.342   4.557 -32.650  1.00  0.00    -0.264 OA
HETATM    4  H   UNL     1      -3.384   3.839 -30.301  1.00  0.00     0.192 HD
ENDROOT
BRANCH   2   5
HETATM    5  C   UNL     1      -1.978   5.810 -30.741  1.00  0.00     0.154 A 
HETATM    6  N   UNL     1      -3.007   6.689 -30.667  1.00  0.00    -0.168 NA
HETATM    7  N   UNL     1      -2.577   7.628 -29.794  1.00  0.00    -0.276 N 
HETATM    8  H   UNL     1      -3.192   8.404 -29.578  1.00  0.00     0.189 HD
HETATM    9  C   UNL     1      -1.329   7.389 -29.308  1.00  0.00     0.069 A 
HETATM   10  C   UNL     1      -0.920   6.209 -29.887  1.00  0.00     0.007 A 
HETATM   11  C   UNL     1      -0.528   8.163 -28.375  1.00  0.00    -0.001 A 
HETATM   12  C   UNL     1       0.422   5.628 -29.614  1.00  0.00     0.048 C 
HETATM   13  C   UNL     1       0.956   6.090 -28.238  1.00  0.00     0.044 C 
HETATM   14  C   UNL     1       0.645   7.540 -27.882  1.00  0.00    -0.045 A 
HETATM   15  C   UNL     1       1.472   8.233 -26.989  1.00  0.00     0.008 A 
HETATM   16  C   UNL     1       1.154   9.538 -26.611  1.00  0.00     0.001 A 
HETATM   17  C   UNL     1       0.004  10.152 -27.107  1.00  0.00     0.001 A 
HETATM   18  C   UNL     1      -0.839   9.469 -27.986  1.00  0.00     0.014 A 
ENDBRANCH   2   5
BRANCH   1  19
HETATM   19  N   UNL     1      -3.071   2.508 -31.879  1.00  0.00    -0.184 NA
HETATM   20  C   UNL     1      -4.223   1.935 -31.747  1.00  0.00     0.150 C 
BRANCH  20  21
HETATM   21  C   UNL     1      -4.541   0.696 -32.490  1.00  0.00    -0.014 A 
HETATM   22  C   UNL     1      -3.836  -0.484 -32.219  1.00  0.00     0.016 A 
HETATM   23  C   UNL     1      -4.130  -1.646 -32.928  1.00  0.00     0.040 A 
HETATM   24  C   UNL     1      -5.129  -1.614 -33.893  1.00  0.00     0.099 A 
HETATM   25  C   UNL     1      -5.852  -0.445 -34.169  1.00  0.00     0.102 A 
HETATM   26  C   UNL     1      -5.549   0.722 -33.465  1.00  0.00     0.052 A 
BRANCH  24  27
HETATM   27  O   UNL     1      -5.400  -2.768 -34.577  1.00  0.00    -0.358 OA
HETATM   28  H   UNL     1      -5.210  -2.562 -35.512  1.00  0.00     0.218 HD
ENDBRANCH  24  27
BRANCH  25  29
HETATM   29  O   UNL     1      -6.808  -0.578 -35.142  1.00  0.00    -0.353 OA
HETATM   30  C   UNL     1      -8.001   0.180 -34.977  1.00  0.00     0.210 C 
ENDBRANCH  25  29
ENDBRANCH  20  21
ENDBRANCH   1  19
TORSDOF 5
ENDMDL
MODEL 8
REMARK VINA RESULT:      -8.4      4.663     10.717
REMARK  5 active torsions:
REMARK  status: ('A' for Active; 'I' for Inactive)
REMARK    1  A    between atoms: O_2  and  C_3 
REMARK    2  A    between atoms: C_4  and  O_5 
REMARK    3  A    between atoms: C_8  and  C_9 
REMARK    4  A    between atoms: N_10  and  N_11 
REMARK       I    between atoms: N_11  and  C_12 
REMARK    5  A    between atoms: C_12  and  C_13 
ROOT
HETATM    1  N   UNL     1      -7.549   2.583 -32.195  1.00  0.00    -0.242 N 
HETATM    2  C   UNL     1      -6.730   2.449 -33.306  1.00  0.00     0.292 C 
HETATM    3  O   UNL     1      -5.971   3.316 -33.734  1.00  0.00    -0.264 OA
HETATM    4  H   UNL     1      -8.126   1.785 -31.941  1.00  0.00     0.192 HD
ENDROOT
BRANCH   2   5
HETATM    5  C   UNL     1      -6.855   1.127 -33.942  1.00  0.00     0.154 A 
HETATM    6  N   UNL     1      -7.836   0.842 -34.833  1.00  0.00    -0.168 NA
HETATM    7  N   UNL     1      -7.630  -0.457 -35.147  1.00  0.00    -0.276 N 
HETATM    8  H   UNL     1      -8.258  -0.898 -35.810  1.00  0.00     0.189 HD
HETATM    9  C   UNL     1      -6.568  -1.012 -34.504  1.00  0.00     0.069 A 
HETATM   10  C   UNL     1      -6.032  -0.008 -33.730  1.00  0.00     0.007 A 
HETATM   11  C   UNL     1      -6.044  -2.366 -34.566  1.00  0.00    -0.001 A 
HETATM   12  C   UNL     1      -4.853  -0.241 -32.852  1.00  0.00     0.048 C 
HETATM   13  C   UNL     1      -3.992  -1.412 -33.381  1.00  0.00     0.044 C 
HETATM   14  C   UNL     1      -4.783  -2.583 -33.956  1.00  0.00    -0.045 A 
HETATM   15  C   UNL     1      -4.224  -3.867 -33.966  1.00  0.00     0.008 A 
HETATM   16  C   UNL     1      -4.918  -4.927 -34.549  1.00  0.00     0.001 A 
HETATM   17  C   UNL     1      -6.163  -4.711 -35.140  1.00  0.00     0.001 A 
HETATM   18  C   UNL     1      -6.728  -3.434 -35.152  1.00  0.00     0.014 A 
ENDBRANCH   2   5
BRANCH   1  19
HETATM   19  N   UNL     1      -7.529   3.727 -31.457  1.00  0.00    -0.184 NA
HETATM   20  C   UNL     1      -6.797   3.709 -30.391  1.00  0.00     0.150 C 
BRANCH  20  21
HETATM   21  C   UNL     1      -6.694   4.903 -29.525  1.00  0.00    -0.014 A 
HETATM   22  C   UNL     1      -5.444   5.485 -29.279  1.00  0.00     0.016 A 
HETATM   23  C   UNL     1      -5.350   6.603 -28.454  1.00  0.00     0.040 A 
HETATM   24  C   UNL     1      -6.506   7.127 -27.892  1.00  0.00     0.099 A 
HETATM   25  C   UNL     1      -7.766   6.564 -28.136  1.00  0.00     0.102 A 
HETATM   26  C   UNL     1      -7.859   5.438 -28.954  1.00  0.00     0.052 A 
BRANCH  24  27
HETATM   27  O   UNL     1      -6.388   8.226 -27.084  1.00  0.00    -0.358 OA
HETATM   28  H   UNL     1      -5.766   7.961 -26.380  1.00  0.00     0.218 HD
ENDBRANCH  24  27
BRANCH  25  29
HETATM   29  O   UNL     1      -8.810   7.202 -27.514  1.00  0.00    -0.353 OA
HETATM   30  C   UNL     1      -9.758   7.848 -28.355  1.00  0.00     0.210 C 
ENDBRANCH  25  29
ENDBRANCH  20  21
ENDBRANCH   1  19
TORSDOF 5
ENDMDL
MODEL 9
REMARK VINA RESULT:      -8.4      3.986     10.213
REMARK  5 active torsions:
REMARK  status: ('A' for Active; 'I' for Inactive)
REMARK    1  A    between atoms: O_2  and  C_3 
REMARK    2  A    between atoms: C_4  and  O_5 
REMARK    3  A    between atoms: C_8  and  C_9 
REMARK    4  A    between atoms: N_10  and  N_11 
REMARK       I    between atoms: N_11  and  C_12 
REMARK    5  A    between atoms: C_12  and  C_13 
ROOT
HETATM    1  N   UNL     1      -5.022   1.972 -30.616  1.00  0.00    -0.242 N 
HETATM    2  C   UNL     1      -3.860   1.705 -31.325  1.00  0.00     0.292 C 
HETATM    3  O   UNL     1      -2.974   2.522 -31.565  1.00  0.00    -0.264 OA
HETATM    4  H   UNL     1      -5.673   1.203 -30.480  1.00  0.00     0.192 HD
ENDROOT
BRANCH   2   5
HETATM    5  C   UNL     1      -3.783   0.304 -31.773  1.00  0.00     0.154 A 
HETATM    6  N   UNL     1      -2.772  -0.519 -31.401  1.00  0.00    -0.168 NA
HETATM    7  N   UNL     1      -3.041  -1.681 -32.040  1.00  0.00    -0.276 N 
HETATM    8  H   UNL     1      -2.406  -2.460 -31.910  1.00  0.00     0.189 HD
HETATM    9  C   UNL     1      -4.171  -1.639 -32.795  1.00  0.00     0.069 A 
HETATM   10  C   UNL     1      -4.686  -0.373 -32.630  1.00  0.00     0.007 A 
HETATM   11  C   UNL     1      -4.775  -2.666 -33.628  1.00  0.00    -0.001 A 
HETATM   12  C   UNL     1      -5.925   0.065 -33.329  1.00  0.00     0.048 C 
HETATM   13  C   UNL     1      -6.826  -1.146 -33.669  1.00  0.00     0.044 C 
HETATM   14  C   UNL     1      -6.079  -2.398 -34.114  1.00  0.00    -0.045 A 
HETATM   15  C   UNL     1      -6.716  -3.338 -34.934  1.00  0.00     0.008 A 
HETATM   16  C   UNL     1      -6.058  -4.516 -35.289  1.00  0.00     0.001 A 
HETATM   17  C   UNL     1      -4.770  -4.770 -34.817  1.00  0.00     0.001 A 
HETATM   18  C   UNL     1      -4.127  -3.851 -33.987  1.00  0.00     0.014 A 
ENDBRANCH   2   5
BRANCH   1  19
HETATM   19  N   UNL     1      -5.240   3.207 -30.088  1.00  0.00    -0.184 NA
HETATM   20  C   UNL     1      -6.455   3.475 -29.736  1.00  0.00     0.150 C 
BRANCH  20  21
HETATM   21  C   UNL     1      -6.798   4.783 -29.139  1.00  0.00    -0.014 A 
HETATM   22  C   UNL     1      -8.045   5.366 -29.397  1.00  0.00     0.016 A 
HETATM   23  C   UNL     1      -8.361   6.604 -28.841  1.00  0.00     0.040 A 
HETATM   24  C   UNL     1      -7.429   7.238 -28.031  1.00  0.00     0.099 A 
HETATM   25  C   UNL     1      -6.181   6.664 -27.753  1.00  0.00     0.102 A 
HETATM   26  C   UNL     1      -5.861   5.429 -28.318  1.00  0.00     0.052 A 
BRANCH  24  27
HETATM   27  O   UNL     1      -7.762   8.453 -27.496  1.00  0.00    -0.358 OA
HETATM   28  H   UNL     1      -8.279   8.247 -26.695  1.00  0.00     0.218 HD
ENDBRANCH  24  27
BRANCH  25  29
HETATM   29  O   UNL     1      -5.376   7.411 -26.930  1.00  0.00    -0.353 OA
HETATM   30  C   UNL     1      -4.075   6.898 -26.670  1.00  0.00     0.210 C 
ENDBRANCH  25  29
ENDBRANCH  20  21
ENDBRANCH   1  19
TORSDOF 5
ENDMDL
MODEL 10
REMARK VINA RESULT:      -8.3      3.132     10.389
REMARK  5 active torsions:
REMARK  status: ('A' for Active; 'I' for Inactive)
REMARK    1  A    between atoms: O_2  and  C_3 
REMARK    2  A    between atoms: C_4  and  O_5 
REMARK    3  A    between atoms: C_8  and  C_9 
REMARK    4  A    between atoms: N_10  and  N_11 
REMARK       I    between atoms: N_11  and  C_12 
REMARK    5  A    between atoms: C_12  and  C_13 
ROOT
HETATM    1  N   UNL     1      -5.969   2.613 -32.150  1.00  0.00    -0.242 N 
HETATM    2  C   UNL     1      -6.218   2.626 -33.515  1.00  0.00     0.292 C 
HETATM    3  O   UNL     1      -6.214   3.629 -34.225  1.00  0.00    -0.264 OA
HETATM    4  H   UNL     1      -5.996   1.712 -31.680  1.00  0.00     0.192 HD
ENDROOT
BRANCH   2   5
HETATM    5  C   UNL     1      -6.491   1.282 -34.051  1.00  0.00     0.154 A 
HETATM    6  N   UNL     1      -7.569   1.019 -34.829  1.00  0.00    -0.168 NA
HETATM    7  N   UNL     1      -7.480  -0.308 -35.078  1.00  0.00    -0.276 N 
HETATM    8  H   UNL     1      -8.196  -0.739 -35.652  1.00  0.00     0.189 HD
HETATM    9  C   UNL     1      -6.401  -0.900 -34.500  1.00  0.00     0.069 A 
HETATM   10  C   UNL     1      -5.729   0.105 -33.842  1.00  0.00     0.007 A 
HETATM   11  C   UNL     1      -5.977  -2.290 -34.522  1.00  0.00    -0.001 A 
HETATM   12  C   UNL     1      -4.490  -0.162 -33.062  1.00  0.00     0.048 C 
HETATM   13  C   UNL     1      -3.764  -1.421 -33.590  1.00  0.00     0.044 C 
HETATM   14  C   UNL     1      -4.682  -2.562 -34.015  1.00  0.00    -0.045 A 
HETATM   15  C   UNL     1      -4.213  -3.882 -33.993  1.00  0.00     0.008 A 
HETATM   16  C   UNL     1      -5.028  -4.921 -34.444  1.00  0.00     0.001 A 
HETATM   17  C   UNL     1      -6.306  -4.649 -34.931  1.00  0.00     0.001 A 
HETATM   18  C   UNL     1      -6.783  -3.338 -34.974  1.00  0.00     0.014 A 
ENDBRANCH   2   5
BRANCH   1  19
HETATM   19  N   UNL     1      -5.654   3.763 -31.495  1.00  0.00    -0.184 NA
HETATM   20  C   UNL     1      -4.409   4.112 -31.514  1.00  0.00     0.150 C 
BRANCH  20  21
HETATM   21  C   UNL     1      -3.960   5.352 -30.844  1.00  0.00    -0.014 A 
HETATM   22  C   UNL     1      -4.844   6.064 -30.025  1.00  0.00     0.016 A 
HETATM   23  C   UNL     1      -4.422   7.238 -29.404  1.00  0.00     0.040 A 
HETATM   24  C   UNL     1      -3.121   7.677 -29.606  1.00  0.00     0.099 A 
HETATM   25  C   UNL     1      -2.219   6.970 -30.413  1.00  0.00     0.102 A 
HETATM   26  C   UNL     1      -2.646   5.801 -31.044  1.00  0.00     0.052 A 
BRANCH  24  27
HETATM   27  O   UNL     1      -2.728   8.833 -28.986  1.00  0.00    -0.358 OA
HETATM   28  H   UNL     1      -3.236   8.861 -28.152  1.00  0.00     0.218 HD
ENDBRANCH  24  27
BRANCH  25  29
HETATM   29  O   UNL     1      -0.971   7.531 -30.506  1.00  0.00    -0.353 OA
HETATM   30  C   UNL     1       0.129   6.713 -30.122  1.00  0.00     0.210 C 
ENDBRANCH  25  29
ENDBRANCH  20  21
ENDBRANCH   1  19
TORSDOF 5
ENDMDL
