MODEL 1
REMARK VINA RESULT:      -7.8      0.000      0.000
REMARK  5 active torsions:
REMARK  status: ('A' for Active; 'I' for Inactive)
REMARK    1  A    between atoms: C_2  and  C_3 
REMARK    2  A    between atoms: C_3  and  N_4 
REMARK    3  A    between atoms: C_3  and  C_19 
REMARK       I    between atoms: N_4  and  C_5 
REMARK       I    between atoms: C_5  and  N_6 
REMARK    4  A    between atoms: N_6  and  C_7 
REMARK    5  A    between atoms: C_12  and  C_13 
ROOT
HETATM    1  N   UNL     1      -4.450   1.476 -32.404  1.00  0.00    -0.334 N 
HETATM    2  C   UNL     1      -4.516   2.149 -31.238  1.00  0.00     0.321 C 
HETATM    3  N   UNL     1      -3.770   3.263 -31.052  1.00  0.00    -0.306 N 
HETATM    4  O   UNL     1      -5.224   1.777 -30.301  1.00  0.00    -0.247 OA
HETATM    5  H   UNL     1      -4.066   1.961 -33.196  1.00  0.00     0.165 HD
HETATM    6  H   UNL     1      -3.922   3.581 -30.101  1.00  0.00     0.171 HD
ENDROOT
BRANCH   1   7
HETATM    7  C   UNL     1      -5.344   0.367 -32.694  1.00  0.00     0.122 C 
BRANCH   7   8
HETATM    8  C   UNL     1      -6.111   0.585 -34.016  1.00  0.00     0.026 C 
HETATM    9  C   UNL     1      -6.747   1.963 -34.158  1.00  0.00     0.007 C 
ENDBRANCH   7   8
BRANCH   7  10
HETATM   10  C   UNL     1      -4.588  -0.929 -32.668  1.00  0.00     0.001 A 
HETATM   11  C   UNL     1      -4.698  -2.057 -33.461  1.00  0.00     0.122 A 
HETATM   12  N   UNL     1      -3.771  -2.947 -33.005  1.00  0.00    -0.285 N 
HETATM   13  C   UNL     1      -3.504  -4.268 -33.522  1.00  0.00     0.179 C 
HETATM   14  N   UNL     1      -3.062  -2.492 -31.960  1.00  0.00    -0.185 NA
HETATM   15  C   UNL     1      -3.549  -1.266 -31.762  1.00  0.00     0.149 A 
ENDBRANCH   7  10
ENDBRANCH   1   7
BRANCH   3  16
HETATM   16  C   UNL     1      -2.879   4.043 -31.819  1.00  0.00     0.075 A 
HETATM   17  C   UNL     1      -3.038   4.460 -33.143  1.00  0.00     0.143 A 
HETATM   18  F   UNL     1      -4.129   4.164 -33.858  1.00  0.00    -0.204 F 
HETATM   19  C   UNL     1      -2.071   5.241 -33.782  1.00  0.00     0.045 A 
HETATM   20  C   UNL     1      -0.920   5.633 -33.102  1.00  0.00     0.019 A 
HETATM   21  C   UNL     1      -0.726   5.241 -31.775  1.00  0.00     0.050 A 
HETATM   22  C   UNL     1      -1.712   4.452 -31.147  1.00  0.00     0.049 A 
BRANCH  21  23
HETATM   23  C   UNL     1       0.494   5.680 -31.001  1.00  0.00     0.417 C 
HETATM   24  F   UNL     1       1.005   6.868 -31.426  1.00  0.00    -0.166 F 
HETATM   25  F   UNL     1       0.233   5.835 -29.675  1.00  0.00    -0.166 F 
HETATM   26  F   UNL     1       1.515   4.783 -31.080  1.00  0.00    -0.166 F 
ENDBRANCH  21  23
ENDBRANCH   3  16
TORSDOF 5
ENDMDL
MODEL 2
REMARK VINA RESULT:      -7.6      3.640      7.972
REMARK  5 active torsions:
REMARK  status: ('A' for Active; 'I' for Inactive)
REMARK    1  A    between atoms: C_2  and  C_3 
REMARK    2  A    between atoms: C_3  and  N_4 
REMARK    3  A    between atoms: C_3  and  C_19 
REMARK       I    between atoms: N_4  and  C_5 
REMARK       I    between atoms: C_5  and  N_6 
REMARK    4  A    between atoms: N_6  and  C_7 
REMARK    5  A    between atoms: C_12  and  C_13 
ROOT
HETATM    1  N   UNL     1      -3.558   3.231 -33.015  1.00  0.00    -0.334 N 
HETATM    2  C   UNL     1      -3.551   2.266 -32.073  1.00  0.00     0.321 C 
HETATM    3  N   UNL     1      -4.369   1.193 -32.192  1.00  0.00    -0.306 N 
HETATM    4  O   UNL     1      -2.834   2.325 -31.074  1.00  0.00    -0.247 OA
HETATM    5  H   UNL     1      -3.961   3.002 -33.908  1.00  0.00     0.165 HD
HETATM    6  H   UNL     1      -4.250   0.622 -31.362  1.00  0.00     0.171 HD
ENDROOT
BRANCH   1   7
HETATM    7  C   UNL     1      -2.592   4.316 -32.998  1.00  0.00     0.122 C 
BRANCH   7   8
HETATM    8  C   UNL     1      -2.176   4.729 -34.427  1.00  0.00     0.026 C 
HETATM    9  C   UNL     1      -1.139   5.846 -34.486  1.00  0.00     0.007 C 
ENDBRANCH   7   8
BRANCH   7  10
HETATM   10  C   UNL     1      -3.119   5.467 -32.192  1.00  0.00     0.001 A 
HETATM   11  C   UNL     1      -2.664   6.029 -31.012  1.00  0.00     0.122 A 
HETATM   12  N   UNL     1      -3.516   7.052 -30.713  1.00  0.00    -0.285 N 
HETATM   13  C   UNL     1      -3.446   7.939 -29.578  1.00  0.00     0.179 C 
HETATM   14  N   UNL     1      -4.508   7.198 -31.605  1.00  0.00    -0.185 NA
HETATM   15  C   UNL     1      -4.262   6.246 -32.506  1.00  0.00     0.149 A 
ENDBRANCH   7  10
ENDBRANCH   1   7
BRANCH   3  16
HETATM   16  C   UNL     1      -5.296   0.708 -33.138  1.00  0.00     0.075 A 
HETATM   17  C   UNL     1      -6.292   1.431 -33.800  1.00  0.00     0.143 A 
HETATM   18  F   UNL     1      -6.468   2.743 -33.609  1.00  0.00    -0.204 F 
HETATM   19  C   UNL     1      -7.143   0.820 -34.725  1.00  0.00     0.045 A 
HETATM   20  C   UNL     1      -7.008  -0.535 -35.019  1.00  0.00     0.019 A 
HETATM   21  C   UNL     1      -6.020  -1.292 -34.382  1.00  0.00     0.050 A 
HETATM   22  C   UNL     1      -5.172  -0.658 -33.450  1.00  0.00     0.049 A 
BRANCH  21  23
HETATM   23  C   UNL     1      -5.827  -2.754 -34.706  1.00  0.00     0.417 C 
HETATM   24  F   UNL     1      -6.986  -3.468 -34.695  1.00  0.00    -0.166 F 
HETATM   25  F   UNL     1      -5.281  -2.939 -35.938  1.00  0.00    -0.166 F 
HETATM   26  F   UNL     1      -4.993  -3.379 -33.829  1.00  0.00    -0.166 F 
ENDBRANCH  21  23
ENDBRANCH   3  16
TORSDOF 5
ENDMDL
MODEL 3
REMARK VINA RESULT:      -7.4      4.431      7.813
REMARK  5 active torsions:
REMARK  status: ('A' for Active; 'I' for Inactive)
REMARK    1  A    between atoms: C_2  and  C_3 
REMARK    2  A    between atoms: C_3  and  N_4 
REMARK    3  A    between atoms: C_3  and  C_19 
REMARK       I    between atoms: N_4  and  C_5 
REMARK       I    between atoms: C_5  and  N_6 
REMARK    4  A    between atoms: N_6  and  C_7 
REMARK    5  A    between atoms: C_12  and  C_13 
ROOT
HETATM    1  N   UNL     1      -7.347   2.234 -32.470  1.00  0.00    -0.334 N 
HETATM    2  C   UNL     1      -7.056   1.891 -31.199  1.00  0.00     0.321 C 
HETATM    3  N   UNL     1      -6.260   0.824 -30.949  1.00  0.00    -0.306 N 
HETATM    4  O   UNL     1      -7.507   2.502 -30.230  1.00  0.00    -0.247 OA
HETATM    5  H   UNL     1      -6.755   1.868 -33.195  1.00  0.00     0.165 HD
HETATM    6  H   UNL     1      -6.212   0.705 -29.943  1.00  0.00     0.171 HD
ENDROOT
BRANCH   1   7
HETATM    7  C   UNL     1      -8.071   3.456 -32.780  1.00  0.00     0.122 C 
BRANCH   7   8
HETATM    8  C   UNL     1      -7.235   4.403 -33.668  1.00  0.00     0.026 C 
HETATM    9  C   UNL     1      -5.917   3.813 -34.157  1.00  0.00     0.007 C 
ENDBRANCH   7   8
BRANCH   7  10
HETATM   10  C   UNL     1      -9.408   3.129 -33.377  1.00  0.00     0.001 A 
HETATM   11  C   UNL     1     -10.020   3.584 -34.533  1.00  0.00     0.122 A 
HETATM   12  N   UNL     1     -11.234   2.966 -34.600  1.00  0.00    -0.285 N 
HETATM   13  C   UNL     1     -12.230   3.117 -35.633  1.00  0.00     0.179 C 
HETATM   14  N   UNL     1     -11.473   2.144 -33.567  1.00  0.00    -0.185 NA
HETATM   15  C   UNL     1     -10.364   2.234 -32.832  1.00  0.00     0.149 A 
ENDBRANCH   7  10
ENDBRANCH   1   7
BRANCH   3  16
HETATM   16  C   UNL     1      -5.526  -0.111 -31.709  1.00  0.00     0.075 A 
HETATM   17  C   UNL     1      -4.189  -0.482 -31.540  1.00  0.00     0.143 A 
HETATM   18  F   UNL     1      -3.425   0.028 -30.567  1.00  0.00    -0.204 F 
HETATM   19  C   UNL     1      -3.587  -1.434 -32.367  1.00  0.00     0.045 A 
HETATM   20  C   UNL     1      -4.317  -2.049 -33.381  1.00  0.00     0.019 A 
HETATM   21  C   UNL     1      -5.659  -1.709 -33.579  1.00  0.00     0.050 A 
HETATM   22  C   UNL     1      -6.249  -0.745 -32.736  1.00  0.00     0.049 A 
BRANCH  21  23
HETATM   23  C   UNL     1      -6.485  -2.384 -34.648  1.00  0.00     0.417 C 
HETATM   24  F   UNL     1      -7.307  -3.355 -34.163  1.00  0.00    -0.166 F 
HETATM   25  F   UNL     1      -7.288  -1.506 -35.308  1.00  0.00    -0.166 F 
HETATM   26  F   UNL     1      -5.720  -2.983 -35.602  1.00  0.00    -0.166 F 
ENDBRANCH  21  23
ENDBRANCH   3  16
TORSDOF 5
ENDMDL
MODEL 4
REMARK VINA RESULT:      -7.4      4.195      7.568
REMARK  5 active torsions:
REMARK  status: ('A' for Active; 'I' for Inactive)
REMARK    1  A    between atoms: C_2  and  C_3 
REMARK    2  A    between atoms: C_3  and  N_4 
REMARK    3  A    between atoms: C_3  and  C_19 
REMARK       I    between atoms: N_4  and  C_5 
REMARK       I    between atoms: C_5  and  N_6 
REMARK    4  A    between atoms: N_6  and  C_7 
REMARK    5  A    between atoms: C_12  and  C_13 
ROOT
HETATM    1  N   UNL     1      -4.154   1.071 -31.591  1.00  0.00    -0.334 N 
HETATM    2  C   UNL     1      -3.233   0.088 -31.548  1.00  0.00     0.321 C 
HETATM    3  N   UNL     1      -3.412  -1.044 -32.270  1.00  0.00    -0.306 N 
HETATM    4  O   UNL     1      -2.222   0.161 -30.849  1.00  0.00    -0.247 OA
HETATM    5  H   UNL     1      -4.804   1.062 -32.358  1.00  0.00     0.165 HD
HETATM    6  H   UNL     1      -2.643  -1.670 -32.056  1.00  0.00     0.171 HD
ENDROOT
BRANCH   1   7
HETATM    7  C   UNL     1      -3.925   2.356 -30.950  1.00  0.00     0.122 C 
BRANCH   7   8
HETATM    8  C   UNL     1      -3.192   3.337 -31.890  1.00  0.00     0.026 C 
HETATM    9  C   UNL     1      -3.995   3.759 -33.115  1.00  0.00     0.007 C 
ENDBRANCH   7   8
BRANCH   7  10
HETATM   10  C   UNL     1      -5.216   2.910 -30.424  1.00  0.00     0.001 A 
HETATM   11  C   UNL     1      -5.502   4.123 -29.822  1.00  0.00     0.122 A 
HETATM   12  N   UNL     1      -6.836   4.111 -29.536  1.00  0.00    -0.285 N 
HETATM   13  C   UNL     1      -7.600   5.162 -28.909  1.00  0.00     0.179 C 
HETATM   14  N   UNL     1      -7.450   2.973 -29.895  1.00  0.00    -0.185 NA
HETATM   15  C   UNL     1      -6.472   2.250 -30.443  1.00  0.00     0.149 A 
ENDBRANCH   7  10
ENDBRANCH   1   7
BRANCH   3  16
HETATM   16  C   UNL     1      -4.359  -1.534 -33.193  1.00  0.00     0.075 A 
HETATM   17  C   UNL     1      -4.411  -2.810 -33.762  1.00  0.00     0.143 A 
HETATM   18  F   UNL     1      -3.526  -3.765 -33.454  1.00  0.00    -0.204 F 
HETATM   19  C   UNL     1      -5.418  -3.165 -34.664  1.00  0.00     0.045 A 
HETATM   20  C   UNL     1      -6.407  -2.249 -35.012  1.00  0.00     0.019 A 
HETATM   21  C   UNL     1      -6.393  -0.963 -34.461  1.00  0.00     0.050 A 
HETATM   22  C   UNL     1      -5.369  -0.623 -33.554  1.00  0.00     0.049 A 
BRANCH  21  23
HETATM   23  C   UNL     1      -7.472   0.040 -34.793  1.00  0.00     0.417 C 
HETATM   24  F   UNL     1      -8.354   0.241 -33.776  1.00  0.00    -0.166 F 
HETATM   25  F   UNL     1      -6.960   1.263 -35.096  1.00  0.00    -0.166 F 
HETATM   26  F   UNL     1      -8.220  -0.331 -35.869  1.00  0.00    -0.166 F 
ENDBRANCH  21  23
ENDBRANCH   3  16
TORSDOF 5
ENDMDL
MODEL 5
REMARK VINA RESULT:      -7.1     16.650     18.788
REMARK  5 active torsions:
REMARK  status: ('A' for Active; 'I' for Inactive)
REMARK    1  A    between atoms: C_2  and  C_3 
REMARK    2  A    between atoms: C_3  and  N_4 
REMARK    3  A    between atoms: C_3  and  C_19 
REMARK       I    between atoms: N_4  and  C_5 
REMARK       I    between atoms: C_5  and  N_6 
REMARK    4  A    between atoms: N_6  and  C_7 
REMARK    5  A    between atoms: C_12  and  C_13 
ROOT
HETATM    1  N   UNL     1      -3.259 -13.596 -39.228  1.00  0.00    -0.334 N 
HETATM    2  C   UNL     1      -3.444 -12.500 -38.466  1.00  0.00     0.321 C 
HETATM    3  N   UNL     1      -4.648 -12.267 -37.891  1.00  0.00    -0.306 N 
HETATM    4  O   UNL     1      -2.556 -11.667 -38.280  1.00  0.00    -0.247 OA
HETATM    5  H   UNL     1      -3.921 -14.346 -39.128  1.00  0.00     0.165 HD
HETATM    6  H   UNL     1      -4.593 -11.374 -37.412  1.00  0.00     0.171 HD
ENDROOT
BRANCH   1   7
HETATM    7  C   UNL     1      -1.945 -13.956 -39.735  1.00  0.00     0.122 C 
BRANCH   7   8
HETATM    8  C   UNL     1      -1.067 -14.595 -38.638  1.00  0.00     0.026 C 
HETATM    9  C   UNL     1       0.383 -14.124 -38.634  1.00  0.00     0.007 C 
ENDBRANCH   7   8
BRANCH   7  10
HETATM   10  C   UNL     1      -2.078 -14.824 -40.952  1.00  0.00     0.001 A 
HETATM   11  C   UNL     1      -2.859 -14.681 -42.085  1.00  0.00     0.122 A 
HETATM   12  N   UNL     1      -2.597 -15.759 -42.879  1.00  0.00    -0.285 N 
HETATM   13  C   UNL     1      -3.168 -16.047 -44.172  1.00  0.00     0.179 C 
HETATM   14  N   UNL     1      -1.707 -16.610 -42.346  1.00  0.00    -0.185 NA
HETATM   15  C   UNL     1      -1.385 -16.039 -41.184  1.00  0.00     0.149 A 
ENDBRANCH   7  10
ENDBRANCH   1   7
BRANCH   3  16
HETATM   16  C   UNL     1      -5.891 -12.929 -37.805  1.00  0.00     0.075 A 
HETATM   17  C   UNL     1      -6.288 -13.872 -36.853  1.00  0.00     0.143 A 
HETATM   18  F   UNL     1      -5.490 -14.253 -35.850  1.00  0.00    -0.204 F 
HETATM   19  C   UNL     1      -7.562 -14.446 -36.884  1.00  0.00     0.045 A 
HETATM   20  C   UNL     1      -8.476 -14.079 -37.868  1.00  0.00     0.019 A 
HETATM   21  C   UNL     1      -8.119 -13.135 -38.836  1.00  0.00     0.050 A 
HETATM   22  C   UNL     1      -6.829 -12.568 -38.790  1.00  0.00     0.049 A 
BRANCH  21  23
HETATM   23  C   UNL     1      -9.101 -12.692 -39.894  1.00  0.00     0.417 C 
HETATM   24  F   UNL     1      -9.429 -13.677 -40.775  1.00  0.00    -0.166 F 
HETATM   25  F   UNL     1     -10.274 -12.261 -39.357  1.00  0.00    -0.166 F 
HETATM   26  F   UNL     1      -8.630 -11.659 -40.646  1.00  0.00    -0.166 F 
ENDBRANCH  21  23
ENDBRANCH   3  16
TORSDOF 5
ENDMDL
MODEL 6
REMARK VINA RESULT:      -7.1      4.023      7.782
REMARK  5 active torsions:
REMARK  status: ('A' for Active; 'I' for Inactive)
REMARK    1  A    between atoms: C_2  and  C_3 
REMARK    2  A    between atoms: C_3  and  N_4 
REMARK    3  A    between atoms: C_3  and  C_19 
REMARK       I    between atoms: N_4  and  C_5 
REMARK       I    between atoms: C_5  and  N_6 
REMARK    4  A    between atoms: N_6  and  C_7 
REMARK    5  A    between atoms: C_12  and  C_13 
ROOT
HETATM    1  N   UNL     1      -5.210   1.929 -32.287  1.00  0.00    -0.334 N 
HETATM    2  C   UNL     1      -3.974   1.396 -32.221  1.00  0.00     0.321 C 
HETATM    3  N   UNL     1      -3.737   0.162 -32.728  1.00  0.00    -0.306 N 
HETATM    4  O   UNL     1      -3.030   1.981 -31.689  1.00  0.00    -0.247 OA
HETATM    5  H   UNL     1      -5.853   1.524 -32.946  1.00  0.00     0.165 HD
HETATM    6  H   UNL     1      -2.770  -0.072 -32.529  1.00  0.00     0.171 HD
ENDROOT
BRANCH   1   7
HETATM    7  C   UNL     1      -5.467   3.303 -31.891  1.00  0.00     0.122 C 
BRANCH   7   8
HETATM    8  C   UNL     1      -5.134   3.538 -30.402  1.00  0.00     0.026 C 
HETATM    9  C   UNL     1      -6.005   4.584 -29.716  1.00  0.00     0.007 C 
ENDBRANCH   7   8
BRANCH   7  10
HETATM   10  C   UNL     1      -4.745   4.250 -32.804  1.00  0.00     0.001 A 
HETATM   11  C   UNL     1      -3.663   5.082 -32.573  1.00  0.00     0.122 A 
HETATM   12  N   UNL     1      -3.412   5.730 -33.748  1.00  0.00    -0.285 N 
HETATM   13  C   UNL     1      -2.372   6.697 -34.003  1.00  0.00     0.179 C 
HETATM   14  N   UNL     1      -4.257   5.393 -34.735  1.00  0.00    -0.185 NA
HETATM   15  C   UNL     1      -5.057   4.490 -34.167  1.00  0.00     0.149 A 
ENDBRANCH   7  10
ENDBRANCH   1   7
BRANCH   3  16
HETATM   16  C   UNL     1      -4.471  -0.821 -33.424  1.00  0.00     0.075 A 
HETATM   17  C   UNL     1      -5.605  -0.632 -34.218  1.00  0.00     0.143 A 
HETATM   18  F   UNL     1      -6.132   0.579 -34.432  1.00  0.00    -0.204 F 
HETATM   19  C   UNL     1      -6.231  -1.703 -34.860  1.00  0.00     0.045 A 
HETATM   20  C   UNL     1      -5.728  -2.995 -34.730  1.00  0.00     0.019 A 
HETATM   21  C   UNL     1      -4.592  -3.225 -33.947  1.00  0.00     0.050 A 
HETATM   22  C   UNL     1      -3.975  -2.132 -33.306  1.00  0.00     0.049 A 
BRANCH  21  23
HETATM   23  C   UNL     1      -4.003  -4.609 -33.815  1.00  0.00     0.417 C 
HETATM   24  F   UNL     1      -2.866  -4.785 -34.543  1.00  0.00    -0.166 F 
HETATM   25  F   UNL     1      -3.677  -4.908 -32.529  1.00  0.00    -0.166 F 
HETATM   26  F   UNL     1      -4.861  -5.585 -34.221  1.00  0.00    -0.166 F 
ENDBRANCH  21  23
ENDBRANCH   3  16
TORSDOF 5
ENDMDL
MODEL 7
REMARK VINA RESULT:      -7.1      4.308      8.283
REMARK  5 active torsions:
REMARK  status: ('A' for Active; 'I' for Inactive)
REMARK    1  A    between atoms: C_2  and  C_3 
REMARK    2  A    between atoms: C_3  and  N_4 
REMARK    3  A    between atoms: C_3  and  C_19 
REMARK       I    between atoms: N_4  and  C_5 
REMARK       I    between atoms: C_5  and  N_6 
REMARK    4  A    between atoms: N_6  and  C_7 
REMARK    5  A    between atoms: C_12  and  C_13 
ROOT
HETATM    1  N   UNL     1      -7.273   2.163 -32.727  1.00  0.00    -0.334 N 
HETATM    2  C   UNL     1      -7.939   1.691 -33.801  1.00  0.00     0.321 C 
HETATM    3  N   UNL     1      -7.517   0.564 -34.422  1.00  0.00    -0.306 N 
HETATM    4  O   UNL     1      -8.924   2.262 -34.270  1.00  0.00    -0.247 OA
HETATM    5  H   UNL     1      -6.656   1.528 -32.252  1.00  0.00     0.165 HD
HETATM    6  H   UNL     1      -8.113   0.415 -35.229  1.00  0.00     0.171 HD
ENDROOT
BRANCH   1   7
HETATM    7  C   UNL     1      -7.782   3.279 -31.948  1.00  0.00     0.122 C 
BRANCH   7   8
HETATM    8  C   UNL     1      -8.557   2.797 -30.703  1.00  0.00     0.026 C 
HETATM    9  C   UNL     1      -9.936   3.424 -30.534  1.00  0.00     0.007 C 
ENDBRANCH   7   8
BRANCH   7  10
HETATM   10  C   UNL     1      -6.668   4.225 -31.609  1.00  0.00     0.001 A 
HETATM   11  C   UNL     1      -6.000   5.154 -32.388  1.00  0.00     0.122 A 
HETATM   12  N   UNL     1      -5.072   5.744 -31.580  1.00  0.00    -0.285 N 
HETATM   13  C   UNL     1      -4.138   6.783 -31.943  1.00  0.00     0.179 C 
HETATM   14  N   UNL     1      -5.071   5.264 -30.327  1.00  0.00    -0.185 NA
HETATM   15  C   UNL     1      -6.044   4.352 -30.341  1.00  0.00     0.149 A 
ENDBRANCH   7  10
ENDBRANCH   1   7
BRANCH   3  16
HETATM   16  C   UNL     1      -6.501  -0.396 -34.230  1.00  0.00     0.075 A 
HETATM   17  C   UNL     1      -5.211  -0.183 -33.737  1.00  0.00     0.143 A 
HETATM   18  F   UNL     1      -4.785   1.026 -33.353  1.00  0.00    -0.204 F 
HETATM   19  C   UNL     1      -4.304  -1.235 -33.590  1.00  0.00     0.045 A 
HETATM   20  C   UNL     1      -4.673  -2.536 -33.925  1.00  0.00     0.019 A 
HETATM   21  C   UNL     1      -5.957  -2.791 -34.417  1.00  0.00     0.050 A 
HETATM   22  C   UNL     1      -6.858  -1.717 -34.560  1.00  0.00     0.049 A 
BRANCH  21  23
HETATM   23  C   UNL     1      -6.397  -4.196 -34.755  1.00  0.00     0.417 C 
HETATM   24  F   UNL     1      -5.499  -5.149 -34.384  1.00  0.00    -0.166 F 
HETATM   25  F   UNL     1      -7.570  -4.526 -34.149  1.00  0.00    -0.166 F 
HETATM   26  F   UNL     1      -6.602  -4.374 -36.090  1.00  0.00    -0.166 F 
ENDBRANCH  21  23
ENDBRANCH   3  16
TORSDOF 5
ENDMDL
MODEL 8
REMARK VINA RESULT:      -7.1      3.946      7.990
REMARK  5 active torsions:
REMARK  status: ('A' for Active; 'I' for Inactive)
REMARK    1  A    between atoms: C_2  and  C_3 
REMARK    2  A    between atoms: C_3  and  N_4 
REMARK    3  A    between atoms: C_3  and  C_19 
REMARK       I    between atoms: N_4  and  C_5 
REMARK       I    between atoms: C_5  and  N_6 
REMARK    4  A    between atoms: N_6  and  C_7 
REMARK    5  A    between atoms: C_12  and  C_13 
ROOT
HETATM    1  N   UNL     1      -3.538   4.198 -32.746  1.00  0.00    -0.334 N 
HETATM    2  C   UNL     1      -3.370   3.234 -31.818  1.00  0.00     0.321 C 
HETATM    3  N   UNL     1      -4.394   2.404 -31.507  1.00  0.00    -0.306 N 
HETATM    4  O   UNL     1      -2.311   3.082 -31.208  1.00  0.00    -0.247 OA
HETATM    5  H   UNL     1      -4.317   4.104 -33.374  1.00  0.00     0.165 HD
HETATM    6  H   UNL     1      -4.081   1.797 -30.757  1.00  0.00     0.171 HD
ENDROOT
BRANCH   1   7
HETATM    7  C   UNL     1      -2.423   5.006 -33.211  1.00  0.00     0.122 C 
BRANCH   7   8
HETATM    8  C   UNL     1      -2.334   5.018 -34.753  1.00  0.00     0.026 C 
HETATM    9  C   UNL     1      -3.662   5.255 -35.462  1.00  0.00     0.007 C 
ENDBRANCH   7   8
BRANCH   7  10
HETATM   10  C   UNL     1      -2.501   6.385 -32.624  1.00  0.00     0.001 A 
HETATM   11  C   UNL     1      -3.302   6.897 -31.618  1.00  0.00     0.122 A 
HETATM   12  N   UNL     1      -2.965   8.212 -31.483  1.00  0.00    -0.285 N 
HETATM   13  C   UNL     1      -3.526   9.162 -30.553  1.00  0.00     0.179 C 
HETATM   14  N   UNL     1      -2.007   8.609 -32.334  1.00  0.00    -0.185 NA
HETATM   15  C   UNL     1      -1.718   7.501 -33.018  1.00  0.00     0.149 A 
ENDBRANCH   7  10
ENDBRANCH   1   7
BRANCH   3  16
HETATM   16  C   UNL     1      -5.717   2.195 -31.948  1.00  0.00     0.075 A 
HETATM   17  C   UNL     1      -6.855   2.929 -31.602  1.00  0.00     0.143 A 
HETATM   18  F   UNL     1      -6.801   3.984 -30.781  1.00  0.00    -0.204 F 
HETATM   19  C   UNL     1      -8.112   2.613 -32.124  1.00  0.00     0.045 A 
HETATM   20  C   UNL     1      -8.258   1.556 -33.019  1.00  0.00     0.019 A 
HETATM   21  C   UNL     1      -7.143   0.801 -33.394  1.00  0.00     0.050 A 
HETATM   22  C   UNL     1      -5.884   1.133 -32.856  1.00  0.00     0.049 A 
BRANCH  21  23
HETATM   23  C   UNL     1      -7.265  -0.329 -34.389  1.00  0.00     0.417 C 
HETATM   24  F   UNL     1      -8.091  -0.044 -35.433  1.00  0.00    -0.166 F 
HETATM   25  F   UNL     1      -6.065  -0.661 -34.938  1.00  0.00    -0.166 F 
HETATM   26  F   UNL     1      -7.750  -1.471 -33.829  1.00  0.00    -0.166 F 
ENDBRANCH  21  23
ENDBRANCH   3  16
TORSDOF 5
ENDMDL
MODEL 9
REMARK VINA RESULT:      -7.0      3.113      4.673
REMARK  5 active torsions:
REMARK  status: ('A' for Active; 'I' for Inactive)
REMARK    1  A    between atoms: C_2  and  C_3 
REMARK    2  A    between atoms: C_3  and  N_4 
REMARK    3  A    between atoms: C_3  and  C_19 
REMARK       I    between atoms: N_4  and  C_5 
REMARK       I    between atoms: C_5  and  N_6 
REMARK    4  A    between atoms: N_6  and  C_7 
REMARK    5  A    between atoms: C_12  and  C_13 
ROOT
HETATM    1  N   UNL     1      -5.234   3.637 -32.518  1.00  0.00    -0.334 N 
HETATM    2  C   UNL     1      -4.188   2.787 -32.580  1.00  0.00     0.321 C 
HETATM    3  N   UNL     1      -2.947   3.255 -32.854  1.00  0.00    -0.306 N 
HETATM    4  O   UNL     1      -4.314   1.573 -32.417  1.00  0.00    -0.247 OA
HETATM    5  H   UNL     1      -5.029   4.614 -32.404  1.00  0.00     0.165 HD
HETATM    6  H   UNL     1      -2.323   2.457 -32.909  1.00  0.00     0.171 HD
ENDROOT
BRANCH   1   7
HETATM    7  C   UNL     1      -6.547   3.195 -32.081  1.00  0.00     0.122 C 
BRANCH   7   8
HETATM    8  C   UNL     1      -6.808   3.559 -30.604  1.00  0.00     0.026 C 
HETATM    9  C   UNL     1      -5.874   4.625 -30.041  1.00  0.00     0.007 C 
ENDBRANCH   7   8
BRANCH   7  10
HETATM   10  C   UNL     1      -7.606   3.722 -33.004  1.00  0.00     0.001 A 
HETATM   11  C   UNL     1      -8.783   3.149 -33.454  1.00  0.00     0.122 A 
HETATM   12  N   UNL     1      -9.371   4.063 -34.279  1.00  0.00    -0.285 N 
HETATM   13  C   UNL     1     -10.623   3.921 -34.982  1.00  0.00     0.179 C 
HETATM   14  N   UNL     1      -8.661   5.193 -34.416  1.00  0.00    -0.185 NA
HETATM   15  C   UNL     1      -7.598   4.992 -33.637  1.00  0.00     0.149 A 
ENDBRANCH   7  10
ENDBRANCH   1   7
BRANCH   3  16
HETATM   16  C   UNL     1      -2.349   4.514 -33.072  1.00  0.00     0.075 A 
HETATM   17  C   UNL     1      -2.577   5.391 -34.135  1.00  0.00     0.143 A 
HETATM   18  F   UNL     1      -3.457   5.122 -35.106  1.00  0.00    -0.204 F 
HETATM   19  C   UNL     1      -1.915   6.619 -34.222  1.00  0.00     0.045 A 
HETATM   20  C   UNL     1      -1.011   7.003 -33.235  1.00  0.00     0.019 A 
HETATM   21  C   UNL     1      -0.759   6.155 -32.152  1.00  0.00     0.050 A 
HETATM   22  C   UNL     1      -1.435   4.920 -32.082  1.00  0.00     0.049 A 
BRANCH  21  23
HETATM   23  C   UNL     1       0.189   6.560 -31.048  1.00  0.00     0.417 C 
HETATM   24  F   UNL     1       1.321   7.165 -31.502  1.00  0.00    -0.166 F 
HETATM   25  F   UNL     1      -0.382   7.434 -30.175  1.00  0.00    -0.166 F 
HETATM   26  F   UNL     1       0.605   5.501 -30.300  1.00  0.00    -0.166 F 
ENDBRANCH  21  23
ENDBRANCH   3  16
TORSDOF 5
ENDMDL
MODEL 10
REMARK VINA RESULT:      -7.0      4.658      7.700
REMARK  5 active torsions:
REMARK  status: ('A' for Active; 'I' for Inactive)
REMARK    1  A    between atoms: C_2  and  C_3 
REMARK    2  A    between atoms: C_3  and  N_4 
REMARK    3  A    between atoms: C_3  and  C_19 
REMARK       I    between atoms: N_4  and  C_5 
REMARK       I    between atoms: C_5  and  N_6 
REMARK    4  A    between atoms: N_6  and  C_7 
REMARK    5  A    between atoms: C_12  and  C_13 
ROOT
HETATM    1  N   UNL     1      -6.039   1.992 -32.831  1.00  0.00    -0.334 N 
HETATM    2  C   UNL     1      -4.761   1.652 -32.569  1.00  0.00     0.321 C 
HETATM    3  N   UNL     1      -4.307   0.417 -32.889  1.00  0.00    -0.306 N 
HETATM    4  O   UNL     1      -3.972   2.422 -32.019  1.00  0.00    -0.247 OA
HETATM    5  H   UNL     1      -6.540   1.430 -33.497  1.00  0.00     0.165 HD
HETATM    6  H   UNL     1      -3.349   0.347 -32.562  1.00  0.00     0.171 HD
ENDROOT
BRANCH   1   7
HETATM    7  C   UNL     1      -6.518   3.351 -32.640  1.00  0.00     0.122 C 
BRANCH   7   8
HETATM    8  C   UNL     1      -6.323   4.206 -33.911  1.00  0.00     0.026 C 
HETATM    9  C   UNL     1      -5.223   5.257 -33.804  1.00  0.00     0.007 C 
ENDBRANCH   7   8
BRANCH   7  10
HETATM   10  C   UNL     1      -7.940   3.337 -32.162  1.00  0.00     0.001 A 
HETATM   11  C   UNL     1      -9.131   3.424 -32.860  1.00  0.00     0.122 A 
HETATM   12  N   UNL     1     -10.132   3.365 -31.934  1.00  0.00    -0.285 N 
HETATM   13  C   UNL     1     -11.552   3.410 -32.184  1.00  0.00     0.179 C 
HETATM   14  N   UNL     1      -9.686   3.257 -30.673  1.00  0.00    -0.185 NA
HETATM   15  C   UNL     1      -8.360   3.230 -30.811  1.00  0.00     0.149 A 
ENDBRANCH   7  10
ENDBRANCH   1   7
BRANCH   3  16
HETATM   16  C   UNL     1      -4.818  -0.732 -33.529  1.00  0.00     0.075 A 
HETATM   17  C   UNL     1      -5.910  -0.807 -34.397  1.00  0.00     0.143 A 
HETATM   18  F   UNL     1      -6.616   0.273 -34.749  1.00  0.00    -0.204 F 
HETATM   19  C   UNL     1      -6.305  -2.019 -34.969  1.00  0.00     0.045 A 
HETATM   20  C   UNL     1      -5.603  -3.190 -34.692  1.00  0.00     0.019 A 
HETATM   21  C   UNL     1      -4.501  -3.156 -33.832  1.00  0.00     0.050 A 
HETATM   22  C   UNL     1      -4.119  -1.924 -33.264  1.00  0.00     0.049 A 
BRANCH  21  23
HETATM   23  C   UNL     1      -3.700  -4.403 -33.541  1.00  0.00     0.417 C 
HETATM   24  F   UNL     1      -2.851  -4.748 -34.548  1.00  0.00    -0.166 F 
HETATM   25  F   UNL     1      -2.929  -4.269 -32.428  1.00  0.00    -0.166 F 
HETATM   26  F   UNL     1      -4.486  -5.493 -33.324  1.00  0.00    -0.166 F 
ENDBRANCH  21  23
ENDBRANCH   3  16
TORSDOF 5
ENDMDL
