MODEL 1
REMARK VINA RESULT:      -8.0      0.000      0.000
REMARK  8 active torsions:
REMARK  status: ('A' for Active; 'I' for Inactive)
REMARK    1  A    between atoms: C_2  and  C_3 
REMARK    2  A    between atoms: C_3  and  N_4 
REMARK    3  A    between atoms: C_7  and  C_8 
REMARK       I    between atoms: C_8  and  N_9 
REMARK    4  A    between atoms: N_9  and  N_10 
REMARK       I    between atoms: N_10  and  C_11 
REMARK    5  A    between atoms: C_11  and  C_12 
REMARK    6  A    between atoms: C_12  and  O_13 
REMARK    7  A    between atoms: O_13  and  C_14 
REMARK    8  A    between atoms: C_23  and  C_24 
ROOT
HETATM    1  C   UNL     1      -1.738   4.605 -31.715  1.00  0.00     0.273 C 
HETATM    2  N   UNL     1      -2.712   3.745 -31.245  1.00  0.00    -0.263 N 
HETATM    3  O   UNL     1      -1.540   4.803 -32.910  1.00  0.00    -0.266 OA
HETATM    4  H   UNL     1      -2.671   3.408 -30.283  1.00  0.00     0.190 HD
ENDROOT
BRANCH   2   5
HETATM    5  N   UNL     1      -3.360   2.905 -32.166  1.00  0.00    -0.265 N 
HETATM    6  C   UNL     1      -4.703   2.653 -31.969  1.00  0.00     0.260 C 
HETATM    7  O   UNL     1      -5.378   3.262 -31.139  1.00  0.00    -0.269 OA
HETATM    8  H   UNL     1      -2.785   2.199 -32.629  1.00  0.00     0.190 HD
BRANCH   6   9
HETATM    9  C   UNL     1      -5.293   1.578 -32.878  1.00  0.00     0.280 C 
BRANCH   9  10
HETATM   10  O   UNL     1      -4.578   0.351 -32.773  1.00  0.00    -0.342 OA
BRANCH  10  11
HETATM   11  C   UNL     1      -5.146  -0.739 -33.376  1.00  0.00     0.069 A 
HETATM   12  C   UNL     1      -4.254  -1.763 -33.700  1.00  0.00     0.037 A 
HETATM   13  C   UNL     1      -4.702  -2.926 -34.332  1.00  0.00     0.009 A 
HETATM   14  C   UNL     1      -6.055  -3.082 -34.646  1.00  0.00    -0.062 A 
HETATM   15  C   UNL     1      -6.555  -4.323 -35.325  1.00  0.00     0.048 C 
HETATM   16  C   UNL     1      -6.950  -2.063 -34.303  1.00  0.00     0.009 A 
HETATM   17  C   UNL     1      -6.500  -0.899 -33.670  1.00  0.00     0.037 A 
ENDBRANCH  10  11
ENDBRANCH   9  10
ENDBRANCH   6   9
ENDBRANCH   2   5
BRANCH   1  18
HETATM   18  C   UNL     1      -1.015   5.269 -30.655  1.00  0.00     0.077 A 
HETATM   19  C   UNL     1       0.199   4.814 -30.095  1.00  0.00     0.158 A 
HETATM   20  N   UNL     1       0.661   5.614 -29.139  1.00  0.00    -0.183 NA
HETATM   21  N   UNL     1      -0.263   6.592 -29.057  1.00  0.00    -0.268 N 
HETATM   22  C   UNL     1      -1.290   6.444 -29.971  1.00  0.00     0.052 A 
BRANCH  21  23
HETATM   23  C   UNL     1      -0.111   7.643 -28.050  1.00  0.00     0.106 C 
HETATM   24  C   UNL     1       1.245   8.360 -28.113  1.00  0.00     0.034 C 
BRANCH  23  25
HETATM   25  C   UNL     1      -0.436   7.129 -26.634  1.00  0.00     0.022 C 
HETATM   26  C   UNL     1      -1.920   7.036 -26.305  1.00  0.00     0.007 C 
ENDBRANCH  23  25
ENDBRANCH  21  23
BRANCH  22  27
HETATM   27  C   UNL     1      -2.445   7.433 -30.140  1.00  0.00     0.038 A 
HETATM   28  C   UNL     1      -2.200   8.769 -30.806  1.00  0.00     0.011 A 
HETATM   29  C   UNL     1      -3.010   7.733 -31.508  1.00  0.00     0.011 A 
ENDBRANCH  22  27
ENDBRANCH   1  18
TORSDOF 8
ENDMDL
MODEL 2
REMARK VINA RESULT:      -8.0      2.233     10.028
REMARK  8 active torsions:
REMARK  status: ('A' for Active; 'I' for Inactive)
REMARK    1  A    between atoms: C_2  and  C_3 
REMARK    2  A    between atoms: C_3  and  N_4 
REMARK    3  A    between atoms: C_7  and  C_8 
REMARK       I    between atoms: C_8  and  N_9 
REMARK    4  A    between atoms: N_9  and  N_10 
REMARK       I    between atoms: N_10  and  C_11 
REMARK    5  A    between atoms: C_11  and  C_12 
REMARK    6  A    between atoms: C_12  and  O_13 
REMARK    7  A    between atoms: O_13  and  C_14 
REMARK    8  A    between atoms: C_23  and  C_24 
ROOT
HETATM    1  C   UNL     1      -5.695   2.295 -32.493  1.00  0.00     0.273 C 
HETATM    2  N   UNL     1      -4.812   3.157 -33.114  1.00  0.00    -0.263 N 
HETATM    3  O   UNL     1      -6.311   2.588 -31.472  1.00  0.00    -0.266 OA
HETATM    4  H   UNL     1      -4.135   2.795 -33.785  1.00  0.00     0.190 HD
ENDROOT
BRANCH   2   5
HETATM    5  N   UNL     1      -4.445   4.333 -32.440  1.00  0.00    -0.265 N 
HETATM    6  C   UNL     1      -3.144   4.432 -31.987  1.00  0.00     0.260 C 
HETATM    7  O   UNL     1      -2.269   3.625 -32.299  1.00  0.00    -0.269 OA
HETATM    8  H   UNL     1      -5.184   4.827 -31.936  1.00  0.00     0.190 HD
BRANCH   6   9
HETATM    9  C   UNL     1      -2.868   5.636 -31.090  1.00  0.00     0.280 C 
BRANCH   9  10
HETATM   10  O   UNL     1      -1.576   6.186 -31.331  1.00  0.00    -0.342 OA
BRANCH  10  11
HETATM   11  C   UNL     1      -0.871   6.592 -30.230  1.00  0.00     0.069 A 
HETATM   12  C   UNL     1      -0.054   5.613 -29.662  1.00  0.00     0.037 A 
HETATM   13  C   UNL     1       0.710   5.892 -28.526  1.00  0.00     0.009 A 
HETATM   14  C   UNL     1       0.668   7.162 -27.943  1.00  0.00    -0.062 A 
HETATM   15  C   UNL     1       1.480   7.482 -26.722  1.00  0.00     0.048 C 
HETATM   16  C   UNL     1      -0.137   8.147 -28.525  1.00  0.00     0.009 A 
HETATM   17  C   UNL     1      -0.901   7.866 -29.663  1.00  0.00     0.037 A 
ENDBRANCH  10  11
ENDBRANCH   9  10
ENDBRANCH   6   9
ENDBRANCH   2   5
BRANCH   1  18
HETATM   18  C   UNL     1      -5.842   1.040 -33.193  1.00  0.00     0.077 A 
HETATM   19  C   UNL     1      -6.551   0.866 -34.401  1.00  0.00     0.158 A 
HETATM   20  N   UNL     1      -6.528  -0.388 -34.842  1.00  0.00    -0.183 NA
HETATM   21  N   UNL     1      -5.812  -1.047 -33.908  1.00  0.00    -0.268 N 
HETATM   22  C   UNL     1      -5.353  -0.224 -32.897  1.00  0.00     0.052 A 
BRANCH  21  23
HETATM   23  C   UNL     1      -5.624  -2.493 -34.035  1.00  0.00     0.106 C 
HETATM   24  C   UNL     1      -4.328  -2.880 -34.762  1.00  0.00     0.034 C 
BRANCH  23  25
HETATM   25  C   UNL     1      -6.862  -3.181 -34.641  1.00  0.00     0.022 C 
HETATM   26  C   UNL     1      -6.584  -4.493 -35.363  1.00  0.00     0.007 C 
ENDBRANCH  23  25
ENDBRANCH  21  23
BRANCH  22  27
HETATM   27  C   UNL     1      -4.472  -0.689 -31.736  1.00  0.00     0.038 A 
HETATM   28  C   UNL     1      -2.986  -0.882 -31.950  1.00  0.00     0.011 A 
HETATM   29  C   UNL     1      -3.470   0.246 -31.103  1.00  0.00     0.011 A 
ENDBRANCH  22  27
ENDBRANCH   1  18
TORSDOF 8
ENDMDL
MODEL 3
REMARK VINA RESULT:      -7.5      2.413      9.995
REMARK  8 active torsions:
REMARK  status: ('A' for Active; 'I' for Inactive)
REMARK    1  A    between atoms: C_2  and  C_3 
REMARK    2  A    between atoms: C_3  and  N_4 
REMARK    3  A    between atoms: C_7  and  C_8 
REMARK       I    between atoms: C_8  and  N_9 
REMARK    4  A    between atoms: N_9  and  N_10 
REMARK       I    between atoms: N_10  and  C_11 
REMARK    5  A    between atoms: C_11  and  C_12 
REMARK    6  A    between atoms: C_12  and  O_13 
REMARK    7  A    between atoms: O_13  and  C_14 
REMARK    8  A    between atoms: C_23  and  C_24 
ROOT
HETATM    1  C   UNL     1      -3.794   3.572 -32.006  1.00  0.00     0.273 C 
HETATM    2  N   UNL     1      -4.093   4.522 -31.048  1.00  0.00    -0.263 N 
HETATM    3  O   UNL     1      -2.649   3.194 -32.239  1.00  0.00    -0.266 OA
HETATM    4  H   UNL     1      -4.996   4.996 -31.067  1.00  0.00     0.190 HD
ENDROOT
BRANCH   2   5
HETATM    5  N   UNL     1      -3.034   5.235 -30.464  1.00  0.00    -0.265 N 
HETATM    6  C   UNL     1      -2.781   6.507 -30.935  1.00  0.00     0.260 C 
HETATM    7  O   UNL     1      -3.541   7.093 -31.706  1.00  0.00    -0.269 OA
HETATM    8  H   UNL     1      -2.262   4.685 -30.083  1.00  0.00     0.190 HD
BRANCH   6   9
HETATM    9  C   UNL     1      -1.498   7.144 -30.407  1.00  0.00     0.280 C 
BRANCH   9  10
HETATM   10  O   UNL     1      -0.757   6.237 -29.596  1.00  0.00    -0.342 OA
BRANCH  10  11
HETATM   11  C   UNL     1      -0.056   6.783 -28.555  1.00  0.00     0.069 A 
HETATM   12  C   UNL     1       0.755   7.866 -28.896  1.00  0.00     0.037 A 
HETATM   13  C   UNL     1       1.535   8.507 -27.930  1.00  0.00     0.009 A 
HETATM   14  C   UNL     1       1.509   8.072 -26.601  1.00  0.00    -0.062 A 
HETATM   15  C   UNL     1       2.340   8.746 -25.549  1.00  0.00     0.048 C 
HETATM   16  C   UNL     1       0.681   6.998 -26.257  1.00  0.00     0.009 A 
HETATM   17  C   UNL     1      -0.099   6.358 -27.227  1.00  0.00     0.037 A 
ENDBRANCH  10  11
ENDBRANCH   9  10
ENDBRANCH   6   9
ENDBRANCH   2   5
BRANCH   1  18
HETATM   18  C   UNL     1      -4.967   3.050 -32.667  1.00  0.00     0.077 A 
HETATM   19  C   UNL     1      -5.951   3.835 -33.308  1.00  0.00     0.158 A 
HETATM   20  N   UNL     1      -6.926   3.108 -33.846  1.00  0.00    -0.183 NA
HETATM   21  N   UNL     1      -6.590   1.837 -33.543  1.00  0.00    -0.268 N 
HETATM   22  C   UNL     1      -5.398   1.744 -32.847  1.00  0.00     0.052 A 
BRANCH  21  23
HETATM   23  C   UNL     1      -7.481   0.745 -33.934  1.00  0.00     0.106 C 
HETATM   24  C   UNL     1      -7.287   0.287 -35.387  1.00  0.00     0.034 C 
BRANCH  23  25
HETATM   25  C   UNL     1      -8.954   1.066 -33.614  1.00  0.00     0.022 C 
HETATM   26  C   UNL     1      -9.648   0.067 -32.696  1.00  0.00     0.007 C 
ENDBRANCH  23  25
ENDBRANCH  21  23
BRANCH  22  27
HETATM   27  C   UNL     1      -4.748   0.427 -32.421  1.00  0.00     0.038 A 
HETATM   28  C   UNL     1      -4.451   0.173 -30.960  1.00  0.00     0.011 A 
HETATM   29  C   UNL     1      -5.529  -0.602 -31.639  1.00  0.00     0.011 A 
ENDBRANCH  22  27
ENDBRANCH   1  18
TORSDOF 8
ENDMDL
MODEL 4
REMARK VINA RESULT:      -7.5      1.517      2.484
REMARK  8 active torsions:
REMARK  status: ('A' for Active; 'I' for Inactive)
REMARK    1  A    between atoms: C_2  and  C_3 
REMARK    2  A    between atoms: C_3  and  N_4 
REMARK    3  A    between atoms: C_7  and  C_8 
REMARK       I    between atoms: C_8  and  N_9 
REMARK    4  A    between atoms: N_9  and  N_10 
REMARK       I    between atoms: N_10  and  C_11 
REMARK    5  A    between atoms: C_11  and  C_12 
REMARK    6  A    between atoms: C_12  and  O_13 
REMARK    7  A    between atoms: O_13  and  C_14 
REMARK    8  A    between atoms: C_23  and  C_24 
ROOT
HETATM    1  C   UNL     1      -3.338   6.131 -30.860  1.00  0.00     0.273 C 
HETATM    2  N   UNL     1      -3.899   4.957 -30.393  1.00  0.00    -0.263 N 
HETATM    3  O   UNL     1      -3.575   6.589 -31.974  1.00  0.00    -0.266 OA
HETATM    4  H   UNL     1      -3.484   4.479 -29.593  1.00  0.00     0.190 HD
ENDROOT
BRANCH   2   5
HETATM    5  N   UNL     1      -4.600   4.147 -31.300  1.00  0.00    -0.265 N 
HETATM    6  C   UNL     1      -3.985   2.989 -31.733  1.00  0.00     0.260 C 
HETATM    7  O   UNL     1      -2.946   2.561 -31.230  1.00  0.00    -0.269 OA
HETATM    8  H   UNL     1      -5.265   4.615 -31.918  1.00  0.00     0.190 HD
BRANCH   6   9
HETATM    9  C   UNL     1      -4.706   2.265 -32.867  1.00  0.00     0.280 C 
BRANCH   9  10
HETATM   10  O   UNL     1      -5.627   1.299 -32.371  1.00  0.00    -0.342 OA
BRANCH  10  11
HETATM   11  C   UNL     1      -5.652   0.092 -33.017  1.00  0.00     0.069 A 
HETATM   12  C   UNL     1      -6.910  -0.303 -33.476  1.00  0.00     0.037 A 
HETATM   13  C   UNL     1      -7.077  -1.520 -34.140  1.00  0.00     0.009 A 
HETATM   14  C   UNL     1      -5.982  -2.361 -34.359  1.00  0.00    -0.062 A 
HETATM   15  C   UNL     1      -6.141  -3.673 -35.069  1.00  0.00     0.048 C 
HETATM   16  C   UNL     1      -4.719  -1.955 -33.915  1.00  0.00     0.009 A 
HETATM   17  C   UNL     1      -4.553  -0.735 -33.250  1.00  0.00     0.037 A 
ENDBRANCH  10  11
ENDBRANCH   9  10
ENDBRANCH   6   9
ENDBRANCH   2   5
BRANCH   1  18
HETATM   18  C   UNL     1      -2.485   6.773 -29.887  1.00  0.00     0.077 A 
HETATM   19  C   UNL     1      -2.931   7.362 -28.684  1.00  0.00     0.158 A 
HETATM   20  N   UNL     1      -1.942   7.878 -27.960  1.00  0.00    -0.183 NA
HETATM   21  N   UNL     1      -0.840   7.643 -28.701  1.00  0.00    -0.268 N 
HETATM   22  C   UNL     1      -1.110   6.954 -29.870  1.00  0.00     0.052 A 
BRANCH  21  23
HETATM   23  C   UNL     1       0.458   8.132 -28.234  1.00  0.00     0.106 C 
HETATM   24  C   UNL     1       1.239   7.102 -27.406  1.00  0.00     0.034 C 
BRANCH  23  25
HETATM   25  C   UNL     1       0.333   9.489 -27.514  1.00  0.00     0.022 C 
HETATM   26  C   UNL     1       1.246   9.666 -26.308  1.00  0.00     0.007 C 
ENDBRANCH  23  25
ENDBRANCH  21  23
BRANCH  22  27
HETATM   27  C   UNL     1      -0.046   6.505 -30.872  1.00  0.00     0.038 A 
HETATM   28  C   UNL     1       0.726   5.227 -30.628  1.00  0.00     0.011 A 
HETATM   29  C   UNL     1      -0.267   5.288 -31.738  1.00  0.00     0.011 A 
ENDBRANCH  22  27
ENDBRANCH   1  18
TORSDOF 8
ENDMDL
MODEL 5
REMARK VINA RESULT:      -7.4      1.924      9.862
REMARK  8 active torsions:
REMARK  status: ('A' for Active; 'I' for Inactive)
REMARK    1  A    between atoms: C_2  and  C_3 
REMARK    2  A    between atoms: C_3  and  N_4 
REMARK    3  A    between atoms: C_7  and  C_8 
REMARK       I    between atoms: C_8  and  N_9 
REMARK    4  A    between atoms: N_9  and  N_10 
REMARK       I    between atoms: N_10  and  C_11 
REMARK    5  A    between atoms: C_11  and  C_12 
REMARK    6  A    between atoms: C_12  and  O_13 
REMARK    7  A    between atoms: O_13  and  C_14 
REMARK    8  A    between atoms: C_23  and  C_24 
ROOT
HETATM    1  C   UNL     1      -4.226   1.871 -31.279  1.00  0.00     0.273 C 
HETATM    2  N   UNL     1      -3.171   2.596 -31.800  1.00  0.00    -0.263 N 
HETATM    3  O   UNL     1      -4.929   2.279 -30.358  1.00  0.00    -0.266 OA
HETATM    4  H   UNL     1      -2.463   2.127 -32.364  1.00  0.00     0.190 HD
ENDROOT
BRANCH   2   5
HETATM    5  N   UNL     1      -2.752   3.748 -31.116  1.00  0.00    -0.265 N 
HETATM    6  C   UNL     1      -2.913   4.964 -31.749  1.00  0.00     0.260 C 
HETATM    7  O   UNL     1      -3.557   5.090 -32.791  1.00  0.00    -0.269 OA
HETATM    8  H   UNL     1      -1.989   3.635 -30.447  1.00  0.00     0.190 HD
BRANCH   6   9
HETATM    9  C   UNL     1      -2.255   6.146 -31.044  1.00  0.00     0.280 C 
BRANCH   9  10
HETATM   10  O   UNL     1      -0.837   6.013 -31.007  1.00  0.00    -0.342 OA
BRANCH  10  11
HETATM   11  C   UNL     1      -0.206   6.511 -29.899  1.00  0.00     0.069 A 
HETATM   12  C   UNL     1       0.171   5.553 -28.957  1.00  0.00     0.037 A 
HETATM   13  C   UNL     1       0.812   5.929 -27.774  1.00  0.00     0.009 A 
HETATM   14  C   UNL     1       1.089   7.276 -27.518  1.00  0.00    -0.062 A 
HETATM   15  C   UNL     1       1.774   7.700 -26.254  1.00  0.00     0.048 C 
HETATM   16  C   UNL     1       0.726   8.233 -28.473  1.00  0.00     0.009 A 
HETATM   17  C   UNL     1       0.085   7.854 -29.658  1.00  0.00     0.037 A 
ENDBRANCH  10  11
ENDBRANCH   9  10
ENDBRANCH   6   9
ENDBRANCH   2   5
BRANCH   1  18
HETATM   18  C   UNL     1      -4.435   0.613 -31.958  1.00  0.00     0.077 A 
HETATM   19  C   UNL     1      -3.831  -0.611 -31.596  1.00  0.00     0.158 A 
HETATM   20  N   UNL     1      -4.197  -1.622 -32.379  1.00  0.00    -0.183 NA
HETATM   21  N   UNL     1      -5.034  -1.055 -33.272  1.00  0.00    -0.268 N 
HETATM   22  C   UNL     1      -5.231   0.295 -33.048  1.00  0.00     0.052 A 
BRANCH  21  23
HETATM   23  C   UNL     1      -5.600  -1.873 -34.345  1.00  0.00     0.106 C 
HETATM   24  C   UNL     1      -7.102  -2.145 -34.180  1.00  0.00     0.034 C 
BRANCH  23  25
HETATM   25  C   UNL     1      -4.793  -3.167 -34.565  1.00  0.00     0.022 C 
HETATM   26  C   UNL     1      -5.625  -4.397 -34.907  1.00  0.00     0.007 C 
ENDBRANCH  23  25
ENDBRANCH  21  23
BRANCH  22  27
HETATM   27  C   UNL     1      -6.171   1.178 -33.870  1.00  0.00     0.038 A 
HETATM   28  C   UNL     1      -7.446   1.704 -33.248  1.00  0.00     0.011 A 
HETATM   29  C   UNL     1      -6.329   2.645 -33.550  1.00  0.00     0.011 A 
ENDBRANCH  22  27
ENDBRANCH   1  18
TORSDOF 8
ENDMDL
MODEL 6
REMARK VINA RESULT:      -7.2      5.670      8.903
REMARK  8 active torsions:
REMARK  status: ('A' for Active; 'I' for Inactive)
REMARK    1  A    between atoms: C_2  and  C_3 
REMARK    2  A    between atoms: C_3  and  N_4 
REMARK    3  A    between atoms: C_7  and  C_8 
REMARK       I    between atoms: C_8  and  N_9 
REMARK    4  A    between atoms: N_9  and  N_10 
REMARK       I    between atoms: N_10  and  C_11 
REMARK    5  A    between atoms: C_11  and  C_12 
REMARK    6  A    between atoms: C_12  and  O_13 
REMARK    7  A    between atoms: O_13  and  C_14 
REMARK    8  A    between atoms: C_23  and  C_24 
ROOT
HETATM    1  C   UNL     1      -8.793   2.091 -31.591  1.00  0.00     0.273 C 
HETATM    2  N   UNL     1      -7.624   2.819 -31.709  1.00  0.00    -0.263 N 
HETATM    3  O   UNL     1      -8.812   0.897 -31.305  1.00  0.00    -0.266 OA
HETATM    4  H   UNL     1      -7.630   3.714 -32.197  1.00  0.00     0.190 HD
ENDROOT
BRANCH   2   5
HETATM    5  N   UNL     1      -6.404   2.123 -31.710  1.00  0.00    -0.265 N 
HETATM    6  C   UNL     1      -5.722   2.027 -32.906  1.00  0.00     0.260 C 
HETATM    7  O   UNL     1      -6.047   2.663 -33.909  1.00  0.00    -0.269 OA
HETATM    8  H   UNL     1      -6.296   1.381 -31.016  1.00  0.00     0.190 HD
BRANCH   6   9
HETATM    9  C   UNL     1      -4.517   1.091 -32.883  1.00  0.00     0.280 C 
BRANCH   9  10
HETATM   10  O   UNL     1      -4.822  -0.142 -32.239  1.00  0.00    -0.342 OA
BRANCH  10  11
HETATM   11  C   UNL     1      -5.275  -1.155 -33.042  1.00  0.00     0.069 A 
HETATM   12  C   UNL     1      -4.306  -2.089 -33.413  1.00  0.00     0.037 A 
HETATM   13  C   UNL     1      -4.633  -3.165 -34.242  1.00  0.00     0.009 A 
HETATM   14  C   UNL     1      -5.941  -3.323 -34.709  1.00  0.00    -0.062 A 
HETATM   15  C   UNL     1      -6.312  -4.471 -35.601  1.00  0.00     0.048 C 
HETATM   16  C   UNL     1      -6.915  -2.396 -34.320  1.00  0.00     0.009 A 
HETATM   17  C   UNL     1      -6.585  -1.319 -33.490  1.00  0.00     0.037 A 
ENDBRANCH  10  11
ENDBRANCH   9  10
ENDBRANCH   6   9
ENDBRANCH   2   5
BRANCH   1  18
HETATM   18  C   UNL     1      -9.978   2.891 -31.798  1.00  0.00     0.077 A 
HETATM   19  C   UNL     1     -10.316   4.043 -31.055  1.00  0.00     0.158 A 
HETATM   20  N   UNL     1     -11.456   4.601 -31.451  1.00  0.00    -0.183 NA
HETATM   21  N   UNL     1     -11.879   3.801 -32.452  1.00  0.00    -0.268 N 
HETATM   22  C   UNL     1     -11.007   2.761 -32.719  1.00  0.00     0.052 A 
BRANCH  21  23
HETATM   23  C   UNL     1     -13.158   4.082 -33.104  1.00  0.00     0.106 C 
HETATM   24  C   UNL     1     -13.147   5.362 -33.950  1.00  0.00     0.034 C 
BRANCH  23  25
HETATM   25  C   UNL     1     -14.330   4.053 -32.102  1.00  0.00     0.022 C 
HETATM   26  C   UNL     1     -15.012   2.700 -31.944  1.00  0.00     0.007 C 
ENDBRANCH  23  25
ENDBRANCH  21  23
BRANCH  22  27
HETATM   27  C   UNL     1     -11.205   1.734 -33.834  1.00  0.00     0.038 A 
HETATM   28  C   UNL     1     -11.461   0.284 -33.485  1.00  0.00     0.011 A 
HETATM   29  C   UNL     1     -12.556   1.105 -34.075  1.00  0.00     0.011 A 
ENDBRANCH  22  27
ENDBRANCH   1  18
TORSDOF 8
ENDMDL
MODEL 7
REMARK VINA RESULT:      -7.2      2.214      3.626
REMARK  8 active torsions:
REMARK  status: ('A' for Active; 'I' for Inactive)
REMARK    1  A    between atoms: C_2  and  C_3 
REMARK    2  A    between atoms: C_3  and  N_4 
REMARK    3  A    between atoms: C_7  and  C_8 
REMARK       I    between atoms: C_8  and  N_9 
REMARK    4  A    between atoms: N_9  and  N_10 
REMARK       I    between atoms: N_10  and  C_11 
REMARK    5  A    between atoms: C_11  and  C_12 
REMARK    6  A    between atoms: C_12  and  O_13 
REMARK    7  A    between atoms: O_13  and  C_14 
REMARK    8  A    between atoms: C_23  and  C_24 
ROOT
HETATM    1  C   UNL     1      -4.845   2.937 -32.406  1.00  0.00     0.273 C 
HETATM    2  N   UNL     1      -6.113   3.040 -32.943  1.00  0.00    -0.263 N 
HETATM    3  O   UNL     1      -4.130   1.950 -32.559  1.00  0.00    -0.266 OA
HETATM    4  H   UNL     1      -6.763   3.737 -32.582  1.00  0.00     0.190 HD
ENDROOT
BRANCH   2   5
HETATM    5  N   UNL     1      -6.692   1.891 -33.507  1.00  0.00    -0.265 N 
HETATM    6  C   UNL     1      -7.527   1.135 -32.709  1.00  0.00     0.260 C 
HETATM    7  O   UNL     1      -7.914   1.517 -31.604  1.00  0.00    -0.269 OA
HETATM    8  H   UNL     1      -6.168   1.430 -34.253  1.00  0.00     0.190 HD
BRANCH   6   9
HETATM    9  C   UNL     1      -7.955  -0.200 -33.312  1.00  0.00     0.280 C 
BRANCH   9  10
HETATM   10  O   UNL     1      -7.191  -0.523 -34.469  1.00  0.00    -0.342 OA
BRANCH  10  11
HETATM   11  C   UNL     1      -6.371  -1.615 -34.373  1.00  0.00     0.069 A 
HETATM   12  C   UNL     1      -5.120  -1.363 -33.807  1.00  0.00     0.037 A 
HETATM   13  C   UNL     1      -4.182  -2.388 -33.664  1.00  0.00     0.009 A 
HETATM   14  C   UNL     1      -4.486  -3.687 -34.083  1.00  0.00    -0.062 A 
HETATM   15  C   UNL     1      -3.492  -4.800 -33.938  1.00  0.00     0.048 C 
HETATM   16  C   UNL     1      -5.747  -3.941 -34.633  1.00  0.00     0.009 A 
HETATM   17  C   UNL     1      -6.686  -2.913 -34.776  1.00  0.00     0.037 A 
ENDBRANCH  10  11
ENDBRANCH   9  10
ENDBRANCH   6   9
ENDBRANCH   2   5
BRANCH   1  18
HETATM   18  C   UNL     1      -4.440   4.124 -31.688  1.00  0.00     0.077 A 
HETATM   19  C   UNL     1      -5.189   4.744 -30.664  1.00  0.00     0.158 A 
HETATM   20  N   UNL     1      -4.589   5.818 -30.159  1.00  0.00    -0.183 NA
HETATM   21  N   UNL     1      -3.445   5.914 -30.867  1.00  0.00    -0.268 N 
HETATM   22  C   UNL     1      -3.294   4.898 -31.793  1.00  0.00     0.052 A 
BRANCH  21  23
HETATM   23  C   UNL     1      -2.539   7.036 -30.619  1.00  0.00     0.106 C 
HETATM   24  C   UNL     1      -1.837   6.965 -29.256  1.00  0.00     0.034 C 
BRANCH  23  25
HETATM   25  C   UNL     1      -3.231   8.393 -30.851  1.00  0.00     0.022 C 
HETATM   26  C   UNL     1      -2.308   9.605 -30.800  1.00  0.00     0.007 C 
ENDBRANCH  23  25
ENDBRANCH  21  23
BRANCH  22  27
HETATM   27  C   UNL     1      -2.071   4.726 -32.694  1.00  0.00     0.038 A 
HETATM   28  C   UNL     1      -2.234   4.758 -34.198  1.00  0.00     0.011 A 
HETATM   29  C   UNL     1      -1.541   5.883 -33.507  1.00  0.00     0.011 A 
ENDBRANCH  22  27
ENDBRANCH   1  18
TORSDOF 8
ENDMDL
MODEL 8
REMARK VINA RESULT:      -7.2      1.739      2.612
REMARK  8 active torsions:
REMARK  status: ('A' for Active; 'I' for Inactive)
REMARK    1  A    between atoms: C_2  and  C_3 
REMARK    2  A    between atoms: C_3  and  N_4 
REMARK    3  A    between atoms: C_7  and  C_8 
REMARK       I    between atoms: C_8  and  N_9 
REMARK    4  A    between atoms: N_9  and  N_10 
REMARK       I    between atoms: N_10  and  C_11 
REMARK    5  A    between atoms: C_11  and  C_12 
REMARK    6  A    between atoms: C_12  and  O_13 
REMARK    7  A    between atoms: O_13  and  C_14 
REMARK    8  A    between atoms: C_23  and  C_24 
ROOT
HETATM    1  C   UNL     1      -4.298   4.725 -31.121  1.00  0.00     0.273 C 
HETATM    2  N   UNL     1      -4.381   3.560 -30.383  1.00  0.00    -0.263 N 
HETATM    3  O   UNL     1      -4.657   4.803 -32.293  1.00  0.00    -0.266 OA
HETATM    4  H   UNL     1      -3.840   3.463 -29.524  1.00  0.00     0.190 HD
ENDROOT
BRANCH   2   5
HETATM    5  N   UNL     1      -4.690   2.367 -31.055  1.00  0.00    -0.265 N 
HETATM    6  C   UNL     1      -5.841   1.701 -30.684  1.00  0.00     0.260 C 
HETATM    7  O   UNL     1      -6.678   2.194 -29.928  1.00  0.00    -0.269 OA
HETATM    8  H   UNL     1      -3.904   1.829 -31.425  1.00  0.00     0.190 HD
BRANCH   6   9
HETATM    9  C   UNL     1      -6.010   0.317 -31.304  1.00  0.00     0.280 C 
BRANCH   9  10
HETATM   10  O   UNL     1      -5.638   0.308 -32.678  1.00  0.00    -0.342 OA
BRANCH  10  11
HETATM   11  C   UNL     1      -5.842  -0.863 -33.358  1.00  0.00     0.069 A 
HETATM   12  C   UNL     1      -4.693  -1.623 -33.578  1.00  0.00     0.037 A 
HETATM   13  C   UNL     1      -4.760  -2.834 -34.272  1.00  0.00     0.009 A 
HETATM   14  C   UNL     1      -5.985  -3.304 -34.754  1.00  0.00    -0.062 A 
HETATM   15  C   UNL     1      -6.078  -4.601 -35.502  1.00  0.00     0.048 C 
HETATM   16  C   UNL     1      -7.139  -2.549 -34.516  1.00  0.00     0.009 A 
HETATM   17  C   UNL     1      -7.070  -1.337 -33.820  1.00  0.00     0.037 A 
ENDBRANCH  10  11
ENDBRANCH   9  10
ENDBRANCH   6   9
ENDBRANCH   2   5
BRANCH   1  18
HETATM   18  C   UNL     1      -3.786   5.840 -30.358  1.00  0.00     0.077 A 
HETATM   19  C   UNL     1      -4.539   6.605 -29.441  1.00  0.00     0.158 A 
HETATM   20  N   UNL     1      -3.828   7.570 -28.864  1.00  0.00    -0.183 NA
HETATM   21  N   UNL     1      -2.604   7.449 -29.417  1.00  0.00    -0.268 N 
HETATM   22  C   UNL     1      -2.518   6.400 -30.314  1.00  0.00     0.052 A 
BRANCH  21  23
HETATM   23  C   UNL     1      -1.554   8.400 -29.055  1.00  0.00     0.106 C 
HETATM   24  C   UNL     1      -0.965   8.160 -27.657  1.00  0.00     0.034 C 
BRANCH  23  25
HETATM   25  C   UNL     1      -2.009   9.859 -29.254  1.00  0.00     0.022 C 
HETATM   26  C   UNL     1      -2.428  10.216 -30.675  1.00  0.00     0.007 C 
ENDBRANCH  23  25
ENDBRANCH  21  23
BRANCH  22  27
HETATM   27  C   UNL     1      -1.239   5.995 -31.049  1.00  0.00     0.038 A 
HETATM   28  C   UNL     1      -1.189   6.050 -32.560  1.00  0.00     0.011 A 
HETATM   29  C   UNL     1      -0.397   7.027 -31.760  1.00  0.00     0.011 A 
ENDBRANCH  22  27
ENDBRANCH   1  18
TORSDOF 8
ENDMDL
MODEL 9
REMARK VINA RESULT:      -7.2      2.815      4.394
REMARK  8 active torsions:
REMARK  status: ('A' for Active; 'I' for Inactive)
REMARK    1  A    between atoms: C_2  and  C_3 
REMARK    2  A    between atoms: C_3  and  N_4 
REMARK    3  A    between atoms: C_7  and  C_8 
REMARK       I    between atoms: C_8  and  N_9 
REMARK    4  A    between atoms: N_9  and  N_10 
REMARK       I    between atoms: N_10  and  C_11 
REMARK    5  A    between atoms: C_11  and  C_12 
REMARK    6  A    between atoms: C_12  and  O_13 
REMARK    7  A    between atoms: O_13  and  C_14 
REMARK    8  A    between atoms: C_23  and  C_24 
ROOT
HETATM    1  C   UNL     1      -5.627   4.836 -33.814  1.00  0.00     0.273 C 
HETATM    2  N   UNL     1      -6.900   4.788 -33.279  1.00  0.00    -0.263 N 
HETATM    3  O   UNL     1      -5.363   4.453 -34.950  1.00  0.00    -0.266 OA
HETATM    4  H   UNL     1      -7.031   4.859 -32.270  1.00  0.00     0.190 HD
ENDROOT
BRANCH   2   5
HETATM    5  N   UNL     1      -7.891   4.082 -33.980  1.00  0.00    -0.265 N 
HETATM    6  C   UNL     1      -8.818   3.373 -33.242  1.00  0.00     0.260 C 
HETATM    7  O   UNL     1      -8.913   3.479 -32.019  1.00  0.00    -0.269 OA
HETATM    8  H   UNL     1      -7.648   3.753 -34.917  1.00  0.00     0.190 HD
BRANCH   6   9
HETATM    9  C   UNL     1      -9.734   2.469 -34.061  1.00  0.00     0.280 C 
BRANCH   9  10
HETATM   10  O   UNL     1      -9.728   1.132 -33.570  1.00  0.00    -0.342 OA
BRANCH  10  11
HETATM   11  C   UNL     1      -8.521   0.486 -33.573  1.00  0.00     0.069 A 
HETATM   12  C   UNL     1      -8.039   0.145 -34.838  1.00  0.00     0.037 A 
HETATM   13  C   UNL     1      -6.824  -0.530 -34.980  1.00  0.00     0.009 A 
HETATM   14  C   UNL     1      -6.070  -0.871 -33.854  1.00  0.00    -0.062 A 
HETATM   15  C   UNL     1      -4.764  -1.596 -33.986  1.00  0.00     0.048 C 
HETATM   16  C   UNL     1      -6.545  -0.511 -32.588  1.00  0.00     0.009 A 
HETATM   17  C   UNL     1      -7.762   0.165 -32.447  1.00  0.00     0.037 A 
ENDBRANCH  10  11
ENDBRANCH   9  10
ENDBRANCH   6   9
ENDBRANCH   2   5
BRANCH   1  18
HETATM   18  C   UNL     1      -4.660   5.419 -32.913  1.00  0.00     0.077 A 
HETATM   19  C   UNL     1      -4.692   6.750 -32.443  1.00  0.00     0.158 A 
HETATM   20  N   UNL     1      -3.689   7.033 -31.616  1.00  0.00    -0.183 NA
HETATM   21  N   UNL     1      -2.984   5.885 -31.556  1.00  0.00    -0.268 N 
HETATM   22  C   UNL     1      -3.542   4.866 -32.305  1.00  0.00     0.052 A 
BRANCH  21  23
HETATM   23  C   UNL     1      -1.752   5.840 -30.766  1.00  0.00     0.106 C 
HETATM   24  C   UNL     1      -1.754   6.805 -29.573  1.00  0.00     0.034 C 
BRANCH  23  25
HETATM   25  C   UNL     1      -0.500   6.004 -31.650  1.00  0.00     0.022 C 
HETATM   26  C   UNL     1       0.628   6.816 -31.026  1.00  0.00     0.007 C 
ENDBRANCH  23  25
ENDBRANCH  21  23
BRANCH  22  27
HETATM   27  C   UNL     1      -2.986   3.443 -32.378  1.00  0.00     0.038 A 
HETATM   28  C   UNL     1      -3.294   2.458 -31.272  1.00  0.00     0.011 A 
HETATM   29  C   UNL     1      -3.903   2.268 -32.619  1.00  0.00     0.011 A 
ENDBRANCH  22  27
ENDBRANCH   1  18
TORSDOF 8
ENDMDL
MODEL 10
REMARK VINA RESULT:      -7.1      2.216      9.799
REMARK  8 active torsions:
REMARK  status: ('A' for Active; 'I' for Inactive)
REMARK    1  A    between atoms: C_2  and  C_3 
REMARK    2  A    between atoms: C_3  and  N_4 
REMARK    3  A    between atoms: C_7  and  C_8 
REMARK       I    between atoms: C_8  and  N_9 
REMARK    4  A    between atoms: N_9  and  N_10 
REMARK       I    between atoms: N_10  and  C_11 
REMARK    5  A    between atoms: C_11  and  C_12 
REMARK    6  A    between atoms: C_12  and  O_13 
REMARK    7  A    between atoms: O_13  and  C_14 
REMARK    8  A    between atoms: C_23  and  C_24 
ROOT
HETATM    1  C   UNL     1      -2.972   3.585 -32.330  1.00  0.00     0.273 C 
HETATM    2  N   UNL     1      -2.595   3.975 -31.059  1.00  0.00    -0.263 N 
HETATM    3  O   UNL     1      -2.424   3.998 -33.348  1.00  0.00    -0.266 OA
HETATM    4  H   UNL     1      -3.228   3.827 -30.273  1.00  0.00     0.190 HD
ENDROOT
BRANCH   2   5
HETATM    5  N   UNL     1      -1.692   5.042 -30.931  1.00  0.00    -0.265 N 
HETATM    6  C   UNL     1      -2.204   6.280 -30.595  1.00  0.00     0.260 C 
HETATM    7  O   UNL     1      -3.371   6.440 -30.238  1.00  0.00    -0.269 OA
HETATM    8  H   UNL     1      -0.839   4.995 -31.492  1.00  0.00     0.190 HD
BRANCH   6   9
HETATM    9  C   UNL     1      -1.205   7.430 -30.673  1.00  0.00     0.280 C 
BRANCH   9  10
HETATM   10  O   UNL     1      -1.515   8.460 -29.740  1.00  0.00    -0.342 OA
BRANCH  10  11
HETATM   11  C   UNL     1      -0.691   8.566 -28.652  1.00  0.00     0.069 A 
HETATM   12  C   UNL     1       0.532   7.905 -28.775  1.00  0.00     0.037 A 
HETATM   13  C   UNL     1       1.461   7.923 -27.730  1.00  0.00     0.009 A 
HETATM   14  C   UNL     1       1.177   8.608 -26.545  1.00  0.00    -0.062 A 
HETATM   15  C   UNL     1       2.160   8.637 -25.413  1.00  0.00     0.048 C 
HETATM   16  C   UNL     1      -0.042   9.286 -26.432  1.00  0.00     0.009 A 
HETATM   17  C   UNL     1      -0.971   9.267 -27.479  1.00  0.00     0.037 A 
ENDBRANCH  10  11
ENDBRANCH   9  10
ENDBRANCH   6   9
ENDBRANCH   2   5
BRANCH   1  18
HETATM   18  C   UNL     1      -4.045   2.617 -32.326  1.00  0.00     0.077 A 
HETATM   19  C   UNL     1      -4.068   1.439 -31.548  1.00  0.00     0.158 A 
HETATM   20  N   UNL     1      -5.175   0.723 -31.723  1.00  0.00    -0.183 NA
HETATM   21  N   UNL     1      -5.876   1.426 -32.635  1.00  0.00    -0.268 N 
HETATM   22  C   UNL     1      -5.247   2.596 -33.018  1.00  0.00     0.052 A 
BRANCH  21  23
HETATM   23  C   UNL     1      -7.152   0.900 -33.122  1.00  0.00     0.106 C 
HETATM   24  C   UNL     1      -8.333   1.196 -32.187  1.00  0.00     0.034 C 
BRANCH  23  25
HETATM   25  C   UNL     1      -7.054  -0.595 -33.485  1.00  0.00     0.022 C 
HETATM   26  C   UNL     1      -6.710  -0.884 -34.941  1.00  0.00     0.007 C 
ENDBRANCH  23  25
ENDBRANCH  21  23
BRANCH  22  27
HETATM   27  C   UNL     1      -5.836   3.614 -33.996  1.00  0.00     0.038 A 
HETATM   28  C   UNL     1      -7.015   4.465 -33.577  1.00  0.00     0.011 A 
HETATM   29  C   UNL     1      -5.676   5.096 -33.757  1.00  0.00     0.011 A 
ENDBRANCH  22  27
ENDBRANCH   1  18
TORSDOF 8
ENDMDL
