MODEL 1
REMARK VINA RESULT:      -9.6      0.000      0.000
REMARK  7 active torsions:
REMARK  status: ('A' for Active; 'I' for Inactive)
REMARK    1  A    between atoms: C_4  and  C_5 
REMARK    2  A    between atoms: C_5  and  C_6 
REMARK    3  A    between atoms: C_6  and  C_7 
REMARK    4  A    between atoms: C_7  and  N_8 
REMARK    5  A    between atoms: C_12  and  O_13 
REMARK    6  A    between atoms: C_12  and  C_14 
REMARK    7  A    between atoms: C_19  and  C_20 
REMARK       I    between atoms: C_20  and  N_21 
ROOT
HETATM    1  C   UNL     1      -6.893   3.267 -32.939  1.00  0.00    -0.023 A 
HETATM    2  C   UNL     1      -6.011   3.324 -31.834  1.00  0.00     0.024 A 
HETATM    3  C   UNL     1      -4.730   3.902 -31.967  1.00  0.00     0.001 A 
HETATM    4  C   UNL     1      -4.363   4.429 -33.193  1.00  0.00     0.086 A 
HETATM    5  O   UNL     1      -3.106   4.947 -33.133  1.00  0.00    -0.304 OA
HETATM    6  C   UNL     1      -2.640   4.753 -31.861  1.00  0.00     0.144 A 
HETATM    7  C   UNL     1      -3.626   4.132 -31.109  1.00  0.00     0.057 A 
HETATM    8  C   UNL     1      -5.194   4.436 -34.305  1.00  0.00     0.039 A 
HETATM    9  C   UNL     1      -6.466   3.859 -34.147  1.00  0.00     0.013 A 
ENDROOT
BRANCH   1  10
HETATM   10  C   UNL     1      -8.306   2.678 -32.799  1.00  0.00     0.088 C 
HETATM   11  C   UNL     1      -8.464   1.598 -31.711  1.00  0.00     0.071 C 
HETATM   12  C   UNL     1      -7.740   0.310 -32.067  1.00  0.00     0.238 C 
HETATM   13  N   UNL     1      -8.257  -0.234 -33.380  1.00  0.00    -0.071 N 
HETATM   14  H   UNL     1      -9.251  -0.476 -33.256  1.00  0.00     0.279 HD
HETATM   15  C   UNL     1      -8.180   0.792 -34.494  1.00  0.00     0.238 C 
HETATM   16  C   UNL     1      -8.896   2.066 -34.087  1.00  0.00     0.071 C 
BRANCH  13  17
HETATM   17  C   UNL     1      -7.538  -1.510 -33.814  1.00  0.00     0.235 C 
BRANCH  17  18
HETATM   18  C   UNL     1      -6.378  -1.207 -34.764  1.00  0.00     0.038 C 
BRANCH  18  19
HETATM   19  C   UNL     1      -5.387  -2.387 -34.849  1.00  0.00     0.040 C 
HETATM   20  C   UNL     1      -6.140  -3.713 -34.973  1.00  0.00     0.017 C 
BRANCH  19  21
HETATM   21  C   UNL     1      -4.466  -2.386 -33.671  1.00  0.00     0.057 A 
HETATM   22  O   UNL     1      -4.299  -1.176 -33.060  1.00  0.00    -0.319 OA
HETATM   23  C   UNL     1      -3.435  -1.364 -32.024  1.00  0.00     0.049 A 
HETATM   24  C   UNL     1      -3.072  -0.163 -31.246  1.00  0.00     0.076 C 
HETATM   25  C   UNL     1      -3.077  -2.691 -31.942  1.00  0.00     0.035 A 
HETATM   26  C   UNL     1      -3.743  -3.352 -33.003  1.00  0.00     0.035 A 
ENDBRANCH  19  21
ENDBRANCH  18  19
ENDBRANCH  17  18
ENDBRANCH  13  17
BRANCH  10  27
HETATM   27  O   UNL     1      -9.181   3.748 -32.430  1.00  0.00    -0.385 OA
HETATM   28  H   UNL     1      -8.888   4.579 -32.846  1.00  0.00     0.211 HD
ENDBRANCH  10  27
ENDBRANCH   1  10
BRANCH   6  29
HETATM   29  C   UNL     1      -1.334   5.231 -31.434  1.00  0.00     0.277 C 
HETATM   30  N   UNL     1      -1.048   6.605 -31.353  1.00  0.00    -0.345 N 
HETATM   31  C   UNL     1       0.308   6.985 -30.938  1.00  0.00     0.154 C 
HETATM   32  C   UNL     1      -1.998   7.700 -31.493  1.00  0.00     0.128 C 
HETATM   33  C   UNL     1       0.446   7.167 -29.423  1.00  0.00     0.254 C 
HETATM   34  N   UNL     1      -0.529   8.224 -28.890  1.00  0.00    -0.073 N 
HETATM   35  H   UNL     1      -0.456   9.057 -29.487  1.00  0.00     0.279 HD
HETATM   36  C   UNL     1      -0.102   8.676 -27.512  1.00  0.00     0.269 C 
HETATM   37  C   UNL     1      -1.966   7.747 -28.888  1.00  0.00     0.236 C 
HETATM   38  C   UNL     1      -2.701   8.062 -30.187  1.00  0.00     0.048 C 
HETATM   39  O   UNL     1      -0.447   4.429 -31.133  1.00  0.00    -0.265 OA
ENDBRANCH   6  29
TORSDOF 7
ENDMDL
MODEL 2
REMARK VINA RESULT:      -9.5      1.385      2.252
REMARK  7 active torsions:
REMARK  status: ('A' for Active; 'I' for Inactive)
REMARK    1  A    between atoms: C_4  and  C_5 
REMARK    2  A    between atoms: C_5  and  C_6 
REMARK    3  A    between atoms: C_6  and  C_7 
REMARK    4  A    between atoms: C_7  and  N_8 
REMARK    5  A    between atoms: C_12  and  O_13 
REMARK    6  A    between atoms: C_12  and  C_14 
REMARK    7  A    between atoms: C_19  and  C_20 
REMARK       I    between atoms: C_20  and  N_21 
ROOT
HETATM    1  C   UNL     1      -7.492   4.504 -32.549  1.00  0.00    -0.023 A 
HETATM    2  C   UNL     1      -6.622   4.637 -31.440  1.00  0.00     0.024 A 
HETATM    3  C   UNL     1      -5.237   4.831 -31.633  1.00  0.00     0.001 A 
HETATM    4  C   UNL     1      -4.751   4.908 -32.928  1.00  0.00     0.086 A 
HETATM    5  O   UNL     1      -3.404   5.103 -32.921  1.00  0.00    -0.304 OA
HETATM    6  C   UNL     1      -3.000   5.149 -31.614  1.00  0.00     0.144 A 
HETATM    7  C   UNL     1      -4.110   5.008 -30.794  1.00  0.00     0.057 A 
HETATM    8  C   UNL     1      -5.555   4.820 -34.056  1.00  0.00     0.039 A 
HETATM    9  C   UNL     1      -6.931   4.632 -33.838  1.00  0.00     0.013 A 
ENDROOT
BRANCH   1  10
HETATM   10  C   UNL     1      -9.007   4.333 -32.355  1.00  0.00     0.088 C 
HETATM   11  C   UNL     1      -9.424   3.496 -31.130  1.00  0.00     0.071 C 
HETATM   12  C   UNL     1      -9.072   2.026 -31.289  1.00  0.00     0.238 C 
HETATM   13  N   UNL     1      -9.737   1.459 -32.523  1.00  0.00    -0.071 N 
HETATM   14  H   UNL     1     -10.758   1.507 -32.386  1.00  0.00     0.279 HD
HETATM   15  C   UNL     1      -9.414   2.264 -33.768  1.00  0.00     0.238 C 
HETATM   16  C   UNL     1      -9.761   3.725 -33.556  1.00  0.00     0.071 C 
BRANCH  13  17
HETATM   17  C   UNL     1      -9.389  -0.008 -32.762  1.00  0.00     0.235 C 
BRANCH  17  18
HETATM   18  C   UNL     1      -8.250  -0.160 -33.772  1.00  0.00     0.038 C 
BRANCH  18  19
HETATM   19  C   UNL     1      -6.883  -0.314 -33.074  1.00  0.00     0.040 C 
HETATM   20  C   UNL     1      -6.098   0.998 -33.134  1.00  0.00     0.017 C 
BRANCH  19  21
HETATM   21  C   UNL     1      -6.111  -1.445 -33.673  1.00  0.00     0.057 A 
HETATM   22  O   UNL     1      -6.863  -2.414 -34.273  1.00  0.00    -0.319 OA
HETATM   23  C   UNL     1      -6.002  -3.353 -34.753  1.00  0.00     0.049 A 
HETATM   24  C   UNL     1      -6.610  -4.530 -35.406  1.00  0.00     0.076 C 
HETATM   25  C   UNL     1      -4.702  -2.976 -34.500  1.00  0.00     0.035 A 
HETATM   26  C   UNL     1      -4.771  -1.743 -33.806  1.00  0.00     0.035 A 
ENDBRANCH  19  21
ENDBRANCH  18  19
ENDBRANCH  17  18
ENDBRANCH  13  17
BRANCH  10  27
HETATM   27  O   UNL     1      -9.562   5.637 -32.155  1.00  0.00    -0.385 OA
HETATM   28  H   UNL     1     -10.481   5.663 -32.482  1.00  0.00     0.211 HD
ENDBRANCH  10  27
ENDBRANCH   1  10
BRANCH   6  29
HETATM   29  C   UNL     1      -1.616   5.392 -31.240  1.00  0.00     0.277 C 
HETATM   30  N   UNL     1      -1.089   6.695 -31.191  1.00  0.00    -0.345 N 
HETATM   31  C   UNL     1       0.326   6.833 -30.830  1.00  0.00     0.154 C 
HETATM   32  C   UNL     1      -1.836   7.938 -31.317  1.00  0.00     0.128 C 
HETATM   33  C   UNL     1       0.550   7.003 -29.323  1.00  0.00     0.254 C 
HETATM   34  N   UNL     1      -0.203   8.221 -28.775  1.00  0.00    -0.073 N 
HETATM   35  H   UNL     1      -0.006   9.022 -29.388  1.00  0.00     0.279 HD
HETATM   36  C   UNL     1       0.347   8.604 -27.420  1.00  0.00     0.269 C 
HETATM   37  C   UNL     1      -1.700   8.006 -28.716  1.00  0.00     0.236 C 
HETATM   38  C   UNL     1      -2.416   8.433 -29.994  1.00  0.00     0.048 C 
HETATM   39  O   UNL     1      -0.874   4.448 -30.957  1.00  0.00    -0.265 OA
ENDBRANCH   6  29
TORSDOF 7
ENDMDL
MODEL 3
REMARK VINA RESULT:      -9.0      3.880      7.708
REMARK  7 active torsions:
REMARK  status: ('A' for Active; 'I' for Inactive)
REMARK    1  A    between atoms: C_4  and  C_5 
REMARK    2  A    between atoms: C_5  and  C_6 
REMARK    3  A    between atoms: C_6  and  C_7 
REMARK    4  A    between atoms: C_7  and  N_8 
REMARK    5  A    between atoms: C_12  and  O_13 
REMARK    6  A    between atoms: C_12  and  C_14 
REMARK    7  A    between atoms: C_19  and  C_20 
REMARK       I    between atoms: C_20  and  N_21 
ROOT
HETATM    1  C   UNL     1      -6.201   2.980 -31.548  1.00  0.00    -0.023 A 
HETATM    2  C   UNL     1      -7.584   3.079 -31.265  1.00  0.00     0.024 A 
HETATM    3  C   UNL     1      -8.493   3.496 -32.261  1.00  0.00     0.001 A 
HETATM    4  C   UNL     1      -8.007   3.787 -33.524  1.00  0.00     0.086 A 
HETATM    5  O   UNL     1      -9.021   4.163 -34.351  1.00  0.00    -0.304 OA
HETATM    6  C   UNL     1     -10.180   4.126 -33.625  1.00  0.00     0.144 A 
HETATM    7  C   UNL     1      -9.894   3.696 -32.338  1.00  0.00     0.057 A 
HETATM    8  C   UNL     1      -6.669   3.677 -33.876  1.00  0.00     0.039 A 
HETATM    9  C   UNL     1      -5.784   3.255 -32.868  1.00  0.00     0.013 A 
ENDROOT
BRANCH   1  10
HETATM   10  C   UNL     1      -5.205   2.487 -30.486  1.00  0.00     0.088 C 
HETATM   11  C   UNL     1      -3.752   2.322 -30.974  1.00  0.00     0.071 C 
HETATM   12  C   UNL     1      -3.598   1.167 -31.950  1.00  0.00     0.238 C 
HETATM   13  N   UNL     1      -4.052  -0.124 -31.308  1.00  0.00    -0.071 N 
HETATM   14  H   UNL     1      -3.427  -0.322 -30.513  1.00  0.00     0.279 HD
HETATM   15  C   UNL     1      -5.461  -0.024 -30.756  1.00  0.00     0.238 C 
HETATM   16  C   UNL     1      -5.573   1.152 -29.805  1.00  0.00     0.071 C 
BRANCH  13  17
HETATM   17  C   UNL     1      -3.961  -1.319 -32.254  1.00  0.00     0.235 C 
BRANCH  17  18
HETATM   18  C   UNL     1      -4.520  -0.985 -33.638  1.00  0.00     0.038 C 
BRANCH  18  19
HETATM   19  C   UNL     1      -5.803  -1.786 -33.945  1.00  0.00     0.040 C 
HETATM   20  C   UNL     1      -5.565  -2.759 -35.102  1.00  0.00     0.017 C 
BRANCH  19  21
HETATM   21  C   UNL     1      -6.944  -0.863 -34.228  1.00  0.00     0.057 A 
HETATM   22  O   UNL     1      -7.933  -0.850 -33.286  1.00  0.00    -0.319 OA
HETATM   23  C   UNL     1      -8.879   0.034 -33.708  1.00  0.00     0.049 A 
HETATM   24  C   UNL     1     -10.076   0.173 -32.854  1.00  0.00     0.076 C 
HETATM   25  C   UNL     1      -8.487   0.616 -34.893  1.00  0.00     0.035 A 
HETATM   26  C   UNL     1      -7.238   0.040 -35.227  1.00  0.00     0.035 A 
ENDBRANCH  19  21
ENDBRANCH  18  19
ENDBRANCH  17  18
ENDBRANCH  13  17
BRANCH  10  27
HETATM   27  O   UNL     1      -5.168   3.468 -29.446  1.00  0.00    -0.385 OA
HETATM   28  H   UNL     1      -5.958   3.386 -28.881  1.00  0.00     0.211 HD
ENDBRANCH  10  27
ENDBRANCH   1  10
BRANCH   6  29
HETATM   29  C   UNL     1     -11.474   4.428 -34.217  1.00  0.00     0.277 C 
HETATM   30  N   UNL     1     -12.073   5.690 -34.062  1.00  0.00    -0.345 N 
HETATM   31  C   UNL     1     -13.393   5.886 -34.675  1.00  0.00     0.154 C 
HETATM   32  C   UNL     1     -11.461   6.877 -33.482  1.00  0.00     0.128 C 
HETATM   33  C   UNL     1     -13.318   6.425 -36.107  1.00  0.00     0.254 C 
HETATM   34  N   UNL     1     -12.561   7.757 -36.171  1.00  0.00    -0.073 N 
HETATM   35  H   UNL     1     -12.936   8.374 -35.439  1.00  0.00     0.279 HD
HETATM   36  C   UNL     1     -12.851   8.457 -37.478  1.00  0.00     0.269 C 
HETATM   37  C   UNL     1     -11.070   7.593 -35.957  1.00  0.00     0.236 C 
HETATM   38  C   UNL     1     -10.662   7.699 -34.491  1.00  0.00     0.048 C 
HETATM   39  O   UNL     1     -12.072   3.571 -34.873  1.00  0.00    -0.265 OA
ENDBRANCH   6  29
TORSDOF 7
ENDMDL
MODEL 4
REMARK VINA RESULT:      -8.9      3.830      7.821
REMARK  7 active torsions:
REMARK  status: ('A' for Active; 'I' for Inactive)
REMARK    1  A    between atoms: C_4  and  C_5 
REMARK    2  A    between atoms: C_5  and  C_6 
REMARK    3  A    between atoms: C_6  and  C_7 
REMARK    4  A    between atoms: C_7  and  N_8 
REMARK    5  A    between atoms: C_12  and  O_13 
REMARK    6  A    between atoms: C_12  and  C_14 
REMARK    7  A    between atoms: C_19  and  C_20 
REMARK       I    between atoms: C_20  and  N_21 
ROOT
HETATM    1  C   UNL     1      -5.865   3.261 -31.745  1.00  0.00    -0.023 A 
HETATM    2  C   UNL     1      -7.077   3.909 -31.409  1.00  0.00     0.024 A 
HETATM    3  C   UNL     1      -7.943   4.381 -32.419  1.00  0.00     0.001 A 
HETATM    4  C   UNL     1      -7.592   4.179 -33.743  1.00  0.00     0.086 A 
HETATM    5  O   UNL     1      -8.542   4.690 -34.572  1.00  0.00    -0.304 OA
HETATM    6  C   UNL     1      -9.522   5.238 -33.789  1.00  0.00     0.144 A 
HETATM    7  C   UNL     1      -9.195   5.044 -32.456  1.00  0.00     0.057 A 
HETATM    8  C   UNL     1      -6.436   3.520 -34.139  1.00  0.00     0.039 A 
HETATM    9  C   UNL     1      -5.592   3.055 -33.115  1.00  0.00     0.013 A 
ENDROOT
BRANCH   1  10
HETATM   10  C   UNL     1      -4.932   2.705 -30.657  1.00  0.00     0.088 C 
HETATM   11  C   UNL     1      -3.520   2.316 -31.137  1.00  0.00     0.071 C 
HETATM   12  C   UNL     1      -3.534   1.093 -32.040  1.00  0.00     0.238 C 
HETATM   13  N   UNL     1      -4.150  -0.084 -31.316  1.00  0.00    -0.071 N 
HETATM   14  H   UNL     1      -3.548  -0.314 -30.512  1.00  0.00     0.279 HD
HETATM   15  C   UNL     1      -5.526   0.239 -30.768  1.00  0.00     0.238 C 
HETATM   16  C   UNL     1      -5.468   1.477 -29.893  1.00  0.00     0.071 C 
BRANCH  13  17
HETATM   17  C   UNL     1      -4.230  -1.336 -32.186  1.00  0.00     0.235 C 
BRANCH  17  18
HETATM   18  C   UNL     1      -4.767  -1.018 -33.583  1.00  0.00     0.038 C 
BRANCH  18  19
HETATM   19  C   UNL     1      -6.117  -1.718 -33.849  1.00  0.00     0.040 C 
HETATM   20  C   UNL     1      -5.980  -2.733 -34.985  1.00  0.00     0.017 C 
BRANCH  19  21
HETATM   21  C   UNL     1      -7.184  -0.712 -34.135  1.00  0.00     0.057 A 
HETATM   22  O   UNL     1      -7.894  -0.286 -33.050  1.00  0.00    -0.319 OA
HETATM   23  C   UNL     1      -8.813   0.614 -33.496  1.00  0.00     0.049 A 
HETATM   24  C   UNL     1      -9.731   1.173 -32.484  1.00  0.00     0.076 C 
HETATM   25  C   UNL     1      -8.673   0.797 -34.854  1.00  0.00     0.035 A 
HETATM   26  C   UNL     1      -7.620  -0.055 -35.267  1.00  0.00     0.035 A 
ENDBRANCH  19  21
ENDBRANCH  18  19
ENDBRANCH  17  18
ENDBRANCH  13  17
BRANCH  10  27
HETATM   27  O   UNL     1      -4.752   3.734 -29.680  1.00  0.00    -0.385 OA
HETATM   28  H   UNL     1      -3.944   4.244 -29.876  1.00  0.00     0.211 HD
ENDBRANCH  10  27
ENDBRANCH   1  10
BRANCH   6  29
HETATM   29  C   UNL     1     -10.721   5.835 -34.355  1.00  0.00     0.277 C 
HETATM   30  N   UNL     1     -11.878   5.072 -34.592  1.00  0.00    -0.345 N 
HETATM   31  C   UNL     1     -13.026   5.762 -35.192  1.00  0.00     0.154 C 
HETATM   32  C   UNL     1     -12.114   3.699 -34.170  1.00  0.00     0.128 C 
HETATM   33  C   UNL     1     -13.985   6.353 -34.153  1.00  0.00     0.254 C 
HETATM   34  N   UNL     1     -14.520   5.275 -33.203  1.00  0.00    -0.073 N 
HETATM   35  H   UNL     1     -14.847   4.482 -33.769  1.00  0.00     0.279 HD
HETATM   36  C   UNL     1     -15.744   5.785 -32.477  1.00  0.00     0.269 C 
HETATM   37  C   UNL     1     -13.472   4.782 -32.227  1.00  0.00     0.236 C 
HETATM   38  C   UNL     1     -12.679   3.590 -32.756  1.00  0.00     0.048 C 
HETATM   39  O   UNL     1     -10.741   7.035 -34.640  1.00  0.00    -0.265 OA
ENDBRANCH   6  29
TORSDOF 7
ENDMDL
MODEL 5
REMARK VINA RESULT:      -8.9      2.630      5.558
REMARK  7 active torsions:
REMARK  status: ('A' for Active; 'I' for Inactive)
REMARK    1  A    between atoms: C_4  and  C_5 
REMARK    2  A    between atoms: C_5  and  C_6 
REMARK    3  A    between atoms: C_6  and  C_7 
REMARK    4  A    between atoms: C_7  and  N_8 
REMARK    5  A    between atoms: C_12  and  O_13 
REMARK    6  A    between atoms: C_12  and  C_14 
REMARK    7  A    between atoms: C_19  and  C_20 
REMARK       I    between atoms: C_20  and  N_21 
ROOT
HETATM    1  C   UNL     1      -2.130   6.484 -32.258  1.00  0.00    -0.023 A 
HETATM    2  C   UNL     1      -2.724   7.429 -31.388  1.00  0.00     0.024 A 
HETATM    3  C   UNL     1      -1.987   7.984 -30.320  1.00  0.00     0.001 A 
HETATM    4  C   UNL     1      -0.667   7.599 -30.153  1.00  0.00     0.086 A 
HETATM    5  O   UNL     1      -0.115   8.237 -29.085  1.00  0.00    -0.304 OA
HETATM    6  C   UNL     1      -1.080   9.041 -28.541  1.00  0.00     0.144 A 
HETATM    7  C   UNL     1      -2.240   8.926 -29.293  1.00  0.00     0.057 A 
HETATM    8  C   UNL     1      -0.016   6.705 -30.991  1.00  0.00     0.039 A 
HETATM    9  C   UNL     1      -0.769   6.169 -32.050  1.00  0.00     0.013 A 
ENDROOT
BRANCH   1  10
HETATM   10  C   UNL     1      -2.907   5.902 -33.450  1.00  0.00     0.088 C 
HETATM   11  C   UNL     1      -4.441   5.914 -33.305  1.00  0.00     0.071 C 
HETATM   12  C   UNL     1      -4.929   4.938 -32.247  1.00  0.00     0.238 C 
HETATM   13  N   UNL     1      -4.477   3.534 -32.583  1.00  0.00    -0.071 N 
HETATM   14  H   UNL     1      -4.924   3.259 -33.470  1.00  0.00     0.279 HD
HETATM   15  C   UNL     1      -2.977   3.451 -32.792  1.00  0.00     0.238 C 
HETATM   16  C   UNL     1      -2.533   4.456 -33.838  1.00  0.00     0.071 C 
BRANCH  13  17
HETATM   17  C   UNL     1      -4.901   2.509 -31.534  1.00  0.00     0.235 C 
BRANCH  17  18
HETATM   18  C   UNL     1      -6.105   1.689 -32.003  1.00  0.00     0.038 C 
BRANCH  18  19
HETATM   19  C   UNL     1      -5.964   0.200 -31.624  1.00  0.00     0.040 C 
HETATM   20  C   UNL     1      -4.610  -0.059 -30.959  1.00  0.00     0.017 C 
BRANCH  19  21
HETATM   21  C   UNL     1      -6.162  -0.669 -32.823  1.00  0.00     0.057 A 
HETATM   22  O   UNL     1      -5.136  -1.527 -33.100  1.00  0.00    -0.319 OA
HETATM   23  C   UNL     1      -5.486  -2.227 -34.214  1.00  0.00     0.049 A 
HETATM   24  C   UNL     1      -4.490  -3.190 -34.726  1.00  0.00     0.076 C 
HETATM   25  C   UNL     1      -6.744  -1.853 -34.632  1.00  0.00     0.035 A 
HETATM   26  C   UNL     1      -7.182  -0.850 -33.733  1.00  0.00     0.035 A 
ENDBRANCH  19  21
ENDBRANCH  18  19
ENDBRANCH  17  18
ENDBRANCH  13  17
BRANCH  10  27
HETATM   27  O   UNL     1      -2.607   6.710 -34.592  1.00  0.00    -0.385 OA
HETATM   28  H   UNL     1      -3.331   7.344 -34.752  1.00  0.00     0.211 HD
ENDBRANCH  10  27
ENDBRANCH   1  10
BRANCH   6  29
HETATM   29  C   UNL     1      -0.815   9.906 -27.403  1.00  0.00     0.277 C 
HETATM   30  N   UNL     1      -0.518   9.378 -26.134  1.00  0.00    -0.345 N 
HETATM   31  C   UNL     1      -0.293  10.334 -25.044  1.00  0.00     0.154 C 
HETATM   32  C   UNL     1      -0.262   7.981 -25.814  1.00  0.00     0.128 C 
HETATM   33  C   UNL     1       1.176  10.741 -24.893  1.00  0.00     0.254 C 
HETATM   34  N   UNL     1       2.077   9.525 -24.652  1.00  0.00    -0.073 N 
HETATM   35  H   UNL     1       1.653   8.954 -23.909  1.00  0.00     0.279 HD
HETATM   36  C   UNL     1       3.415   9.969 -24.105  1.00  0.00     0.269 C 
HETATM   37  C   UNL     1       2.250   8.670 -25.890  1.00  0.00     0.236 C 
HETATM   38  C   UNL     1       1.196   7.573 -26.008  1.00  0.00     0.048 C 
HETATM   39  O   UNL     1      -0.847  11.133 -27.534  1.00  0.00    -0.265 OA
ENDBRANCH   6  29
TORSDOF 7
ENDMDL
MODEL 6
REMARK VINA RESULT:      -8.8      2.865     10.333
REMARK  7 active torsions:
REMARK  status: ('A' for Active; 'I' for Inactive)
REMARK    1  A    between atoms: C_4  and  C_5 
REMARK    2  A    between atoms: C_5  and  C_6 
REMARK    3  A    between atoms: C_6  and  C_7 
REMARK    4  A    between atoms: C_7  and  N_8 
REMARK    5  A    between atoms: C_12  and  O_13 
REMARK    6  A    between atoms: C_12  and  C_14 
REMARK    7  A    between atoms: C_19  and  C_20 
REMARK       I    between atoms: C_20  and  N_21 
ROOT
HETATM    1  C   UNL     1      -3.149   5.152 -33.217  1.00  0.00    -0.023 A 
HETATM    2  C   UNL     1      -4.443   5.093 -33.786  1.00  0.00     0.024 A 
HETATM    3  C   UNL     1      -5.231   3.929 -33.659  1.00  0.00     0.001 A 
HETATM    4  C   UNL     1      -4.720   2.855 -32.949  1.00  0.00     0.086 A 
HETATM    5  O   UNL     1      -5.615   1.831 -32.924  1.00  0.00    -0.304 OA
HETATM    6  C   UNL     1      -6.719   2.230 -33.627  1.00  0.00     0.144 A 
HETATM    7  C   UNL     1      -6.525   3.528 -34.074  1.00  0.00     0.057 A 
HETATM    8  C   UNL     1      -3.474   2.862 -32.338  1.00  0.00     0.039 A 
HETATM    9  C   UNL     1      -2.710   4.034 -32.475  1.00  0.00     0.013 A 
ENDROOT
BRANCH   1  10
HETATM   10  C   UNL     1      -2.295   6.428 -33.312  1.00  0.00     0.088 C 
HETATM   11  C   UNL     1      -0.776   6.215 -33.160  1.00  0.00     0.071 C 
HETATM   12  C   UNL     1      -0.388   5.814 -31.746  1.00  0.00     0.238 C 
HETATM   13  N   UNL     1      -0.839   6.869 -30.761  1.00  0.00    -0.071 N 
HETATM   14  H   UNL     1      -0.332   7.741 -30.972  1.00  0.00     0.279 HD
HETATM   15  C   UNL     1      -2.320   7.170 -30.884  1.00  0.00     0.238 C 
HETATM   16  C   UNL     1      -2.665   7.544 -32.314  1.00  0.00     0.071 C 
BRANCH  13  17
HETATM   17  C   UNL     1      -0.514   6.504 -29.315  1.00  0.00     0.235 C 
BRANCH  17  18
HETATM   18  C   UNL     1       0.485   7.484 -28.697  1.00  0.00     0.038 C 
BRANCH  18  19
HETATM   19  C   UNL     1       0.866   7.081 -27.257  1.00  0.00     0.040 C 
HETATM   20  C   UNL     1      -0.286   6.327 -26.588  1.00  0.00     0.017 C 
BRANCH  19  21
HETATM   21  C   UNL     1       1.272   8.281 -26.465  1.00  0.00     0.057 A 
HETATM   22  O   UNL     1       2.373   8.114 -25.674  1.00  0.00    -0.319 OA
HETATM   23  C   UNL     1       2.590   9.295 -25.032  1.00  0.00     0.049 A 
HETATM   24  C   UNL     1       3.717   9.327 -24.078  1.00  0.00     0.076 C 
HETATM   25  C   UNL     1       1.660  10.229 -25.432  1.00  0.00     0.035 A 
HETATM   26  C   UNL     1       0.812   9.576 -26.358  1.00  0.00     0.035 A 
ENDBRANCH  19  21
ENDBRANCH  18  19
ENDBRANCH  17  18
ENDBRANCH  13  17
BRANCH  10  27
HETATM   27  O   UNL     1      -2.493   6.979 -34.617  1.00  0.00    -0.385 OA
HETATM   28  H   UNL     1      -2.601   6.263 -35.270  1.00  0.00     0.211 HD
ENDBRANCH  10  27
ENDBRANCH   1  10
BRANCH   6  29
HETATM   29  C   UNL     1      -7.897   1.387 -33.762  1.00  0.00     0.277 C 
HETATM   30  N   UNL     1      -8.848   1.288 -32.732  1.00  0.00    -0.345 N 
HETATM   31  C   UNL     1      -9.988   0.389 -32.953  1.00  0.00     0.154 C 
HETATM   32  C   UNL     1      -8.906   2.096 -31.522  1.00  0.00     0.128 C 
HETATM   33  C   UNL     1     -11.190   1.088 -33.597  1.00  0.00     0.254 C 
HETATM   34  N   UNL     1     -11.675   2.271 -32.750  1.00  0.00    -0.073 N 
HETATM   35  H   UNL     1     -11.762   1.954 -31.776  1.00  0.00     0.279 HD
HETATM   36  C   UNL     1     -13.070   2.672 -33.171  1.00  0.00     0.269 C 
HETATM   37  C   UNL     1     -10.729   3.452 -32.798  1.00  0.00     0.236 C 
HETATM   38  C   UNL     1      -9.664   3.408 -31.706  1.00  0.00     0.048 C 
HETATM   39  O   UNL     1      -8.081   0.738 -34.794  1.00  0.00    -0.265 OA
ENDBRANCH   6  29
TORSDOF 7
ENDMDL
MODEL 7
REMARK VINA RESULT:      -8.7      2.685      9.116
REMARK  7 active torsions:
REMARK  status: ('A' for Active; 'I' for Inactive)
REMARK    1  A    between atoms: C_4  and  C_5 
REMARK    2  A    between atoms: C_5  and  C_6 
REMARK    3  A    between atoms: C_6  and  C_7 
REMARK    4  A    between atoms: C_7  and  N_8 
REMARK    5  A    between atoms: C_12  and  O_13 
REMARK    6  A    between atoms: C_12  and  C_14 
REMARK    7  A    between atoms: C_19  and  C_20 
REMARK       I    between atoms: C_20  and  N_21 
ROOT
HETATM    1  C   UNL     1      -2.777   5.133 -33.458  1.00  0.00    -0.023 A 
HETATM    2  C   UNL     1      -3.040   3.952 -32.725  1.00  0.00     0.024 A 
HETATM    3  C   UNL     1      -4.278   3.288 -32.854  1.00  0.00     0.001 A 
HETATM    4  C   UNL     1      -5.221   3.803 -33.727  1.00  0.00     0.086 A 
HETATM    5  O   UNL     1      -6.343   3.032 -33.727  1.00  0.00    -0.304 OA
HETATM    6  C   UNL     1      -6.140   2.008 -32.843  1.00  0.00     0.144 A 
HETATM    7  C   UNL     1      -4.867   2.122 -32.304  1.00  0.00     0.057 A 
HETATM    8  C   UNL     1      -5.012   4.936 -34.501  1.00  0.00     0.039 A 
HETATM    9  C   UNL     1      -3.770   5.578 -34.358  1.00  0.00     0.013 A 
ENDROOT
BRANCH   1  10
HETATM   10  C   UNL     1      -1.417   5.845 -33.360  1.00  0.00     0.088 C 
HETATM   11  C   UNL     1      -0.548   5.439 -32.154  1.00  0.00     0.071 C 
HETATM   12  C   UNL     1      -1.128   5.923 -30.835  1.00  0.00     0.238 C 
HETATM   13  N   UNL     1      -1.278   7.428 -30.850  1.00  0.00    -0.071 N 
HETATM   14  H   UNL     1      -0.337   7.841 -30.930  1.00  0.00     0.279 HD
HETATM   15  C   UNL     1      -2.083   7.910 -32.041  1.00  0.00     0.238 C 
HETATM   16  C   UNL     1      -1.481   7.386 -33.332  1.00  0.00     0.071 C 
BRANCH  13  17
HETATM   17  C   UNL     1      -1.896   7.973 -29.565  1.00  0.00     0.235 C 
BRANCH  17  18
HETATM   18  C   UNL     1      -3.304   8.521 -29.804  1.00  0.00     0.038 C 
BRANCH  18  19
HETATM   19  C   UNL     1      -4.327   7.921 -28.818  1.00  0.00     0.040 C 
HETATM   20  C   UNL     1      -3.610   7.244 -27.648  1.00  0.00     0.017 C 
BRANCH  19  21
HETATM   21  C   UNL     1      -5.245   6.975 -29.523  1.00  0.00     0.057 A 
HETATM   22  O   UNL     1      -6.520   6.926 -29.037  1.00  0.00    -0.319 OA
HETATM   23  C   UNL     1      -7.203   6.020 -29.789  1.00  0.00     0.049 A 
HETATM   24  C   UNL     1      -8.607   5.770 -29.404  1.00  0.00     0.076 C 
HETATM   25  C   UNL     1      -6.388   5.516 -30.778  1.00  0.00     0.035 A 
HETATM   26  C   UNL     1      -5.125   6.133 -30.609  1.00  0.00     0.035 A 
ENDBRANCH  19  21
ENDBRANCH  18  19
ENDBRANCH  17  18
ENDBRANCH  13  17
BRANCH  10  27
HETATM   27  O   UNL     1      -0.668   5.499 -34.528  1.00  0.00    -0.385 OA
HETATM   28  H   UNL     1       0.285   5.633 -34.366  1.00  0.00     0.211 HD
ENDBRANCH  10  27
ENDBRANCH   1  10
BRANCH   6  29
HETATM   29  C   UNL     1      -7.129   0.963 -32.629  1.00  0.00     0.277 C 
HETATM   30  N   UNL     1      -8.314   1.213 -31.915  1.00  0.00    -0.345 N 
HETATM   31  C   UNL     1      -9.236   0.086 -31.729  1.00  0.00     0.154 C 
HETATM   32  C   UNL     1      -8.800   2.509 -31.465  1.00  0.00     0.128 C 
HETATM   33  C   UNL     1     -10.280  -0.030 -32.845  1.00  0.00     0.254 C 
HETATM   34  N   UNL     1     -11.114   1.250 -32.972  1.00  0.00    -0.073 N 
HETATM   35  H   UNL     1     -11.435   1.519 -32.033  1.00  0.00     0.279 HD
HETATM   36  C   UNL     1     -12.371   0.975 -33.765  1.00  0.00     0.269 C 
HETATM   37  C   UNL     1     -10.332   2.401 -33.570  1.00  0.00     0.236 C 
HETATM   38  C   UNL     1      -9.620   3.248 -32.520  1.00  0.00     0.048 C 
HETATM   39  O   UNL     1      -6.941  -0.171 -33.075  1.00  0.00    -0.265 OA
ENDBRANCH   6  29
TORSDOF 7
ENDMDL
MODEL 8
REMARK VINA RESULT:      -8.6      2.209      4.839
REMARK  7 active torsions:
REMARK  status: ('A' for Active; 'I' for Inactive)
REMARK    1  A    between atoms: C_4  and  C_5 
REMARK    2  A    between atoms: C_5  and  C_6 
REMARK    3  A    between atoms: C_6  and  C_7 
REMARK    4  A    between atoms: C_7  and  N_8 
REMARK    5  A    between atoms: C_12  and  O_13 
REMARK    6  A    between atoms: C_12  and  C_14 
REMARK    7  A    between atoms: C_19  and  C_20 
REMARK       I    between atoms: C_20  and  N_21 
ROOT
HETATM    1  C   UNL     1      -6.047   1.168 -32.832  1.00  0.00    -0.023 A 
HETATM    2  C   UNL     1      -5.494   2.394 -33.272  1.00  0.00     0.024 A 
HETATM    3  C   UNL     1      -4.339   2.923 -32.656  1.00  0.00     0.001 A 
HETATM    4  C   UNL     1      -3.748   2.208 -31.628  1.00  0.00     0.086 A 
HETATM    5  O   UNL     1      -2.648   2.862 -31.163  1.00  0.00    -0.304 OA
HETATM    6  C   UNL     1      -2.519   4.017 -31.885  1.00  0.00     0.144 A 
HETATM    7  C   UNL     1      -3.533   4.074 -32.830  1.00  0.00     0.057 A 
HETATM    8  C   UNL     1      -4.219   0.984 -31.174  1.00  0.00     0.039 A 
HETATM    9  C   UNL     1      -5.368   0.476 -31.805  1.00  0.00     0.013 A 
ENDROOT
BRANCH   1  10
HETATM   10  C   UNL     1      -7.280   0.559 -33.519  1.00  0.00     0.088 C 
HETATM   11  C   UNL     1      -8.013   1.492 -34.503  1.00  0.00     0.071 C 
HETATM   12  C   UNL     1      -8.718   2.638 -33.795  1.00  0.00     0.238 C 
HETATM   13  N   UNL     1      -9.714   2.099 -32.792  1.00  0.00    -0.071 N 
HETATM   14  H   UNL     1     -10.437   1.578 -33.310  1.00  0.00     0.279 HD
HETATM   15  C   UNL     1      -9.075   1.129 -31.817  1.00  0.00     0.238 C 
HETATM   16  C   UNL     1      -8.366   0.017 -32.567  1.00  0.00     0.071 C 
BRANCH  13  17
HETATM   17  C   UNL     1     -10.428   3.203 -32.017  1.00  0.00     0.235 C 
BRANCH  17  18
HETATM   18  C   UNL     1      -9.940   3.282 -30.570  1.00  0.00     0.038 C 
BRANCH  18  19
HETATM   19  C   UNL     1      -9.422   4.692 -30.217  1.00  0.00     0.040 C 
HETATM   20  C   UNL     1      -9.665   5.659 -31.378  1.00  0.00     0.017 C 
BRANCH  19  21
HETATM   21  C   UNL     1      -7.978   4.643 -29.835  1.00  0.00     0.057 A 
HETATM   22  O   UNL     1      -7.629   5.414 -28.764  1.00  0.00    -0.319 OA
HETATM   23  C   UNL     1      -6.292   5.248 -28.566  1.00  0.00     0.049 A 
HETATM   24  C   UNL     1      -5.686   6.036 -27.474  1.00  0.00     0.076 C 
HETATM   25  C   UNL     1      -5.788   4.348 -29.478  1.00  0.00     0.035 A 
HETATM   26  C   UNL     1      -6.875   3.955 -30.296  1.00  0.00     0.035 A 
ENDBRANCH  19  21
ENDBRANCH  18  19
ENDBRANCH  17  18
ENDBRANCH  13  17
BRANCH  10  27
HETATM   27  O   UNL     1      -6.832  -0.560 -34.289  1.00  0.00    -0.385 OA
HETATM   28  H   UNL     1      -5.862  -0.531 -34.389  1.00  0.00     0.211 HD
ENDBRANCH  10  27
ENDBRANCH   1  10
BRANCH   6  29
HETATM   29  C   UNL     1      -1.414   4.940 -31.678  1.00  0.00     0.277 C 
HETATM   30  N   UNL     1      -1.617   6.331 -31.652  1.00  0.00    -0.345 N 
HETATM   31  C   UNL     1      -0.433   7.178 -31.464  1.00  0.00     0.154 C 
HETATM   32  C   UNL     1      -2.898   7.022 -31.642  1.00  0.00     0.128 C 
HETATM   33  C   UNL     1      -0.141   7.489 -29.992  1.00  0.00     0.254 C 
HETATM   34  N   UNL     1      -1.332   8.178 -29.314  1.00  0.00    -0.073 N 
HETATM   35  H   UNL     1      -1.644   8.947 -29.920  1.00  0.00     0.279 HD
HETATM   36  C   UNL     1      -0.888   8.832 -28.026  1.00  0.00     0.269 C 
HETATM   37  C   UNL     1      -2.494   7.237 -29.077  1.00  0.00     0.236 C 
HETATM   38  C   UNL     1      -3.479   7.200 -30.241  1.00  0.00     0.048 C 
HETATM   39  O   UNL     1      -0.268   4.511 -31.520  1.00  0.00    -0.265 OA
ENDBRANCH   6  29
TORSDOF 7
ENDMDL
MODEL 9
REMARK VINA RESULT:      -8.5      1.876      2.951
REMARK  7 active torsions:
REMARK  status: ('A' for Active; 'I' for Inactive)
REMARK    1  A    between atoms: C_4  and  C_5 
REMARK    2  A    between atoms: C_5  and  C_6 
REMARK    3  A    between atoms: C_6  and  C_7 
REMARK    4  A    between atoms: C_7  and  N_8 
REMARK    5  A    between atoms: C_12  and  O_13 
REMARK    6  A    between atoms: C_12  and  C_14 
REMARK    7  A    between atoms: C_19  and  C_20 
REMARK       I    between atoms: C_20  and  N_21 
ROOT
HETATM    1  C   UNL     1      -8.676   3.359 -33.266  1.00  0.00    -0.023 A 
HETATM    2  C   UNL     1      -7.406   3.243 -33.880  1.00  0.00     0.024 A 
HETATM    3  C   UNL     1      -6.424   4.239 -33.691  1.00  0.00     0.001 A 
HETATM    4  C   UNL     1      -6.721   5.319 -32.878  1.00  0.00     0.086 A 
HETATM    5  O   UNL     1      -5.659   6.169 -32.807  1.00  0.00    -0.304 OA
HETATM    6  C   UNL     1      -4.661   5.647 -33.583  1.00  0.00     0.144 A 
HETATM    7  C   UNL     1      -5.091   4.445 -34.125  1.00  0.00     0.057 A 
HETATM    8  C   UNL     1      -7.933   5.475 -32.220  1.00  0.00     0.039 A 
HETATM    9  C   UNL     1      -8.893   4.468 -32.420  1.00  0.00     0.013 A 
ENDROOT
BRANCH   1  10
HETATM   10  C   UNL     1      -9.742   2.263 -33.429  1.00  0.00     0.088 C 
HETATM   11  C   UNL     1      -9.840   1.263 -32.260  1.00  0.00     0.071 C 
HETATM   12  C   UNL     1      -8.624   0.355 -32.173  1.00  0.00     0.238 C 
HETATM   13  N   UNL     1      -8.451  -0.412 -33.464  1.00  0.00    -0.071 N 
HETATM   14  H   UNL     1      -9.271  -1.025 -33.584  1.00  0.00     0.279 HD
HETATM   15  C   UNL     1      -8.396   0.504 -34.671  1.00  0.00     0.238 C 
HETATM   16  C   UNL     1      -9.616   1.405 -34.705  1.00  0.00     0.071 C 
BRANCH  13  17
HETATM   17  C   UNL     1      -7.219  -1.314 -33.455  1.00  0.00     0.235 C 
BRANCH  17  18
HETATM   18  C   UNL     1      -6.164  -0.817 -32.465  1.00  0.00     0.038 C 
BRANCH  18  19
HETATM   19  C   UNL     1      -5.001  -0.099 -33.182  1.00  0.00     0.040 C 
HETATM   20  C   UNL     1      -3.865  -1.081 -33.477  1.00  0.00     0.017 C 
BRANCH  19  21
HETATM   21  C   UNL     1      -4.526   1.066 -32.376  1.00  0.00     0.057 A 
HETATM   22  O   UNL     1      -5.438   1.583 -31.501  1.00  0.00    -0.319 OA
HETATM   23  C   UNL     1      -4.839   2.627 -30.865  1.00  0.00     0.049 A 
HETATM   24  C   UNL     1      -5.670   3.372 -29.897  1.00  0.00     0.076 C 
HETATM   25  C   UNL     1      -3.538   2.760 -31.296  1.00  0.00     0.035 A 
HETATM   26  C   UNL     1      -3.334   1.751 -32.269  1.00  0.00     0.035 A 
ENDBRANCH  19  21
ENDBRANCH  18  19
ENDBRANCH  17  18
ENDBRANCH  13  17
BRANCH  10  27
HETATM   27  O   UNL     1     -11.014   2.911 -33.508  1.00  0.00    -0.385 OA
HETATM   28  H   UNL     1     -11.730   2.258 -33.400  1.00  0.00     0.211 HD
ENDBRANCH  10  27
ENDBRANCH   1  10
BRANCH   6  29
HETATM   29  C   UNL     1      -3.358   6.283 -33.697  1.00  0.00     0.277 C 
HETATM   30  N   UNL     1      -2.930   7.248 -32.768  1.00  0.00    -0.345 N 
HETATM   31  C   UNL     1      -1.609   7.851 -32.986  1.00  0.00     0.154 C 
HETATM   32  C   UNL     1      -3.593   7.609 -31.524  1.00  0.00     0.128 C 
HETATM   33  C   UNL     1      -0.478   7.096 -32.280  1.00  0.00     0.254 C 
HETATM   34  N   UNL     1      -0.716   7.007 -30.768  1.00  0.00    -0.073 N 
HETATM   35  H   UNL     1      -0.961   7.945 -30.427  1.00  0.00     0.279 HD
HETATM   36  C   UNL     1       0.569   6.642 -30.061  1.00  0.00     0.269 C 
HETATM   37  C   UNL     1      -1.831   6.047 -30.407  1.00  0.00     0.236 C 
HETATM   38  C   UNL     1      -3.200   6.718 -30.347  1.00  0.00     0.048 C 
HETATM   39  O   UNL     1      -2.599   5.982 -34.622  1.00  0.00    -0.265 OA
ENDBRANCH   6  29
TORSDOF 7
ENDMDL
MODEL 10
REMARK VINA RESULT:      -8.4      3.689      6.994
REMARK  7 active torsions:
REMARK  status: ('A' for Active; 'I' for Inactive)
REMARK    1  A    between atoms: C_4  and  C_5 
REMARK    2  A    between atoms: C_5  and  C_6 
REMARK    3  A    between atoms: C_6  and  C_7 
REMARK    4  A    between atoms: C_7  and  N_8 
REMARK    5  A    between atoms: C_12  and  O_13 
REMARK    6  A    between atoms: C_12  and  C_14 
REMARK    7  A    between atoms: C_19  and  C_20 
REMARK       I    between atoms: C_20  and  N_21 
ROOT
HETATM    1  C   UNL     1     -10.997   1.925 -34.339  1.00  0.00    -0.023 A 
HETATM    2  C   UNL     1      -9.853   2.725 -34.568  1.00  0.00     0.024 A 
HETATM    3  C   UNL     1      -8.647   2.469 -33.879  1.00  0.00     0.001 A 
HETATM    4  C   UNL     1      -8.602   1.407 -32.992  1.00  0.00     0.086 A 
HETATM    5  O   UNL     1      -7.367   1.307 -32.430  1.00  0.00    -0.304 OA
HETATM    6  C   UNL     1      -6.596   2.313 -32.946  1.00  0.00     0.144 A 
HETATM    7  C   UNL     1      -7.348   3.034 -33.861  1.00  0.00     0.057 A 
HETATM    8  C   UNL     1      -9.677   0.563 -32.749  1.00  0.00     0.039 A 
HETATM    9  C   UNL     1     -10.865   0.836 -33.450  1.00  0.00     0.013 A 
ENDROOT
BRANCH   1  10
HETATM   10  C   UNL     1     -12.304   2.166 -35.112  1.00  0.00     0.088 C 
HETATM   11  C   UNL     1     -12.689   3.646 -35.307  1.00  0.00     0.071 C 
HETATM   12  C   UNL     1     -13.095   4.314 -34.005  1.00  0.00     0.238 C 
HETATM   13  N   UNL     1     -14.261   3.580 -33.382  1.00  0.00    -0.071 N 
HETATM   14  H   UNL     1     -15.066   3.660 -34.021  1.00  0.00     0.279 HD
HETATM   15  C   UNL     1     -13.976   2.101 -33.202  1.00  0.00     0.238 C 
HETATM   16  C   UNL     1     -13.554   1.482 -34.522  1.00  0.00     0.071 C 
BRANCH  13  17
HETATM   17  C   UNL     1     -14.692   4.180 -32.046  1.00  0.00     0.235 C 
BRANCH  17  18
HETATM   18  C   UNL     1     -13.760   3.754 -30.910  1.00  0.00     0.038 C 
BRANCH  18  19
HETATM   19  C   UNL     1     -12.956   4.946 -30.352  1.00  0.00     0.040 C 
HETATM   20  C   UNL     1     -13.561   6.270 -30.825  1.00  0.00     0.017 C 
BRANCH  19  21
HETATM   21  C   UNL     1     -11.515   4.833 -30.732  1.00  0.00     0.057 A 
HETATM   22  O   UNL     1     -11.041   5.832 -31.533  1.00  0.00    -0.319 OA
HETATM   23  C   UNL     1      -9.728   5.564 -31.777  1.00  0.00     0.049 A 
HETATM   24  C   UNL     1      -9.022   6.502 -32.672  1.00  0.00     0.076 C 
HETATM   25  C   UNL     1      -9.346   4.423 -31.107  1.00  0.00     0.035 A 
HETATM   26  C   UNL     1     -10.498   3.952 -30.431  1.00  0.00     0.035 A 
ENDBRANCH  19  21
ENDBRANCH  18  19
ENDBRANCH  17  18
ENDBRANCH  13  17
BRANCH  10  27
HETATM   27  O   UNL     1     -12.133   1.621 -36.423  1.00  0.00    -0.385 OA
HETATM   28  H   UNL     1     -11.966   0.662 -36.367  1.00  0.00     0.211 HD
ENDBRANCH  10  27
ENDBRANCH   1  10
BRANCH   6  29
HETATM   29  C   UNL     1      -5.194   2.473 -32.592  1.00  0.00     0.277 C 
HETATM   30  N   UNL     1      -4.421   3.522 -33.119  1.00  0.00    -0.345 N 
HETATM   31  C   UNL     1      -3.009   3.581 -32.722  1.00  0.00     0.154 C 
HETATM   32  C   UNL     1      -4.906   4.649 -33.902  1.00  0.00     0.128 C 
HETATM   33  C   UNL     1      -2.770   4.427 -31.467  1.00  0.00     0.254 C 
HETATM   34  N   UNL     1      -3.272   5.864 -31.652  1.00  0.00    -0.073 N 
HETATM   35  H   UNL     1      -2.916   6.215 -32.549  1.00  0.00     0.279 HD
HETATM   36  C   UNL     1      -2.669   6.764 -30.597  1.00  0.00     0.269 C 
HETATM   37  C   UNL     1      -4.783   5.960 -31.653  1.00  0.00     0.236 C 
HETATM   38  C   UNL     1      -5.389   5.818 -33.046  1.00  0.00     0.048 C 
HETATM   39  O   UNL     1      -4.655   1.680 -31.816  1.00  0.00    -0.265 OA
ENDBRANCH   6  29
TORSDOF 7
ENDMDL
