MODEL 1
REMARK VINA RESULT:      -8.5      0.000      0.000
REMARK  10 active torsions:
REMARK  status: ('A' for Active; 'I' for Inactive)
REMARK    1  A    between atoms: C_4  and  N_5 
REMARK    2  A    between atoms: N_5  and  C_6 
REMARK    3  A    between atoms: C_6  and  N_7 
REMARK    4  A    between atoms: N_7  and  N_8 
REMARK       I    between atoms: N_8  and  C_9 
REMARK    5  A    between atoms: C_9  and  C_10 
REMARK    6  A    between atoms: C_10  and  O_11 
REMARK    7  A    between atoms: O_11  and  C_12 
REMARK    8  A    between atoms: C_22  and  C_23 
REMARK    9  A    between atoms: C_23  and  O_24 
REMARK   10  A    between atoms: C_27  and  C_28 
ROOT
HETATM    1  N   UNL     1      -3.776   5.710 -31.904  1.00  0.00    -0.228 NA
HETATM    2  H   UNL     1      -3.652   5.144 -32.739  1.00  0.00     0.136 HD
ENDROOT
BRANCH   1   3
HETATM    3  C   UNL     1      -2.571   5.957 -31.262  1.00  0.00     0.073 C 
HETATM    4  S   UNL     1      -1.305   5.061 -31.965  1.00  0.00    -0.081 SA
HETATM    5  C   UNL     1      -0.212   5.509 -30.734  1.00  0.00    -0.007 C 
HETATM    6  C   UNL     1       1.150   4.891 -30.711  1.00  0.00     0.057 C 
HETATM    7  C   UNL     1      -0.772   6.450 -29.880  1.00  0.00     0.005 C 
HETATM    8  C   UNL     1      -2.138   6.798 -30.253  1.00  0.00     0.080 C 
BRANCH   7   9
HETATM    9  C   UNL     1      -0.027   6.940 -28.723  1.00  0.00    -0.024 A 
HETATM   10  C   UNL     1       0.847   8.025 -28.877  1.00  0.00     0.012 A 
HETATM   11  C   UNL     1       1.560   8.512 -27.781  1.00  0.00     0.001 A 
HETATM   12  C   UNL     1       1.401   7.923 -26.528  1.00  0.00     0.000 A 
HETATM   13  C   UNL     1       0.534   6.842 -26.369  1.00  0.00     0.001 A 
HETATM   14  C   UNL     1      -0.177   6.347 -27.464  1.00  0.00     0.012 A 
ENDBRANCH   7   9
BRANCH   8  15
HETATM   15  C   UNL     1      -2.938   7.881 -29.682  1.00  0.00     0.296 C 
HETATM   16  O   UNL     1      -2.609   9.061 -29.719  1.00  0.00    -0.259 OA
BRANCH  15  17
HETATM   17  O   UNL     1      -4.068   7.439 -29.057  1.00  0.00    -0.322 OA
HETATM   18  C   UNL     1      -3.879   7.040 -27.700  1.00  0.00     0.213 C 
ENDBRANCH  15  17
ENDBRANCH   8  15
ENDBRANCH   1   3
BRANCH   1  19
HETATM   19  C   UNL     1      -4.872   5.237 -31.214  1.00  0.00     0.170 C 
HETATM   20  S   UNL     1      -6.383   5.784 -31.710  1.00  0.00    -0.045 SA
BRANCH  19  21
HETATM   21  N   UNL     1      -4.658   4.303 -30.231  1.00  0.00    -0.278 N 
HETATM   22  H   UNL     1      -5.305   4.360 -29.435  1.00  0.00     0.189 HD
BRANCH  21  23
HETATM   23  N   UNL     1      -4.292   2.988 -30.570  1.00  0.00    -0.266 N 
HETATM   24  C   UNL     1      -5.256   1.999 -30.590  1.00  0.00     0.260 C 
HETATM   25  O   UNL     1      -6.395   2.140 -30.147  1.00  0.00    -0.269 OA
HETATM   26  H   UNL     1      -3.447   2.870 -31.128  1.00  0.00     0.190 HD
BRANCH  24  27
HETATM   27  C   UNL     1      -4.790   0.692 -31.230  1.00  0.00     0.280 C 
BRANCH  27  28
HETATM   28  O   UNL     1      -4.999   0.713 -32.639  1.00  0.00    -0.340 OA
BRANCH  28  29
HETATM   29  C   UNL     1      -5.241  -0.481 -33.263  1.00  0.00     0.091 A 
HETATM   30  C   UNL     1      -6.587  -0.808 -33.507  1.00  0.00     0.068 A 
HETATM   31 CL   UNL     1      -7.863   0.271 -33.054  1.00  0.00    -0.081 Cl
HETATM   32  C   UNL     1      -6.934  -2.007 -34.131  1.00  0.00     0.046 A 
HETATM   33  C   UNL     1      -5.931  -2.894 -34.510  1.00  0.00     0.012 A 
HETATM   34 BR   UNL     1      -6.386  -4.521 -35.356  1.00  0.00    -0.051 Br
HETATM   35  C   UNL     1      -4.593  -2.593 -34.266  1.00  0.00     0.022 A 
HETATM   36  C   UNL     1      -4.247  -1.389 -33.642  1.00  0.00     0.040 A 
ENDBRANCH  28  29
ENDBRANCH  27  28
ENDBRANCH  24  27
ENDBRANCH  21  23
ENDBRANCH  19  21
ENDBRANCH   1  19
TORSDOF 10
ENDMDL
MODEL 2
REMARK VINA RESULT:      -8.3      1.914      2.792
REMARK  10 active torsions:
REMARK  status: ('A' for Active; 'I' for Inactive)
REMARK    1  A    between atoms: C_4  and  N_5 
REMARK    2  A    between atoms: N_5  and  C_6 
REMARK    3  A    between atoms: C_6  and  N_7 
REMARK    4  A    between atoms: N_7  and  N_8 
REMARK       I    between atoms: N_8  and  C_9 
REMARK    5  A    between atoms: C_9  and  C_10 
REMARK    6  A    between atoms: C_10  and  O_11 
REMARK    7  A    between atoms: O_11  and  C_12 
REMARK    8  A    between atoms: C_22  and  C_23 
REMARK    9  A    between atoms: C_23  and  O_24 
REMARK   10  A    between atoms: C_27  and  C_28 
ROOT
HETATM    1  N   UNL     1      -2.610   6.836 -33.126  1.00  0.00    -0.228 NA
HETATM    2  H   UNL     1      -1.779   6.755 -33.706  1.00  0.00     0.136 HD
ENDROOT
BRANCH   1   3
HETATM    3  C   UNL     1      -2.298   7.175 -31.817  1.00  0.00     0.073 C 
HETATM    4  S   UNL     1      -3.245   8.483 -31.279  1.00  0.00    -0.081 SA
HETATM    5  C   UNL     1      -2.344   8.630 -29.837  1.00  0.00    -0.007 C 
HETATM    6  C   UNL     1      -2.626   9.777 -28.918  1.00  0.00     0.057 C 
HETATM    7  C   UNL     1      -1.427   7.596 -29.707  1.00  0.00     0.005 C 
HETATM    8  C   UNL     1      -1.469   6.670 -30.832  1.00  0.00     0.080 C 
BRANCH   7   9
HETATM    9  C   UNL     1      -0.514   7.551 -28.568  1.00  0.00    -0.024 A 
HETATM   10  C   UNL     1      -0.855   6.786 -27.444  1.00  0.00     0.012 A 
HETATM   11  C   UNL     1       0.008   6.723 -26.349  1.00  0.00     0.001 A 
HETATM   12  C   UNL     1       1.215   7.419 -26.374  1.00  0.00     0.000 A 
HETATM   13  C   UNL     1       1.560   8.182 -27.489  1.00  0.00     0.001 A 
HETATM   14  C   UNL     1       0.696   8.253 -28.584  1.00  0.00     0.012 A 
ENDBRANCH   7   9
BRANCH   8  15
HETATM   15  C   UNL     1      -0.774   5.385 -30.918  1.00  0.00     0.296 C 
HETATM   16  O   UNL     1      -1.343   4.316 -31.106  1.00  0.00    -0.259 OA
BRANCH  15  17
HETATM   17  O   UNL     1       0.572   5.491 -30.717  1.00  0.00    -0.322 OA
HETATM   18  C   UNL     1       1.094   4.615 -29.719  1.00  0.00     0.213 C 
ENDBRANCH  15  17
ENDBRANCH   8  15
ENDBRANCH   1   3
BRANCH   1  19
HETATM   19  C   UNL     1      -3.448   5.779 -33.413  1.00  0.00     0.170 C 
HETATM   20  S   UNL     1      -3.563   5.307 -35.022  1.00  0.00    -0.045 SA
BRANCH  19  21
HETATM   21  N   UNL     1      -4.063   5.146 -32.362  1.00  0.00    -0.278 N 
HETATM   22  H   UNL     1      -4.892   5.628 -31.994  1.00  0.00     0.189 HD
BRANCH  21  23
HETATM   23  N   UNL     1      -4.173   3.743 -32.344  1.00  0.00    -0.266 N 
HETATM   24  C   UNL     1      -5.135   3.147 -31.553  1.00  0.00     0.260 C 
HETATM   25  O   UNL     1      -5.796   3.745 -30.704  1.00  0.00    -0.269 OA
HETATM   26  H   UNL     1      -3.813   3.239 -33.154  1.00  0.00     0.190 HD
BRANCH  24  27
HETATM   27  C   UNL     1      -5.328   1.657 -31.830  1.00  0.00     0.280 C 
BRANCH  27  28
HETATM   28  O   UNL     1      -5.347   1.398 -33.231  1.00  0.00    -0.340 OA
BRANCH  28  29
HETATM   29  C   UNL     1      -5.492   0.098 -33.634  1.00  0.00     0.091 A 
HETATM   30  C   UNL     1      -6.667  -0.220 -34.340  1.00  0.00     0.068 A 
HETATM   31 CL   UNL     1      -7.850   0.992 -34.693  1.00  0.00    -0.081 Cl
HETATM   32  C   UNL     1      -6.907  -1.520 -34.787  1.00  0.00     0.046 A 
HETATM   33  C   UNL     1      -5.973  -2.516 -34.521  1.00  0.00     0.012 A 
HETATM   34 BR   UNL     1      -6.286  -4.282 -35.120  1.00  0.00    -0.051 Br
HETATM   35  C   UNL     1      -4.809  -2.223 -33.814  1.00  0.00     0.022 A 
HETATM   36  C   UNL     1      -4.569  -0.918 -33.368  1.00  0.00     0.040 A 
ENDBRANCH  28  29
ENDBRANCH  27  28
ENDBRANCH  24  27
ENDBRANCH  21  23
ENDBRANCH  19  21
ENDBRANCH   1  19
TORSDOF 10
ENDMDL
MODEL 3
REMARK VINA RESULT:      -8.2      1.676      1.957
REMARK  10 active torsions:
REMARK  status: ('A' for Active; 'I' for Inactive)
REMARK    1  A    between atoms: C_4  and  N_5 
REMARK    2  A    between atoms: N_5  and  C_6 
REMARK    3  A    between atoms: C_6  and  N_7 
REMARK    4  A    between atoms: N_7  and  N_8 
REMARK       I    between atoms: N_8  and  C_9 
REMARK    5  A    between atoms: C_9  and  C_10 
REMARK    6  A    between atoms: C_10  and  O_11 
REMARK    7  A    between atoms: O_11  and  C_12 
REMARK    8  A    between atoms: C_22  and  C_23 
REMARK    9  A    between atoms: C_23  and  O_24 
REMARK   10  A    between atoms: C_27  and  C_28 
ROOT
HETATM    1  N   UNL     1      -2.995   6.757 -32.850  1.00  0.00    -0.228 NA
HETATM    2  H   UNL     1      -2.674   6.543 -33.791  1.00  0.00     0.136 HD
ENDROOT
BRANCH   1   3
HETATM    3  C   UNL     1      -1.960   6.710 -31.926  1.00  0.00     0.073 C 
HETATM    4  S   UNL     1      -0.860   5.465 -32.298  1.00  0.00    -0.081 SA
HETATM    5  C   UNL     1      -0.016   5.679 -30.831  1.00  0.00    -0.007 C 
HETATM    6  C   UNL     1       1.074   4.719 -30.474  1.00  0.00     0.057 C 
HETATM    7  C   UNL     1      -0.483   6.787 -30.137  1.00  0.00     0.005 C 
HETATM    8  C   UNL     1      -1.568   7.466 -30.836  1.00  0.00     0.080 C 
BRANCH   7   9
HETATM    9  C   UNL     1       0.065   7.130 -28.827  1.00  0.00    -0.024 A 
HETATM   10  C   UNL     1       1.058   8.115 -28.735  1.00  0.00     0.012 A 
HETATM   11  C   UNL     1       1.588   8.462 -27.491  1.00  0.00     0.001 A 
HETATM   12  C   UNL     1       1.127   7.832 -26.337  1.00  0.00     0.000 A 
HETATM   13  C   UNL     1       0.140   6.850 -26.423  1.00  0.00     0.001 A 
HETATM   14  C   UNL     1      -0.388   6.495 -27.666  1.00  0.00     0.012 A 
ENDBRANCH   7   9
BRANCH   8  15
HETATM   15  C   UNL     1      -2.152   8.758 -30.475  1.00  0.00     0.296 C 
HETATM   16  O   UNL     1      -2.275   9.690 -31.261  1.00  0.00    -0.259 OA
BRANCH  15  17
HETATM   17  O   UNL     1      -2.499   8.838 -29.158  1.00  0.00    -0.322 OA
HETATM   18  C   UNL     1      -2.136  10.063 -28.521  1.00  0.00     0.213 C 
ENDBRANCH  15  17
ENDBRANCH   8  15
ENDBRANCH   1   3
BRANCH   1  19
HETATM   19  C   UNL     1      -4.182   6.092 -32.631  1.00  0.00     0.170 C 
HETATM   20  S   UNL     1      -5.202   6.714 -31.447  1.00  0.00    -0.045 SA
BRANCH  19  21
HETATM   21  N   UNL     1      -4.478   5.024 -33.442  1.00  0.00    -0.278 N 
HETATM   22  H   UNL     1      -3.910   4.962 -34.296  1.00  0.00     0.189 HD
BRANCH  21  23
HETATM   23  N   UNL     1      -4.793   3.774 -32.880  1.00  0.00    -0.266 N 
HETATM   24  C   UNL     1      -6.102   3.332 -32.897  1.00  0.00     0.260 C 
HETATM   25  O   UNL     1      -7.062   4.038 -33.203  1.00  0.00    -0.269 OA
HETATM   26  H   UNL     1      -4.039   3.091 -32.815  1.00  0.00     0.190 HD
BRANCH  24  27
HETATM   27  C   UNL     1      -6.265   1.863 -32.511  1.00  0.00     0.280 C 
BRANCH  27  28
HETATM   28  O   UNL     1      -5.199   1.077 -33.037  1.00  0.00    -0.340 OA
BRANCH  28  29
HETATM   29  C   UNL     1      -5.511  -0.151 -33.556  1.00  0.00     0.091 A 
HETATM   30  C   UNL     1      -4.532  -1.154 -33.444  1.00  0.00     0.068 A 
HETATM   31 CL   UNL     1      -3.019  -0.840 -32.664  1.00  0.00    -0.081 Cl
HETATM   32  C   UNL     1      -4.755  -2.435 -33.949  1.00  0.00     0.046 A 
HETATM   33  C   UNL     1      -5.962  -2.720 -34.578  1.00  0.00     0.012 A 
HETATM   34 BR   UNL     1      -6.279  -4.451 -35.267  1.00  0.00    -0.051 Br
HETATM   35  C   UNL     1      -6.940  -1.736 -34.709  1.00  0.00     0.022 A 
HETATM   36  C   UNL     1      -6.715  -0.451 -34.200  1.00  0.00     0.040 A 
ENDBRANCH  28  29
ENDBRANCH  27  28
ENDBRANCH  24  27
ENDBRANCH  21  23
ENDBRANCH  19  21
ENDBRANCH   1  19
TORSDOF 10
ENDMDL
MODEL 4
REMARK VINA RESULT:      -8.1      4.459     10.026
REMARK  10 active torsions:
REMARK  status: ('A' for Active; 'I' for Inactive)
REMARK    1  A    between atoms: C_4  and  N_5 
REMARK    2  A    between atoms: N_5  and  C_6 
REMARK    3  A    between atoms: C_6  and  N_7 
REMARK    4  A    between atoms: N_7  and  N_8 
REMARK       I    between atoms: N_8  and  C_9 
REMARK    5  A    between atoms: C_9  and  C_10 
REMARK    6  A    between atoms: C_10  and  O_11 
REMARK    7  A    between atoms: O_11  and  C_12 
REMARK    8  A    between atoms: C_22  and  C_23 
REMARK    9  A    between atoms: C_23  and  O_24 
REMARK   10  A    between atoms: C_27  and  C_28 
ROOT
HETATM    1  N   UNL     1      -5.272   3.795 -29.082  1.00  0.00    -0.228 NA
HETATM    2  H   UNL     1      -4.348   3.401 -28.925  1.00  0.00     0.136 HD
ENDROOT
BRANCH   1   3
HETATM    3  C   UNL     1      -5.936   3.161 -30.123  1.00  0.00     0.073 C 
HETATM    4  S   UNL     1      -7.617   3.407 -30.020  1.00  0.00    -0.081 SA
HETATM    5  C   UNL     1      -7.925   2.297 -31.279  1.00  0.00    -0.007 C 
HETATM    6  C   UNL     1      -9.342   1.943 -31.605  1.00  0.00     0.057 C 
HETATM    7  C   UNL     1      -6.746   1.859 -31.865  1.00  0.00     0.005 C 
HETATM    8  C   UNL     1      -5.564   2.451 -31.251  1.00  0.00     0.080 C 
BRANCH   7   9
HETATM    9  C   UNL     1      -6.772   0.864 -32.935  1.00  0.00    -0.024 A 
HETATM   10  C   UNL     1      -6.928   1.286 -34.262  1.00  0.00     0.012 A 
HETATM   11  C   UNL     1      -6.947   0.351 -35.298  1.00  0.00     0.001 A 
HETATM   12  C   UNL     1      -6.805  -1.006 -35.014  1.00  0.00     0.000 A 
HETATM   13  C   UNL     1      -6.651  -1.432 -33.695  1.00  0.00     0.001 A 
HETATM   14  C   UNL     1      -6.638  -0.501 -32.655  1.00  0.00     0.012 A 
ENDBRANCH   7   9
BRANCH   8  15
HETATM   15  C   UNL     1      -4.191   2.348 -31.745  1.00  0.00     0.296 C 
HETATM   16  O   UNL     1      -3.681   1.298 -32.118  1.00  0.00    -0.259 OA
BRANCH  15  17
HETATM   17  O   UNL     1      -3.517   3.534 -31.702  1.00  0.00    -0.322 OA
HETATM   18  C   UNL     1      -2.775   3.838 -32.882  1.00  0.00     0.213 C 
ENDBRANCH  15  17
ENDBRANCH   8  15
ENDBRANCH   1   3
BRANCH   1  19
HETATM   19  C   UNL     1      -5.177   5.169 -29.024  1.00  0.00     0.170 C 
HETATM   20  S   UNL     1      -5.845   5.927 -27.679  1.00  0.00    -0.045 SA
BRANCH  19  21
HETATM   21  N   UNL     1      -4.483   5.807 -30.021  1.00  0.00    -0.278 N 
HETATM   22  H   UNL     1      -4.950   6.636 -30.409  1.00  0.00     0.189 HD
BRANCH  21  23
HETATM   23  N   UNL     1      -3.083   5.932 -29.944  1.00  0.00    -0.266 N 
HETATM   24  C   UNL     1      -2.444   6.888 -30.709  1.00  0.00     0.260 C 
HETATM   25  O   UNL     1      -2.988   7.527 -31.608  1.00  0.00    -0.269 OA
HETATM   26  H   UNL     1      -2.633   5.591 -29.095  1.00  0.00     0.190 HD
BRANCH  24  27
HETATM   27  C   UNL     1      -0.978   7.102 -30.333  1.00  0.00     0.280 C 
BRANCH  27  28
HETATM   28  O   UNL     1      -0.703   6.576 -29.038  1.00  0.00    -0.340 OA
BRANCH  28  29
HETATM   29  C   UNL     1      -0.088   7.401 -28.135  1.00  0.00     0.091 A 
HETATM   30  C   UNL     1      -0.765   7.631 -26.923  1.00  0.00     0.068 A 
HETATM   31 CL   UNL     1      -2.290   6.881 -26.597  1.00  0.00    -0.081 Cl
HETATM   32  C   UNL     1      -0.221   8.463 -25.944  1.00  0.00     0.046 A 
HETATM   33  C   UNL     1       1.004   9.079 -26.175  1.00  0.00     0.012 A 
HETATM   34 BR   UNL     1       1.752  10.209 -24.857  1.00  0.00    -0.051 Br
HETATM   35  C   UNL     1       1.684   8.872 -27.374  1.00  0.00     0.022 A 
HETATM   36  C   UNL     1       1.138   8.036 -28.354  1.00  0.00     0.040 A 
ENDBRANCH  28  29
ENDBRANCH  27  28
ENDBRANCH  24  27
ENDBRANCH  21  23
ENDBRANCH  19  21
ENDBRANCH   1  19
TORSDOF 10
ENDMDL
MODEL 5
REMARK VINA RESULT:      -8.0      5.137      9.406
REMARK  10 active torsions:
REMARK  status: ('A' for Active; 'I' for Inactive)
REMARK    1  A    between atoms: C_4  and  N_5 
REMARK    2  A    between atoms: N_5  and  C_6 
REMARK    3  A    between atoms: C_6  and  N_7 
REMARK    4  A    between atoms: N_7  and  N_8 
REMARK       I    between atoms: N_8  and  C_9 
REMARK    5  A    between atoms: C_9  and  C_10 
REMARK    6  A    between atoms: C_10  and  O_11 
REMARK    7  A    between atoms: O_11  and  C_12 
REMARK    8  A    between atoms: C_22  and  C_23 
REMARK    9  A    between atoms: C_23  and  O_24 
REMARK   10  A    between atoms: C_27  and  C_28 
ROOT
HETATM    1  N   UNL     1      -8.185   5.329 -34.231  1.00  0.00    -0.228 NA
HETATM    2  H   UNL     1      -7.986   6.134 -34.820  1.00  0.00     0.136 HD
ENDROOT
BRANCH   1   3
HETATM    3  C   UNL     1      -9.488   4.877 -34.394  1.00  0.00     0.073 C 
HETATM    4  S   UNL     1     -10.366   5.899 -35.435  1.00  0.00    -0.081 SA
HETATM    5  C   UNL     1     -11.832   5.091 -35.101  1.00  0.00    -0.007 C 
HETATM    6  C   UNL     1     -13.107   5.640 -35.660  1.00  0.00     0.057 C 
HETATM    7  C   UNL     1     -11.620   3.964 -34.319  1.00  0.00     0.005 C 
HETATM    8  C   UNL     1     -10.214   3.774 -33.984  1.00  0.00     0.080 C 
BRANCH   7   9
HETATM    9  C   UNL     1     -12.745   3.147 -33.871  1.00  0.00    -0.024 A 
HETATM   10  C   UNL     1     -13.175   2.075 -34.666  1.00  0.00     0.012 A 
HETATM   11  C   UNL     1     -14.243   1.279 -34.251  1.00  0.00     0.001 A 
HETATM   12  C   UNL     1     -14.883   1.545 -33.042  1.00  0.00     0.000 A 
HETATM   13  C   UNL     1     -14.460   2.611 -32.248  1.00  0.00     0.001 A 
HETATM   14  C   UNL     1     -13.396   3.415 -32.662  1.00  0.00     0.012 A 
ENDBRANCH   7   9
BRANCH   8  15
HETATM   15  C   UNL     1      -9.632   2.597 -33.339  1.00  0.00     0.296 C 
HETATM   16  O   UNL     1      -8.994   2.641 -32.293  1.00  0.00    -0.259 OA
BRANCH  15  17
HETATM   17  O   UNL     1      -9.829   1.447 -34.047  1.00  0.00    -0.322 OA
HETATM   18  C   UNL     1     -10.124   0.301 -33.249  1.00  0.00     0.213 C 
ENDBRANCH  15  17
ENDBRANCH   8  15
ENDBRANCH   1   3
BRANCH   1  19
HETATM   19  C   UNL     1      -7.659   5.563 -32.978  1.00  0.00     0.170 C 
HETATM   20  S   UNL     1      -8.641   6.361 -31.872  1.00  0.00    -0.045 SA
BRANCH  19  21
HETATM   21  N   UNL     1      -6.410   5.065 -32.705  1.00  0.00    -0.278 N 
HETATM   22  H   UNL     1      -5.897   5.568 -31.970  1.00  0.00     0.189 HD
BRANCH  21  23
HETATM   23  N   UNL     1      -6.185   3.676 -32.699  1.00  0.00    -0.266 N 
HETATM   24  C   UNL     1      -5.568   3.092 -31.610  1.00  0.00     0.260 C 
HETATM   25  O   UNL     1      -5.021   3.725 -30.708  1.00  0.00    -0.269 OA
HETATM   26  H   UNL     1      -6.786   3.107 -33.295  1.00  0.00     0.190 HD
BRANCH  24  27
HETATM   27  C   UNL     1      -5.631   1.565 -31.608  1.00  0.00     0.280 C 
BRANCH  27  28
HETATM   28  O   UNL     1      -4.782   1.020 -32.615  1.00  0.00    -0.340 OA
BRANCH  28  29
HETATM   29  C   UNL     1      -5.188  -0.134 -33.229  1.00  0.00     0.091 A 
HETATM   30  C   UNL     1      -4.313  -1.234 -33.154  1.00  0.00     0.068 A 
HETATM   31 CL   UNL     1      -2.811  -1.121 -32.302  1.00  0.00    -0.081 Cl
HETATM   32  C   UNL     1      -4.636  -2.451 -33.756  1.00  0.00     0.046 A 
HETATM   33  C   UNL     1      -5.837  -2.574 -34.446  1.00  0.00     0.012 A 
HETATM   34 BR   UNL     1      -6.287  -4.216 -35.266  1.00  0.00    -0.051 Br
HETATM   35  C   UNL     1      -6.711  -1.493 -34.541  1.00  0.00     0.022 A 
HETATM   36  C   UNL     1      -6.386  -0.273 -33.935  1.00  0.00     0.040 A 
ENDBRANCH  28  29
ENDBRANCH  27  28
ENDBRANCH  24  27
ENDBRANCH  21  23
ENDBRANCH  19  21
ENDBRANCH   1  19
TORSDOF 10
ENDMDL
MODEL 6
REMARK VINA RESULT:      -7.7      1.819      2.774
REMARK  10 active torsions:
REMARK  status: ('A' for Active; 'I' for Inactive)
REMARK    1  A    between atoms: C_4  and  N_5 
REMARK    2  A    between atoms: N_5  and  C_6 
REMARK    3  A    between atoms: C_6  and  N_7 
REMARK    4  A    between atoms: N_7  and  N_8 
REMARK       I    between atoms: N_8  and  C_9 
REMARK    5  A    between atoms: C_9  and  C_10 
REMARK    6  A    between atoms: C_10  and  O_11 
REMARK    7  A    between atoms: O_11  and  C_12 
REMARK    8  A    between atoms: C_22  and  C_23 
REMARK    9  A    between atoms: C_23  and  O_24 
REMARK   10  A    between atoms: C_27  and  C_28 
ROOT
HETATM    1  N   UNL     1      -4.461   6.481 -30.685  1.00  0.00    -0.228 NA
HETATM    2  H   UNL     1      -4.614   7.310 -31.254  1.00  0.00     0.136 HD
ENDROOT
BRANCH   1   3
HETATM    3  C   UNL     1      -3.593   6.731 -29.631  1.00  0.00     0.073 C 
HETATM    4  S   UNL     1      -4.427   6.793 -28.148  1.00  0.00    -0.081 SA
HETATM    5  C   UNL     1      -3.041   7.333 -27.313  1.00  0.00    -0.007 C 
HETATM    6  C   UNL     1      -3.167   7.726 -25.875  1.00  0.00     0.057 C 
HETATM    7  C   UNL     1      -1.921   7.322 -28.133  1.00  0.00     0.005 C 
HETATM    8  C   UNL     1      -2.224   6.864 -29.483  1.00  0.00     0.080 C 
BRANCH   7   9
HETATM    9  C   UNL     1      -0.631   7.793 -27.636  1.00  0.00    -0.024 A 
HETATM   10  C   UNL     1      -0.312   9.155 -27.737  1.00  0.00     0.012 A 
HETATM   11  C   UNL     1       0.913   9.625 -27.260  1.00  0.00     0.001 A 
HETATM   12  C   UNL     1       1.820   8.742 -26.678  1.00  0.00     0.000 A 
HETATM   13  C   UNL     1       1.508   7.386 -26.576  1.00  0.00     0.001 A 
HETATM   14  C   UNL     1       0.287   6.910 -27.058  1.00  0.00     0.012 A 
ENDBRANCH   7   9
BRANCH   8  15
HETATM   15  C   UNL     1      -1.248   6.559 -30.530  1.00  0.00     0.296 C 
HETATM   16  O   UNL     1      -0.698   5.470 -30.649  1.00  0.00    -0.259 OA
BRANCH  15  17
HETATM   17  O   UNL     1      -0.973   7.628 -31.332  1.00  0.00    -0.322 OA
HETATM   18  C   UNL     1      -1.208   7.404 -32.721  1.00  0.00     0.213 C 
ENDBRANCH  15  17
ENDBRANCH   8  15
ENDBRANCH   1   3
BRANCH   1  19
HETATM   19  C   UNL     1      -4.281   5.402 -31.523  1.00  0.00     0.170 C 
HETATM   20  S   UNL     1      -4.651   5.623 -33.148  1.00  0.00    -0.045 SA
BRANCH  19  21
HETATM   21  N   UNL     1      -3.745   4.257 -30.987  1.00  0.00    -0.278 N 
HETATM   22  H   UNL     1      -3.443   4.340 -30.009  1.00  0.00     0.189 HD
BRANCH  21  23
HETATM   23  N   UNL     1      -4.294   3.001 -31.304  1.00  0.00    -0.266 N 
HETATM   24  C   UNL     1      -5.481   2.610 -30.714  1.00  0.00     0.260 C 
HETATM   25  O   UNL     1      -6.010   3.203 -29.775  1.00  0.00    -0.269 OA
HETATM   26  H   UNL     1      -4.022   2.587 -32.195  1.00  0.00     0.190 HD
BRANCH  24  27
HETATM   27  C   UNL     1      -6.102   1.363 -31.341  1.00  0.00     0.280 C 
BRANCH  27  28
HETATM   28  O   UNL     1      -5.650   1.188 -32.681  1.00  0.00    -0.340 OA
BRANCH  28  29
HETATM   29  C   UNL     1      -5.833  -0.041 -33.257  1.00  0.00     0.091 A 
HETATM   30  C   UNL     1      -4.686  -0.836 -33.433  1.00  0.00     0.068 A 
HETATM   31 CL   UNL     1      -3.130  -0.281 -32.919  1.00  0.00    -0.081 Cl
HETATM   32  C   UNL     1      -4.771  -2.100 -34.018  1.00  0.00     0.046 A 
HETATM   33  C   UNL     1      -6.009  -2.575 -34.439  1.00  0.00     0.012 A 
HETATM   34 BR   UNL     1      -6.139  -4.285 -35.233  1.00  0.00    -0.051 Br
HETATM   35  C   UNL     1      -7.155  -1.797 -34.283  1.00  0.00     0.022 A 
HETATM   36  C   UNL     1      -7.067  -0.530 -33.695  1.00  0.00     0.040 A 
ENDBRANCH  28  29
ENDBRANCH  27  28
ENDBRANCH  24  27
ENDBRANCH  21  23
ENDBRANCH  19  21
ENDBRANCH   1  19
TORSDOF 10
ENDMDL
MODEL 7
REMARK VINA RESULT:      -7.6      4.138      9.492
REMARK  10 active torsions:
REMARK  status: ('A' for Active; 'I' for Inactive)
REMARK    1  A    between atoms: C_4  and  N_5 
REMARK    2  A    between atoms: N_5  and  C_6 
REMARK    3  A    between atoms: C_6  and  N_7 
REMARK    4  A    between atoms: N_7  and  N_8 
REMARK       I    between atoms: N_8  and  C_9 
REMARK    5  A    between atoms: C_9  and  C_10 
REMARK    6  A    between atoms: C_10  and  O_11 
REMARK    7  A    between atoms: O_11  and  C_12 
REMARK    8  A    between atoms: C_22  and  C_23 
REMARK    9  A    between atoms: C_23  and  O_24 
REMARK   10  A    between atoms: C_27  and  C_28 
ROOT
HETATM    1  N   UNL     1      -5.491   3.683 -29.234  1.00  0.00    -0.228 NA
HETATM    2  H   UNL     1      -4.655   3.184 -28.942  1.00  0.00     0.136 HD
ENDROOT
BRANCH   1   3
HETATM    3  C   UNL     1      -6.112   3.066 -30.312  1.00  0.00     0.073 C 
HETATM    4  S   UNL     1      -7.757   3.493 -30.400  1.00  0.00    -0.081 SA
HETATM    5  C   UNL     1      -8.057   2.354 -31.635  1.00  0.00    -0.007 C 
HETATM    6  C   UNL     1      -9.464   2.135 -32.095  1.00  0.00     0.057 C 
HETATM    7  C   UNL     1      -6.880   1.763 -32.072  1.00  0.00     0.005 C 
HETATM    8  C   UNL     1      -5.709   2.260 -31.361  1.00  0.00     0.080 C 
BRANCH   7   9
HETATM    9  C   UNL     1      -6.907   0.719 -33.094  1.00  0.00    -0.024 A 
HETATM   10  C   UNL     1      -7.139   1.072 -34.431  1.00  0.00     0.012 A 
HETATM   11  C   UNL     1      -7.161   0.090 -35.422  1.00  0.00     0.001 A 
HETATM   12  C   UNL     1      -6.946  -1.245 -35.085  1.00  0.00     0.000 A 
HETATM   13  C   UNL     1      -6.715  -1.603 -33.756  1.00  0.00     0.001 A 
HETATM   14  C   UNL     1      -6.700  -0.624 -32.760  1.00  0.00     0.012 A 
ENDBRANCH   7   9
BRANCH   8  15
HETATM   15  C   UNL     1      -4.312   1.986 -31.701  1.00  0.00     0.296 C 
HETATM   16  O   UNL     1      -3.720   2.525 -32.629  1.00  0.00    -0.259 OA
BRANCH  15  17
HETATM   17  O   UNL     1      -3.748   1.028 -30.909  1.00  0.00    -0.322 OA
HETATM   18  C   UNL     1      -3.201  -0.082 -31.620  1.00  0.00     0.213 C 
ENDBRANCH  15  17
ENDBRANCH   8  15
ENDBRANCH   1   3
BRANCH   1  19
HETATM   19  C   UNL     1      -5.215   5.033 -29.243  1.00  0.00     0.170 C 
HETATM   20  S   UNL     1      -5.653   5.914 -27.879  1.00  0.00    -0.045 SA
BRANCH  19  21
HETATM   21  N   UNL     1      -4.538   5.542 -30.323  1.00  0.00    -0.278 N 
HETATM   22  H   UNL     1      -4.625   6.559 -30.446  1.00  0.00     0.189 HD
BRANCH  21  23
HETATM   23  N   UNL     1      -3.271   5.038 -30.669  1.00  0.00    -0.266 N 
HETATM   24  C   UNL     1      -2.567   5.621 -31.705  1.00  0.00     0.260 C 
HETATM   25  O   UNL     1      -3.046   6.443 -32.485  1.00  0.00    -0.269 OA
HETATM   26  H   UNL     1      -2.762   4.527 -29.948  1.00  0.00     0.190 HD
BRANCH  24  27
HETATM   27  C   UNL     1      -1.112   5.166 -31.798  1.00  0.00     0.280 C 
BRANCH  27  28
HETATM   28  O   UNL     1      -0.223   6.237 -31.497  1.00  0.00    -0.340 OA
BRANCH  28  29
HETATM   29  C   UNL     1      -0.319   6.813 -30.258  1.00  0.00     0.091 A 
HETATM   30  C   UNL     1       0.288   6.125 -29.191  1.00  0.00     0.068 A 
HETATM   31 CL   UNL     1       1.130   4.636 -29.454  1.00  0.00    -0.081 Cl
HETATM   32  C   UNL     1       0.237   6.629 -27.891  1.00  0.00     0.046 A 
HETATM   33  C   UNL     1      -0.430   7.825 -27.648  1.00  0.00     0.012 A 
HETATM   34 BR   UNL     1      -0.507   8.519 -25.891  1.00  0.00    -0.051 Br
HETATM   35  C   UNL     1      -1.046   8.515 -28.690  1.00  0.00     0.022 A 
HETATM   36  C   UNL     1      -0.993   8.008 -29.994  1.00  0.00     0.040 A 
ENDBRANCH  28  29
ENDBRANCH  27  28
ENDBRANCH  24  27
ENDBRANCH  21  23
ENDBRANCH  19  21
ENDBRANCH   1  19
TORSDOF 10
ENDMDL
MODEL 8
REMARK VINA RESULT:      -7.6      2.968      4.031
REMARK  10 active torsions:
REMARK  status: ('A' for Active; 'I' for Inactive)
REMARK    1  A    between atoms: C_4  and  N_5 
REMARK    2  A    between atoms: N_5  and  C_6 
REMARK    3  A    between atoms: C_6  and  N_7 
REMARK    4  A    between atoms: N_7  and  N_8 
REMARK       I    between atoms: N_8  and  C_9 
REMARK    5  A    between atoms: C_9  and  C_10 
REMARK    6  A    between atoms: C_10  and  O_11 
REMARK    7  A    between atoms: O_11  and  C_12 
REMARK    8  A    between atoms: C_22  and  C_23 
REMARK    9  A    between atoms: C_23  and  O_24 
REMARK   10  A    between atoms: C_27  and  C_28 
ROOT
HETATM    1  N   UNL     1      -6.939   4.894 -28.637  1.00  0.00    -0.228 NA
HETATM    2  H   UNL     1      -7.227   5.155 -27.698  1.00  0.00     0.136 HD
ENDROOT
BRANCH   1   3
HETATM    3  C   UNL     1      -5.703   5.431 -28.968  1.00  0.00     0.073 C 
HETATM    4  S   UNL     1      -5.167   6.520 -27.775  1.00  0.00    -0.081 SA
HETATM    5  C   UNL     1      -3.848   7.027 -28.732  1.00  0.00    -0.007 C 
HETATM    6  C   UNL     1      -2.996   8.160 -28.253  1.00  0.00     0.057 C 
HETATM    7  C   UNL     1      -3.740   6.263 -29.886  1.00  0.00     0.005 C 
HETATM    8  C   UNL     1      -4.778   5.243 -29.979  1.00  0.00     0.080 C 
BRANCH   7   9
HETATM    9  C   UNL     1      -2.708   6.556 -30.878  1.00  0.00    -0.024 A 
HETATM   10  C   UNL     1      -2.989   7.453 -31.918  1.00  0.00     0.012 A 
HETATM   11  C   UNL     1      -2.013   7.751 -32.869  1.00  0.00     0.001 A 
HETATM   12  C   UNL     1      -0.754   7.161 -32.785  1.00  0.00     0.000 A 
HETATM   13  C   UNL     1      -0.468   6.267 -31.753  1.00  0.00     0.001 A 
HETATM   14  C   UNL     1      -1.444   5.960 -30.802  1.00  0.00     0.012 A 
ENDBRANCH   7   9
BRANCH   8  15
HETATM   15  C   UNL     1      -4.840   4.163 -30.964  1.00  0.00     0.296 C 
HETATM   16  O   UNL     1      -4.048   3.228 -30.996  1.00  0.00    -0.259 OA
BRANCH  15  17
HETATM   17  O   UNL     1      -5.840   4.328 -31.876  1.00  0.00    -0.322 OA
HETATM   18  C   UNL     1      -5.413   4.830 -33.142  1.00  0.00     0.213 C 
ENDBRANCH  15  17
ENDBRANCH   8  15
ENDBRANCH   1   3
BRANCH   1  19
HETATM   19  C   UNL     1      -8.024   5.020 -29.478  1.00  0.00     0.170 C 
HETATM   20  S   UNL     1      -8.587   6.576 -29.775  1.00  0.00    -0.045 SA
BRANCH  19  21
HETATM   21  N   UNL     1      -8.515   3.881 -30.066  1.00  0.00    -0.278 N 
HETATM   22  H   UNL     1      -9.037   4.037 -30.937  1.00  0.00     0.189 HD
BRANCH  21  23
HETATM   23  N   UNL     1      -7.753   2.699 -30.069  1.00  0.00    -0.266 N 
HETATM   24  C   UNL     1      -7.809   1.857 -31.163  1.00  0.00     0.260 C 
HETATM   25  O   UNL     1      -8.629   1.966 -32.074  1.00  0.00    -0.269 OA
HETATM   26  H   UNL     1      -6.932   2.674 -29.464  1.00  0.00     0.190 HD
BRANCH  24  27
HETATM   27  C   UNL     1      -6.741   0.764 -31.159  1.00  0.00     0.280 C 
BRANCH  27  28
HETATM   28  O   UNL     1      -6.070   0.703 -32.415  1.00  0.00    -0.340 OA
BRANCH  28  29
HETATM   29  C   UNL     1      -6.137  -0.472 -33.113  1.00  0.00     0.091 A 
HETATM   30  C   UNL     1      -4.920  -1.133 -33.361  1.00  0.00     0.068 A 
HETATM   31 CL   UNL     1      -3.422  -0.488 -32.782  1.00  0.00    -0.081 Cl
HETATM   32  C   UNL     1      -4.886  -2.334 -34.071  1.00  0.00     0.046 A 
HETATM   33  C   UNL     1      -6.074  -2.879 -34.547  1.00  0.00     0.012 A 
HETATM   34 BR   UNL     1      -6.043  -4.505 -35.510  1.00  0.00    -0.051 Br
HETATM   35  C   UNL     1      -7.288  -2.234 -34.321  1.00  0.00     0.022 A 
HETATM   36  C   UNL     1      -7.320  -1.030 -33.607  1.00  0.00     0.040 A 
ENDBRANCH  28  29
ENDBRANCH  27  28
ENDBRANCH  24  27
ENDBRANCH  21  23
ENDBRANCH  19  21
ENDBRANCH   1  19
TORSDOF 10
ENDMDL
MODEL 9
REMARK VINA RESULT:      -7.6      6.408      9.452
REMARK  10 active torsions:
REMARK  status: ('A' for Active; 'I' for Inactive)
REMARK    1  A    between atoms: C_4  and  N_5 
REMARK    2  A    between atoms: N_5  and  C_6 
REMARK    3  A    between atoms: C_6  and  N_7 
REMARK    4  A    between atoms: N_7  and  N_8 
REMARK       I    between atoms: N_8  and  C_9 
REMARK    5  A    between atoms: C_9  and  C_10 
REMARK    6  A    between atoms: C_10  and  O_11 
REMARK    7  A    between atoms: O_11  and  C_12 
REMARK    8  A    between atoms: C_22  and  C_23 
REMARK    9  A    between atoms: C_23  and  O_24 
REMARK   10  A    between atoms: C_27  and  C_28 
ROOT
HETATM    1  N   UNL     1      -6.756   3.378 -32.084  1.00  0.00    -0.228 NA
HETATM    2  H   UNL     1      -6.335   3.819 -31.270  1.00  0.00     0.136 HD
ENDROOT
BRANCH   1   3
HETATM    3  C   UNL     1      -6.347   2.059 -32.227  1.00  0.00     0.073 C 
HETATM    4  S   UNL     1      -5.076   1.690 -31.156  1.00  0.00    -0.081 SA
HETATM    5  C   UNL     1      -4.820   0.165 -31.878  1.00  0.00    -0.007 C 
HETATM    6  C   UNL     1      -3.656  -0.663 -31.432  1.00  0.00     0.057 C 
HETATM    7  C   UNL     1      -5.792  -0.114 -32.828  1.00  0.00     0.005 C 
HETATM    8  C   UNL     1      -6.764   0.965 -32.964  1.00  0.00     0.080 C 
BRANCH   7   9
HETATM    9  C   UNL     1      -5.739  -1.348 -33.607  1.00  0.00    -0.024 A 
HETATM   10  C   UNL     1      -4.494  -1.865 -33.990  1.00  0.00     0.012 A 
HETATM   11  C   UNL     1      -4.422  -3.048 -34.727  1.00  0.00     0.001 A 
HETATM   12  C   UNL     1      -5.590  -3.721 -35.080  1.00  0.00     0.000 A 
HETATM   13  C   UNL     1      -6.833  -3.211 -34.702  1.00  0.00     0.001 A 
HETATM   14  C   UNL     1      -6.909  -2.024 -33.970  1.00  0.00     0.012 A 
ENDBRANCH   7   9
BRANCH   8  15
HETATM   15  C   UNL     1      -8.007   0.914 -33.733  1.00  0.00     0.296 C 
HETATM   16  O   UNL     1      -8.182   1.520 -34.783  1.00  0.00    -0.259 OA
BRANCH  15  17
HETATM   17  O   UNL     1      -8.975   0.160 -33.134  1.00  0.00    -0.322 OA
HETATM   18  C   UNL     1      -9.334   0.588 -31.821  1.00  0.00     0.213 C 
ENDBRANCH  15  17
ENDBRANCH   8  15
ENDBRANCH   1   3
BRANCH   1  19
HETATM   19  C   UNL     1      -6.702   4.264 -33.139  1.00  0.00     0.170 C 
HETATM   20  S   UNL     1      -5.296   4.275 -34.059  1.00  0.00    -0.045 SA
BRANCH  19  21
HETATM   21  N   UNL     1      -7.822   5.013 -33.404  1.00  0.00    -0.278 N 
HETATM   22  H   UNL     1      -7.633   5.958 -33.758  1.00  0.00     0.189 HD
BRANCH  21  23
HETATM   23  N   UNL     1      -8.958   4.412 -33.976  1.00  0.00    -0.266 N 
HETATM   24  C   UNL     1     -10.022   4.064 -33.166  1.00  0.00     0.260 C 
HETATM   25  O   UNL     1      -9.980   4.067 -31.936  1.00  0.00    -0.269 OA
HETATM   26  H   UNL     1      -9.123   4.580 -34.967  1.00  0.00     0.190 HD
BRANCH  24  27
HETATM   27  C   UNL     1     -11.285   3.679 -33.935  1.00  0.00     0.280 C 
BRANCH  27  28
HETATM   28  O   UNL     1     -11.933   2.566 -33.324  1.00  0.00    -0.340 OA
BRANCH  28  29
HETATM   29  C   UNL     1     -13.237   2.725 -32.937  1.00  0.00     0.091 A 
HETATM   30  C   UNL     1     -14.094   1.626 -33.130  1.00  0.00     0.068 A 
HETATM   31 CL   UNL     1     -13.506   0.145 -33.805  1.00  0.00    -0.081 Cl
HETATM   32  C   UNL     1     -15.441   1.695 -32.774  1.00  0.00     0.046 A 
HETATM   33  C   UNL     1     -15.943   2.871 -32.227  1.00  0.00     0.012 A 
HETATM   34 BR   UNL     1     -17.766   2.978 -31.739  1.00  0.00    -0.051 Br
HETATM   35  C   UNL     1     -15.113   3.973 -32.038  1.00  0.00     0.022 A 
HETATM   36  C   UNL     1     -13.761   3.902 -32.395  1.00  0.00     0.040 A 
ENDBRANCH  28  29
ENDBRANCH  27  28
ENDBRANCH  24  27
ENDBRANCH  21  23
ENDBRANCH  19  21
ENDBRANCH   1  19
TORSDOF 10
ENDMDL
MODEL 10
REMARK VINA RESULT:      -7.6      1.800      2.310
REMARK  10 active torsions:
REMARK  status: ('A' for Active; 'I' for Inactive)
REMARK    1  A    between atoms: C_4  and  N_5 
REMARK    2  A    between atoms: N_5  and  C_6 
REMARK    3  A    between atoms: C_6  and  N_7 
REMARK    4  A    between atoms: N_7  and  N_8 
REMARK       I    between atoms: N_8  and  C_9 
REMARK    5  A    between atoms: C_9  and  C_10 
REMARK    6  A    between atoms: C_10  and  O_11 
REMARK    7  A    between atoms: O_11  and  C_12 
REMARK    8  A    between atoms: C_22  and  C_23 
REMARK    9  A    between atoms: C_23  and  O_24 
REMARK   10  A    between atoms: C_27  and  C_28 
ROOT
HETATM    1  N   UNL     1      -1.255   5.344 -32.059  1.00  0.00    -0.228 NA
HETATM    2  H   UNL     1      -0.443   4.762 -32.245  1.00  0.00     0.136 HD
ENDROOT
BRANCH   1   3
HETATM    3  C   UNL     1      -1.065   6.160 -30.952  1.00  0.00     0.073 C 
HETATM    4  S   UNL     1       0.383   5.774 -30.146  1.00  0.00    -0.081 SA
HETATM    5  C   UNL     1       0.014   6.813 -28.843  1.00  0.00    -0.007 C 
HETATM    6  C   UNL     1       0.912   6.823 -27.646  1.00  0.00     0.057 C 
HETATM    7  C   UNL     1      -1.132   7.554 -29.097  1.00  0.00     0.005 C 
HETATM    8  C   UNL     1      -1.718   7.245 -30.396  1.00  0.00     0.080 C 
BRANCH   7   9
HETATM    9  C   UNL     1      -1.660   8.474 -28.093  1.00  0.00    -0.024 A 
HETATM   10  C   UNL     1      -1.451   9.852 -28.247  1.00  0.00     0.012 A 
HETATM   11  C   UNL     1      -1.956  10.747 -27.303  1.00  0.00     0.001 A 
HETATM   12  C   UNL     1      -2.673  10.273 -26.206  1.00  0.00     0.000 A 
HETATM   13  C   UNL     1      -2.883   8.903 -26.047  1.00  0.00     0.001 A 
HETATM   14  C   UNL     1      -2.374   8.003 -26.986  1.00  0.00     0.012 A 
ENDBRANCH   7   9
BRANCH   8  15
HETATM   15  C   UNL     1      -2.809   7.973 -31.044  1.00  0.00     0.296 C 
HETATM   16  O   UNL     1      -2.641   8.802 -31.930  1.00  0.00    -0.259 OA
BRANCH  15  17
HETATM   17  O   UNL     1      -4.035   7.670 -30.525  1.00  0.00    -0.322 OA
HETATM   18  C   UNL     1      -5.049   7.428 -31.500  1.00  0.00     0.213 C 
ENDBRANCH  15  17
ENDBRANCH   8  15
ENDBRANCH   1   3
BRANCH   1  19
HETATM   19  C   UNL     1      -2.388   4.569 -32.193  1.00  0.00     0.170 C 
HETATM   20  S   UNL     1      -3.288   4.766 -33.599  1.00  0.00    -0.045 SA
BRANCH  19  21
HETATM   21  N   UNL     1      -2.654   3.648 -31.211  1.00  0.00    -0.278 N 
HETATM   22  H   UNL     1      -2.866   4.049 -30.290  1.00  0.00     0.189 HD
BRANCH  21  23
HETATM   23  N   UNL     1      -3.396   2.490 -31.508  1.00  0.00    -0.266 N 
HETATM   24  C   UNL     1      -4.663   2.341 -30.977  1.00  0.00     0.260 C 
HETATM   25  O   UNL     1      -5.131   3.067 -30.101  1.00  0.00    -0.269 OA
HETATM   26  H   UNL     1      -3.153   1.988 -32.361  1.00  0.00     0.190 HD
BRANCH  24  27
HETATM   27  C   UNL     1      -5.459   1.188 -31.588  1.00  0.00     0.280 C 
BRANCH  27  28
HETATM   28  O   UNL     1      -5.094   0.984 -32.950  1.00  0.00    -0.340 OA
BRANCH  28  29
HETATM   29  C   UNL     1      -5.285  -0.265 -33.477  1.00  0.00     0.091 A 
HETATM   30  C   UNL     1      -6.492  -0.485 -34.165  1.00  0.00     0.068 A 
HETATM   31 CL   UNL     1      -7.659   0.780 -34.345  1.00  0.00    -0.081 Cl
HETATM   32  C   UNL     1      -6.780  -1.728 -34.731  1.00  0.00     0.046 A 
HETATM   33  C   UNL     1      -5.861  -2.764 -34.606  1.00  0.00     0.012 A 
HETATM   34 BR   UNL     1      -6.238  -4.452 -35.368  1.00  0.00    -0.051 Br
HETATM   35  C   UNL     1      -4.665  -2.569 -33.919  1.00  0.00     0.022 A 
HETATM   36  C   UNL     1      -4.377  -1.321 -33.353  1.00  0.00     0.040 A 
ENDBRANCH  28  29
ENDBRANCH  27  28
ENDBRANCH  24  27
ENDBRANCH  21  23
ENDBRANCH  19  21
ENDBRANCH   1  19
TORSDOF 10
ENDMDL
