MODEL 1
REMARK VINA RESULT:      -8.7      0.000      0.000
REMARK  4 active torsions:
REMARK  status: ('A' for Active; 'I' for Inactive)
REMARK    1  A    between atoms: C_6  and  N_7 
REMARK       I    between atoms: N_7  and  C_8 
REMARK    2  A    between atoms: C_8  and  C_9 
REMARK    3  A    between atoms: C_10  and  C_11 
REMARK    4  A    between atoms: C_12  and  O_13 
ROOT
HETATM    1  C   UNL     1      -8.059   1.900 -33.943  1.00  0.00     0.063 C 
HETATM    2  C   UNL     1      -7.430   3.288 -34.003  1.00  0.00     0.205 C 
HETATM    3  N   UNL     1      -8.438   4.321 -33.721  1.00  0.00    -0.084 N 
HETATM    4  C   UNL     1      -9.696   4.056 -33.245  1.00  0.00     0.725 A 
HETATM    5  N   UNL     1     -10.073   2.777 -33.046  1.00  0.00    -0.192 N 
HETATM    6  N   UNL     1      -8.280   5.640 -33.967  1.00  0.00    -0.149 NA
HETATM    7  C   UNL     1      -9.455   6.114 -33.539  1.00  0.00     0.275 A 
HETATM    8  N   UNL     1     -10.352   5.177 -33.094  1.00  0.00    -0.054 NA
HETATM    9  C   UNL     1      -9.305   1.691 -33.450  1.00  0.00     0.037 C 
HETATM   10  C   UNL     1      -9.945   0.335 -33.296  1.00  0.00     0.070 C 
HETATM   11  H   UNL     1     -11.021   2.596 -32.730  1.00  0.00     0.184 HD
ENDROOT
BRANCH   1  12
HETATM   12  C   UNL     1      -7.238   0.805 -34.516  1.00  0.00     0.256 C 
HETATM   13  N   UNL     1      -6.734  -0.023 -33.533  1.00  0.00    -0.323 N 
HETATM   14  H   UNL     1      -6.945   0.233 -32.578  1.00  0.00     0.169 HD
HETATM   15  O   UNL     1      -7.082   0.726 -35.725  1.00  0.00    -0.267 OA
BRANCH  13  16
HETATM   16  C   UNL     1      -5.949  -1.189 -33.700  1.00  0.00     0.041 A 
HETATM   17  C   UNL     1      -4.680  -1.250 -33.082  1.00  0.00    -0.035 A 
HETATM   18  C   UNL     1      -3.900  -2.414 -33.218  1.00  0.00     0.015 A 
HETATM   19  C   UNL     1      -4.119  -0.109 -32.276  1.00  0.00     0.050 C 
HETATM   20  C   UNL     1      -4.349  -3.507 -33.967  1.00  0.00    -0.061 A 
HETATM   21  C   UNL     1      -3.526  -4.756 -34.068  1.00  0.00     0.048 C 
HETATM   22  C   UNL     1      -5.606  -3.439 -34.566  1.00  0.00     0.009 A 
HETATM   23  C   UNL     1      -6.393  -2.289 -34.439  1.00  0.00     0.030 A 
ENDBRANCH  13  16
ENDBRANCH   1  12
BRANCH   2  24
HETATM   24  C   UNL     1      -6.246   3.463 -33.056  1.00  0.00     0.005 A 
HETATM   25  C   UNL     1      -5.056   4.079 -33.493  1.00  0.00     0.076 A 
HETATM   26  C   UNL     1      -3.984   4.225 -32.605  1.00  0.00     0.037 A 
HETATM   27  C   UNL     1      -4.087   3.775 -31.287  1.00  0.00     0.003 A 
HETATM   28  C   UNL     1      -5.259   3.175 -30.843  1.00  0.00     0.001 A 
HETATM   29  C   UNL     1      -6.331   3.020 -31.719  1.00  0.00     0.012 A 
BRANCH  25  30
HETATM   30  O   UNL     1      -5.035   4.486 -34.802  1.00  0.00    -0.355 OA
HETATM   31  C   UNL     1      -3.881   5.190 -35.246  1.00  0.00     0.210 C 
ENDBRANCH  25  30
ENDBRANCH   2  24
TORSDOF 4
ENDMDL
MODEL 2
REMARK VINA RESULT:      -8.5      1.411      1.668
REMARK  4 active torsions:
REMARK  status: ('A' for Active; 'I' for Inactive)
REMARK    1  A    between atoms: C_6  and  N_7 
REMARK       I    between atoms: N_7  and  C_8 
REMARK    2  A    between atoms: C_8  and  C_9 
REMARK    3  A    between atoms: C_10  and  C_11 
REMARK    4  A    between atoms: C_12  and  O_13 
ROOT
HETATM    1  C   UNL     1      -8.660   1.564 -33.092  1.00  0.00     0.063 C 
HETATM    2  C   UNL     1      -7.897   2.878 -33.222  1.00  0.00     0.205 C 
HETATM    3  N   UNL     1      -8.749   3.908 -33.836  1.00  0.00    -0.084 N 
HETATM    4  C   UNL     1     -10.097   3.766 -34.041  1.00  0.00     0.725 A 
HETATM    5  N   UNL     1     -10.701   2.610 -33.701  1.00  0.00    -0.192 N 
HETATM    6  N   UNL     1      -8.301   5.078 -34.341  1.00  0.00    -0.149 NA
HETATM    7  C   UNL     1      -9.449   5.621 -34.760  1.00  0.00     0.275 A 
HETATM    8  N   UNL     1     -10.571   4.850 -34.600  1.00  0.00    -0.054 NA
HETATM    9  C   UNL     1      -9.998   1.482 -33.294  1.00  0.00     0.037 C 
HETATM   10  C   UNL     1     -10.814   0.228 -33.106  1.00  0.00     0.070 C 
HETATM   11  H   UNL     1     -11.693   2.507 -33.895  1.00  0.00     0.184 HD
ENDROOT
BRANCH   1  12
HETATM   12  C   UNL     1      -7.828   0.373 -32.791  1.00  0.00     0.256 C 
HETATM   13  N   UNL     1      -7.259  -0.154 -33.934  1.00  0.00    -0.323 N 
HETATM   14  H   UNL     1      -7.504   0.295 -34.805  1.00  0.00     0.169 HD
HETATM   15  O   UNL     1      -7.718  -0.022 -31.640  1.00  0.00    -0.267 OA
BRANCH  13  16
HETATM   16  C   UNL     1      -6.376  -1.255 -34.033  1.00  0.00     0.041 A 
HETATM   17  C   UNL     1      -5.056  -1.116 -33.550  1.00  0.00    -0.035 A 
HETATM   18  C   UNL     1      -4.175  -2.212 -33.618  1.00  0.00     0.015 A 
HETATM   19  C   UNL     1      -4.544   0.170 -32.959  1.00  0.00     0.050 C 
HETATM   20  C   UNL     1      -4.575  -3.433 -34.169  1.00  0.00    -0.061 A 
HETATM   21  C   UNL     1      -3.640  -4.605 -34.197  1.00  0.00     0.048 C 
HETATM   22  C   UNL     1      -5.882  -3.562 -34.637  1.00  0.00     0.009 A 
HETATM   23  C   UNL     1      -6.770  -2.483 -34.575  1.00  0.00     0.030 A 
ENDBRANCH  13  16
ENDBRANCH   1  12
BRANCH   2  24
HETATM   24  C   UNL     1      -7.348   3.398 -31.896  1.00  0.00     0.005 A 
HETATM   25  C   UNL     1      -5.992   3.758 -31.768  1.00  0.00     0.076 A 
HETATM   26  C   UNL     1      -5.514   4.230 -30.540  1.00  0.00     0.037 A 
HETATM   27  C   UNL     1      -6.371   4.358 -29.444  1.00  0.00     0.003 A 
HETATM   28  C   UNL     1      -7.712   4.014 -29.564  1.00  0.00     0.001 A 
HETATM   29  C   UNL     1      -8.199   3.538 -30.779  1.00  0.00     0.012 A 
BRANCH  25  30
HETATM   30  O   UNL     1      -5.217   3.598 -32.887  1.00  0.00    -0.355 OA
HETATM   31  C   UNL     1      -3.868   4.042 -32.814  1.00  0.00     0.210 C 
ENDBRANCH  25  30
ENDBRANCH   2  24
TORSDOF 4
ENDMDL
MODEL 3
REMARK VINA RESULT:      -8.4      2.698      4.432
REMARK  4 active torsions:
REMARK  status: ('A' for Active; 'I' for Inactive)
REMARK    1  A    between atoms: C_6  and  N_7 
REMARK       I    between atoms: N_7  and  C_8 
REMARK    2  A    between atoms: C_8  and  C_9 
REMARK    3  A    between atoms: C_10  and  C_11 
REMARK    4  A    between atoms: C_12  and  O_13 
ROOT
HETATM    1  C   UNL     1      -5.873   2.196 -31.018  1.00  0.00     0.063 C 
HETATM    2  C   UNL     1      -7.143   2.996 -30.746  1.00  0.00     0.205 C 
HETATM    3  N   UNL     1      -6.816   4.266 -30.080  1.00  0.00    -0.084 N 
HETATM    4  C   UNL     1      -5.543   4.754 -29.942  1.00  0.00     0.725 A 
HETATM    5  N   UNL     1      -4.502   4.032 -30.403  1.00  0.00    -0.192 N 
HETATM    6  N   UNL     1      -7.712   5.063 -29.459  1.00  0.00    -0.149 NA
HETATM    7  C   UNL     1      -6.915   6.052 -29.040  1.00  0.00     0.275 A 
HETATM    8  N   UNL     1      -5.579   5.899 -29.310  1.00  0.00    -0.054 NA
HETATM    9  C   UNL     1      -4.636   2.731 -30.877  1.00  0.00     0.037 C 
HETATM   10  C   UNL     1      -3.353   2.013 -31.205  1.00  0.00     0.070 C 
HETATM   11  H   UNL     1      -3.563   4.389 -30.258  1.00  0.00     0.184 HD
ENDROOT
BRANCH   1  12
HETATM   12  C   UNL     1      -6.086   0.774 -31.388  1.00  0.00     0.256 C 
HETATM   13  N   UNL     1      -5.864   0.559 -32.734  1.00  0.00    -0.323 N 
HETATM   14  H   UNL     1      -5.633   1.373 -33.287  1.00  0.00     0.169 HD
HETATM   15  O   UNL     1      -6.417  -0.037 -30.537  1.00  0.00    -0.267 OA
BRANCH  13  16
HETATM   16  C   UNL     1      -5.927  -0.668 -33.437  1.00  0.00     0.041 A 
HETATM   17  C   UNL     1      -4.748  -1.431 -33.582  1.00  0.00    -0.035 A 
HETATM   18  C   UNL     1      -4.801  -2.666 -34.256  1.00  0.00     0.015 A 
HETATM   19  C   UNL     1      -3.419  -0.975 -33.042  1.00  0.00     0.050 C 
HETATM   20  C   UNL     1      -5.997  -3.146 -34.800  1.00  0.00    -0.061 A 
HETATM   21  C   UNL     1      -6.048  -4.482 -35.478  1.00  0.00     0.048 C 
HETATM   22  C   UNL     1      -7.157  -2.388 -34.645  1.00  0.00     0.009 A 
HETATM   23  C   UNL     1      -7.120  -1.159 -33.977  1.00  0.00     0.030 A 
ENDBRANCH  13  16
ENDBRANCH   1  12
BRANCH   2  24
HETATM   24  C   UNL     1      -7.967   3.278 -32.000  1.00  0.00     0.005 A 
HETATM   25  C   UNL     1      -9.062   2.461 -32.343  1.00  0.00     0.076 A 
HETATM   26  C   UNL     1      -9.799   2.740 -33.500  1.00  0.00     0.037 A 
HETATM   27  C   UNL     1      -9.466   3.828 -34.310  1.00  0.00     0.003 A 
HETATM   28  C   UNL     1      -8.394   4.646 -33.975  1.00  0.00     0.001 A 
HETATM   29  C   UNL     1      -7.649   4.375 -32.829  1.00  0.00     0.012 A 
BRANCH  25  30
HETATM   30  O   UNL     1      -9.318   1.411 -31.499  1.00  0.00    -0.355 OA
HETATM   31  C   UNL     1      -9.707   0.178 -32.093  1.00  0.00     0.210 C 
ENDBRANCH  25  30
ENDBRANCH   2  24
TORSDOF 4
ENDMDL
MODEL 4
REMARK VINA RESULT:      -8.2      2.543      4.205
REMARK  4 active torsions:
REMARK  status: ('A' for Active; 'I' for Inactive)
REMARK    1  A    between atoms: C_6  and  N_7 
REMARK       I    between atoms: N_7  and  C_8 
REMARK    2  A    between atoms: C_8  and  C_9 
REMARK    3  A    between atoms: C_10  and  C_11 
REMARK    4  A    between atoms: C_12  and  O_13 
ROOT
HETATM    1  C   UNL     1      -5.749   2.214 -30.886  1.00  0.00     0.063 C 
HETATM    2  C   UNL     1      -7.046   2.899 -30.468  1.00  0.00     0.205 C 
HETATM    3  N   UNL     1      -6.763   4.209 -29.864  1.00  0.00    -0.084 N 
HETATM    4  C   UNL     1      -5.535   4.817 -29.891  1.00  0.00     0.725 A 
HETATM    5  N   UNL     1      -4.495   4.185 -30.469  1.00  0.00    -0.192 N 
HETATM    6  N   UNL     1      -7.649   4.933 -29.146  1.00  0.00    -0.149 NA
HETATM    7  C   UNL     1      -6.904   6.002 -28.842  1.00  0.00     0.275 A 
HETATM    8  N   UNL     1      -5.604   5.969 -29.273  1.00  0.00    -0.054 NA
HETATM    9  C   UNL     1      -4.561   2.867 -30.907  1.00  0.00     0.037 C 
HETATM   10  C   UNL     1      -3.264   2.264 -31.383  1.00  0.00     0.070 C 
HETATM   11  H   UNL     1      -3.583   4.632 -30.446  1.00  0.00     0.184 HD
ENDROOT
BRANCH   1  12
HETATM   12  C   UNL     1      -5.867   0.770 -31.210  1.00  0.00     0.256 C 
HETATM   13  N   UNL     1      -5.800   0.546 -32.571  1.00  0.00    -0.323 N 
HETATM   14  H   UNL     1      -5.722   1.364 -33.158  1.00  0.00     0.169 HD
HETATM   15  O   UNL     1      -6.007  -0.048 -30.314  1.00  0.00    -0.267 OA
BRANCH  13  16
HETATM   16  C   UNL     1      -5.833  -0.698 -33.246  1.00  0.00     0.041 A 
HETATM   17  C   UNL     1      -7.068  -1.173 -33.739  1.00  0.00    -0.035 A 
HETATM   18  C   UNL     1      -7.112  -2.395 -34.436  1.00  0.00     0.015 A 
HETATM   19  C   UNL     1      -8.358  -0.419 -33.546  1.00  0.00     0.050 C 
HETATM   20  C   UNL     1      -5.957  -3.158 -34.637  1.00  0.00    -0.061 A 
HETATM   21  C   UNL     1      -6.011  -4.437 -35.418  1.00  0.00     0.048 C 
HETATM   22  C   UNL     1      -4.742  -2.676 -34.154  1.00  0.00     0.009 A 
HETATM   23  C   UNL     1      -4.682  -1.463 -33.460  1.00  0.00     0.030 A 
ENDBRANCH  13  16
ENDBRANCH   1  12
BRANCH   2  24
HETATM   24  C   UNL     1      -8.041   3.072 -31.613  1.00  0.00     0.005 A 
HETATM   25  C   UNL     1      -7.661   3.717 -32.808  1.00  0.00     0.076 A 
HETATM   26  C   UNL     1      -8.593   3.865 -33.841  1.00  0.00     0.037 A 
HETATM   27  C   UNL     1      -9.893   3.370 -33.704  1.00  0.00     0.003 A 
HETATM   28  C   UNL     1     -10.273   2.725 -32.533  1.00  0.00     0.001 A 
HETATM   29  C   UNL     1      -9.356   2.576 -31.495  1.00  0.00     0.012 A 
BRANCH  25  30
HETATM   30  O   UNL     1      -6.371   4.177 -32.860  1.00  0.00    -0.355 OA
HETATM   31  C   UNL     1      -5.719   4.143 -34.124  1.00  0.00     0.210 C 
ENDBRANCH  25  30
ENDBRANCH   2  24
TORSDOF 4
ENDMDL
MODEL 5
REMARK VINA RESULT:      -8.1      2.741      6.065
REMARK  4 active torsions:
REMARK  status: ('A' for Active; 'I' for Inactive)
REMARK    1  A    between atoms: C_6  and  N_7 
REMARK       I    between atoms: N_7  and  C_8 
REMARK    2  A    between atoms: C_8  and  C_9 
REMARK    3  A    between atoms: C_10  and  C_11 
REMARK    4  A    between atoms: C_12  and  O_13 
ROOT
HETATM    1  C   UNL     1      -5.851   3.316 -31.363  1.00  0.00     0.063 C 
HETATM    2  C   UNL     1      -4.867   2.853 -32.433  1.00  0.00     0.205 C 
HETATM    3  N   UNL     1      -3.660   3.692 -32.418  1.00  0.00    -0.084 N 
HETATM    4  C   UNL     1      -3.369   4.600 -31.433  1.00  0.00     0.725 A 
HETATM    5  N   UNL     1      -4.241   4.782 -30.421  1.00  0.00    -0.192 N 
HETATM    6  N   UNL     1      -2.735   3.730 -33.401  1.00  0.00    -0.149 NA
HETATM    7  C   UNL     1      -1.877   4.625 -32.899  1.00  0.00     0.275 A 
HETATM    8  N   UNL     1      -2.230   5.186 -31.700  1.00  0.00    -0.054 NA
HETATM    9  C   UNL     1      -5.507   4.208 -30.403  1.00  0.00     0.037 C 
HETATM   10  C   UNL     1      -6.412   4.642 -29.278  1.00  0.00     0.070 C 
HETATM   11  H   UNL     1      -4.029   5.487 -29.721  1.00  0.00     0.184 HD
ENDROOT
BRANCH   1  12
HETATM   12  C   UNL     1      -7.225   2.768 -31.484  1.00  0.00     0.256 C 
HETATM   13  N   UNL     1      -7.741   2.963 -32.750  1.00  0.00    -0.323 N 
HETATM   14  H   UNL     1      -7.158   3.471 -33.400  1.00  0.00     0.169 HD
HETATM   15  O   UNL     1      -7.755   2.228 -30.526  1.00  0.00    -0.267 OA
BRANCH  13  16
HETATM   16  C   UNL     1      -8.997   2.541 -33.247  1.00  0.00     0.041 A 
HETATM   17  C   UNL     1      -9.774   3.451 -33.999  1.00  0.00    -0.035 A 
HETATM   18  C   UNL     1     -11.013   3.036 -34.522  1.00  0.00     0.015 A 
HETATM   19  C   UNL     1      -9.328   4.864 -34.266  1.00  0.00     0.050 C 
HETATM   20  C   UNL     1     -11.500   1.744 -34.300  1.00  0.00    -0.061 A 
HETATM   21  C   UNL     1     -12.801   1.302 -34.899  1.00  0.00     0.048 C 
HETATM   22  C   UNL     1     -10.722   0.851 -33.563  1.00  0.00     0.009 A 
HETATM   23  C   UNL     1      -9.488   1.248 -33.037  1.00  0.00     0.030 A 
ENDBRANCH  13  16
ENDBRANCH   1  12
BRANCH   2  24
HETATM   24  C   UNL     1      -4.466   1.386 -32.301  1.00  0.00     0.005 A 
HETATM   25  C   UNL     1      -5.039   0.403 -33.133  1.00  0.00     0.076 A 
HETATM   26  C   UNL     1      -4.657  -0.935 -32.989  1.00  0.00     0.037 A 
HETATM   27  C   UNL     1      -3.704  -1.304 -32.036  1.00  0.00     0.003 A 
HETATM   28  C   UNL     1      -3.127  -0.341 -31.217  1.00  0.00     0.001 A 
HETATM   29  C   UNL     1      -3.503   0.994 -31.347  1.00  0.00     0.012 A 
BRANCH  25  30
HETATM   30  O   UNL     1      -5.969   0.847 -34.037  1.00  0.00    -0.355 OA
HETATM   31  C   UNL     1      -6.617  -0.134 -34.838  1.00  0.00     0.210 C 
ENDBRANCH  25  30
ENDBRANCH   2  24
TORSDOF 4
ENDMDL
MODEL 6
REMARK VINA RESULT:      -8.0      1.827      4.295
REMARK  4 active torsions:
REMARK  status: ('A' for Active; 'I' for Inactive)
REMARK    1  A    between atoms: C_6  and  N_7 
REMARK       I    between atoms: N_7  and  C_8 
REMARK    2  A    between atoms: C_8  and  C_9 
REMARK    3  A    between atoms: C_10  and  C_11 
REMARK    4  A    between atoms: C_12  and  O_13 
ROOT
HETATM    1  C   UNL     1      -7.194   2.846 -33.445  1.00  0.00     0.063 C 
HETATM    2  C   UNL     1      -8.506   2.749 -32.672  1.00  0.00     0.205 C 
HETATM    3  N   UNL     1      -8.615   3.852 -31.706  1.00  0.00    -0.084 N 
HETATM    4  C   UNL     1      -7.772   4.933 -31.677  1.00  0.00     0.725 A 
HETATM    5  N   UNL     1      -6.748   4.999 -32.552  1.00  0.00    -0.192 N 
HETATM    6  N   UNL     1      -9.502   3.901 -30.689  1.00  0.00    -0.149 NA
HETATM    7  C   UNL     1      -9.183   5.078 -30.139  1.00  0.00     0.275 A 
HETATM    8  N   UNL     1      -8.127   5.739 -30.710  1.00  0.00    -0.054 NA
HETATM    9  C   UNL     1      -6.402   3.944 -33.390  1.00  0.00     0.037 C 
HETATM   10  C   UNL     1      -5.137   4.125 -34.190  1.00  0.00     0.070 C 
HETATM   11  H   UNL     1      -6.110   5.786 -32.491  1.00  0.00     0.184 HD
ENDROOT
BRANCH   1  12
HETATM   12  C   UNL     1      -6.817   1.632 -34.211  1.00  0.00     0.256 C 
HETATM   13  N   UNL     1      -6.516   0.575 -33.374  1.00  0.00    -0.323 N 
HETATM   14  H   UNL     1      -6.549   0.764 -32.382  1.00  0.00     0.169 HD
HETATM   15  O   UNL     1      -6.802   1.658 -35.431  1.00  0.00    -0.267 OA
BRANCH  13  16
HETATM   16  C   UNL     1      -6.159  -0.745 -33.740  1.00  0.00     0.041 A 
HETATM   17  C   UNL     1      -4.824  -1.167 -33.551  1.00  0.00    -0.035 A 
HETATM   18  C   UNL     1      -4.461  -2.486 -33.885  1.00  0.00     0.015 A 
HETATM   19  C   UNL     1      -3.760  -0.256 -33.000  1.00  0.00     0.050 C 
HETATM   20  C   UNL     1      -5.393  -3.383 -34.417  1.00  0.00    -0.061 A 
HETATM   21  C   UNL     1      -5.002  -4.796 -34.730  1.00  0.00     0.048 C 
HETATM   22  C   UNL     1      -6.709  -2.958 -34.594  1.00  0.00     0.009 A 
HETATM   23  C   UNL     1      -7.085  -1.652 -34.265  1.00  0.00     0.030 A 
ENDBRANCH  13  16
ENDBRANCH   1  12
BRANCH   2  24
HETATM   24  C   UNL     1      -9.742   2.734 -33.567  1.00  0.00     0.005 A 
HETATM   25  C   UNL     1     -10.396   1.524 -33.875  1.00  0.00     0.076 A 
HETATM   26  C   UNL     1     -11.526   1.538 -34.701  1.00  0.00     0.037 A 
HETATM   27  C   UNL     1     -12.018   2.741 -35.212  1.00  0.00     0.003 A 
HETATM   28  C   UNL     1     -11.386   3.940 -34.907  1.00  0.00     0.001 A 
HETATM   29  C   UNL     1     -10.257   3.939 -34.091  1.00  0.00     0.012 A 
BRANCH  25  30
HETATM   30  O   UNL     1      -9.847   0.389 -33.338  1.00  0.00    -0.355 OA
HETATM   31  C   UNL     1     -10.743  -0.577 -32.802  1.00  0.00     0.210 C 
ENDBRANCH  25  30
ENDBRANCH   2  24
TORSDOF 4
ENDMDL
MODEL 7
REMARK VINA RESULT:      -8.0      2.106      4.432
REMARK  4 active torsions:
REMARK  status: ('A' for Active; 'I' for Inactive)
REMARK    1  A    between atoms: C_6  and  N_7 
REMARK       I    between atoms: N_7  and  C_8 
REMARK    2  A    between atoms: C_8  and  C_9 
REMARK    3  A    between atoms: C_10  and  C_11 
REMARK    4  A    between atoms: C_12  and  O_13 
ROOT
HETATM    1  C   UNL     1      -6.291   3.873 -32.496  1.00  0.00     0.063 C 
HETATM    2  C   UNL     1      -7.674   4.313 -32.026  1.00  0.00     0.205 C 
HETATM    3  N   UNL     1      -7.733   5.777 -31.903  1.00  0.00    -0.084 N 
HETATM    4  C   UNL     1      -6.762   6.625 -32.370  1.00  0.00     0.725 A 
HETATM    5  N   UNL     1      -5.658   6.114 -32.951  1.00  0.00    -0.192 N 
HETATM    6  N   UNL     1      -8.702   6.458 -31.254  1.00  0.00    -0.149 NA
HETATM    7  C   UNL     1      -8.287   7.716 -31.441  1.00  0.00     0.275 A 
HETATM    8  N   UNL     1      -7.103   7.862 -32.115  1.00  0.00    -0.054 NA
HETATM    9  C   UNL     1      -5.372   4.753 -32.962  1.00  0.00     0.037 C 
HETATM   10  C   UNL     1      -4.022   4.368 -33.510  1.00  0.00     0.070 C 
HETATM   11  H   UNL     1      -4.931   6.754 -33.256  1.00  0.00     0.184 HD
ENDROOT
BRANCH   1  12
HETATM   12  C   UNL     1      -6.002   2.424 -32.353  1.00  0.00     0.256 C 
HETATM   13  N   UNL     1      -6.176   1.749 -33.545  1.00  0.00    -0.323 N 
HETATM   14  H   UNL     1      -6.505   2.297 -34.328  1.00  0.00     0.169 HD
HETATM   15  O   UNL     1      -5.659   1.973 -31.271  1.00  0.00    -0.267 OA
BRANCH  13  16
HETATM   16  C   UNL     1      -5.954   0.375 -33.803  1.00  0.00     0.041 A 
HETATM   17  C   UNL     1      -6.901  -0.335 -34.574  1.00  0.00    -0.035 A 
HETATM   18  C   UNL     1      -6.679  -1.695 -34.861  1.00  0.00     0.015 A 
HETATM   19  C   UNL     1      -8.154   0.308 -35.106  1.00  0.00     0.050 C 
HETATM   20  C   UNL     1      -5.547  -2.363 -34.385  1.00  0.00    -0.061 A 
HETATM   21  C   UNL     1      -5.303  -3.801 -34.734  1.00  0.00     0.048 C 
HETATM   22  C   UNL     1      -4.614  -1.651 -33.632  1.00  0.00     0.009 A 
HETATM   23  C   UNL     1      -4.820  -0.298 -33.339  1.00  0.00     0.030 A 
ENDBRANCH  13  16
ENDBRANCH   1  12
BRANCH   2  24
HETATM   24  C   UNL     1      -8.807   3.833 -32.929  1.00  0.00     0.005 A 
HETATM   25  C   UNL     1      -9.590   2.716 -32.574  1.00  0.00     0.076 A 
HETATM   26  C   UNL     1     -10.621   2.296 -33.421  1.00  0.00     0.037 A 
HETATM   27  C   UNL     1     -10.889   2.980 -34.609  1.00  0.00     0.003 A 
HETATM   28  C   UNL     1     -10.129   4.088 -34.963  1.00  0.00     0.001 A 
HETATM   29  C   UNL     1      -9.096   4.513 -34.131  1.00  0.00     0.012 A 
BRANCH  25  30
HETATM   30  O   UNL     1      -9.259   2.098 -31.396  1.00  0.00    -0.355 OA
HETATM   31  C   UNL     1      -8.998   0.701 -31.444  1.00  0.00     0.210 C 
ENDBRANCH  25  30
ENDBRANCH   2  24
TORSDOF 4
ENDMDL
MODEL 8
REMARK VINA RESULT:      -7.9      4.908      8.598
REMARK  4 active torsions:
REMARK  status: ('A' for Active; 'I' for Inactive)
REMARK    1  A    between atoms: C_6  and  N_7 
REMARK       I    between atoms: N_7  and  C_8 
REMARK    2  A    between atoms: C_8  and  C_9 
REMARK    3  A    between atoms: C_10  and  C_11 
REMARK    4  A    between atoms: C_12  and  O_13 
ROOT
HETATM    1  C   UNL     1      -4.199   6.254 -30.327  1.00  0.00     0.063 C 
HETATM    2  C   UNL     1      -3.877   4.906 -30.964  1.00  0.00     0.205 C 
HETATM    3  N   UNL     1      -5.065   4.041 -30.965  1.00  0.00    -0.084 N 
HETATM    4  C   UNL     1      -6.329   4.473 -30.655  1.00  0.00     0.725 A 
HETATM    5  N   UNL     1      -6.519   5.757 -30.288  1.00  0.00    -0.192 N 
HETATM    6  N   UNL     1      -5.050   2.710 -31.194  1.00  0.00    -0.149 NA
HETATM    7  C   UNL     1      -6.352   2.425 -31.082  1.00  0.00     0.275 A 
HETATM    8  N   UNL     1      -7.168   3.475 -30.748  1.00  0.00    -0.054 NA
HETATM    9  C   UNL     1      -5.470   6.638 -30.052  1.00  0.00     0.037 C 
HETATM   10  C   UNL     1      -5.852   7.986 -29.495  1.00  0.00     0.070 C 
HETATM   11  H   UNL     1      -7.454   6.051 -30.023  1.00  0.00     0.184 HD
ENDROOT
BRANCH   1  12
HETATM   12  C   UNL     1      -3.023   7.089 -29.975  1.00  0.00     0.256 C 
HETATM   13  N   UNL     1      -2.453   6.688 -28.783  1.00  0.00    -0.323 N 
HETATM   14  H   UNL     1      -2.913   5.931 -28.297  1.00  0.00     0.169 HD
HETATM   15  O   UNL     1      -2.676   7.999 -30.712  1.00  0.00    -0.267 OA
BRANCH  13  16
HETATM   16  C   UNL     1      -1.299   7.215 -28.155  1.00  0.00     0.041 A 
HETATM   17  C   UNL     1      -1.269   7.298 -26.745  1.00  0.00    -0.035 A 
HETATM   18  C   UNL     1      -0.118   7.796 -26.106  1.00  0.00     0.015 A 
HETATM   19  C   UNL     1      -2.432   6.875 -25.887  1.00  0.00     0.050 C 
HETATM   20  C   UNL     1       0.993   8.224 -26.839  1.00  0.00    -0.061 A 
HETATM   21  C   UNL     1       2.228   8.712 -26.143  1.00  0.00     0.048 C 
HETATM   22  C   UNL     1       0.956   8.130 -28.229  1.00  0.00     0.009 A 
HETATM   23  C   UNL     1      -0.180   7.637 -28.879  1.00  0.00     0.030 A 
ENDBRANCH  13  16
ENDBRANCH   1  12
BRANCH   2  24
HETATM   24  C   UNL     1      -3.328   5.017 -32.384  1.00  0.00     0.005 A 
HETATM   25  C   UNL     1      -1.965   4.786 -32.652  1.00  0.00     0.076 A 
HETATM   26  C   UNL     1      -1.487   4.897 -33.963  1.00  0.00     0.037 A 
HETATM   27  C   UNL     1      -2.353   5.224 -35.009  1.00  0.00     0.003 A 
HETATM   28  C   UNL     1      -3.701   5.445 -34.757  1.00  0.00     0.001 A 
HETATM   29  C   UNL     1      -4.187   5.343 -33.455  1.00  0.00     0.012 A 
BRANCH  25  30
HETATM   30  O   UNL     1      -1.182   4.475 -31.570  1.00  0.00    -0.355 OA
HETATM   31  C   UNL     1      -0.015   5.262 -31.363  1.00  0.00     0.210 C 
ENDBRANCH  25  30
ENDBRANCH   2  24
TORSDOF 4
ENDMDL
MODEL 9
REMARK VINA RESULT:      -7.8      2.921      6.197
REMARK  4 active torsions:
REMARK  status: ('A' for Active; 'I' for Inactive)
REMARK    1  A    between atoms: C_6  and  N_7 
REMARK       I    between atoms: N_7  and  C_8 
REMARK    2  A    between atoms: C_8  and  C_9 
REMARK    3  A    between atoms: C_10  and  C_11 
REMARK    4  A    between atoms: C_12  and  O_13 
ROOT
HETATM    1  C   UNL     1      -7.473   0.940 -32.556  1.00  0.00     0.063 C 
HETATM    2  C   UNL     1      -6.899   2.070 -31.706  1.00  0.00     0.205 C 
HETATM    3  N   UNL     1      -5.430   2.018 -31.707  1.00  0.00    -0.084 N 
HETATM    4  C   UNL     1      -4.691   1.217 -32.539  1.00  0.00     0.725 A 
HETATM    5  N   UNL     1      -5.323   0.389 -33.395  1.00  0.00    -0.192 N 
HETATM    6  N   UNL     1      -4.634   2.687 -30.845  1.00  0.00    -0.149 NA
HETATM    7  C   UNL     1      -3.427   2.300 -31.271  1.00  0.00     0.275 A 
HETATM    8  N   UNL     1      -3.417   1.397 -32.302  1.00  0.00    -0.054 NA
HETATM    9  C   UNL     1      -6.698   0.185 -33.373  1.00  0.00     0.037 C 
HETATM   10  C   UNL     1      -7.221  -0.891 -34.290  1.00  0.00     0.070 C 
HETATM   11  H   UNL     1      -4.761  -0.226 -33.977  1.00  0.00     0.184 HD
ENDROOT
BRANCH   1  12
HETATM   12  C   UNL     1      -8.924   0.687 -32.380  1.00  0.00     0.256 C 
HETATM   13  N   UNL     1      -9.650   1.104 -33.479  1.00  0.00    -0.323 N 
HETATM   14  H   UNL     1      -9.128   1.549 -34.220  1.00  0.00     0.169 HD
HETATM   15  O   UNL     1      -9.336   0.169 -31.354  1.00  0.00    -0.267 OA
BRANCH  13  16
HETATM   16  C   UNL     1     -11.045   0.987 -33.690  1.00  0.00     0.041 A 
HETATM   17  C   UNL     1     -11.734   2.060 -34.298  1.00  0.00    -0.035 A 
HETATM   18  C   UNL     1     -13.117   1.947 -34.539  1.00  0.00     0.015 A 
HETATM   19  C   UNL     1     -11.045   3.336 -34.704  1.00  0.00     0.050 C 
HETATM   20  C   UNL     1     -13.826   0.798 -34.173  1.00  0.00    -0.061 A 
HETATM   21  C   UNL     1     -15.290   0.675 -34.474  1.00  0.00     0.048 C 
HETATM   22  C   UNL     1     -13.135  -0.257 -33.580  1.00  0.00     0.009 A 
HETATM   23  C   UNL     1     -11.761  -0.160 -33.336  1.00  0.00     0.030 A 
ENDBRANCH  13  16
ENDBRANCH   1  12
BRANCH   2  24
HETATM   24  C   UNL     1      -7.358   3.458 -32.146  1.00  0.00     0.005 A 
HETATM   25  C   UNL     1      -7.843   4.389 -31.206  1.00  0.00     0.076 A 
HETATM   26  C   UNL     1      -8.259   5.654 -31.636  1.00  0.00     0.037 A 
HETATM   27  C   UNL     1      -8.189   6.005 -32.986  1.00  0.00     0.003 A 
HETATM   28  C   UNL     1      -7.703   5.097 -33.919  1.00  0.00     0.001 A 
HETATM   29  C   UNL     1      -7.290   3.833 -33.505  1.00  0.00     0.012 A 
BRANCH  25  30
HETATM   30  O   UNL     1      -7.885   3.965 -29.903  1.00  0.00    -0.355 OA
HETATM   31  C   UNL     1      -7.218   4.766 -28.936  1.00  0.00     0.210 C 
ENDBRANCH  25  30
ENDBRANCH   2  24
TORSDOF 4
ENDMDL
MODEL 10
REMARK VINA RESULT:      -7.7      2.693      5.931
REMARK  4 active torsions:
REMARK  status: ('A' for Active; 'I' for Inactive)
REMARK    1  A    between atoms: C_6  and  N_7 
REMARK       I    between atoms: N_7  and  C_8 
REMARK    2  A    between atoms: C_8  and  C_9 
REMARK    3  A    between atoms: C_10  and  C_11 
REMARK    4  A    between atoms: C_12  and  O_13 
ROOT
HETATM    1  C   UNL     1      -7.796   4.216 -32.341  1.00  0.00     0.063 C 
HETATM    2  C   UNL     1      -6.454   3.544 -32.617  1.00  0.00     0.205 C 
HETATM    3  N   UNL     1      -5.368   4.276 -31.950  1.00  0.00    -0.084 N 
HETATM    4  C   UNL     1      -5.565   5.273 -31.029  1.00  0.00     0.725 A 
HETATM    5  N   UNL     1      -6.822   5.651 -30.722  1.00  0.00    -0.192 N 
HETATM    6  N   UNL     1      -4.053   4.115 -32.216  1.00  0.00    -0.149 NA
HETATM    7  C   UNL     1      -3.518   4.992 -31.359  1.00  0.00     0.275 A 
HETATM    8  N   UNL     1      -4.409   5.725 -30.618  1.00  0.00    -0.054 NA
HETATM    9  C   UNL     1      -7.940   5.190 -31.409  1.00  0.00     0.037 C 
HETATM   10  C   UNL     1      -9.252   5.833 -31.043  1.00  0.00     0.070 C 
HETATM   11  H   UNL     1      -6.951   6.417 -30.068  1.00  0.00     0.184 HD
ENDROOT
BRANCH   1  12
HETATM   12  C   UNL     1      -8.918   3.772 -33.206  1.00  0.00     0.256 C 
HETATM   13  N   UNL     1      -9.822   2.995 -32.509  1.00  0.00    -0.323 N 
HETATM   14  H   UNL     1      -9.595   2.799 -31.544  1.00  0.00     0.169 HD
HETATM   15  O   UNL     1      -8.953   4.103 -34.381  1.00  0.00    -0.267 OA
BRANCH  13  16
HETATM   16  C   UNL     1     -11.030   2.433 -32.986  1.00  0.00     0.041 A 
HETATM   17  C   UNL     1     -11.099   1.037 -33.188  1.00  0.00    -0.035 A 
HETATM   18  C   UNL     1     -12.303   0.461 -33.637  1.00  0.00     0.015 A 
HETATM   19  C   UNL     1      -9.926   0.127 -32.941  1.00  0.00     0.050 C 
HETATM   20  C   UNL     1     -13.429   1.246 -33.903  1.00  0.00    -0.061 A 
HETATM   21  C   UNL     1     -14.717   0.615 -34.340  1.00  0.00     0.048 C 
HETATM   22  C   UNL     1     -13.352   2.623 -33.694  1.00  0.00     0.009 A 
HETATM   23  C   UNL     1     -12.164   3.209 -33.247  1.00  0.00     0.030 A 
ENDBRANCH  13  16
ENDBRANCH   1  12
BRANCH   2  24
HETATM   24  C   UNL     1      -6.409   2.077 -32.197  1.00  0.00     0.005 A 
HETATM   25  C   UNL     1      -6.383   1.051 -33.163  1.00  0.00     0.076 A 
HETATM   26  C   UNL     1      -6.345  -0.287 -32.752  1.00  0.00     0.037 A 
HETATM   27  C   UNL     1      -6.320  -0.612 -31.394  1.00  0.00     0.003 A 
HETATM   28  C   UNL     1      -6.336   0.393 -30.434  1.00  0.00     0.001 A 
HETATM   29  C   UNL     1      -6.380   1.727 -30.830  1.00  0.00     0.012 A 
BRANCH  25  30
HETATM   30  O   UNL     1      -6.416   1.455 -34.472  1.00  0.00    -0.355 OA
HETATM   31  C   UNL     1      -7.151   0.648 -35.384  1.00  0.00     0.210 C 
ENDBRANCH  25  30
ENDBRANCH   2  24
TORSDOF 4
ENDMDL
