MODEL 1
REMARK VINA RESULT:      -6.9      0.000      0.000
REMARK  4 active torsions:
REMARK  status: ('A' for Active; 'I' for Inactive)
REMARK    1  A    between atoms: C_2  and  O_3 
REMARK    2  A    between atoms: O_3  and  C_4 
REMARK    3  A    between atoms: C_4  and  C_5 
REMARK    4  A    between atoms: C_9  and  N_10 
ROOT
HETATM    1  C   UNL     1      -4.724  -1.520 -33.339  1.00  0.00     0.109 A 
HETATM    2  S   UNL     1      -6.388  -1.175 -33.565  1.00  0.00    -0.063 SA
HETATM    3  C   UNL     1      -6.173   0.444 -33.142  1.00  0.00     0.088 A 
HETATM    4  C   UNL     1      -4.870   0.797 -32.841  1.00  0.00     0.033 A 
HETATM    5  C   UNL     1      -4.037  -0.379 -32.943  1.00  0.00     0.063 A 
HETATM    6  N   UNL     1      -7.216   1.307 -33.112  1.00  0.00    -0.353 N 
HETATM    7  H   UNL     1      -8.135   0.938 -33.352  1.00  0.00     0.166 HD
HETATM    8  C   UNL     1      -7.042   2.587 -32.769  1.00  0.00     0.015 A 
HETATM    9  C   UNL     1      -8.259   3.462 -32.750  1.00  0.00     0.069 C 
HETATM   10  C   UNL     1      -5.755   3.046 -32.442  1.00  0.00    -0.005 A 
HETATM   11  C   UNL     1      -4.641   2.165 -32.508  1.00  0.00    -0.030 A 
HETATM   12  C   UNL     1      -3.264   2.706 -32.165  1.00  0.00     0.077 C 
HETATM   13  C   UNL     1      -3.169   4.242 -32.174  1.00  0.00     0.058 C 
HETATM   14  C   UNL     1      -3.060   4.812 -33.598  1.00  0.00     0.046 C 
HETATM   15  C   UNL     1      -1.928   4.678 -31.383  1.00  0.00     0.046 C 
HETATM   16  O   UNL     1      -4.294   4.773 -31.467  1.00  0.00    -0.376 OA
HETATM   17  C   UNL     1      -5.553   4.503 -32.066  1.00  0.00     0.210 C 
ENDROOT
BRANCH   1  18
HETATM   18  C   UNL     1      -4.181  -2.859 -33.532  1.00  0.00     0.302 C 
HETATM   19  O   UNL     1      -3.457  -3.434 -32.727  1.00  0.00    -0.259 OA
BRANCH  18  20
HETATM   20  O   UNL     1      -4.596  -3.398 -34.715  1.00  0.00    -0.317 OA
BRANCH  20  21
HETATM   21  C   UNL     1      -5.290  -4.654 -34.624  1.00  0.00     0.174 C 
HETATM   22  C   UNL     1      -6.620  -4.571 -35.349  1.00  0.00     0.034 C 
ENDBRANCH  20  21
ENDBRANCH  18  20
ENDBRANCH   1  18
BRANCH   5  23
HETATM   23  N   UNL     1      -2.713  -0.399 -32.681  1.00  0.00    -0.397 N 
HETATM   24  H   UNL     1      -2.028  -0.933 -33.208  1.00  0.00     0.156 HD
HETATM   25  H   UNL     1      -2.267   0.369 -32.163  1.00  0.00     0.156 HD
ENDBRANCH   5  23
TORSDOF 4
ENDMDL
MODEL 2
REMARK VINA RESULT:      -6.8      1.685      3.473
REMARK  4 active torsions:
REMARK  status: ('A' for Active; 'I' for Inactive)
REMARK    1  A    between atoms: C_2  and  O_3 
REMARK    2  A    between atoms: O_3  and  C_4 
REMARK    3  A    between atoms: C_4  and  C_5 
REMARK    4  A    between atoms: C_9  and  N_10 
ROOT
HETATM    1  C   UNL     1      -4.130  -1.731 -33.077  1.00  0.00     0.109 A 
HETATM    2  S   UNL     1      -2.922  -0.773 -32.328  1.00  0.00    -0.063 SA
HETATM    3  C   UNL     1      -3.886   0.610 -32.404  1.00  0.00     0.088 A 
HETATM    4  C   UNL     1      -5.136   0.416 -32.962  1.00  0.00     0.033 A 
HETATM    5  C   UNL     1      -5.252  -0.965 -33.370  1.00  0.00     0.063 A 
HETATM    6  N   UNL     1      -3.440   1.804 -31.944  1.00  0.00    -0.353 N 
HETATM    7  H   UNL     1      -2.500   1.832 -31.553  1.00  0.00     0.166 HD
HETATM    8  C   UNL     1      -4.204   2.898 -32.013  1.00  0.00     0.015 A 
HETATM    9  C   UNL     1      -3.618   4.175 -31.492  1.00  0.00     0.069 C 
HETATM   10  C   UNL     1      -5.493   2.808 -32.565  1.00  0.00    -0.005 A 
HETATM   11  C   UNL     1      -5.995   1.555 -33.016  1.00  0.00    -0.030 A 
HETATM   12  C   UNL     1      -7.400   1.497 -33.588  1.00  0.00     0.077 C 
HETATM   13  C   UNL     1      -8.271   2.718 -33.247  1.00  0.00     0.058 C 
HETATM   14  C   UNL     1      -8.830   2.656 -31.816  1.00  0.00     0.046 C 
HETATM   15  C   UNL     1      -9.453   2.787 -34.224  1.00  0.00     0.046 C 
HETATM   16  O   UNL     1      -7.502   3.904 -33.473  1.00  0.00    -0.376 OA
HETATM   17  C   UNL     1      -6.368   4.046 -32.631  1.00  0.00     0.210 C 
ENDROOT
BRANCH   1  18
HETATM   18  C   UNL     1      -3.926  -3.147 -33.359  1.00  0.00     0.302 C 
HETATM   19  O   UNL     1      -3.355  -3.926 -32.605  1.00  0.00    -0.259 OA
BRANCH  18  20
HETATM   20  O   UNL     1      -4.469  -3.498 -34.560  1.00  0.00    -0.317 OA
BRANCH  20  21
HETATM   21  C   UNL     1      -5.141  -4.769 -34.600  1.00  0.00     0.174 C 
HETATM   22  C   UNL     1      -6.437  -4.653 -35.379  1.00  0.00     0.034 C 
ENDBRANCH  20  21
ENDBRANCH  18  20
ENDBRANCH   1  18
BRANCH   5  23
HETATM   23  N   UNL     1      -6.334  -1.490 -33.983  1.00  0.00    -0.397 N 
HETATM   24  H   UNL     1      -7.249  -1.051 -34.014  1.00  0.00     0.156 HD
HETATM   25  H   UNL     1      -6.229  -2.185 -34.732  1.00  0.00     0.156 HD
ENDBRANCH   5  23
TORSDOF 4
ENDMDL
MODEL 3
REMARK VINA RESULT:      -6.8      4.296      6.966
REMARK  4 active torsions:
REMARK  status: ('A' for Active; 'I' for Inactive)
REMARK    1  A    between atoms: C_2  and  O_3 
REMARK    2  A    between atoms: O_3  and  C_4 
REMARK    3  A    between atoms: C_4  and  C_5 
REMARK    4  A    between atoms: C_9  and  N_10 
ROOT
HETATM    1  C   UNL     1      -7.716   1.738 -31.754  1.00  0.00     0.109 A 
HETATM    2  S   UNL     1      -7.274   3.248 -32.434  1.00  0.00    -0.063 SA
HETATM    3  C   UNL     1      -8.739   3.373 -33.261  1.00  0.00     0.088 A 
HETATM    4  C   UNL     1      -9.615   2.323 -33.052  1.00  0.00     0.033 A 
HETATM    5  C   UNL     1      -8.984   1.362 -32.178  1.00  0.00     0.063 A 
HETATM    6  N   UNL     1      -9.008   4.434 -34.059  1.00  0.00    -0.353 N 
HETATM    7  H   UNL     1      -8.289   5.151 -34.140  1.00  0.00     0.166 HD
HETATM    8  C   UNL     1     -10.168   4.526 -34.718  1.00  0.00     0.015 A 
HETATM    9  C   UNL     1     -10.366   5.730 -35.588  1.00  0.00     0.069 C 
HETATM   10  C   UNL     1     -11.126   3.508 -34.575  1.00  0.00    -0.005 A 
HETATM   11  C   UNL     1     -10.879   2.407 -33.709  1.00  0.00    -0.030 A 
HETATM   12  C   UNL     1     -11.949   1.338 -33.568  1.00  0.00     0.077 C 
HETATM   13  C   UNL     1     -13.340   1.768 -34.064  1.00  0.00     0.058 C 
HETATM   14  C   UNL     1     -14.071   2.663 -33.049  1.00  0.00     0.046 C 
HETATM   15  C   UNL     1     -14.198   0.521 -34.314  1.00  0.00     0.046 C 
HETATM   16  O   UNL     1     -13.194   2.408 -35.336  1.00  0.00    -0.376 OA
HETATM   17  C   UNL     1     -12.449   3.617 -35.310  1.00  0.00     0.210 C 
ENDROOT
BRANCH   1  18
HETATM   18  C   UNL     1      -6.819   0.995 -30.876  1.00  0.00     0.302 C 
HETATM   19  O   UNL     1      -6.277   1.466 -29.883  1.00  0.00    -0.259 OA
BRANCH  18  20
HETATM   20  O   UNL     1      -6.672  -0.296 -31.291  1.00  0.00    -0.317 OA
BRANCH  20  21
HETATM   21  C   UNL     1      -5.762  -0.506 -32.384  1.00  0.00     0.174 C 
HETATM   22  C   UNL     1      -6.451  -1.265 -33.503  1.00  0.00     0.034 C 
ENDBRANCH  20  21
ENDBRANCH  18  20
ENDBRANCH   1  18
BRANCH   5  23
HETATM   23  N   UNL     1      -9.549   0.197 -31.794  1.00  0.00    -0.397 N 
HETATM   24  H   UNL     1      -9.584  -0.139 -30.836  1.00  0.00     0.156 HD
HETATM   25  H   UNL     1     -10.264  -0.258 -32.374  1.00  0.00     0.156 HD
ENDBRANCH   5  23
TORSDOF 4
ENDMDL
MODEL 4
REMARK VINA RESULT:      -6.8      3.598      5.390
REMARK  4 active torsions:
REMARK  status: ('A' for Active; 'I' for Inactive)
REMARK    1  A    between atoms: C_2  and  O_3 
REMARK    2  A    between atoms: O_3  and  C_4 
REMARK    3  A    between atoms: C_4  and  C_5 
REMARK    4  A    between atoms: C_9  and  N_10 
ROOT
HETATM    1  C   UNL     1      -6.409  -0.444 -33.176  1.00  0.00     0.109 A 
HETATM    2  S   UNL     1      -6.254   0.296 -31.637  1.00  0.00    -0.063 SA
HETATM    3  C   UNL     1      -7.680   1.171 -31.846  1.00  0.00     0.088 A 
HETATM    4  C   UNL     1      -8.335   0.937 -33.042  1.00  0.00     0.033 A 
HETATM    5  C   UNL     1      -7.558  -0.001 -33.818  1.00  0.00     0.063 A 
HETATM    6  N   UNL     1      -8.126   2.028 -30.896  1.00  0.00    -0.353 N 
HETATM    7  H   UNL     1      -7.563   2.123 -30.052  1.00  0.00     0.166 HD
HETATM    8  C   UNL     1      -9.253   2.724 -31.069  1.00  0.00     0.015 A 
HETATM    9  C   UNL     1      -9.656   3.658 -29.968  1.00  0.00     0.069 C 
HETATM   10  C   UNL     1      -9.992   2.560 -32.252  1.00  0.00    -0.005 A 
HETATM   11  C   UNL     1      -9.563   1.635 -33.244  1.00  0.00    -0.030 A 
HETATM   12  C   UNL     1     -10.401   1.473 -34.500  1.00  0.00     0.077 C 
HETATM   13  C   UNL     1     -11.830   2.031 -34.382  1.00  0.00     0.058 C 
HETATM   14  C   UNL     1     -12.765   1.083 -33.612  1.00  0.00     0.046 C 
HETATM   15  C   UNL     1     -12.409   2.245 -35.787  1.00  0.00     0.046 C 
HETATM   16  O   UNL     1     -11.766   3.328 -33.779  1.00  0.00    -0.376 OA
HETATM   17  C   UNL     1     -11.281   3.339 -32.445  1.00  0.00     0.210 C 
ENDROOT
BRANCH   1  18
HETATM   18  C   UNL     1      -5.415  -1.382 -33.683  1.00  0.00     0.302 C 
HETATM   19  O   UNL     1      -4.233  -1.111 -33.857  1.00  0.00    -0.259 OA
BRANCH  18  20
HETATM   20  O   UNL     1      -5.965  -2.608 -33.922  1.00  0.00    -0.317 OA
BRANCH  20  21
HETATM   21  C   UNL     1      -5.458  -3.312 -35.069  1.00  0.00     0.174 C 
HETATM   22  C   UNL     1      -6.360  -4.485 -35.404  1.00  0.00     0.034 C 
ENDBRANCH  20  21
ENDBRANCH  18  20
ENDBRANCH   1  18
BRANCH   5  23
HETATM   23  N   UNL     1      -7.891  -0.425 -35.056  1.00  0.00    -0.397 N 
HETATM   24  H   UNL     1      -7.284  -0.967 -35.663  1.00  0.00     0.156 HD
HETATM   25  H   UNL     1      -8.876  -0.522 -35.331  1.00  0.00     0.156 HD
ENDBRANCH   5  23
TORSDOF 4
ENDMDL
MODEL 5
REMARK VINA RESULT:      -6.7      2.877      7.024
REMARK  4 active torsions:
REMARK  status: ('A' for Active; 'I' for Inactive)
REMARK    1  A    between atoms: C_2  and  O_3 
REMARK    2  A    between atoms: O_3  and  C_4 
REMARK    3  A    between atoms: C_4  and  C_5 
REMARK    4  A    between atoms: C_9  and  N_10 
ROOT
HETATM    1  C   UNL     1      -3.869   4.926 -32.296  1.00  0.00     0.109 A 
HETATM    2  S   UNL     1      -2.693   3.808 -31.744  1.00  0.00    -0.063 SA
HETATM    3  C   UNL     1      -3.706   2.495 -32.056  1.00  0.00     0.088 A 
HETATM    4  C   UNL     1      -4.935   2.826 -32.597  1.00  0.00     0.033 A 
HETATM    5  C   UNL     1      -5.018   4.264 -32.710  1.00  0.00     0.063 A 
HETATM    6  N   UNL     1      -3.315   1.226 -31.789  1.00  0.00    -0.353 N 
HETATM    7  H   UNL     1      -2.386   1.098 -31.390  1.00  0.00     0.166 HD
HETATM    8  C   UNL     1      -4.123   0.190 -32.032  1.00  0.00     0.015 A 
HETATM    9  C   UNL     1      -3.608  -1.175 -31.689  1.00  0.00     0.069 C 
HETATM   10  C   UNL     1      -5.396   0.420 -32.579  1.00  0.00    -0.005 A 
HETATM   11  C   UNL     1      -5.809   1.742 -32.905  1.00  0.00    -0.030 A 
HETATM   12  C   UNL     1      -7.186   1.945 -33.514  1.00  0.00     0.077 C 
HETATM   13  C   UNL     1      -7.821   0.664 -34.080  1.00  0.00     0.058 C 
HETATM   14  C   UNL     1      -7.247   0.287 -35.456  1.00  0.00     0.046 C 
HETATM   15  C   UNL     1      -9.335   0.871 -34.229  1.00  0.00     0.046 C 
HETATM   16  O   UNL     1      -7.658  -0.388 -33.124  1.00  0.00    -0.376 OA
HETATM   17  C   UNL     1      -6.311  -0.756 -32.869  1.00  0.00     0.210 C 
ENDROOT
BRANCH   1  18
HETATM   18  C   UNL     1      -3.632   6.365 -32.279  1.00  0.00     0.302 C 
HETATM   19  O   UNL     1      -4.473   7.200 -31.968  1.00  0.00    -0.259 OA
BRANCH  18  20
HETATM   20  O   UNL     1      -2.349   6.662 -32.636  1.00  0.00    -0.317 OA
BRANCH  20  21
HETATM   21  C   UNL     1      -2.122   6.886 -34.037  1.00  0.00     0.174 C 
HETATM   22  C   UNL     1      -1.240   5.791 -34.608  1.00  0.00     0.034 C 
ENDBRANCH  20  21
ENDBRANCH  18  20
ENDBRANCH   1  18
BRANCH   5  23
HETATM   23  N   UNL     1      -6.098   4.931 -33.170  1.00  0.00    -0.397 N 
HETATM   24  H   UNL     1      -6.684   5.540 -32.606  1.00  0.00     0.156 HD
HETATM   25  H   UNL     1      -6.203   5.136 -34.171  1.00  0.00     0.156 HD
ENDBRANCH   5  23
TORSDOF 4
ENDMDL
MODEL 6
REMARK VINA RESULT:      -6.7      1.588      3.530
REMARK  4 active torsions:
REMARK  status: ('A' for Active; 'I' for Inactive)
REMARK    1  A    between atoms: C_2  and  O_3 
REMARK    2  A    between atoms: O_3  and  C_4 
REMARK    3  A    between atoms: C_4  and  C_5 
REMARK    4  A    between atoms: C_9  and  N_10 
ROOT
HETATM    1  C   UNL     1      -5.640  -1.514 -33.958  1.00  0.00     0.109 A 
HETATM    2  S   UNL     1      -4.165  -1.206 -33.141  1.00  0.00    -0.063 SA
HETATM    3  C   UNL     1      -4.533   0.431 -32.965  1.00  0.00     0.088 A 
HETATM    4  C   UNL     1      -5.761   0.809 -33.479  1.00  0.00     0.033 A 
HETATM    5  C   UNL     1      -6.386  -0.348 -34.078  1.00  0.00     0.063 A 
HETATM    6  N   UNL     1      -3.673   1.284 -32.360  1.00  0.00    -0.353 N 
HETATM    7  H   UNL     1      -2.794   0.897 -32.018  1.00  0.00     0.166 HD
HETATM    8  C   UNL     1      -3.966   2.582 -32.229  1.00  0.00     0.015 A 
HETATM    9  C   UNL     1      -2.944   3.449 -31.558  1.00  0.00     0.069 C 
HETATM   10  C   UNL     1      -5.189   3.067 -32.721  1.00  0.00    -0.005 A 
HETATM   11  C   UNL     1      -6.124   2.179 -33.322  1.00  0.00    -0.030 A 
HETATM   12  C   UNL     1      -7.442   2.741 -33.823  1.00  0.00     0.077 C 
HETATM   13  C   UNL     1      -7.790   4.132 -33.263  1.00  0.00     0.058 C 
HETATM   14  C   UNL     1      -8.340   4.064 -31.830  1.00  0.00     0.046 C 
HETATM   15  C   UNL     1      -8.850   4.789 -34.157  1.00  0.00     0.046 C 
HETATM   16  O   UNL     1      -6.628   4.963 -33.353  1.00  0.00    -0.376 OA
HETATM   17  C   UNL     1      -5.530   4.537 -32.560  1.00  0.00     0.210 C 
ENDROOT
BRANCH   1  18
HETATM   18  C   UNL     1      -5.985  -2.841 -34.454  1.00  0.00     0.302 C 
HETATM   19  O   UNL     1      -7.123  -3.294 -34.483  1.00  0.00    -0.259 OA
BRANCH  18  20
HETATM   20  O   UNL     1      -4.881  -3.508 -34.898  1.00  0.00    -0.317 OA
BRANCH  20  21
HETATM   21  C   UNL     1      -4.724  -4.855 -34.418  1.00  0.00     0.174 C 
HETATM   22  C   UNL     1      -3.606  -4.920 -33.395  1.00  0.00     0.034 C 
ENDBRANCH  20  21
ENDBRANCH  18  20
ENDBRANCH   1  18
BRANCH   5  23
HETATM   23  N   UNL     1      -7.583  -0.327 -34.703  1.00  0.00    -0.397 N 
HETATM   24  H   UNL     1      -7.727  -0.027 -35.662  1.00  0.00     0.156 HD
HETATM   25  H   UNL     1      -8.357  -0.920 -34.378  1.00  0.00     0.156 HD
ENDBRANCH   5  23
TORSDOF 4
ENDMDL
MODEL 7
REMARK VINA RESULT:      -6.4      3.902      7.020
REMARK  4 active torsions:
REMARK  status: ('A' for Active; 'I' for Inactive)
REMARK    1  A    between atoms: C_2  and  O_3 
REMARK    2  A    between atoms: O_3  and  C_4 
REMARK    3  A    between atoms: C_4  and  C_5 
REMARK    4  A    between atoms: C_9  and  N_10 
ROOT
HETATM    1  C   UNL     1      -3.233   4.799 -33.010  1.00  0.00     0.109 A 
HETATM    2  S   UNL     1      -2.745   3.833 -31.680  1.00  0.00    -0.063 SA
HETATM    3  C   UNL     1      -4.223   3.021 -31.650  1.00  0.00     0.088 A 
HETATM    4  C   UNL     1      -5.120   3.412 -32.626  1.00  0.00     0.033 A 
HETATM    5  C   UNL     1      -4.525   4.474 -33.403  1.00  0.00     0.063 A 
HETATM    6  N   UNL     1      -4.479   2.062 -30.727  1.00  0.00    -0.353 N 
HETATM    7  H   UNL     1      -3.744   1.855 -30.053  1.00  0.00     0.166 HD
HETATM    8  C   UNL     1      -5.654   1.426 -30.702  1.00  0.00     0.015 A 
HETATM    9  C   UNL     1      -5.849   0.392 -29.635  1.00  0.00     0.069 C 
HETATM   10  C   UNL     1      -6.637   1.752 -31.652  1.00  0.00    -0.005 A 
HETATM   11  C   UNL     1      -6.372   2.726 -32.654  1.00  0.00    -0.030 A 
HETATM   12  C   UNL     1      -7.453   3.035 -33.674  1.00  0.00     0.077 C 
HETATM   13  C   UNL     1      -8.565   1.975 -33.755  1.00  0.00     0.058 C 
HETATM   14  C   UNL     1      -8.134   0.737 -34.558  1.00  0.00     0.046 C 
HETATM   15  C   UNL     1      -9.800   2.584 -34.433  1.00  0.00     0.046 C 
HETATM   16  O   UNL     1      -8.972   1.637 -32.425  1.00  0.00    -0.376 OA
HETATM   17  C   UNL     1      -7.967   1.021 -31.635  1.00  0.00     0.210 C 
ENDROOT
BRANCH   1  18
HETATM   18  C   UNL     1      -2.363   5.820 -33.582  1.00  0.00     0.302 C 
HETATM   19  O   UNL     1      -2.699   6.599 -34.465  1.00  0.00    -0.259 OA
BRANCH  18  20
HETATM   20  O   UNL     1      -1.131   5.810 -32.995  1.00  0.00    -0.317 OA
BRANCH  20  21
HETATM   21  C   UNL     1      -0.743   7.022 -32.326  1.00  0.00     0.174 C 
HETATM   22  C   UNL     1       0.382   6.743 -31.347  1.00  0.00     0.034 C 
ENDBRANCH  20  21
ENDBRANCH  18  20
ENDBRANCH   1  18
BRANCH   5  23
HETATM   23  N   UNL     1      -5.143   5.112 -34.420  1.00  0.00    -0.397 N 
HETATM   24  H   UNL     1      -4.725   5.291 -35.328  1.00  0.00     0.156 HD
HETATM   25  H   UNL     1      -6.168   5.158 -34.467  1.00  0.00     0.156 HD
ENDBRANCH   5  23
TORSDOF 4
ENDMDL
MODEL 8
REMARK VINA RESULT:      -6.4      3.596      7.097
REMARK  4 active torsions:
REMARK  status: ('A' for Active; 'I' for Inactive)
REMARK    1  A    between atoms: C_2  and  O_3 
REMARK    2  A    between atoms: O_3  and  C_4 
REMARK    3  A    between atoms: C_4  and  C_5 
REMARK    4  A    between atoms: C_9  and  N_10 
ROOT
HETATM    1  C   UNL     1      -2.782   6.359 -32.539  1.00  0.00     0.109 A 
HETATM    2  S   UNL     1      -3.982   7.116 -31.576  1.00  0.00    -0.063 SA
HETATM    3  C   UNL     1      -4.861   5.683 -31.437  1.00  0.00     0.088 A 
HETATM    4  C   UNL     1      -4.298   4.592 -32.072  1.00  0.00     0.033 A 
HETATM    5  C   UNL     1      -3.085   5.017 -32.732  1.00  0.00     0.063 A 
HETATM    6  N   UNL     1      -6.026   5.637 -30.747  1.00  0.00    -0.353 N 
HETATM    7  H   UNL     1      -6.349   6.503 -30.318  1.00  0.00     0.166 HD
HETATM    8  C   UNL     1      -6.723   4.501 -30.645  1.00  0.00     0.015 A 
HETATM    9  C   UNL     1      -8.007   4.554 -29.874  1.00  0.00     0.069 C 
HETATM   10  C   UNL     1      -6.237   3.335 -31.258  1.00  0.00    -0.005 A 
HETATM   11  C   UNL     1      -4.995   3.353 -31.952  1.00  0.00    -0.030 A 
HETATM   12  C   UNL     1      -4.495   2.065 -32.583  1.00  0.00     0.077 C 
HETATM   13  C   UNL     1      -5.189   0.795 -32.061  1.00  0.00     0.058 C 
HETATM   14  C   UNL     1      -4.648   0.356 -30.690  1.00  0.00     0.046 C 
HETATM   15  C   UNL     1      -4.967  -0.351 -33.057  1.00  0.00     0.046 C 
HETATM   16  O   UNL     1      -6.601   1.025 -32.032  1.00  0.00    -0.376 OA
HETATM   17  C   UNL     1      -7.019   2.040 -31.132  1.00  0.00     0.210 C 
ENDROOT
BRANCH   1  18
HETATM   18  C   UNL     1      -1.640   7.095 -33.067  1.00  0.00     0.302 C 
HETATM   19  O   UNL     1      -1.727   8.116 -33.739  1.00  0.00    -0.259 OA
BRANCH  18  20
HETATM   20  O   UNL     1      -0.462   6.512 -32.704  1.00  0.00    -0.317 OA
BRANCH  20  21
HETATM   21  C   UNL     1      -0.074   6.681 -31.329  1.00  0.00     0.174 C 
HETATM   22  C   UNL     1       0.587   5.417 -30.812  1.00  0.00     0.034 C 
ENDBRANCH  20  21
ENDBRANCH  18  20
ENDBRANCH   1  18
BRANCH   5  23
HETATM   23  N   UNL     1      -2.300   4.208 -33.476  1.00  0.00    -0.397 N 
HETATM   24  H   UNL     1      -1.384   3.873 -33.192  1.00  0.00     0.156 HD
HETATM   25  H   UNL     1      -2.703   3.613 -34.210  1.00  0.00     0.156 HD
ENDBRANCH   5  23
TORSDOF 4
ENDMDL
MODEL 9
REMARK VINA RESULT:      -6.3      3.373      6.834
REMARK  4 active torsions:
REMARK  status: ('A' for Active; 'I' for Inactive)
REMARK    1  A    between atoms: C_2  and  O_3 
REMARK    2  A    between atoms: O_3  and  C_4 
REMARK    3  A    between atoms: C_4  and  C_5 
REMARK    4  A    between atoms: C_9  and  N_10 
ROOT
HETATM    1  C   UNL     1      -3.444   4.796 -32.469  1.00  0.00     0.109 A 
HETATM    2  S   UNL     1      -4.509   6.097 -32.803  1.00  0.00    -0.063 SA
HETATM    3  C   UNL     1      -5.772   5.046 -33.186  1.00  0.00     0.088 A 
HETATM    4  C   UNL     1      -5.466   3.703 -33.063  1.00  0.00     0.033 A 
HETATM    5  C   UNL     1      -4.085   3.578 -32.660  1.00  0.00     0.063 A 
HETATM    6  N   UNL     1      -6.981   5.513 -33.579  1.00  0.00    -0.353 N 
HETATM    7  H   UNL     1      -7.095   6.524 -33.635  1.00  0.00     0.166 HD
HETATM    8  C   UNL     1      -7.976   4.677 -33.888  1.00  0.00     0.015 A 
HETATM    9  C   UNL     1      -9.272   5.288 -34.327  1.00  0.00     0.069 C 
HETATM   10  C   UNL     1      -7.767   3.290 -33.798  1.00  0.00    -0.005 A 
HETATM   11  C   UNL     1      -6.518   2.781 -33.347  1.00  0.00    -0.030 A 
HETATM   12  C   UNL     1      -6.339   1.276 -33.246  1.00  0.00     0.077 C 
HETATM   13  C   UNL     1      -7.657   0.482 -33.256  1.00  0.00     0.058 C 
HETATM   14  C   UNL     1      -8.366   0.510 -31.892  1.00  0.00     0.046 C 
HETATM   15  C   UNL     1      -7.366  -0.980 -33.619  1.00  0.00     0.046 C 
HETATM   16  O   UNL     1      -8.488   0.991 -34.304  1.00  0.00    -0.376 OA
HETATM   17  C   UNL     1      -8.900   2.338 -34.135  1.00  0.00     0.210 C 
ENDROOT
BRANCH   1  18
HETATM   18  C   UNL     1      -2.060   5.016 -32.068  1.00  0.00     0.302 C 
HETATM   19  O   UNL     1      -1.430   4.275 -31.323  1.00  0.00    -0.259 OA
BRANCH  18  20
HETATM   20  O   UNL     1      -1.548   6.142 -32.644  1.00  0.00    -0.317 OA
BRANCH  20  21
HETATM   21  C   UNL     1      -1.009   7.121 -31.740  1.00  0.00     0.174 C 
HETATM   22  C   UNL     1      -1.835   8.392 -31.789  1.00  0.00     0.034 C 
ENDBRANCH  20  21
ENDBRANCH  18  20
ENDBRANCH   1  18
BRANCH   5  23
HETATM   23  N   UNL     1      -3.448   2.401 -32.480  1.00  0.00    -0.397 N 
HETATM   24  H   UNL     1      -2.706   2.048 -33.078  1.00  0.00     0.156 HD
HETATM   25  H   UNL     1      -3.428   1.949 -31.557  1.00  0.00     0.156 HD
ENDBRANCH   5  23
TORSDOF 4
ENDMDL
MODEL 10
REMARK VINA RESULT:      -6.1      2.213      3.040
REMARK  4 active torsions:
REMARK  status: ('A' for Active; 'I' for Inactive)
REMARK    1  A    between atoms: C_2  and  O_3 
REMARK    2  A    between atoms: O_3  and  C_4 
REMARK    3  A    between atoms: C_4  and  C_5 
REMARK    4  A    between atoms: C_9  and  N_10 
ROOT
HETATM    1  C   UNL     1      -5.739   1.331 -32.719  1.00  0.00     0.109 A 
HETATM    2  S   UNL     1      -7.047   2.438 -32.779  1.00  0.00    -0.063 SA
HETATM    3  C   UNL     1      -6.032   3.749 -32.466  1.00  0.00     0.088 A 
HETATM    4  C   UNL     1      -4.694   3.427 -32.327  1.00  0.00     0.033 A 
HETATM    5  C   UNL     1      -4.547   1.995 -32.459  1.00  0.00     0.063 A 
HETATM    6  N   UNL     1      -6.520   5.008 -32.367  1.00  0.00    -0.353 N 
HETATM    7  H   UNL     1      -7.524   5.131 -32.486  1.00  0.00     0.166 HD
HETATM    8  C   UNL     1      -5.712   6.043 -32.111  1.00  0.00     0.015 A 
HETATM    9  C   UNL     1      -6.348   7.396 -32.005  1.00  0.00     0.069 C 
HETATM   10  C   UNL     1      -4.335   5.821 -31.951  1.00  0.00    -0.005 A 
HETATM   11  C   UNL     1      -3.797   4.511 -32.093  1.00  0.00    -0.030 A 
HETATM   12  C   UNL     1      -2.300   4.318 -31.931  1.00  0.00     0.077 C 
HETATM   13  C   UNL     1      -1.481   5.616 -32.029  1.00  0.00     0.058 C 
HETATM   14  C   UNL     1      -1.284   6.074 -33.484  1.00  0.00     0.046 C 
HETATM   15  C   UNL     1      -0.098   5.393 -31.402  1.00  0.00     0.046 C 
HETATM   16  O   UNL     1      -2.119   6.620 -31.232  1.00  0.00    -0.376 OA
HETATM   17  C   UNL     1      -3.414   6.996 -31.675  1.00  0.00     0.210 C 
ENDROOT
BRANCH   1  18
HETATM   18  C   UNL     1      -5.934  -0.102 -32.901  1.00  0.00     0.302 C 
HETATM   19  O   UNL     1      -6.653  -0.797 -32.193  1.00  0.00    -0.259 OA
BRANCH  18  20
HETATM   20  O   UNL     1      -5.228  -0.568 -33.971  1.00  0.00    -0.317 OA
BRANCH  20  21
HETATM   21  C   UNL     1      -4.765  -1.926 -33.877  1.00  0.00     0.174 C 
HETATM   22  C   UNL     1      -5.500  -2.801 -34.875  1.00  0.00     0.034 C 
ENDBRANCH  20  21
ENDBRANCH  18  20
ENDBRANCH   1  18
BRANCH   5  23
HETATM   23  N   UNL     1      -3.374   1.337 -32.343  1.00  0.00    -0.397 N 
HETATM   24  H   UNL     1      -2.713   1.198 -33.101  1.00  0.00     0.156 HD
HETATM   25  H   UNL     1      -2.919   1.229 -31.428  1.00  0.00     0.156 HD
ENDBRANCH   5  23
TORSDOF 4
ENDMDL
