MODEL 1
REMARK VINA RESULT:     -10.4      0.000      0.000
REMARK  5 active torsions:
REMARK  status: ('A' for Active; 'I' for Inactive)
REMARK    1  A    between atoms: C_4  and  C_5 
REMARK       I    between atoms: C_5  and  N_6 
REMARK    2  A    between atoms: C_9  and  C_10 
REMARK    3  A    between atoms: C_10  and  C_11 
REMARK    4  A    between atoms: N_20  and  C_21 
REMARK    5  A    between atoms: C_21  and  C_22 
ROOT
HETATM    1  C   UNL     1      -9.760   1.735 -33.463  1.00  0.00     0.148 A 
HETATM    2  N   UNL     1      -8.951   1.756 -34.678  1.00  0.00    -0.320 N 
HETATM    3  C   UNL     1      -8.110   0.679 -34.793  1.00  0.00     0.326 A 
HETATM    4  O   UNL     1      -7.414   0.465 -35.770  1.00  0.00    -0.247 OA
HETATM    5  N   UNL     1      -8.172  -0.040 -33.648  1.00  0.00    -0.263 N 
HETATM    6  C   UNL     1      -9.080   0.509 -32.791  1.00  0.00     0.262 A 
HETATM    7  O   UNL     1      -9.313   0.091 -31.664  1.00  0.00    -0.270 OA
HETATM    8  H   UNL     1      -9.133   2.322 -35.497  1.00  0.00     0.166 HD
ENDROOT
BRANCH   1   9
HETATM    9  C   UNL     1      -9.582   3.089 -32.690  1.00  0.00     0.031 C 
HETATM   10  C   UNL     1      -9.383   2.991 -31.165  1.00  0.00     0.028 C 
HETATM   11  C   UNL     1      -7.949   2.756 -30.705  1.00  0.00     0.126 C 
HETATM   12  N   UNL     1      -6.957   3.608 -31.370  1.00  0.00    -0.350 N 
HETATM   13  C   UNL     1      -5.724   3.707 -30.727  1.00  0.00     0.251 C 
HETATM   14  C   UNL     1      -7.101   3.772 -32.816  1.00  0.00     0.126 C 
HETATM   15  O   UNL     1      -5.507   3.212 -29.614  1.00  0.00    -0.271 OA
HETATM   16  C   UNL     1      -8.529   4.058 -33.259  1.00  0.00     0.028 C 
BRANCH  13  17
HETATM   17  C   UNL     1      -4.570   4.506 -31.388  1.00  0.00     0.279 C 
HETATM   18  N   UNL     1      -3.887   5.423 -30.338  1.00  0.00    -0.062 N 
HETATM   19  C   UNL     1      -4.834   6.458 -29.776  1.00  0.00     0.270 C 
HETATM   20  H   UNL     1      -3.678   4.793 -29.544  1.00  0.00     0.280 HD
HETATM   21  C   UNL     1      -2.620   6.075 -30.814  1.00  0.00     0.235 C 
HETATM   22  C   UNL     1      -1.642   5.035 -31.324  1.00  0.00     0.028 C 
HETATM   23  C   UNL     1      -2.264   4.194 -32.425  1.00  0.00     0.004 C 
HETATM   24  C   UNL     1      -3.531   3.515 -31.927  1.00  0.00     0.043 C 
ENDBRANCH  13  17
ENDBRANCH   1   9
BRANCH   1  25
HETATM   25  C   UNL     1     -11.216   1.485 -33.854  1.00  0.00    -0.003 A 
HETATM   26  C   UNL     1     -11.937   2.343 -34.685  1.00  0.00     0.126 A 
HETATM   27  N   UNL     1     -13.218   2.137 -35.069  1.00  0.00    -0.272 NA
HETATM   28  C   UNL     1     -13.834   1.032 -34.605  1.00  0.00     0.116 A 
HETATM   29  C   UNL     1     -13.219   0.108 -33.782  1.00  0.00     0.020 A 
HETATM   30  C   UNL     1     -11.897   0.337 -33.410  1.00  0.00     0.013 A 
ENDBRANCH   1  25
BRANCH   5  31
HETATM   31  C   UNL     1      -7.417  -1.246 -33.393  1.00  0.00     0.175 C 
BRANCH  31  32
HETATM   32  C   UNL     1      -6.063  -0.943 -32.798  1.00  0.00    -0.040 A 
HETATM   33  C   UNL     1      -4.893  -1.350 -33.458  1.00  0.00     0.012 A 
HETATM   34  C   UNL     1      -3.641  -1.084 -32.900  1.00  0.00     0.043 A 
HETATM   35  C   UNL     1      -3.558  -0.424 -31.681  1.00  0.00     0.116 A 
HETATM   36  F   UNL     1      -2.356  -0.168 -31.149  1.00  0.00    -0.206 F 
HETATM   37  C   UNL     1      -4.704  -0.026 -31.004  1.00  0.00     0.043 A 
HETATM   38  C   UNL     1      -5.958  -0.287 -31.560  1.00  0.00     0.012 A 
ENDBRANCH  31  32
ENDBRANCH   5  31
TORSDOF 5
ENDMDL
MODEL 2
REMARK VINA RESULT:      -9.5      2.745      7.432
REMARK  5 active torsions:
REMARK  status: ('A' for Active; 'I' for Inactive)
REMARK    1  A    between atoms: C_4  and  C_5 
REMARK       I    between atoms: C_5  and  N_6 
REMARK    2  A    between atoms: C_9  and  C_10 
REMARK    3  A    between atoms: C_10  and  C_11 
REMARK    4  A    between atoms: N_20  and  C_21 
REMARK    5  A    between atoms: C_21  and  C_22 
ROOT
HETATM    1  C   UNL     1      -6.297   2.735 -32.822  1.00  0.00     0.148 A 
HETATM    2  N   UNL     1      -6.232   3.690 -33.924  1.00  0.00    -0.320 N 
HETATM    3  C   UNL     1      -4.970   4.182 -34.147  1.00  0.00     0.326 A 
HETATM    4  O   UNL     1      -4.687   4.924 -35.070  1.00  0.00    -0.247 OA
HETATM    5  N   UNL     1      -4.155   3.734 -33.164  1.00  0.00    -0.263 N 
HETATM    6  C   UNL     1      -4.837   2.910 -32.319  1.00  0.00     0.262 A 
HETATM    7  O   UNL     1      -4.359   2.393 -31.317  1.00  0.00    -0.270 OA
HETATM    8  H   UNL     1      -6.936   3.812 -34.640  1.00  0.00     0.166 HD
ENDROOT
BRANCH   1   9
HETATM    9  C   UNL     1      -7.401   3.186 -31.802  1.00  0.00     0.031 C 
HETATM   10  C   UNL     1      -8.141   4.499 -32.123  1.00  0.00     0.028 C 
HETATM   11  C   UNL     1      -9.331   4.368 -33.066  1.00  0.00     0.126 C 
HETATM   12  N   UNL     1     -10.230   3.254 -32.746  1.00  0.00    -0.350 N 
HETATM   13  C   UNL     1     -11.500   3.326 -33.319  1.00  0.00     0.251 C 
HETATM   14  C   UNL     1      -9.598   1.981 -32.402  1.00  0.00     0.126 C 
HETATM   15  O   UNL     1     -11.893   4.311 -33.956  1.00  0.00    -0.271 OA
HETATM   16  C   UNL     1      -8.444   2.119 -31.420  1.00  0.00     0.028 C 
BRANCH  13  17
HETATM   17  C   UNL     1     -12.502   2.158 -33.124  1.00  0.00     0.279 C 
HETATM   18  N   UNL     1     -13.914   2.715 -32.800  1.00  0.00    -0.062 N 
HETATM   19  C   UNL     1     -13.941   3.497 -31.507  1.00  0.00     0.270 C 
HETATM   20  H   UNL     1     -14.090   3.415 -33.540  1.00  0.00     0.280 HD
HETATM   21  C   UNL     1     -15.006   1.682 -32.810  1.00  0.00     0.235 C 
HETATM   22  C   UNL     1     -15.023   0.934 -34.129  1.00  0.00     0.028 C 
HETATM   23  C   UNL     1     -13.673   0.298 -34.412  1.00  0.00     0.004 C 
HETATM   24  C   UNL     1     -12.577   1.352 -34.428  1.00  0.00     0.043 C 
ENDBRANCH  13  17
ENDBRANCH   1   9
BRANCH   1  25
HETATM   25  C   UNL     1      -6.582   1.349 -33.398  1.00  0.00    -0.003 A 
HETATM   26  C   UNL     1      -6.359   0.170 -32.687  1.00  0.00     0.126 A 
HETATM   27  N   UNL     1      -6.624  -1.069 -33.160  1.00  0.00    -0.272 NA
HETATM   28  C   UNL     1      -7.127  -1.163 -34.407  1.00  0.00     0.116 A 
HETATM   29  C   UNL     1      -7.394  -0.066 -35.202  1.00  0.00     0.020 A 
HETATM   30  C   UNL     1      -7.124   1.200 -34.687  1.00  0.00     0.013 A 
ENDBRANCH   1  25
BRANCH   5  31
HETATM   31  C   UNL     1      -2.748   4.049 -33.057  1.00  0.00     0.175 C 
BRANCH  31  32
HETATM   32  C   UNL     1      -2.525   5.483 -32.642  1.00  0.00    -0.040 A 
HETATM   33  C   UNL     1      -3.056   5.962 -31.434  1.00  0.00     0.012 A 
HETATM   34  C   UNL     1      -2.862   7.292 -31.058  1.00  0.00     0.043 A 
HETATM   35  C   UNL     1      -2.151   8.145 -31.891  1.00  0.00     0.116 A 
HETATM   36  F   UNL     1      -1.965   9.421 -31.528  1.00  0.00    -0.206 F 
HETATM   37  C   UNL     1      -1.630   7.696 -33.098  1.00  0.00     0.043 A 
HETATM   38  C   UNL     1      -1.818   6.365 -33.476  1.00  0.00     0.012 A 
ENDBRANCH  31  32
ENDBRANCH   5  31
TORSDOF 5
ENDMDL
MODEL 3
REMARK VINA RESULT:      -9.5      1.894      7.141
REMARK  5 active torsions:
REMARK  status: ('A' for Active; 'I' for Inactive)
REMARK    1  A    between atoms: C_4  and  C_5 
REMARK       I    between atoms: C_5  and  N_6 
REMARK    2  A    between atoms: C_9  and  C_10 
REMARK    3  A    between atoms: C_10  and  C_11 
REMARK    4  A    between atoms: N_20  and  C_21 
REMARK    5  A    between atoms: C_21  and  C_22 
ROOT
HETATM    1  C   UNL     1      -5.298   3.626 -31.463  1.00  0.00     0.148 A 
HETATM    2  N   UNL     1      -6.142   2.649 -30.780  1.00  0.00    -0.320 N 
HETATM    3  C   UNL     1      -5.513   1.452 -30.546  1.00  0.00     0.326 A 
HETATM    4  O   UNL     1      -6.012   0.537 -29.916  1.00  0.00    -0.247 OA
HETATM    5  N   UNL     1      -4.306   1.475 -31.157  1.00  0.00    -0.263 N 
HETATM    6  C   UNL     1      -4.095   2.684 -31.750  1.00  0.00     0.262 A 
HETATM    7  O   UNL     1      -3.104   2.972 -32.410  1.00  0.00    -0.270 OA
HETATM    8  H   UNL     1      -6.996   2.857 -30.279  1.00  0.00     0.166 HD
ENDROOT
BRANCH   1   9
HETATM    9  C   UNL     1      -6.037   4.155 -32.741  1.00  0.00     0.031 C 
HETATM   10  C   UNL     1      -5.928   3.287 -34.009  1.00  0.00     0.028 C 
HETATM   11  C   UNL     1      -6.943   2.155 -34.120  1.00  0.00     0.126 C 
HETATM   12  N   UNL     1      -8.319   2.550 -33.799  1.00  0.00    -0.350 N 
HETATM   13  C   UNL     1      -9.313   1.681 -34.250  1.00  0.00     0.251 C 
HETATM   14  C   UNL     1      -8.498   3.401 -32.623  1.00  0.00     0.126 C 
HETATM   15  O   UNL     1      -9.072   0.705 -34.971  1.00  0.00    -0.271 OA
HETATM   16  C   UNL     1      -7.512   4.558 -32.551  1.00  0.00     0.028 C 
BRANCH  13  17
HETATM   17  C   UNL     1     -10.797   1.950 -33.887  1.00  0.00     0.279 C 
HETATM   18  N   UNL     1     -11.508   2.679 -35.059  1.00  0.00    -0.062 N 
HETATM   19  C   UNL     1     -10.903   4.034 -35.346  1.00  0.00     0.270 C 
HETATM   20  H   UNL     1     -11.285   2.105 -35.891  1.00  0.00     0.280 HD
HETATM   21  C   UNL     1     -12.998   2.792 -34.907  1.00  0.00     0.235 C 
HETATM   22  C   UNL     1     -13.618   1.427 -34.679  1.00  0.00     0.028 C 
HETATM   23  C   UNL     1     -13.001   0.743 -33.471  1.00  0.00     0.004 C 
HETATM   24  C   UNL     1     -11.496   0.606 -33.645  1.00  0.00     0.043 C 
ENDBRANCH  13  17
ENDBRANCH   1   9
BRANCH   1  25
HETATM   25  C   UNL     1      -4.970   4.751 -30.483  1.00  0.00    -0.003 A 
HETATM   26  C   UNL     1      -5.611   4.899 -29.253  1.00  0.00     0.126 A 
HETATM   27  N   UNL     1      -5.326   5.869 -28.354  1.00  0.00    -0.272 NA
HETATM   28  C   UNL     1      -4.364   6.755 -28.682  1.00  0.00     0.116 A 
HETATM   29  C   UNL     1      -3.658   6.705 -29.868  1.00  0.00     0.020 A 
HETATM   30  C   UNL     1      -3.962   5.690 -30.772  1.00  0.00     0.013 A 
ENDBRANCH   1  25
BRANCH   5  31
HETATM   31  C   UNL     1      -3.356   0.385 -31.140  1.00  0.00     0.175 C 
BRANCH  31  32
HETATM   32  C   UNL     1      -3.742  -0.710 -32.105  1.00  0.00    -0.040 A 
HETATM   33  C   UNL     1      -4.615  -0.439 -33.171  1.00  0.00     0.012 A 
HETATM   34  C   UNL     1      -4.983  -1.455 -34.054  1.00  0.00     0.043 A 
HETATM   35  C   UNL     1      -4.491  -2.740 -33.868  1.00  0.00     0.116 A 
HETATM   36  F   UNL     1      -4.844  -3.713 -34.717  1.00  0.00    -0.206 F 
HETATM   37  C   UNL     1      -3.639  -3.033 -32.811  1.00  0.00     0.043 A 
HETATM   38  C   UNL     1      -3.265  -2.019 -31.927  1.00  0.00     0.012 A 
ENDBRANCH  31  32
ENDBRANCH   5  31
TORSDOF 5
ENDMDL
MODEL 4
REMARK VINA RESULT:      -9.4      3.271      6.402
REMARK  5 active torsions:
REMARK  status: ('A' for Active; 'I' for Inactive)
REMARK    1  A    between atoms: C_4  and  C_5 
REMARK       I    between atoms: C_5  and  N_6 
REMARK    2  A    between atoms: C_9  and  C_10 
REMARK    3  A    between atoms: C_10  and  C_11 
REMARK    4  A    between atoms: N_20  and  C_21 
REMARK    5  A    between atoms: C_21  and  C_22 
ROOT
HETATM    1  C   UNL     1      -5.152   4.960 -31.714  1.00  0.00     0.148 A 
HETATM    2  N   UNL     1      -4.675   4.034 -30.691  1.00  0.00    -0.320 N 
HETATM    3  C   UNL     1      -5.425   2.889 -30.597  1.00  0.00     0.326 A 
HETATM    4  O   UNL     1      -5.146   1.955 -29.867  1.00  0.00    -0.247 OA
HETATM    5  N   UNL     1      -6.503   3.015 -31.406  1.00  0.00    -0.263 N 
HETATM    6  C   UNL     1      -6.458   4.200 -32.077  1.00  0.00     0.262 A 
HETATM    7  O   UNL     1      -7.325   4.596 -32.847  1.00  0.00    -0.270 OA
HETATM    8  H   UNL     1      -3.760   4.054 -30.259  1.00  0.00     0.166 HD
ENDROOT
BRANCH   1   9
HETATM    9  C   UNL     1      -5.372   6.377 -31.078  1.00  0.00     0.031 C 
HETATM   10  C   UNL     1      -5.779   6.409 -29.592  1.00  0.00     0.028 C 
HETATM   11  C   UNL     1      -4.628   6.347 -28.594  1.00  0.00     0.126 C 
HETATM   12  N   UNL     1      -3.509   7.240 -28.913  1.00  0.00    -0.350 N 
HETATM   13  C   UNL     1      -2.633   7.503 -27.860  1.00  0.00     0.251 C 
HETATM   14  C   UNL     1      -3.085   7.285 -30.312  1.00  0.00     0.126 C 
HETATM   15  O   UNL     1      -2.839   7.113 -26.704  1.00  0.00    -0.271 OA
HETATM   16  C   UNL     1      -4.241   7.399 -31.296  1.00  0.00     0.028 C 
BRANCH  13  17
HETATM   17  C   UNL     1      -1.363   8.360 -28.107  1.00  0.00     0.279 C 
HETATM   18  N   UNL     1      -1.175   9.378 -26.950  1.00  0.00    -0.062 N 
HETATM   19  C   UNL     1      -2.319  10.360 -26.856  1.00  0.00     0.270 C 
HETATM   20  H   UNL     1      -1.241   8.806 -26.091  1.00  0.00     0.280 HD
HETATM   21  C   UNL     1       0.140  10.106 -26.973  1.00  0.00     0.235 C 
HETATM   22  C   UNL     1       1.295   9.125 -27.008  1.00  0.00     0.028 C 
HETATM   23  C   UNL     1       1.176   8.184 -28.195  1.00  0.00     0.004 C 
HETATM   24  C   UNL     1      -0.144   7.430 -28.149  1.00  0.00     0.043 C 
ENDBRANCH  13  17
ENDBRANCH   1   9
BRANCH   1  25
HETATM   25  C   UNL     1      -4.131   4.995 -32.850  1.00  0.00    -0.003 A 
HETATM   26  C   UNL     1      -4.433   5.460 -34.129  1.00  0.00     0.126 A 
HETATM   27  N   UNL     1      -3.545   5.526 -35.148  1.00  0.00    -0.272 NA
HETATM   28  C   UNL     1      -2.289   5.102 -34.904  1.00  0.00     0.116 A 
HETATM   29  C   UNL     1      -1.873   4.627 -33.676  1.00  0.00     0.020 A 
HETATM   30  C   UNL     1      -2.803   4.580 -32.640  1.00  0.00     0.013 A 
ENDBRANCH   1  25
BRANCH   5  31
HETATM   31  C   UNL     1      -7.529   2.009 -31.568  1.00  0.00     0.175 C 
BRANCH  31  32
HETATM   32  C   UNL     1      -7.147   0.982 -32.607  1.00  0.00    -0.040 A 
HETATM   33  C   UNL     1      -7.427   1.208 -33.963  1.00  0.00     0.012 A 
HETATM   34  C   UNL     1      -7.087   0.252 -34.921  1.00  0.00     0.043 A 
HETATM   35  C   UNL     1      -6.480  -0.932 -34.525  1.00  0.00     0.116 A 
HETATM   36  F   UNL     1      -6.153  -1.848 -35.446  1.00  0.00    -0.206 F 
HETATM   37  C   UNL     1      -6.208  -1.183 -33.186  1.00  0.00     0.043 A 
HETATM   38  C   UNL     1      -6.542  -0.227 -32.225  1.00  0.00     0.012 A 
ENDBRANCH  31  32
ENDBRANCH   5  31
TORSDOF 5
ENDMDL
MODEL 5
REMARK VINA RESULT:      -9.3      1.906      2.408
REMARK  5 active torsions:
REMARK  status: ('A' for Active; 'I' for Inactive)
REMARK    1  A    between atoms: C_4  and  C_5 
REMARK       I    between atoms: C_5  and  N_6 
REMARK    2  A    between atoms: C_9  and  C_10 
REMARK    3  A    between atoms: C_10  and  C_11 
REMARK    4  A    between atoms: N_20  and  C_21 
REMARK    5  A    between atoms: C_21  and  C_22 
ROOT
HETATM    1  C   UNL     1      -8.575   2.777 -32.574  1.00  0.00     0.148 A 
HETATM    2  N   UNL     1      -7.705   2.875 -33.742  1.00  0.00    -0.320 N 
HETATM    3  C   UNL     1      -7.383   1.657 -34.287  1.00  0.00     0.326 A 
HETATM    4  O   UNL     1      -6.739   1.523 -35.312  1.00  0.00    -0.247 OA
HETATM    5  N   UNL     1      -7.864   0.684 -33.479  1.00  0.00    -0.263 N 
HETATM    6  C   UNL     1      -8.546   1.230 -32.432  1.00  0.00     0.262 A 
HETATM    7  O   UNL     1      -9.054   0.586 -31.523  1.00  0.00    -0.270 OA
HETATM    8  H   UNL     1      -7.543   3.711 -34.289  1.00  0.00     0.166 HD
ENDROOT
BRANCH   1   9
HETATM    9  C   UNL     1      -7.933   3.558 -31.375  1.00  0.00     0.031 C 
HETATM   10  C   UNL     1      -6.921   2.782 -30.510  1.00  0.00     0.028 C 
HETATM   11  C   UNL     1      -5.487   2.772 -31.027  1.00  0.00     0.126 C 
HETATM   12  N   UNL     1      -4.997   4.084 -31.464  1.00  0.00    -0.350 N 
HETATM   13  C   UNL     1      -3.611   4.201 -31.573  1.00  0.00     0.251 C 
HETATM   14  C   UNL     1      -5.916   4.892 -32.265  1.00  0.00     0.126 C 
HETATM   15  O   UNL     1      -2.834   3.307 -31.217  1.00  0.00    -0.271 OA
HETATM   16  C   UNL     1      -7.332   4.937 -31.711  1.00  0.00     0.028 C 
BRANCH  13  17
HETATM   17  C   UNL     1      -2.987   5.514 -32.114  1.00  0.00     0.279 C 
HETATM   18  N   UNL     1      -2.349   6.319 -30.951  1.00  0.00    -0.062 N 
HETATM   19  C   UNL     1      -3.367   6.745 -29.919  1.00  0.00     0.270 C 
HETATM   20  H   UNL     1      -1.745   5.634 -30.465  1.00  0.00     0.280 HD
HETATM   21  C   UNL     1      -1.525   7.497 -31.391  1.00  0.00     0.235 C 
HETATM   22  C   UNL     1      -0.461   7.066 -32.382  1.00  0.00     0.028 C 
HETATM   23  C   UNL     1      -1.083   6.363 -33.577  1.00  0.00     0.004 C 
HETATM   24  C   UNL     1      -1.891   5.156 -33.127  1.00  0.00     0.043 C 
ENDBRANCH  13  17
ENDBRANCH   1   9
BRANCH   1  25
HETATM   25  C   UNL     1      -9.950   3.330 -32.948  1.00  0.00    -0.003 A 
HETATM   26  C   UNL     1     -10.980   3.493 -32.022  1.00  0.00     0.126 A 
HETATM   27  N   UNL     1     -12.199   4.002 -32.316  1.00  0.00    -0.272 NA
HETATM   28  C   UNL     1     -12.427   4.364 -33.594  1.00  0.00     0.116 A 
HETATM   29  C   UNL     1     -11.481   4.255 -34.595  1.00  0.00     0.020 A 
HETATM   30  C   UNL     1     -10.231   3.739 -34.264  1.00  0.00     0.013 A 
ENDBRANCH   1  25
BRANCH   5  31
HETATM   31  C   UNL     1      -7.715  -0.733 -33.721  1.00  0.00     0.175 C 
BRANCH  31  32
HETATM   32  C   UNL     1      -6.349  -1.231 -33.311  1.00  0.00    -0.040 A 
HETATM   33  C   UNL     1      -5.743  -0.751 -32.140  1.00  0.00     0.012 A 
HETATM   34  C   UNL     1      -4.474  -1.200 -31.769  1.00  0.00     0.043 A 
HETATM   35  C   UNL     1      -3.807  -2.116 -32.573  1.00  0.00     0.116 A 
HETATM   36  F   UNL     1      -2.591  -2.546 -32.215  1.00  0.00    -0.206 F 
HETATM   37  C   UNL     1      -4.383  -2.591 -33.744  1.00  0.00     0.043 A 
HETATM   38  C   UNL     1      -5.653  -2.148 -34.116  1.00  0.00     0.012 A 
ENDBRANCH  31  32
ENDBRANCH   5  31
TORSDOF 5
ENDMDL
MODEL 6
REMARK VINA RESULT:      -9.2      2.843      6.869
REMARK  5 active torsions:
REMARK  status: ('A' for Active; 'I' for Inactive)
REMARK    1  A    between atoms: C_4  and  C_5 
REMARK       I    between atoms: C_5  and  N_6 
REMARK    2  A    between atoms: C_9  and  C_10 
REMARK    3  A    between atoms: C_10  and  C_11 
REMARK    4  A    between atoms: N_20  and  C_21 
REMARK    5  A    between atoms: C_21  and  C_22 
ROOT
HETATM    1  C   UNL     1      -6.679  -0.001 -33.023  1.00  0.00     0.148 A 
HETATM    2  N   UNL     1      -6.134   1.194 -33.660  1.00  0.00    -0.320 N 
HETATM    3  C   UNL     1      -5.533   2.057 -32.778  1.00  0.00     0.326 A 
HETATM    4  O   UNL     1      -4.943   3.068 -33.115  1.00  0.00    -0.247 OA
HETATM    5  N   UNL     1      -5.749   1.605 -31.520  1.00  0.00    -0.263 N 
HETATM    6  C   UNL     1      -6.438   0.429 -31.549  1.00  0.00     0.262 A 
HETATM    7  O   UNL     1      -6.807  -0.185 -30.556  1.00  0.00    -0.270 OA
HETATM    8  H   UNL     1      -5.953   1.304 -34.649  1.00  0.00     0.166 HD
ENDROOT
BRANCH   1   9
HETATM    9  C   UNL     1      -8.188  -0.165 -33.420  1.00  0.00     0.031 C 
HETATM   10  C   UNL     1      -9.223   0.044 -32.297  1.00  0.00     0.028 C 
HETATM   11  C   UNL     1      -9.639   1.488 -32.047  1.00  0.00     0.126 C 
HETATM   12  N   UNL     1      -9.941   2.246 -33.267  1.00  0.00    -0.350 N 
HETATM   13  C   UNL     1     -10.680   3.414 -33.079  1.00  0.00     0.251 C 
HETATM   14  C   UNL     1      -9.018   2.075 -34.387  1.00  0.00     0.126 C 
HETATM   15  O   UNL     1     -11.154   3.738 -31.984  1.00  0.00    -0.271 OA
HETATM   16  C   UNL     1      -8.650   0.624 -34.661  1.00  0.00     0.028 C 
BRANCH  13  17
HETATM   17  C   UNL     1     -10.977   4.341 -34.287  1.00  0.00     0.279 C 
HETATM   18  N   UNL     1     -12.486   4.281 -34.645  1.00  0.00    -0.062 N 
HETATM   19  C   UNL     1     -12.921   2.899 -35.073  1.00  0.00     0.270 C 
HETATM   20  H   UNL     1     -12.971   4.448 -33.747  1.00  0.00     0.280 HD
HETATM   21  C   UNL     1     -12.925   5.304 -35.655  1.00  0.00     0.235 C 
HETATM   22  C   UNL     1     -12.545   6.700 -35.202  1.00  0.00     0.028 C 
HETATM   23  C   UNL     1     -11.051   6.801 -34.943  1.00  0.00     0.004 C 
HETATM   24  C   UNL     1     -10.619   5.782 -33.900  1.00  0.00     0.043 C 
ENDBRANCH  13  17
ENDBRANCH   1   9
BRANCH   1  25
HETATM   25  C   UNL     1      -5.841  -1.204 -33.452  1.00  0.00    -0.003 A 
HETATM   26  C   UNL     1      -4.602  -1.507 -32.888  1.00  0.00     0.126 A 
HETATM   27  N   UNL     1      -3.848  -2.577 -33.229  1.00  0.00    -0.272 NA
HETATM   28  C   UNL     1      -4.329  -3.395 -34.186  1.00  0.00     0.116 A 
HETATM   29  C   UNL     1      -5.545  -3.199 -34.812  1.00  0.00     0.020 A 
HETATM   30  C   UNL     1      -6.307  -2.097 -34.435  1.00  0.00     0.013 A 
ENDBRANCH   1  25
BRANCH   5  31
HETATM   31  C   UNL     1      -5.272   2.256 -30.321  1.00  0.00     0.175 C 
BRANCH  31  32
HETATM   32  C   UNL     1      -6.154   3.416 -29.925  1.00  0.00    -0.040 A 
HETATM   33  C   UNL     1      -7.547   3.329 -30.071  1.00  0.00     0.012 A 
HETATM   34  C   UNL     1      -8.361   4.407 -29.719  1.00  0.00     0.043 A 
HETATM   35  C   UNL     1      -7.785   5.573 -29.234  1.00  0.00     0.116 A 
HETATM   36  F   UNL     1      -8.567   6.606 -28.895  1.00  0.00    -0.206 F 
HETATM   37  C   UNL     1      -6.407   5.687 -29.097  1.00  0.00     0.043 A 
HETATM   38  C   UNL     1      -5.590   4.609 -29.444  1.00  0.00     0.012 A 
ENDBRANCH  31  32
ENDBRANCH   5  31
TORSDOF 5
ENDMDL
MODEL 7
REMARK VINA RESULT:      -9.0      2.137      2.642
REMARK  5 active torsions:
REMARK  status: ('A' for Active; 'I' for Inactive)
REMARK    1  A    between atoms: C_4  and  C_5 
REMARK       I    between atoms: C_5  and  N_6 
REMARK    2  A    between atoms: C_9  and  C_10 
REMARK    3  A    between atoms: C_10  and  C_11 
REMARK    4  A    between atoms: N_20  and  C_21 
REMARK    5  A    between atoms: C_21  and  C_22 
ROOT
HETATM    1  C   UNL     1      -8.698   2.356 -33.152  1.00  0.00     0.148 A 
HETATM    2  N   UNL     1      -7.993   2.139 -34.412  1.00  0.00    -0.320 N 
HETATM    3  C   UNL     1      -7.027   1.168 -34.338  1.00  0.00     0.326 A 
HETATM    4  O   UNL     1      -6.385   0.777 -35.296  1.00  0.00    -0.247 OA
HETATM    5  N   UNL     1      -6.907   0.779 -33.047  1.00  0.00    -0.263 N 
HETATM    6  C   UNL     1      -7.812   1.435 -32.267  1.00  0.00     0.262 A 
HETATM    7  O   UNL     1      -7.902   1.310 -31.052  1.00  0.00    -0.270 OA
HETATM    8  H   UNL     1      -8.310   2.443 -35.324  1.00  0.00     0.166 HD
ENDROOT
BRANCH   1   9
HETATM    9  C   UNL     1      -8.643   3.878 -32.775  1.00  0.00     0.031 C 
HETATM   10  C   UNL     1      -8.225   4.216 -31.331  1.00  0.00     0.028 C 
HETATM   11  C   UNL     1      -6.723   4.293 -31.083  1.00  0.00     0.126 C 
HETATM   12  N   UNL     1      -5.985   5.053 -32.097  1.00  0.00    -0.350 N 
HETATM   13  C   UNL     1      -4.709   5.473 -31.721  1.00  0.00     0.251 C 
HETATM   14  C   UNL     1      -6.349   4.807 -33.492  1.00  0.00     0.126 C 
HETATM   15  O   UNL     1      -4.265   5.323 -30.576  1.00  0.00    -0.271 OA
HETATM   16  C   UNL     1      -7.851   4.784 -33.737  1.00  0.00     0.028 C 
BRANCH  13  17
HETATM   17  C   UNL     1      -3.804   6.204 -32.746  1.00  0.00     0.279 C 
HETATM   18  N   UNL     1      -2.923   7.258 -32.023  1.00  0.00    -0.062 N 
HETATM   19  C   UNL     1      -3.746   8.338 -31.360  1.00  0.00     0.270 C 
HETATM   20  H   UNL     1      -2.487   6.737 -31.243  1.00  0.00     0.280 HD
HETATM   21  C   UNL     1      -1.853   7.869 -32.884  1.00  0.00     0.235 C 
HETATM   22  C   UNL     1      -0.986   6.792 -33.505  1.00  0.00     0.028 C 
HETATM   23  C   UNL     1      -1.826   5.808 -34.302  1.00  0.00     0.004 C 
HETATM   24  C   UNL     1      -2.888   5.173 -33.418  1.00  0.00     0.043 C 
ENDBRANCH  13  17
ENDBRANCH   1   9
BRANCH   1  25
HETATM   25  C   UNL     1     -10.133   1.856 -33.307  1.00  0.00    -0.003 A 
HETATM   26  C   UNL     1     -11.211   2.705 -33.557  1.00  0.00     0.126 A 
HETATM   27  N   UNL     1     -12.488   2.290 -33.724  1.00  0.00    -0.272 NA
HETATM   28  C   UNL     1     -12.727   0.967 -33.631  1.00  0.00     0.116 A 
HETATM   29  C   UNL     1     -11.739   0.031 -33.393  1.00  0.00     0.020 A 
HETATM   30  C   UNL     1     -10.431   0.483 -33.236  1.00  0.00     0.013 A 
ENDBRANCH   1  25
BRANCH   5  31
HETATM   31  C   UNL     1      -5.982  -0.226 -32.575  1.00  0.00     0.175 C 
BRANCH  31  32
HETATM   32  C   UNL     1      -5.970  -1.441 -33.471  1.00  0.00    -0.040 A 
HETATM   33  C   UNL     1      -7.172  -2.080 -33.814  1.00  0.00     0.012 A 
HETATM   34  C   UNL     1      -7.160  -3.212 -34.631  1.00  0.00     0.043 A 
HETATM   35  C   UNL     1      -5.950  -3.713 -35.094  1.00  0.00     0.116 A 
HETATM   36  F   UNL     1      -5.941  -4.798 -35.878  1.00  0.00    -0.206 F 
HETATM   37  C   UNL     1      -4.748  -3.105 -34.753  1.00  0.00     0.043 A 
HETATM   38  C   UNL     1      -4.756  -1.970 -33.940  1.00  0.00     0.012 A 
ENDBRANCH  31  32
ENDBRANCH   5  31
TORSDOF 5
ENDMDL
MODEL 8
REMARK VINA RESULT:      -9.0      2.970      8.168
REMARK  5 active torsions:
REMARK  status: ('A' for Active; 'I' for Inactive)
REMARK    1  A    between atoms: C_4  and  C_5 
REMARK       I    between atoms: C_5  and  N_6 
REMARK    2  A    between atoms: C_9  and  C_10 
REMARK    3  A    between atoms: C_10  and  C_11 
REMARK    4  A    between atoms: N_20  and  C_21 
REMARK    5  A    between atoms: C_21  and  C_22 
ROOT
HETATM    1  C   UNL     1      -4.564   5.823 -31.757  1.00  0.00     0.148 A 
HETATM    2  N   UNL     1      -4.170   4.427 -31.595  1.00  0.00    -0.320 N 
HETATM    3  C   UNL     1      -2.810   4.240 -31.588  1.00  0.00     0.326 A 
HETATM    4  O   UNL     1      -2.276   3.166 -31.380  1.00  0.00    -0.247 OA
HETATM    5  N   UNL     1      -2.213   5.418 -31.883  1.00  0.00    -0.263 N 
HETATM    6  C   UNL     1      -3.147   6.400 -32.035  1.00  0.00     0.262 A 
HETATM    7  O   UNL     1      -2.895   7.557 -32.344  1.00  0.00    -0.270 OA
HETATM    8  H   UNL     1      -4.765   3.682 -31.257  1.00  0.00     0.166 HD
ENDROOT
BRANCH   1   9
HETATM    9  C   UNL     1      -5.569   5.948 -32.956  1.00  0.00     0.031 C 
HETATM   10  C   UNL     1      -5.260   5.101 -34.205  1.00  0.00     0.028 C 
HETATM   11  C   UNL     1      -5.772   3.666 -34.169  1.00  0.00     0.126 C 
HETATM   12  N   UNL     1      -7.157   3.534 -33.703  1.00  0.00    -0.350 N 
HETATM   13  C   UNL     1      -7.782   2.327 -34.014  1.00  0.00     0.251 C 
HETATM   14  C   UNL     1      -7.532   4.332 -32.536  1.00  0.00     0.126 C 
HETATM   15  O   UNL     1      -7.258   1.467 -34.732  1.00  0.00    -0.271 OA
HETATM   16  C   UNL     1      -7.060   5.777 -32.607  1.00  0.00     0.028 C 
BRANCH  13  17
HETATM   17  C   UNL     1      -9.214   2.042 -33.490  1.00  0.00     0.279 C 
HETATM   18  N   UNL     1     -10.264   2.466 -34.552  1.00  0.00    -0.062 N 
HETATM   19  C   UNL     1     -10.221   3.949 -34.842  1.00  0.00     0.270 C 
HETATM   20  H   UNL     1      -9.944   2.013 -35.425  1.00  0.00     0.280 HD
HETATM   21  C   UNL     1     -11.669   2.033 -34.242  1.00  0.00     0.235 C 
HETATM   22  C   UNL     1     -11.729   0.536 -34.009  1.00  0.00     0.028 C 
HETATM   23  C   UNL     1     -10.778   0.119 -32.900  1.00  0.00     0.004 C 
HETATM   24  C   UNL     1      -9.354   0.536 -33.233  1.00  0.00     0.043 C 
ENDBRANCH  13  17
ENDBRANCH   1   9
BRANCH   1  25
HETATM   25  C   UNL     1      -5.174   6.310 -30.445  1.00  0.00    -0.003 A 
HETATM   26  C   UNL     1      -5.421   7.656 -30.175  1.00  0.00     0.126 A 
HETATM   27  N   UNL     1      -5.983   8.116 -29.033  1.00  0.00    -0.272 NA
HETATM   28  C   UNL     1      -6.313   7.207 -28.094  1.00  0.00     0.116 A 
HETATM   29  C   UNL     1      -6.122   5.848 -28.253  1.00  0.00     0.020 A 
HETATM   30  C   UNL     1      -5.553   5.399 -29.441  1.00  0.00     0.013 A 
ENDBRANCH   1  25
BRANCH   5  31
HETATM   31  C   UNL     1      -0.784   5.614 -31.975  1.00  0.00     0.175 C 
BRANCH  31  32
HETATM   32  C   UNL     1      -0.183   5.985 -30.641  1.00  0.00    -0.040 A 
HETATM   33  C   UNL     1       0.326   4.990 -29.792  1.00  0.00     0.012 A 
HETATM   34  C   UNL     1       0.868   5.331 -28.552  1.00  0.00     0.043 A 
HETATM   35  C   UNL     1       0.892   6.662 -28.155  1.00  0.00     0.116 A 
HETATM   36  F   UNL     1       1.414   6.988 -26.966  1.00  0.00    -0.206 F 
HETATM   37  C   UNL     1       0.380   7.661 -28.974  1.00  0.00     0.043 A 
HETATM   38  C   UNL     1      -0.160   7.324 -30.216  1.00  0.00     0.012 A 
ENDBRANCH  31  32
ENDBRANCH   5  31
TORSDOF 5
ENDMDL
MODEL 9
REMARK VINA RESULT:      -8.9      3.560      8.053
REMARK  5 active torsions:
REMARK  status: ('A' for Active; 'I' for Inactive)
REMARK    1  A    between atoms: C_4  and  C_5 
REMARK       I    between atoms: C_5  and  N_6 
REMARK    2  A    between atoms: C_9  and  C_10 
REMARK    3  A    between atoms: C_10  and  C_11 
REMARK    4  A    between atoms: N_20  and  C_21 
REMARK    5  A    between atoms: C_21  and  C_22 
ROOT
HETATM    1  C   UNL     1      -4.470   5.013 -32.013  1.00  0.00     0.148 A 
HETATM    2  N   UNL     1      -5.240   4.629 -33.193  1.00  0.00    -0.320 N 
HETATM    3  C   UNL     1      -6.441   5.284 -33.297  1.00  0.00     0.326 A 
HETATM    4  O   UNL     1      -7.193   5.170 -34.249  1.00  0.00    -0.247 OA
HETATM    5  N   UNL     1      -6.634   6.011 -32.172  1.00  0.00    -0.263 N 
HETATM    6  C   UNL     1      -5.558   5.896 -31.342  1.00  0.00     0.262 A 
HETATM    7  O   UNL     1      -5.475   6.415 -30.236  1.00  0.00    -0.270 OA
HETATM    8  H   UNL     1      -4.874   4.150 -34.005  1.00  0.00     0.166 HD
ENDROOT
BRANCH   1   9
HETATM    9  C   UNL     1      -4.076   3.728 -31.203  1.00  0.00     0.031 C 
HETATM   10  C   UNL     1      -5.215   3.012 -30.452  1.00  0.00     0.028 C 
HETATM   11  C   UNL     1      -6.022   2.016 -31.278  1.00  0.00     0.126 C 
HETATM   12  N   UNL     1      -5.205   1.114 -32.097  1.00  0.00    -0.350 N 
HETATM   13  C   UNL     1      -5.854  -0.033 -32.553  1.00  0.00     0.251 C 
HETATM   14  C   UNL     1      -4.086   1.719 -32.817  1.00  0.00     0.126 C 
HETATM   15  O   UNL     1      -6.999  -0.340 -32.202  1.00  0.00    -0.271 OA
HETATM   16  C   UNL     1      -3.256   2.672 -31.968  1.00  0.00     0.028 C 
BRANCH  13  17
HETATM   17  C   UNL     1      -5.115  -1.011 -33.504  1.00  0.00     0.279 C 
HETATM   18  N   UNL     1      -4.379  -2.102 -32.680  1.00  0.00    -0.062 N 
HETATM   19  C   UNL     1      -3.314  -1.522 -31.779  1.00  0.00     0.270 C 
HETATM   20  H   UNL     1      -5.102  -2.469 -32.037  1.00  0.00     0.280 HD
HETATM   21  C   UNL     1      -3.815  -3.226 -33.502  1.00  0.00     0.235 C 
HETATM   22  C   UNL     1      -4.894  -3.852 -34.364  1.00  0.00     0.028 C 
HETATM   23  C   UNL     1      -5.555  -2.811 -35.251  1.00  0.00     0.004 C 
HETATM   24  C   UNL     1      -6.148  -1.691 -34.411  1.00  0.00     0.043 C 
ENDBRANCH  13  17
ENDBRANCH   1   9
BRANCH   1  25
HETATM   25  C   UNL     1      -3.243   5.799 -32.471  1.00  0.00    -0.003 A 
HETATM   26  C   UNL     1      -3.044   6.197 -33.793  1.00  0.00     0.126 A 
HETATM   27  N   UNL     1      -1.982   6.914 -34.224  1.00  0.00    -0.272 NA
HETATM   28  C   UNL     1      -1.052   7.255 -33.310  1.00  0.00     0.116 A 
HETATM   29  C   UNL     1      -1.144   6.923 -31.973  1.00  0.00     0.020 A 
HETATM   30  C   UNL     1      -2.253   6.194 -31.552  1.00  0.00     0.013 A 
ENDBRANCH   1  25
BRANCH   5  31
HETATM   31  C   UNL     1      -7.795   6.832 -31.914  1.00  0.00     0.175 C 
BRANCH  31  32
HETATM   32  C   UNL     1      -9.023   5.996 -31.644  1.00  0.00    -0.040 A 
HETATM   33  C   UNL     1      -9.003   5.009 -30.647  1.00  0.00     0.012 A 
HETATM   34  C   UNL     1     -10.133   4.226 -30.408  1.00  0.00     0.043 A 
HETATM   35  C   UNL     1     -11.277   4.420 -31.171  1.00  0.00     0.116 A 
HETATM   36  F   UNL     1     -12.361   3.669 -30.940  1.00  0.00    -0.206 F 
HETATM   37  C   UNL     1     -11.313   5.381 -32.174  1.00  0.00     0.043 A 
HETATM   38  C   UNL     1     -10.186   6.169 -32.413  1.00  0.00     0.012 A 
ENDBRANCH  31  32
ENDBRANCH   5  31
TORSDOF 5
ENDMDL
MODEL 10
REMARK VINA RESULT:      -8.9      2.528      7.022
REMARK  5 active torsions:
REMARK  status: ('A' for Active; 'I' for Inactive)
REMARK    1  A    between atoms: C_4  and  C_5 
REMARK       I    between atoms: C_5  and  N_6 
REMARK    2  A    between atoms: C_9  and  C_10 
REMARK    3  A    between atoms: C_10  and  C_11 
REMARK    4  A    between atoms: N_20  and  C_21 
REMARK    5  A    between atoms: C_21  and  C_22 
ROOT
HETATM    1  C   UNL     1      -6.908   2.900 -32.587  1.00  0.00     0.148 A 
HETATM    2  N   UNL     1      -7.166   2.114 -31.384  1.00  0.00    -0.320 N 
HETATM    3  C   UNL     1      -7.501   0.809 -31.645  1.00  0.00     0.326 A 
HETATM    4  O   UNL     1      -7.672  -0.032 -30.781  1.00  0.00    -0.247 OA
HETATM    5  N   UNL     1      -7.636   0.660 -32.984  1.00  0.00    -0.263 N 
HETATM    6  C   UNL     1      -7.346   1.828 -33.624  1.00  0.00     0.262 A 
HETATM    7  O   UNL     1      -7.424   1.995 -34.835  1.00  0.00    -0.270 OA
HETATM    8  H   UNL     1      -6.890   2.367 -30.444  1.00  0.00     0.166 HD
ENDROOT
BRANCH   1   9
HETATM    9  C   UNL     1      -7.794   4.195 -32.568  1.00  0.00     0.031 C 
HETATM   10  C   UNL     1      -8.390   4.642 -33.918  1.00  0.00     0.028 C 
HETATM   11  C   UNL     1      -9.703   3.975 -34.309  1.00  0.00     0.126 C 
HETATM   12  N   UNL     1     -10.691   3.914 -33.226  1.00  0.00    -0.350 N 
HETATM   13  C   UNL     1     -12.006   3.676 -33.627  1.00  0.00     0.251 C 
HETATM   14  C   UNL     1     -10.193   3.524 -31.907  1.00  0.00     0.126 C 
HETATM   15  O   UNL     1     -12.347   3.636 -34.815  1.00  0.00    -0.271 OA
HETATM   16  C   UNL     1      -8.908   4.235 -31.505  1.00  0.00     0.028 C 
BRANCH  13  17
HETATM   17  C   UNL     1     -13.118   3.500 -32.560  1.00  0.00     0.279 C 
HETATM   18  N   UNL     1     -14.070   4.726 -32.575  1.00  0.00    -0.062 N 
HETATM   19  C   UNL     1     -13.359   6.010 -32.216  1.00  0.00     0.270 C 
HETATM   20  H   UNL     1     -14.334   4.834 -33.569  1.00  0.00     0.280 HD
HETATM   21  C   UNL     1     -15.307   4.561 -31.738  1.00  0.00     0.235 C 
HETATM   22  C   UNL     1     -16.057   3.304 -32.134  1.00  0.00     0.028 C 
HETATM   23  C   UNL     1     -15.164   2.080 -32.027  1.00  0.00     0.004 C 
HETATM   24  C   UNL     1     -13.929   2.242 -32.898  1.00  0.00     0.043 C 
ENDBRANCH  13  17
ENDBRANCH   1   9
BRANCH   1  25
HETATM   25  C   UNL     1      -5.417   3.227 -32.641  1.00  0.00    -0.003 A 
HETATM   26  C   UNL     1      -4.880   4.186 -33.501  1.00  0.00     0.126 A 
HETATM   27  N   UNL     1      -3.568   4.515 -33.554  1.00  0.00    -0.272 NA
HETATM   28  C   UNL     1      -2.730   3.860 -32.726  1.00  0.00     0.116 A 
HETATM   29  C   UNL     1      -3.148   2.897 -31.828  1.00  0.00     0.020 A 
HETATM   30  C   UNL     1      -4.505   2.584 -31.784  1.00  0.00     0.013 A 
ENDBRANCH   1  25
BRANCH   5  31
HETATM   31  C   UNL     1      -7.991  -0.578 -33.640  1.00  0.00     0.175 C 
BRANCH  31  32
HETATM   32  C   UNL     1      -6.779  -1.440 -33.902  1.00  0.00    -0.040 A 
HETATM   33  C   UNL     1      -6.922  -2.698 -34.508  1.00  0.00     0.012 A 
HETATM   34  C   UNL     1      -5.803  -3.501 -34.736  1.00  0.00     0.043 A 
HETATM   35  C   UNL     1      -4.546  -3.054 -34.350  1.00  0.00     0.116 A 
HETATM   36  F   UNL     1      -3.474  -3.825 -34.571  1.00  0.00    -0.206 F 
HETATM   37  C   UNL     1      -4.384  -1.819 -33.735  1.00  0.00     0.043 A 
HETATM   38  C   UNL     1      -5.500  -1.011 -33.508  1.00  0.00     0.012 A 
ENDBRANCH  31  32
ENDBRANCH   5  31
TORSDOF 5
ENDMDL
