MODEL 1
REMARK VINA RESULT:      -8.8      0.000      0.000
REMARK  9 active torsions:
REMARK  status: ('A' for Active; 'I' for Inactive)
REMARK    1  A    between atoms: O_2  and  C_3 
REMARK    2  A    between atoms: C_6  and  C_7 
REMARK    3  A    between atoms: C_13  and  C_14 
REMARK       I    between atoms: C_14  and  N_15 
REMARK    4  A    between atoms: N_15  and  N_16 
REMARK    5  A    between atoms: N_16  and  C_17 
REMARK    6  A    between atoms: C_17  and  N_18 
REMARK    7  A    between atoms: N_18  and  C_19 
REMARK    8  A    between atoms: C_19  and  C_20 
REMARK    9  A    between atoms: C_27  and  C_28 
ROOT
HETATM    1  C   UNL     1      -6.502   0.650 -32.790  1.00  0.00     0.118 C 
HETATM    2  N   UNL     1      -5.423   1.636 -32.758  1.00  0.00    -0.365 N 
HETATM    3  C   UNL     1      -5.723   2.866 -32.261  1.00  0.00     0.138 A 
HETATM    4  N   UNL     1      -7.023   3.321 -32.297  1.00  0.00    -0.240 N 
HETATM    5  N   UNL     1      -7.206   4.471 -31.631  1.00  0.00    -0.181 NA
HETATM    6  C   UNL     1      -5.965   4.829 -31.296  1.00  0.00     0.160 A 
HETATM    7  C   UNL     1      -4.985   3.864 -31.652  1.00  0.00     0.098 A 
HETATM    8  C   UNL     1      -8.153   2.563 -32.808  1.00  0.00     0.221 C 
HETATM    9  C   UNL     1      -7.691   1.282 -33.529  1.00  0.00     0.066 C 
HETATM   10  H   UNL     1      -4.490   1.252 -32.586  1.00  0.00     0.161 HD
ENDROOT
BRANCH   7  11
HETATM   11  C   UNL     1      -3.552   3.919 -31.427  1.00  0.00     0.275 C 
HETATM   12  N   UNL     1      -3.129   5.086 -30.809  1.00  0.00    -0.263 N 
HETATM   13  H   UNL     1      -3.774   5.655 -30.268  1.00  0.00     0.190 HD
HETATM   14  O   UNL     1      -2.774   3.030 -31.763  1.00  0.00    -0.266 OA
BRANCH  12  15
HETATM   15  N   UNL     1      -1.764   5.278 -30.538  1.00  0.00    -0.274 N 
HETATM   16  H   UNL     1      -1.395   4.665 -29.810  1.00  0.00     0.189 HD
BRANCH  15  17
HETATM   17  C   UNL     1      -1.213   6.536 -30.598  1.00  0.00     0.186 C 
HETATM   18  S   UNL     1       0.168   7.032 -29.797  1.00  0.00    -0.040 SA
BRANCH  17  19
HETATM   19  N   UNL     1      -1.913   7.452 -31.329  1.00  0.00    -0.360 N 
HETATM   20  H   UNL     1      -2.872   7.581 -31.032  1.00  0.00     0.162 HD
BRANCH  19  21
HETATM   21  C   UNL     1      -1.623   7.836 -32.702  1.00  0.00     0.187 C 
BRANCH  21  22
HETATM   22  C   UNL     1      -1.977   6.743 -33.634  1.00  0.00     0.070 A 
HETATM   23  O   UNL     1      -3.307   6.499 -33.816  1.00  0.00    -0.325 OA
HETATM   24  C   UNL     1      -3.403   5.447 -34.668  1.00  0.00     0.142 A 
HETATM   25  C   UNL     1      -2.153   5.006 -35.033  1.00  0.00     0.027 A 
HETATM   26  C   UNL     1      -1.229   5.841 -34.363  1.00  0.00     0.036 A 
ENDBRANCH  21  22
ENDBRANCH  19  21
ENDBRANCH  17  19
ENDBRANCH  15  17
ENDBRANCH  12  15
ENDBRANCH   7  11
BRANCH   1  27
HETATM   27  C   UNL     1      -6.040  -0.656 -33.404  1.00  0.00    -0.035 A 
HETATM   28  C   UNL     1      -4.741  -1.118 -33.140  1.00  0.00     0.012 A 
HETATM   29  C   UNL     1      -4.314  -2.361 -33.612  1.00  0.00     0.037 A 
HETATM   30  C   UNL     1      -5.174  -3.172 -34.350  1.00  0.00     0.068 A 
HETATM   31  C   UNL     1      -6.445  -2.700 -34.673  1.00  0.00     0.037 A 
HETATM   32  C   UNL     1      -6.871  -1.447 -34.211  1.00  0.00     0.012 A 
BRANCH  30  33
HETATM   33  O   UNL     1      -4.660  -4.383 -34.719  1.00  0.00    -0.356 OA
HETATM   34  C   UNL     1      -3.647  -4.910 -33.869  1.00  0.00     0.210 C 
ENDBRANCH  30  33
ENDBRANCH   1  27
BRANCH   8  35
HETATM   35  C   UNL     1      -8.993   3.400 -33.748  1.00  0.00     0.409 C 
HETATM   36  F   UNL     1      -9.592   2.658 -34.707  1.00  0.00    -0.169 F 
HETATM   37  F   UNL     1      -9.991   4.007 -33.050  1.00  0.00    -0.169 F 
HETATM   38  F   UNL     1      -8.304   4.390 -34.352  1.00  0.00    -0.169 F 
ENDBRANCH   8  35
TORSDOF 9
ENDMDL
MODEL 2
REMARK VINA RESULT:      -8.7      1.900      3.170
REMARK  9 active torsions:
REMARK  status: ('A' for Active; 'I' for Inactive)
REMARK    1  A    between atoms: O_2  and  C_3 
REMARK    2  A    between atoms: C_6  and  C_7 
REMARK    3  A    between atoms: C_13  and  C_14 
REMARK       I    between atoms: C_14  and  N_15 
REMARK    4  A    between atoms: N_15  and  N_16 
REMARK    5  A    between atoms: N_16  and  C_17 
REMARK    6  A    between atoms: C_17  and  N_18 
REMARK    7  A    between atoms: N_18  and  C_19 
REMARK    8  A    between atoms: C_19  and  C_20 
REMARK    9  A    between atoms: C_27  and  C_28 
ROOT
HETATM    1  C   UNL     1      -7.177   0.396 -33.185  1.00  0.00     0.118 C 
HETATM    2  N   UNL     1      -6.707   1.632 -33.810  1.00  0.00    -0.365 N 
HETATM    3  C   UNL     1      -7.369   2.777 -33.492  1.00  0.00     0.138 A 
HETATM    4  N   UNL     1      -8.678   2.716 -33.067  1.00  0.00    -0.240 N 
HETATM    5  N   UNL     1      -9.154   3.892 -32.632  1.00  0.00    -0.181 NA
HETATM    6  C   UNL     1      -8.175   4.746 -32.932  1.00  0.00     0.160 A 
HETATM    7  C   UNL     1      -7.020   4.114 -33.466  1.00  0.00     0.098 A 
HETATM    8  C   UNL     1      -9.436   1.488 -32.888  1.00  0.00     0.221 C 
HETATM    9  C   UNL     1      -8.682   0.274 -33.464  1.00  0.00     0.066 C 
HETATM   10  H   UNL     1      -5.698   1.678 -33.974  1.00  0.00     0.161 HD
ENDROOT
BRANCH   7  11
HETATM   11  C   UNL     1      -5.774   4.731 -33.883  1.00  0.00     0.275 C 
HETATM   12  N   UNL     1      -5.262   5.631 -32.962  1.00  0.00    -0.263 N 
HETATM   13  H   UNL     1      -5.532   5.589 -31.983  1.00  0.00     0.190 HD
HETATM   14  O   UNL     1      -5.224   4.500 -34.957  1.00  0.00    -0.266 OA
BRANCH  12  15
HETATM   15  N   UNL     1      -4.064   6.310 -33.239  1.00  0.00    -0.274 N 
HETATM   16  H   UNL     1      -4.005   6.678 -34.190  1.00  0.00     0.189 HD
BRANCH  15  17
HETATM   17  C   UNL     1      -2.878   5.884 -32.689  1.00  0.00     0.186 C 
HETATM   18  S   UNL     1      -1.352   6.245 -33.266  1.00  0.00    -0.040 SA
BRANCH  17  19
HETATM   19  N   UNL     1      -2.994   5.043 -31.620  1.00  0.00    -0.360 N 
HETATM   20  H   UNL     1      -2.782   5.470 -30.726  1.00  0.00     0.162 HD
BRANCH  19  21
HETATM   21  C   UNL     1      -2.874   3.594 -31.668  1.00  0.00     0.187 C 
BRANCH  21  22
HETATM   22  C   UNL     1      -4.067   2.952 -31.075  1.00  0.00     0.070 A 
HETATM   23  O   UNL     1      -5.013   3.783 -30.550  1.00  0.00    -0.325 OA
HETATM   24  C   UNL     1      -5.990   2.995 -30.032  1.00  0.00     0.142 A 
HETATM   25  C   UNL     1      -5.683   1.667 -30.211  1.00  0.00     0.027 A 
HETATM   26  C   UNL     1      -4.438   1.637 -30.883  1.00  0.00     0.036 A 
ENDBRANCH  21  22
ENDBRANCH  19  21
ENDBRANCH  17  19
ENDBRANCH  15  17
ENDBRANCH  12  15
ENDBRANCH   7  11
BRANCH   1  27
HETATM   27  C   UNL     1      -6.379  -0.802 -33.659  1.00  0.00    -0.035 A 
HETATM   28  C   UNL     1      -5.063  -0.976 -33.202  1.00  0.00     0.012 A 
HETATM   29  C   UNL     1      -4.332  -2.116 -33.544  1.00  0.00     0.037 A 
HETATM   30  C   UNL     1      -4.899  -3.108 -34.343  1.00  0.00     0.068 A 
HETATM   31  C   UNL     1      -6.181  -2.919 -34.856  1.00  0.00     0.037 A 
HETATM   32  C   UNL     1      -6.912  -1.770 -34.524  1.00  0.00     0.012 A 
BRANCH  30  33
HETATM   33  O   UNL     1      -4.104  -4.195 -34.574  1.00  0.00    -0.356 OA
HETATM   34  C   UNL     1      -3.489  -4.767 -33.425  1.00  0.00     0.210 C 
ENDBRANCH  30  33
ENDBRANCH   1  27
BRANCH   8  35
HETATM   35  C   UNL     1     -10.801   1.590 -33.534  1.00  0.00     0.409 C 
HETATM   36  F   UNL     1     -11.451   0.405 -33.561  1.00  0.00    -0.169 F 
HETATM   37  F   UNL     1     -11.582   2.442 -32.815  1.00  0.00    -0.169 F 
HETATM   38  F   UNL     1     -10.770   2.081 -34.789  1.00  0.00    -0.169 F 
ENDBRANCH   8  35
TORSDOF 9
ENDMDL
MODEL 3
REMARK VINA RESULT:      -8.6      1.962      3.108
REMARK  9 active torsions:
REMARK  status: ('A' for Active; 'I' for Inactive)
REMARK    1  A    between atoms: O_2  and  C_3 
REMARK    2  A    between atoms: C_6  and  C_7 
REMARK    3  A    between atoms: C_13  and  C_14 
REMARK       I    between atoms: C_14  and  N_15 
REMARK    4  A    between atoms: N_15  and  N_16 
REMARK    5  A    between atoms: N_16  and  C_17 
REMARK    6  A    between atoms: C_17  and  N_18 
REMARK    7  A    between atoms: N_18  and  C_19 
REMARK    8  A    between atoms: C_19  and  C_20 
REMARK    9  A    between atoms: C_27  and  C_28 
ROOT
HETATM    1  C   UNL     1      -6.828   0.851 -33.521  1.00  0.00     0.118 C 
HETATM    2  N   UNL     1      -6.088   1.921 -34.189  1.00  0.00    -0.365 N 
HETATM    3  C   UNL     1      -6.501   3.196 -33.961  1.00  0.00     0.138 A 
HETATM    4  N   UNL     1      -7.806   3.437 -33.591  1.00  0.00    -0.240 N 
HETATM    5  N   UNL     1      -8.035   4.711 -33.240  1.00  0.00    -0.181 NA
HETATM    6  C   UNL     1      -6.888   5.321 -33.542  1.00  0.00     0.160 A 
HETATM    7  C   UNL     1      -5.878   4.430 -33.991  1.00  0.00     0.098 A 
HETATM    8  C   UNL     1      -8.812   2.409 -33.381  1.00  0.00     0.221 C 
HETATM    9  C   UNL     1      -8.315   1.031 -33.858  1.00  0.00     0.066 C 
HETATM   10  H   UNL     1      -5.087   1.744 -34.312  1.00  0.00     0.161 HD
ENDROOT
BRANCH   7  11
HETATM   11  C   UNL     1      -4.516   4.745 -34.385  1.00  0.00     0.275 C 
HETATM   12  N   UNL     1      -3.568   4.408 -33.432  1.00  0.00    -0.263 N 
HETATM   13  H   UNL     1      -3.767   3.712 -32.719  1.00  0.00     0.190 HD
HETATM   14  O   UNL     1      -4.221   5.276 -35.452  1.00  0.00    -0.266 OA
BRANCH  12  15
HETATM   15  N   UNL     1      -2.209   4.666 -33.677  1.00  0.00    -0.274 N 
HETATM   16  H   UNL     1      -1.646   3.826 -33.824  1.00  0.00     0.189 HD
BRANCH  15  17
HETATM   17  C   UNL     1      -1.574   5.709 -33.045  1.00  0.00     0.186 C 
HETATM   18  S   UNL     1      -1.841   7.333 -33.340  1.00  0.00    -0.040 SA
BRANCH  17  19
HETATM   19  N   UNL     1      -0.603   5.355 -32.154  1.00  0.00    -0.360 N 
HETATM   20  H   UNL     1       0.228   4.957 -32.575  1.00  0.00     0.162 HD
BRANCH  19  21
HETATM   21  C   UNL     1      -0.823   5.016 -30.756  1.00  0.00     0.187 C 
BRANCH  21  22
HETATM   22  C   UNL     1      -0.149   5.992 -29.872  1.00  0.00     0.070 A 
HETATM   23  O   UNL     1       0.191   5.556 -28.624  1.00  0.00    -0.325 OA
HETATM   24  C   UNL     1       0.755   6.608 -27.977  1.00  0.00     0.142 A 
HETATM   25  C   UNL     1       0.777   7.717 -28.789  1.00  0.00     0.027 A 
HETATM   26  C   UNL     1       0.191   7.322 -30.014  1.00  0.00     0.036 A 
ENDBRANCH  21  22
ENDBRANCH  19  21
ENDBRANCH  17  19
ENDBRANCH  15  17
ENDBRANCH  12  15
ENDBRANCH   7  11
BRANCH   1  27
HETATM   27  C   UNL     1      -6.288  -0.514 -33.896  1.00  0.00    -0.035 A 
HETATM   28  C   UNL     1      -4.950  -0.827 -33.608  1.00  0.00     0.012 A 
HETATM   29  C   UNL     1      -4.445  -2.106 -33.855  1.00  0.00     0.037 A 
HETATM   30  C   UNL     1      -5.264  -3.100 -34.387  1.00  0.00     0.068 A 
HETATM   31  C   UNL     1      -6.577  -2.787 -34.736  1.00  0.00     0.037 A 
HETATM   32  C   UNL     1      -7.081  -1.500 -34.501  1.00  0.00     0.012 A 
BRANCH  30  33
HETATM   33  O   UNL     1      -4.672  -4.321 -34.543  1.00  0.00    -0.356 OA
HETATM   34  C   UNL     1      -3.557  -4.581 -33.697  1.00  0.00     0.210 C 
ENDBRANCH  30  33
ENDBRANCH   1  27
BRANCH   8  35
HETATM   35  C   UNL     1     -10.104   2.756 -34.090  1.00  0.00     0.409 C 
HETATM   36  F   UNL     1     -10.778   1.659 -34.503  1.00  0.00    -0.169 F 
HETATM   37  F   UNL     1     -10.930   3.417 -33.234  1.00  0.00    -0.169 F 
HETATM   38  F   UNL     1      -9.936   3.571 -35.152  1.00  0.00    -0.169 F 
ENDBRANCH   8  35
TORSDOF 9
ENDMDL
MODEL 4
REMARK VINA RESULT:      -8.4      2.433      2.958
REMARK  9 active torsions:
REMARK  status: ('A' for Active; 'I' for Inactive)
REMARK    1  A    between atoms: O_2  and  C_3 
REMARK    2  A    between atoms: C_6  and  C_7 
REMARK    3  A    between atoms: C_13  and  C_14 
REMARK       I    between atoms: C_14  and  N_15 
REMARK    4  A    between atoms: N_15  and  N_16 
REMARK    5  A    between atoms: N_16  and  C_17 
REMARK    6  A    between atoms: C_17  and  N_18 
REMARK    7  A    between atoms: N_18  and  C_19 
REMARK    8  A    between atoms: C_19  and  C_20 
REMARK    9  A    between atoms: C_27  and  C_28 
ROOT
HETATM    1  C   UNL     1      -7.603   0.062 -32.440  1.00  0.00     0.118 C 
HETATM    2  N   UNL     1      -6.950   1.286 -31.978  1.00  0.00    -0.365 N 
HETATM    3  C   UNL     1      -7.740   2.228 -31.398  1.00  0.00     0.138 A 
HETATM    4  N   UNL     1      -9.082   2.279 -31.704  1.00  0.00    -0.240 N 
HETATM    5  N   UNL     1      -9.772   3.143 -30.944  1.00  0.00    -0.181 NA
HETATM    6  C   UNL     1      -8.818   3.762 -30.246  1.00  0.00     0.160 A 
HETATM    7  C   UNL     1      -7.520   3.233 -30.474  1.00  0.00     0.098 A 
HETATM    8  C   UNL     1      -9.765   1.361 -32.601  1.00  0.00     0.221 C 
HETATM    9  C   UNL     1      -8.762   0.470 -33.361  1.00  0.00     0.066 C 
HETATM   10  H   UNL     1      -5.996   1.162 -31.627  1.00  0.00     0.161 HD
ENDROOT
BRANCH   7  11
HETATM   11  C   UNL     1      -6.265   3.652 -29.876  1.00  0.00     0.275 C 
HETATM   12  N   UNL     1      -6.419   4.521 -28.808  1.00  0.00    -0.263 N 
HETATM   13  H   UNL     1      -7.295   4.569 -28.294  1.00  0.00     0.190 HD
HETATM   14  O   UNL     1      -5.163   3.290 -30.280  1.00  0.00    -0.266 OA
BRANCH  12  15
HETATM   15  N   UNL     1      -5.287   5.015 -28.139  1.00  0.00    -0.274 N 
HETATM   16  H   UNL     1      -5.207   4.702 -27.170  1.00  0.00     0.189 HD
BRANCH  15  17
HETATM   17  C   UNL     1      -4.823   6.283 -28.399  1.00  0.00     0.186 C 
HETATM   18  S   UNL     1      -5.655   7.702 -28.102  1.00  0.00    -0.040 SA
BRANCH  17  19
HETATM   19  N   UNL     1      -3.605   6.352 -29.010  1.00  0.00    -0.360 N 
HETATM   20  H   UNL     1      -2.871   6.751 -28.437  1.00  0.00     0.162 HD
BRANCH  19  21
HETATM   21  C   UNL     1      -3.382   6.409 -30.446  1.00  0.00     0.187 C 
BRANCH  21  22
HETATM   22  C   UNL     1      -1.935   6.385 -30.750  1.00  0.00     0.070 A 
HETATM   23  O   UNL     1      -1.350   5.157 -30.857  1.00  0.00    -0.325 OA
HETATM   24  C   UNL     1      -0.030   5.366 -31.098  1.00  0.00     0.142 A 
HETATM   25  C   UNL     1       0.245   6.712 -31.141  1.00  0.00     0.027 A 
HETATM   26  C   UNL     1      -0.985   7.374 -30.913  1.00  0.00     0.036 A 
ENDBRANCH  21  22
ENDBRANCH  19  21
ENDBRANCH  17  19
ENDBRANCH  15  17
ENDBRANCH  12  15
ENDBRANCH   7  11
BRANCH   1  27
HETATM   27  C   UNL     1      -6.615  -0.878 -33.100  1.00  0.00    -0.035 A 
HETATM   28  C   UNL     1      -5.268  -0.848 -32.703  1.00  0.00     0.012 A 
HETATM   29  C   UNL     1      -4.349  -1.763 -33.223  1.00  0.00     0.037 A 
HETATM   30  C   UNL     1      -4.754  -2.729 -34.142  1.00  0.00     0.068 A 
HETATM   31  C   UNL     1      -6.073  -2.731 -34.592  1.00  0.00     0.037 A 
HETATM   32  C   UNL     1      -6.994  -1.806 -34.082  1.00  0.00     0.012 A 
BRANCH  30  33
HETATM   33  O   UNL     1      -3.777  -3.595 -34.546  1.00  0.00    -0.356 OA
HETATM   34  C   UNL     1      -3.616  -4.762 -33.746  1.00  0.00     0.210 C 
ENDBRANCH  30  33
ENDBRANCH   1  27
BRANCH   8  35
HETATM   35  C   UNL     1     -10.632   2.107 -33.592  1.00  0.00     0.409 C 
HETATM   36  F   UNL     1     -10.025   3.212 -34.081  1.00  0.00    -0.169 F 
HETATM   37  F   UNL     1     -10.896   1.306 -34.660  1.00  0.00    -0.169 F 
HETATM   38  F   UNL     1     -11.830   2.472 -33.093  1.00  0.00    -0.169 F 
ENDBRANCH   8  35
TORSDOF 9
ENDMDL
MODEL 5
REMARK VINA RESULT:      -8.4      1.949      2.806
REMARK  9 active torsions:
REMARK  status: ('A' for Active; 'I' for Inactive)
REMARK    1  A    between atoms: O_2  and  C_3 
REMARK    2  A    between atoms: C_6  and  C_7 
REMARK    3  A    between atoms: C_13  and  C_14 
REMARK       I    between atoms: C_14  and  N_15 
REMARK    4  A    between atoms: N_15  and  N_16 
REMARK    5  A    between atoms: N_16  and  C_17 
REMARK    6  A    between atoms: C_17  and  N_18 
REMARK    7  A    between atoms: N_18  and  C_19 
REMARK    8  A    between atoms: C_19  and  C_20 
REMARK    9  A    between atoms: C_27  and  C_28 
ROOT
HETATM    1  C   UNL     1      -7.630   0.318 -32.756  1.00  0.00     0.118 C 
HETATM    2  N   UNL     1      -7.249   1.625 -33.288  1.00  0.00    -0.365 N 
HETATM    3  C   UNL     1      -8.085   2.666 -33.029  1.00  0.00     0.138 A 
HETATM    4  N   UNL     1      -9.418   2.427 -32.775  1.00  0.00    -0.240 N 
HETATM    5  N   UNL     1     -10.090   3.517 -32.377  1.00  0.00    -0.181 NA
HETATM    6  C   UNL     1      -9.199   4.497 -32.531  1.00  0.00     0.160 A 
HETATM    7  C   UNL     1      -7.917   4.035 -32.930  1.00  0.00     0.098 A 
HETATM    8  C   UNL     1     -10.029   1.109 -32.722  1.00  0.00     0.221 C 
HETATM    9  C   UNL     1      -9.061   0.020 -33.225  1.00  0.00     0.066 C 
HETATM   10  H   UNL     1      -6.242   1.802 -33.323  1.00  0.00     0.161 HD
ENDROOT
BRANCH   7  11
HETATM   11  C   UNL     1      -6.718   4.817 -33.172  1.00  0.00     0.275 C 
HETATM   12  N   UNL     1      -6.139   5.323 -32.018  1.00  0.00    -0.263 N 
HETATM   13  H   UNL     1      -6.325   4.901 -31.112  1.00  0.00     0.190 HD
HETATM   14  O   UNL     1      -6.259   5.034 -34.290  1.00  0.00    -0.266 OA
BRANCH  12  15
HETATM   15  N   UNL     1      -4.978   6.108 -32.104  1.00  0.00    -0.274 N 
HETATM   16  H   UNL     1      -4.643   6.251 -33.059  1.00  0.00     0.189 HD
BRANCH  15  17
HETATM   17  C   UNL     1      -4.006   6.021 -31.136  1.00  0.00     0.186 C 
HETATM   18  S   UNL     1      -3.236   7.317 -30.412  1.00  0.00    -0.040 SA
BRANCH  17  19
HETATM   19  N   UNL     1      -3.613   4.756 -30.806  1.00  0.00    -0.360 N 
HETATM   20  H   UNL     1      -3.536   4.588 -29.810  1.00  0.00     0.162 HD
BRANCH  19  21
HETATM   21  C   UNL     1      -2.843   3.862 -31.656  1.00  0.00     0.187 C 
BRANCH  21  22
HETATM   22  C   UNL     1      -2.321   4.587 -32.835  1.00  0.00     0.070 A 
HETATM   23  O   UNL     1      -3.090   4.560 -33.962  1.00  0.00    -0.325 OA
HETATM   24  C   UNL     1      -2.414   5.245 -34.920  1.00  0.00     0.142 A 
HETATM   25  C   UNL     1      -1.217   5.707 -34.428  1.00  0.00     0.027 A 
HETATM   26  C   UNL     1      -1.153   5.280 -33.080  1.00  0.00     0.036 A 
ENDBRANCH  21  22
ENDBRANCH  19  21
ENDBRANCH  17  19
ENDBRANCH  15  17
ENDBRANCH  12  15
ENDBRANCH   7  11
BRANCH   1  27
HETATM   27  C   UNL     1      -6.633  -0.753 -33.153  1.00  0.00    -0.035 A 
HETATM   28  C   UNL     1      -6.990  -1.696 -34.130  1.00  0.00     0.012 A 
HETATM   29  C   UNL     1      -6.065  -2.638 -34.586  1.00  0.00     0.037 A 
HETATM   30  C   UNL     1      -4.766  -2.656 -34.083  1.00  0.00     0.068 A 
HETATM   31  C   UNL     1      -4.415  -1.767 -33.068  1.00  0.00     0.037 A 
HETATM   32  C   UNL     1      -5.346  -0.829 -32.600  1.00  0.00     0.012 A 
BRANCH  30  33
HETATM   33  O   UNL     1      -3.940  -3.593 -34.637  1.00  0.00    -0.356 OA
HETATM   34  C   UNL     1      -3.530  -4.646 -33.771  1.00  0.00     0.210 C 
ENDBRANCH  30  33
ENDBRANCH   1  27
BRANCH   8  35
HETATM   35  C   UNL     1     -11.307   1.066 -33.532  1.00  0.00     0.409 C 
HETATM   36  F   UNL     1     -11.092   1.286 -34.849  1.00  0.00    -0.169 F 
HETATM   37  F   UNL     1     -11.867  -0.171 -33.434  1.00  0.00    -0.169 F 
HETATM   38  F   UNL     1     -12.245   1.936 -33.108  1.00  0.00    -0.169 F 
ENDBRANCH   8  35
TORSDOF 9
ENDMDL
MODEL 6
REMARK VINA RESULT:      -8.3      2.385      2.852
REMARK  9 active torsions:
REMARK  status: ('A' for Active; 'I' for Inactive)
REMARK    1  A    between atoms: O_2  and  C_3 
REMARK    2  A    between atoms: C_6  and  C_7 
REMARK    3  A    between atoms: C_13  and  C_14 
REMARK       I    between atoms: C_14  and  N_15 
REMARK    4  A    between atoms: N_15  and  N_16 
REMARK    5  A    between atoms: N_16  and  C_17 
REMARK    6  A    between atoms: C_17  and  N_18 
REMARK    7  A    between atoms: N_18  and  C_19 
REMARK    8  A    between atoms: C_19  and  C_20 
REMARK    9  A    between atoms: C_27  and  C_28 
ROOT
HETATM    1  C   UNL     1      -7.695   0.020 -32.547  1.00  0.00     0.118 C 
HETATM    2  N   UNL     1      -7.046   1.234 -32.053  1.00  0.00    -0.365 N 
HETATM    3  C   UNL     1      -7.845   2.177 -31.487  1.00  0.00     0.138 A 
HETATM    4  N   UNL     1      -9.177   2.243 -31.832  1.00  0.00    -0.240 N 
HETATM    5  N   UNL     1      -9.881   3.104 -31.083  1.00  0.00    -0.181 NA
HETATM    6  C   UNL     1      -8.944   3.708 -30.351  1.00  0.00     0.160 A 
HETATM    7  C   UNL     1      -7.644   3.170 -30.547  1.00  0.00     0.098 A 
HETATM    8  C   UNL     1      -9.840   1.339 -32.758  1.00  0.00     0.221 C 
HETATM    9  C   UNL     1      -8.823   0.447 -33.497  1.00  0.00     0.066 C 
HETATM   10  H   UNL     1      -6.104   1.098 -31.676  1.00  0.00     0.161 HD
ENDROOT
BRANCH   7  11
HETATM   11  C   UNL     1      -6.403   3.572 -29.907  1.00  0.00     0.275 C 
HETATM   12  N   UNL     1      -6.578   4.467 -28.863  1.00  0.00    -0.263 N 
HETATM   13  H   UNL     1      -7.472   4.545 -28.386  1.00  0.00     0.190 HD
HETATM   14  O   UNL     1      -5.295   3.177 -30.260  1.00  0.00    -0.266 OA
BRANCH  12  15
HETATM   15  N   UNL     1      -5.462   4.947 -28.160  1.00  0.00    -0.274 N 
HETATM   16  H   UNL     1      -5.470   4.725 -27.164  1.00  0.00     0.189 HD
BRANCH  15  17
HETATM   17  C   UNL     1      -4.892   6.152 -28.499  1.00  0.00     0.186 C 
HETATM   18  S   UNL     1      -5.234   7.625 -27.786  1.00  0.00    -0.040 SA
BRANCH  17  19
HETATM   19  N   UNL     1      -4.026   6.119 -29.554  1.00  0.00    -0.360 N 
HETATM   20  H   UNL     1      -3.114   5.739 -29.335  1.00  0.00     0.162 HD
BRANCH  19  21
HETATM   21  C   UNL     1      -4.083   6.986 -30.720  1.00  0.00     0.187 C 
BRANCH  21  22
HETATM   22  C   UNL     1      -4.972   6.411 -31.754  1.00  0.00     0.070 A 
HETATM   23  O   UNL     1      -6.298   6.718 -31.661  1.00  0.00    -0.325 OA
HETATM   24  C   UNL     1      -6.927   6.065 -32.671  1.00  0.00     0.142 A 
HETATM   25  C   UNL     1      -6.026   5.336 -33.410  1.00  0.00     0.027 A 
HETATM   26  C   UNL     1      -4.760   5.556 -32.816  1.00  0.00     0.036 A 
ENDBRANCH  21  22
ENDBRANCH  19  21
ENDBRANCH  17  19
ENDBRANCH  15  17
ENDBRANCH  12  15
ENDBRANCH   7  11
BRANCH   1  27
HETATM   27  C   UNL     1      -6.695  -0.921 -33.188  1.00  0.00    -0.035 A 
HETATM   28  C   UNL     1      -5.342  -0.840 -32.822  1.00  0.00     0.012 A 
HETATM   29  C   UNL     1      -4.410  -1.752 -33.322  1.00  0.00     0.037 A 
HETATM   30  C   UNL     1      -4.807  -2.766 -34.191  1.00  0.00     0.068 A 
HETATM   31  C   UNL     1      -6.135  -2.821 -34.613  1.00  0.00     0.037 A 
HETATM   32  C   UNL     1      -7.069  -1.899 -34.122  1.00  0.00     0.012 A 
BRANCH  30  33
HETATM   33  O   UNL     1      -3.816  -3.623 -34.578  1.00  0.00    -0.356 OA
HETATM   34  C   UNL     1      -3.530  -4.687 -33.676  1.00  0.00     0.210 C 
ENDBRANCH  30  33
ENDBRANCH   1  27
BRANCH   8  35
HETATM   35  C   UNL     1     -10.671   2.103 -33.766  1.00  0.00     0.409 C 
HETATM   36  F   UNL     1     -11.020   1.345 -34.830  1.00  0.00    -0.169 F 
HETATM   37  F   UNL     1     -11.833   2.508 -33.184  1.00  0.00    -0.169 F 
HETATM   38  F   UNL     1     -10.073   3.222 -34.223  1.00  0.00    -0.169 F 
ENDBRANCH   8  35
TORSDOF 9
ENDMDL
MODEL 7
REMARK VINA RESULT:      -8.2      2.141      3.004
REMARK  9 active torsions:
REMARK  status: ('A' for Active; 'I' for Inactive)
REMARK    1  A    between atoms: O_2  and  C_3 
REMARK    2  A    between atoms: C_6  and  C_7 
REMARK    3  A    between atoms: C_13  and  C_14 
REMARK       I    between atoms: C_14  and  N_15 
REMARK    4  A    between atoms: N_15  and  N_16 
REMARK    5  A    between atoms: N_16  and  C_17 
REMARK    6  A    between atoms: C_17  and  N_18 
REMARK    7  A    between atoms: N_18  and  C_19 
REMARK    8  A    between atoms: C_19  and  C_20 
REMARK    9  A    between atoms: C_27  and  C_28 
ROOT
HETATM    1  C   UNL     1      -7.534   0.013 -32.529  1.00  0.00     0.118 C 
HETATM    2  N   UNL     1      -6.868   1.274 -32.206  1.00  0.00    -0.365 N 
HETATM    3  C   UNL     1      -7.628   2.246 -31.635  1.00  0.00     0.138 A 
HETATM    4  N   UNL     1      -8.989   2.260 -31.840  1.00  0.00    -0.240 N 
HETATM    5  N   UNL     1      -9.634   3.169 -31.092  1.00  0.00    -0.181 NA
HETATM    6  C   UNL     1      -8.641   3.847 -30.516  1.00  0.00     0.160 A 
HETATM    7  C   UNL     1      -7.355   3.318 -30.805  1.00  0.00     0.098 A 
HETATM    8  C   UNL     1      -9.723   1.272 -32.614  1.00  0.00     0.221 C 
HETATM    9  C   UNL     1      -8.766   0.339 -33.384  1.00  0.00     0.066 C 
HETATM   10  H   UNL     1      -5.888   1.186 -31.923  1.00  0.00     0.161 HD
ENDROOT
BRANCH   7  11
HETATM   11  C   UNL     1      -6.065   3.793 -30.337  1.00  0.00     0.275 C 
HETATM   12  N   UNL     1      -5.043   3.630 -31.259  1.00  0.00    -0.263 N 
HETATM   13  H   UNL     1      -5.243   3.528 -32.250  1.00  0.00     0.190 HD
HETATM   14  O   UNL     1      -5.880   4.278 -29.224  1.00  0.00    -0.266 OA
BRANCH  12  15
HETATM   15  N   UNL     1      -3.738   4.038 -30.935  1.00  0.00    -0.274 N 
HETATM   16  H   UNL     1      -3.554   4.081 -29.931  1.00  0.00     0.189 HD
BRANCH  15  17
HETATM   17  C   UNL     1      -3.091   4.976 -31.703  1.00  0.00     0.186 C 
HETATM   18  S   UNL     1      -3.650   6.517 -32.033  1.00  0.00    -0.040 SA
BRANCH  17  19
HETATM   19  N   UNL     1      -1.928   4.561 -32.285  1.00  0.00    -0.360 N 
HETATM   20  H   UNL     1      -1.789   3.558 -32.275  1.00  0.00     0.162 HD
BRANCH  19  21
HETATM   21  C   UNL     1      -0.721   5.362 -32.425  1.00  0.00     0.187 C 
BRANCH  21  22
HETATM   22  C   UNL     1      -0.186   5.733 -31.096  1.00  0.00     0.070 A 
HETATM   23  O   UNL     1       0.201   4.708 -30.283  1.00  0.00    -0.325 OA
HETATM   24  C   UNL     1       0.618   5.263 -29.117  1.00  0.00     0.142 A 
HETATM   25  C   UNL     1       0.500   6.632 -29.165  1.00  0.00     0.027 A 
HETATM   26  C   UNL     1      -0.023   6.938 -30.444  1.00  0.00     0.036 A 
ENDBRANCH  21  22
ENDBRANCH  19  21
ENDBRANCH  17  19
ENDBRANCH  15  17
ENDBRANCH  12  15
ENDBRANCH   7  11
BRANCH   1  27
HETATM   27  C   UNL     1      -6.582  -0.961 -33.195  1.00  0.00    -0.035 A 
HETATM   28  C   UNL     1      -5.244  -1.012 -32.773  1.00  0.00     0.012 A 
HETATM   29  C   UNL     1      -4.364  -1.961 -33.299  1.00  0.00     0.037 A 
HETATM   30  C   UNL     1      -4.800  -2.881 -34.251  1.00  0.00     0.068 A 
HETATM   31  C   UNL     1      -6.109  -2.802 -34.725  1.00  0.00     0.037 A 
HETATM   32  C   UNL     1      -6.990  -1.843 -34.207  1.00  0.00     0.012 A 
BRANCH  30  33
HETATM   33  O   UNL     1      -3.862  -3.786 -34.659  1.00  0.00    -0.356 OA
HETATM   34  C   UNL     1      -3.410  -4.699 -33.665  1.00  0.00     0.210 C 
ENDBRANCH  30  33
ENDBRANCH   1  27
BRANCH   8  35
HETATM   35  C   UNL     1     -10.675   1.934 -33.585  1.00  0.00     0.409 C 
HETATM   36  F   UNL     1     -11.804   2.375 -32.984  1.00  0.00    -0.169 F 
HETATM   37  F   UNL     1     -10.079   3.028 -34.134  1.00  0.00    -0.169 F 
HETATM   38  F   UNL     1     -11.031   1.144 -34.619  1.00  0.00    -0.169 F 
ENDBRANCH   8  35
TORSDOF 9
ENDMDL
MODEL 8
REMARK VINA RESULT:      -8.1      3.806      5.419
REMARK  9 active torsions:
REMARK  status: ('A' for Active; 'I' for Inactive)
REMARK    1  A    between atoms: O_2  and  C_3 
REMARK    2  A    between atoms: C_6  and  C_7 
REMARK    3  A    between atoms: C_13  and  C_14 
REMARK       I    between atoms: C_14  and  N_15 
REMARK    4  A    between atoms: N_15  and  N_16 
REMARK    5  A    between atoms: N_16  and  C_17 
REMARK    6  A    between atoms: C_17  and  N_18 
REMARK    7  A    between atoms: N_18  and  C_19 
REMARK    8  A    between atoms: C_19  and  C_20 
REMARK    9  A    between atoms: C_27  and  C_28 
ROOT
HETATM    1  C   UNL     1      -8.305   1.519 -33.662  1.00  0.00     0.118 C 
HETATM    2  N   UNL     1      -7.960   1.814 -32.273  1.00  0.00    -0.365 N 
HETATM    3  C   UNL     1      -6.640   1.791 -31.944  1.00  0.00     0.138 A 
HETATM    4  N   UNL     1      -5.763   1.035 -32.689  1.00  0.00    -0.240 N 
HETATM    5  N   UNL     1      -4.477   1.230 -32.360  1.00  0.00    -0.181 NA
HETATM    6  C   UNL     1      -4.554   2.011 -31.282  1.00  0.00     0.160 A 
HETATM    7  C   UNL     1      -5.881   2.409 -30.968  1.00  0.00     0.098 A 
HETATM    8  C   UNL     1      -6.126   0.255 -33.860  1.00  0.00     0.221 C 
HETATM    9  C   UNL     1      -7.656   0.177 -34.030  1.00  0.00     0.066 C 
HETATM   10  H   UNL     1      -8.569   2.495 -31.810  1.00  0.00     0.161 HD
ENDROOT
BRANCH   7  11
HETATM   11  C   UNL     1      -6.326   3.264 -29.882  1.00  0.00     0.275 C 
HETATM   12  N   UNL     1      -5.299   3.959 -29.263  1.00  0.00    -0.263 N 
HETATM   13  H   UNL     1      -4.416   4.122 -29.739  1.00  0.00     0.190 HD
HETATM   14  O   UNL     1      -7.497   3.357 -29.524  1.00  0.00    -0.266 OA
BRANCH  12  15
HETATM   15  N   UNL     1      -5.585   4.817 -28.188  1.00  0.00    -0.274 N 
HETATM   16  H   UNL     1      -6.489   4.642 -27.745  1.00  0.00     0.189 HD
BRANCH  15  17
HETATM   17  C   UNL     1      -5.179   6.130 -28.218  1.00  0.00     0.186 C 
HETATM   18  S   UNL     1      -6.176   7.461 -28.054  1.00  0.00    -0.040 SA
BRANCH  17  19
HETATM   19  N   UNL     1      -3.853   6.331 -28.470  1.00  0.00    -0.360 N 
HETATM   20  H   UNL     1      -3.256   6.262 -27.655  1.00  0.00     0.162 HD
BRANCH  19  21
HETATM   21  C   UNL     1      -3.311   7.095 -29.583  1.00  0.00     0.187 C 
BRANCH  21  22
HETATM   22  C   UNL     1      -2.991   6.205 -30.720  1.00  0.00     0.070 A 
HETATM   23  O   UNL     1      -4.015   5.903 -31.570  1.00  0.00    -0.325 OA
HETATM   24  C   UNL     1      -3.517   5.054 -32.505  1.00  0.00     0.142 A 
HETATM   25  C   UNL     1      -2.188   4.799 -32.265  1.00  0.00     0.027 A 
HETATM   26  C   UNL     1      -1.846   5.540 -31.109  1.00  0.00     0.036 A 
ENDBRANCH  21  22
ENDBRANCH  19  21
ENDBRANCH  17  19
ENDBRANCH  15  17
ENDBRANCH  12  15
ENDBRANCH   7  11
BRANCH   1  27
HETATM   27  C   UNL     1      -9.805   1.539 -33.877  1.00  0.00    -0.035 A 
HETATM   28  C   UNL     1     -10.374   2.559 -34.657  1.00  0.00     0.012 A 
HETATM   29  C   UNL     1     -11.740   2.556 -34.952  1.00  0.00     0.037 A 
HETATM   30  C   UNL     1     -12.564   1.535 -34.481  1.00  0.00     0.068 A 
HETATM   31  C   UNL     1     -12.025   0.551 -33.654  1.00  0.00     0.037 A 
HETATM   32  C   UNL     1     -10.657   0.559 -33.347  1.00  0.00     0.012 A 
BRANCH  30  33
HETATM   33  O   UNL     1     -13.871   1.616 -34.871  1.00  0.00    -0.356 OA
HETATM   34  C   UNL     1     -14.767   0.723 -34.218  1.00  0.00     0.210 C 
ENDBRANCH  30  33
ENDBRANCH   1  27
BRANCH   8  35
HETATM   35  C   UNL     1      -5.553  -1.144 -33.786  1.00  0.00     0.409 C 
HETATM   36  F   UNL     1      -6.188  -2.009 -34.608  1.00  0.00    -0.169 F 
HETATM   37  F   UNL     1      -4.250  -1.123 -34.180  1.00  0.00    -0.169 F 
HETATM   38  F   UNL     1      -5.559  -1.665 -32.542  1.00  0.00    -0.169 F 
ENDBRANCH   8  35
TORSDOF 9
ENDMDL
MODEL 9
REMARK VINA RESULT:      -8.1      3.650      6.297
REMARK  9 active torsions:
REMARK  status: ('A' for Active; 'I' for Inactive)
REMARK    1  A    between atoms: O_2  and  C_3 
REMARK    2  A    between atoms: C_6  and  C_7 
REMARK    3  A    between atoms: C_13  and  C_14 
REMARK       I    between atoms: C_14  and  N_15 
REMARK    4  A    between atoms: N_15  and  N_16 
REMARK    5  A    between atoms: N_16  and  C_17 
REMARK    6  A    between atoms: C_17  and  N_18 
REMARK    7  A    between atoms: N_18  and  C_19 
REMARK    8  A    between atoms: C_19  and  C_20 
REMARK    9  A    between atoms: C_27  and  C_28 
ROOT
HETATM    1  C   UNL     1      -7.405  -0.146 -34.273  1.00  0.00     0.118 C 
HETATM    2  N   UNL     1      -6.436  -0.089 -33.180  1.00  0.00    -0.365 N 
HETATM    3  C   UNL     1      -5.309  -0.840 -33.312  1.00  0.00     0.138 A 
HETATM    4  N   UNL     1      -5.323  -1.958 -34.117  1.00  0.00    -0.240 N 
HETATM    5  N   UNL     1      -4.112  -2.509 -34.287  1.00  0.00    -0.181 NA
HETATM    6  C   UNL     1      -3.341  -1.814 -33.448  1.00  0.00     0.160 A 
HETATM    7  C   UNL     1      -4.025  -0.746 -32.810  1.00  0.00     0.098 A 
HETATM    8  C   UNL     1      -6.466  -2.407 -34.895  1.00  0.00     0.221 C 
HETATM    9  C   UNL     1      -7.740  -1.623 -34.525  1.00  0.00     0.066 C 
HETATM   10  H   UNL     1      -6.369   0.817 -32.707  1.00  0.00     0.161 HD
ENDROOT
BRANCH   7  11
HETATM   11  C   UNL     1      -3.496   0.215 -31.858  1.00  0.00     0.275 C 
HETATM   12  N   UNL     1      -3.751   1.534 -32.196  1.00  0.00    -0.263 N 
HETATM   13  H   UNL     1      -4.511   1.775 -32.827  1.00  0.00     0.190 HD
HETATM   14  O   UNL     1      -2.864  -0.099 -30.852  1.00  0.00    -0.266 OA
BRANCH  12  15
HETATM   15  N   UNL     1      -3.287   2.570 -31.369  1.00  0.00    -0.274 N 
HETATM   16  H   UNL     1      -3.510   2.444 -30.380  1.00  0.00     0.189 HD
BRANCH  15  17
HETATM   17  C   UNL     1      -3.279   3.869 -31.819  1.00  0.00     0.186 C 
HETATM   18  S   UNL     1      -1.985   4.638 -32.547  1.00  0.00    -0.040 SA
BRANCH  17  19
HETATM   19  N   UNL     1      -4.416   4.584 -31.578  1.00  0.00    -0.360 N 
HETATM   20  H   UNL     1      -4.541   4.859 -30.612  1.00  0.00     0.162 HD
BRANCH  19  21
HETATM   21  C   UNL     1      -5.628   4.538 -32.381  1.00  0.00     0.187 C 
BRANCH  21  22
HETATM   22  C   UNL     1      -6.701   3.817 -31.663  1.00  0.00     0.070 A 
HETATM   23  O   UNL     1      -6.467   2.506 -31.366  1.00  0.00    -0.325 OA
HETATM   24  C   UNL     1      -7.581   2.034 -30.750  1.00  0.00     0.142 A 
HETATM   25  C   UNL     1      -8.532   3.021 -30.651  1.00  0.00     0.027 A 
HETATM   26  C   UNL     1      -7.966   4.175 -31.244  1.00  0.00     0.036 A 
ENDBRANCH  21  22
ENDBRANCH  19  21
ENDBRANCH  17  19
ENDBRANCH  15  17
ENDBRANCH  12  15
ENDBRANCH   7  11
BRANCH   1  27
HETATM   27  C   UNL     1      -8.625   0.704 -33.976  1.00  0.00    -0.035 A 
HETATM   28  C   UNL     1      -8.643   2.047 -34.384  1.00  0.00     0.012 A 
HETATM   29  C   UNL     1      -9.785   2.832 -34.209  1.00  0.00     0.037 A 
HETATM   30  C   UNL     1     -10.933   2.294 -33.631  1.00  0.00     0.068 A 
HETATM   31  C   UNL     1     -10.910   0.980 -33.165  1.00  0.00     0.037 A 
HETATM   32  C   UNL     1      -9.760   0.195 -33.327  1.00  0.00     0.012 A 
BRANCH  30  33
HETATM   33  O   UNL     1     -12.000   3.144 -33.553  1.00  0.00    -0.356 OA
HETATM   34  C   UNL     1     -13.193   2.700 -34.191  1.00  0.00     0.210 C 
ENDBRANCH  30  33
ENDBRANCH   1  27
BRANCH   8  35
HETATM   35  C   UNL     1      -6.709  -3.889 -34.703  1.00  0.00     0.409 C 
HETATM   36  F   UNL     1      -6.909  -4.536 -35.874  1.00  0.00    -0.169 F 
HETATM   37  F   UNL     1      -5.615  -4.460 -34.130  1.00  0.00    -0.169 F 
HETATM   38  F   UNL     1      -7.746  -4.166 -33.888  1.00  0.00    -0.169 F 
ENDBRANCH   8  35
TORSDOF 9
ENDMDL
MODEL 10
REMARK VINA RESULT:      -8.1      4.280      6.829
REMARK  9 active torsions:
REMARK  status: ('A' for Active; 'I' for Inactive)
REMARK    1  A    between atoms: O_2  and  C_3 
REMARK    2  A    between atoms: C_6  and  C_7 
REMARK    3  A    between atoms: C_13  and  C_14 
REMARK       I    between atoms: C_14  and  N_15 
REMARK    4  A    between atoms: N_15  and  N_16 
REMARK    5  A    between atoms: N_16  and  C_17 
REMARK    6  A    between atoms: C_17  and  N_18 
REMARK    7  A    between atoms: N_18  and  C_19 
REMARK    8  A    between atoms: C_19  and  C_20 
REMARK    9  A    between atoms: C_27  and  C_28 
ROOT
HETATM    1  C   UNL     1      -6.138   1.878 -33.373  1.00  0.00     0.118 C 
HETATM    2  N   UNL     1      -7.097   2.011 -32.278  1.00  0.00    -0.365 N 
HETATM    3  C   UNL     1      -7.319   3.264 -31.797  1.00  0.00     0.138 A 
HETATM    4  N   UNL     1      -6.349   4.232 -31.939  1.00  0.00    -0.240 N 
HETATM    5  N   UNL     1      -6.758   5.456 -31.571  1.00  0.00    -0.181 NA
HETATM    6  C   UNL     1      -7.961   5.228 -31.042  1.00  0.00     0.160 A 
HETATM    7  C   UNL     1      -8.380   3.876 -31.158  1.00  0.00     0.098 A 
HETATM    8  C   UNL     1      -5.074   4.039 -32.610  1.00  0.00     0.221 C 
HETATM    9  C   UNL     1      -4.830   2.552 -32.934  1.00  0.00     0.066 C 
HETATM   10  H   UNL     1      -7.879   1.350 -32.303  1.00  0.00     0.161 HD
ENDROOT
BRANCH   7  11
HETATM   11  C   UNL     1      -9.629   3.284 -30.711  1.00  0.00     0.275 C 
HETATM   12  N   UNL     1     -10.591   4.216 -30.354  1.00  0.00    -0.263 N 
HETATM   13  H   UNL     1     -10.550   5.170 -30.702  1.00  0.00     0.190 HD
HETATM   14  O   UNL     1      -9.821   2.073 -30.634  1.00  0.00    -0.266 OA
BRANCH  12  15
HETATM   15  N   UNL     1     -11.845   3.783 -29.893  1.00  0.00    -0.274 N 
HETATM   16  H   UNL     1     -11.832   2.861 -29.455  1.00  0.00     0.189 HD
BRANCH  15  17
HETATM   17  C   UNL     1     -12.989   4.099 -30.588  1.00  0.00     0.186 C 
HETATM   18  S   UNL     1     -13.919   5.469 -30.360  1.00  0.00    -0.040 SA
BRANCH  17  19
HETATM   19  N   UNL     1     -13.409   3.162 -31.488  1.00  0.00    -0.360 N 
HETATM   20  H   UNL     1     -13.448   2.219 -31.123  1.00  0.00     0.162 HD
BRANCH  19  21
HETATM   21  C   UNL     1     -13.303   3.274 -32.934  1.00  0.00     0.187 C 
BRANCH  21  22
HETATM   22  C   UNL     1     -12.063   2.627 -33.416  1.00  0.00     0.070 A 
HETATM   23  O   UNL     1     -11.083   3.452 -33.886  1.00  0.00    -0.325 OA
HETATM   24  C   UNL     1     -10.065   2.658 -34.306  1.00  0.00     0.142 A 
HETATM   25  C   UNL     1     -10.377   1.333 -34.119  1.00  0.00     0.027 A 
HETATM   26  C   UNL     1     -11.671   1.310 -33.546  1.00  0.00     0.036 A 
ENDBRANCH  21  22
ENDBRANCH  19  21
ENDBRANCH  17  19
ENDBRANCH  15  17
ENDBRANCH  12  15
ENDBRANCH   7  11
BRANCH   1  27
HETATM   27  C   UNL     1      -5.959   0.429 -33.780  1.00  0.00    -0.035 A 
HETATM   28  C   UNL     1      -4.832  -0.277 -33.330  1.00  0.00     0.012 A 
HETATM   29  C   UNL     1      -4.682  -1.638 -33.608  1.00  0.00     0.037 A 
HETATM   30  C   UNL     1      -5.655  -2.324 -34.333  1.00  0.00     0.068 A 
HETATM   31  C   UNL     1      -6.749  -1.623 -34.839  1.00  0.00     0.037 A 
HETATM   32  C   UNL     1      -6.894  -0.254 -34.572  1.00  0.00     0.012 A 
BRANCH  30  33
HETATM   33  O   UNL     1      -5.421  -3.659 -34.504  1.00  0.00    -0.356 OA
HETATM   34  C   UNL     1      -6.517  -4.421 -34.998  1.00  0.00     0.210 C 
ENDBRANCH  30  33
ENDBRANCH   1  27
BRANCH   8  35
HETATM   35  C   UNL     1      -3.930   4.571 -31.775  1.00  0.00     0.409 C 
HETATM   36  F   UNL     1      -2.776   3.899 -31.990  1.00  0.00    -0.169 F 
HETATM   37  F   UNL     1      -3.689   5.868 -32.106  1.00  0.00    -0.169 F 
HETATM   38  F   UNL     1      -4.180   4.563 -30.450  1.00  0.00    -0.169 F 
ENDBRANCH   8  35
TORSDOF 9
ENDMDL
