MODEL 1
REMARK VINA RESULT:      -7.1      0.000      0.000
REMARK  3 active torsions:
REMARK  status: ('A' for Active; 'I' for Inactive)
REMARK    1  A    between atoms: C_2  and  N_3 
REMARK    2  A    between atoms: C_2  and  C_14 
REMARK       I    between atoms: N_3  and  C_4 
REMARK    3  A    between atoms: C_4  and  C_5 
ROOT
HETATM    1  N   UNL     1      -7.937   0.094 -33.551  1.00  0.00    -0.347 N 
HETATM    2  C   UNL     1      -8.960   0.425 -32.700  1.00  0.00     0.268 C 
HETATM    3  O   UNL     1      -8.848   0.390 -31.479  1.00  0.00    -0.266 OA
HETATM    4  H   UNL     1      -8.080   0.148 -34.548  1.00  0.00     0.163 HD
ENDROOT
BRANCH   1   5
HETATM    5  C   UNL     1      -6.622  -0.285 -33.066  1.00  0.00     0.114 C 
HETATM    6  C   UNL     1      -5.615   0.856 -33.245  1.00  0.00     0.037 C 
BRANCH   5   7
HETATM    7  C   UNL     1      -6.179  -1.564 -33.749  1.00  0.00    -0.033 A 
HETATM    8  C   UNL     1      -4.817  -1.877 -33.827  1.00  0.00     0.028 A 
HETATM    9  C   UNL     1      -4.435  -3.062 -34.436  1.00  0.00     0.116 A 
HETATM   10  N   UNL     1      -5.304  -3.951 -34.960  1.00  0.00    -0.273 NA
HETATM   11  C   UNL     1      -6.613  -3.641 -34.871  1.00  0.00     0.116 A 
HETATM   12  C   UNL     1      -7.094  -2.481 -34.280  1.00  0.00     0.028 A 
ENDBRANCH   5   7
ENDBRANCH   1   5
BRANCH   2  13
HETATM   13  C   UNL     1     -10.195   0.824 -33.338  1.00  0.00     0.103 A 
HETATM   14  N   UNL     1     -11.377   0.150 -33.089  1.00  0.00    -0.341 N 
HETATM   15  H   UNL     1     -11.460  -0.645 -32.466  1.00  0.00     0.167 HD
HETATM   16  C   UNL     1     -12.388   0.715 -33.799  1.00  0.00     0.126 A 
HETATM   17 CL   UNL     1     -13.937   0.042 -33.639  1.00  0.00    -0.063 Cl
HETATM   18  C   UNL     1     -11.897   1.764 -34.525  1.00  0.00     0.074 A 
HETATM   19 CL   UNL     1     -12.728   2.806 -35.572  1.00  0.00    -0.081 Cl
HETATM   20  C   UNL     1     -10.508   1.837 -34.239  1.00  0.00     0.062 A 
ENDBRANCH   2  13
TORSDOF 3
ENDMDL
MODEL 2
REMARK VINA RESULT:      -7.0      5.504      7.760
REMARK  3 active torsions:
REMARK  status: ('A' for Active; 'I' for Inactive)
REMARK    1  A    between atoms: C_2  and  N_3 
REMARK    2  A    between atoms: C_2  and  C_14 
REMARK       I    between atoms: N_3  and  C_4 
REMARK    3  A    between atoms: C_4  and  C_5 
ROOT
HETATM    1  N   UNL     1      -3.819   1.318 -32.318  1.00  0.00    -0.347 N 
HETATM    2  C   UNL     1      -3.209   0.213 -31.781  1.00  0.00     0.268 C 
HETATM    3  O   UNL     1      -2.430   0.277 -30.835  1.00  0.00    -0.266 OA
HETATM    4  H   UNL     1      -4.458   1.209 -33.090  1.00  0.00     0.163 HD
ENDROOT
BRANCH   1   5
HETATM    5  C   UNL     1      -3.618   2.649 -31.775  1.00  0.00     0.114 C 
HETATM    6  C   UNL     1      -4.677   2.984 -30.719  1.00  0.00     0.037 C 
BRANCH   5   7
HETATM    7  C   UNL     1      -3.588   3.659 -32.906  1.00  0.00    -0.033 A 
HETATM    8  C   UNL     1      -4.785   4.080 -33.498  1.00  0.00     0.028 A 
HETATM    9  C   UNL     1      -4.735   5.020 -34.515  1.00  0.00     0.116 A 
HETATM   10  N   UNL     1      -3.592   5.569 -34.975  1.00  0.00    -0.273 NA
HETATM   11  C   UNL     1      -2.448   5.161 -34.391  1.00  0.00     0.116 A 
HETATM   12  C   UNL     1      -2.394   4.226 -33.367  1.00  0.00     0.028 A 
ENDBRANCH   5   7
ENDBRANCH   1   5
BRANCH   2  13
HETATM   13  C   UNL     1      -3.546  -1.047 -32.405  1.00  0.00     0.103 A 
HETATM   14  N   UNL     1      -4.422  -1.102 -33.474  1.00  0.00    -0.341 N 
HETATM   15  H   UNL     1      -4.877  -0.293 -33.880  1.00  0.00     0.167 HD
HETATM   16  C   UNL     1      -4.570  -2.389 -33.882  1.00  0.00     0.126 A 
HETATM   17 CL   UNL     1      -5.606  -2.687 -35.192  1.00  0.00    -0.063 Cl
HETATM   18  C   UNL     1      -3.801  -3.202 -33.097  1.00  0.00     0.074 A 
HETATM   19 CL   UNL     1      -3.617  -4.885 -33.180  1.00  0.00    -0.081 Cl
HETATM   20  C   UNL     1      -3.151  -2.358 -32.158  1.00  0.00     0.062 A 
ENDBRANCH   2  13
TORSDOF 3
ENDMDL
MODEL 3
REMARK VINA RESULT:      -6.6      2.194      2.831
REMARK  3 active torsions:
REMARK  status: ('A' for Active; 'I' for Inactive)
REMARK    1  A    between atoms: C_2  and  N_3 
REMARK    2  A    between atoms: C_2  and  C_14 
REMARK       I    between atoms: N_3  and  C_4 
REMARK    3  A    between atoms: C_4  and  C_5 
ROOT
HETATM    1  N   UNL     1      -6.075  -0.614 -32.964  1.00  0.00    -0.347 N 
HETATM    2  C   UNL     1      -6.646  -0.171 -31.798  1.00  0.00     0.268 C 
HETATM    3  O   UNL     1      -6.195  -0.444 -30.690  1.00  0.00    -0.266 OA
HETATM    4  H   UNL     1      -6.481  -0.353 -33.849  1.00  0.00     0.163 HD
ENDROOT
BRANCH   1   5
HETATM    5  C   UNL     1      -4.861  -1.410 -32.973  1.00  0.00     0.114 C 
HETATM    6  C   UNL     1      -3.681  -0.616 -33.544  1.00  0.00     0.037 C 
BRANCH   5   7
HETATM    7  C   UNL     1      -5.108  -2.704 -33.725  1.00  0.00    -0.033 A 
HETATM    8  C   UNL     1      -4.181  -3.748 -33.640  1.00  0.00     0.028 A 
HETATM    9  C   UNL     1      -4.438  -4.930 -34.317  1.00  0.00     0.116 A 
HETATM   10  N   UNL     1      -5.544  -5.144 -35.059  1.00  0.00    -0.273 NA
HETATM   11  C   UNL     1      -6.433  -4.132 -35.126  1.00  0.00     0.116 A 
HETATM   12  C   UNL     1      -6.266  -2.914 -34.484  1.00  0.00     0.028 A 
ENDBRANCH   5   7
ENDBRANCH   1   5
BRANCH   2  13
HETATM   13  C   UNL     1      -7.827   0.649 -31.957  1.00  0.00     0.103 A 
HETATM   14  N   UNL     1      -8.168   1.599 -31.011  1.00  0.00    -0.341 N 
HETATM   15  H   UNL     1      -7.637   1.780 -30.167  1.00  0.00     0.167 HD
HETATM   16  C   UNL     1      -9.307   2.236 -31.389  1.00  0.00     0.126 A 
HETATM   17 CL   UNL     1      -9.908   3.451 -30.368  1.00  0.00    -0.063 Cl
HETATM   18  C   UNL     1      -9.735   1.724 -32.582  1.00  0.00     0.074 A 
HETATM   19 CL   UNL     1     -11.096   2.162 -33.493  1.00  0.00    -0.081 Cl
HETATM   20  C   UNL     1      -8.803   0.717 -32.946  1.00  0.00     0.062 A 
ENDBRANCH   2  13
TORSDOF 3
ENDMDL
MODEL 4
REMARK VINA RESULT:      -6.6      5.310      7.565
REMARK  3 active torsions:
REMARK  status: ('A' for Active; 'I' for Inactive)
REMARK    1  A    between atoms: C_2  and  N_3 
REMARK    2  A    between atoms: C_2  and  C_14 
REMARK       I    between atoms: N_3  and  C_4 
REMARK    3  A    between atoms: C_4  and  C_5 
ROOT
HETATM    1  N   UNL     1      -4.051   3.008 -32.375  1.00  0.00    -0.347 N 
HETATM    2  C   UNL     1      -3.788   1.695 -32.075  1.00  0.00     0.268 C 
HETATM    3  O   UNL     1      -2.994   1.358 -31.203  1.00  0.00    -0.266 OA
HETATM    4  H   UNL     1      -4.720   3.231 -33.095  1.00  0.00     0.163 HD
ENDROOT
BRANCH   1   5
HETATM    5  C   UNL     1      -3.433   4.103 -31.648  1.00  0.00     0.114 C 
HETATM    6  C   UNL     1      -4.466   4.867 -30.813  1.00  0.00     0.037 C 
BRANCH   5   7
HETATM    7  C   UNL     1      -2.692   5.001 -32.619  1.00  0.00    -0.033 A 
HETATM    8  C   UNL     1      -2.511   6.356 -32.316  1.00  0.00     0.028 A 
HETATM    9  C   UNL     1      -1.810   7.154 -33.207  1.00  0.00     0.116 A 
HETATM   10  N   UNL     1      -1.279   6.702 -34.362  1.00  0.00    -0.273 NA
HETATM   11  C   UNL     1      -1.454   5.394 -34.637  1.00  0.00     0.116 A 
HETATM   12  C   UNL     1      -2.138   4.516 -33.809  1.00  0.00     0.028 A 
ENDBRANCH   5   7
ENDBRANCH   1   5
BRANCH   2  13
HETATM   13  C   UNL     1      -4.516   0.722 -32.858  1.00  0.00     0.103 A 
HETATM   14  N   UNL     1      -5.643   1.082 -33.575  1.00  0.00    -0.341 N 
HETATM   15  H   UNL     1      -6.028   2.019 -33.600  1.00  0.00     0.167 HD
HETATM   16  C   UNL     1      -6.139  -0.001 -34.227  1.00  0.00     0.126 A 
HETATM   17 CL   UNL     1      -7.529   0.217 -35.176  1.00  0.00    -0.063 Cl
HETATM   18  C   UNL     1      -5.357  -1.089 -33.956  1.00  0.00     0.074 A 
HETATM   19 CL   UNL     1      -5.528  -2.680 -34.513  1.00  0.00    -0.081 Cl
HETATM   20  C   UNL     1      -4.328  -0.637 -33.087  1.00  0.00     0.062 A 
ENDBRANCH   2  13
TORSDOF 3
ENDMDL
MODEL 5
REMARK VINA RESULT:      -6.6      3.729      6.658
REMARK  3 active torsions:
REMARK  status: ('A' for Active; 'I' for Inactive)
REMARK    1  A    between atoms: C_2  and  N_3 
REMARK    2  A    between atoms: C_2  and  C_14 
REMARK       I    between atoms: N_3  and  C_4 
REMARK    3  A    between atoms: C_4  and  C_5 
ROOT
HETATM    1  N   UNL     1      -7.385   0.085 -33.225  1.00  0.00    -0.347 N 
HETATM    2  C   UNL     1      -6.049  -0.061 -33.497  1.00  0.00     0.268 C 
HETATM    3  O   UNL     1      -5.257   0.876 -33.464  1.00  0.00    -0.266 OA
HETATM    4  H   UNL     1      -7.992  -0.720 -33.258  1.00  0.00     0.163 HD
ENDROOT
BRANCH   1   5
HETATM    5  C   UNL     1      -7.957   1.361 -32.834  1.00  0.00     0.114 C 
HETATM    6  C   UNL     1      -7.872   1.566 -31.318  1.00  0.00     0.037 C 
BRANCH   5   7
HETATM    7  C   UNL     1      -9.379   1.460 -33.354  1.00  0.00    -0.033 A 
HETATM    8  C   UNL     1      -9.757   2.549 -34.147  1.00  0.00     0.028 A 
HETATM    9  C   UNL     1     -11.055   2.607 -34.631  1.00  0.00     0.116 A 
HETATM   10  N   UNL     1     -11.990   1.666 -34.388  1.00  0.00    -0.273 NA
HETATM   11  C   UNL     1     -11.609   0.618 -33.628  1.00  0.00     0.116 A 
HETATM   12  C   UNL     1     -10.335   0.469 -33.100  1.00  0.00     0.028 A 
ENDBRANCH   5   7
ENDBRANCH   1   5
BRANCH   2  13
HETATM   13  C   UNL     1      -5.625  -1.403 -33.828  1.00  0.00     0.103 A 
HETATM   14  N   UNL     1      -6.440  -2.248 -34.560  1.00  0.00    -0.341 N 
HETATM   15  H   UNL     1      -7.361  -1.998 -34.902  1.00  0.00     0.167 HD
HETATM   16  C   UNL     1      -5.819  -3.442 -34.742  1.00  0.00     0.126 A 
HETATM   17 CL   UNL     1      -6.645  -4.635 -35.622  1.00  0.00    -0.063 Cl
HETATM   18  C   UNL     1      -4.592  -3.409 -34.140  1.00  0.00     0.074 A 
HETATM   19 CL   UNL     1      -3.416  -4.628 -34.069  1.00  0.00    -0.081 Cl
HETATM   20  C   UNL     1      -4.464  -2.121 -33.557  1.00  0.00     0.062 A 
ENDBRANCH   2  13
TORSDOF 3
ENDMDL
MODEL 6
REMARK VINA RESULT:      -6.6      2.166      2.971
REMARK  3 active torsions:
REMARK  status: ('A' for Active; 'I' for Inactive)
REMARK    1  A    between atoms: C_2  and  N_3 
REMARK    2  A    between atoms: C_2  and  C_14 
REMARK       I    between atoms: N_3  and  C_4 
REMARK    3  A    between atoms: C_4  and  C_5 
ROOT
HETATM    1  N   UNL     1      -6.147  -0.642 -33.011  1.00  0.00    -0.347 N 
HETATM    2  C   UNL     1      -6.710  -0.196 -31.843  1.00  0.00     0.268 C 
HETATM    3  O   UNL     1      -6.259  -0.478 -30.737  1.00  0.00    -0.266 OA
HETATM    4  H   UNL     1      -6.553  -0.374 -33.895  1.00  0.00     0.163 HD
ENDROOT
BRANCH   1   5
HETATM    5  C   UNL     1      -4.942  -1.451 -33.027  1.00  0.00     0.114 C 
HETATM    6  C   UNL     1      -3.763  -0.680 -33.630  1.00  0.00     0.037 C 
BRANCH   5   7
HETATM    7  C   UNL     1      -5.216  -2.754 -33.753  1.00  0.00    -0.033 A 
HETATM    8  C   UNL     1      -6.407  -2.916 -34.470  1.00  0.00     0.028 A 
HETATM    9  C   UNL     1      -6.627  -4.107 -35.144  1.00  0.00     0.116 A 
HETATM   10  N   UNL     1      -5.751  -5.133 -35.161  1.00  0.00    -0.273 NA
HETATM   11  C   UNL     1      -4.604  -4.960 -34.473  1.00  0.00     0.116 A 
HETATM   12  C   UNL     1      -4.293  -3.807 -33.768  1.00  0.00     0.028 A 
ENDBRANCH   5   7
ENDBRANCH   1   5
BRANCH   2  13
HETATM   13  C   UNL     1      -7.882   0.637 -31.996  1.00  0.00     0.103 A 
HETATM   14  N   UNL     1      -8.195   1.606 -31.059  1.00  0.00    -0.341 N 
HETATM   15  H   UNL     1      -7.649   1.792 -30.227  1.00  0.00     0.167 HD
HETATM   16  C   UNL     1      -9.331   2.253 -31.429  1.00  0.00     0.126 A 
HETATM   17 CL   UNL     1      -9.900   3.490 -30.417  1.00  0.00    -0.063 Cl
HETATM   18  C   UNL     1      -9.786   1.729 -32.607  1.00  0.00     0.074 A 
HETATM   19 CL   UNL     1     -11.155   2.172 -33.502  1.00  0.00    -0.081 Cl
HETATM   20  C   UNL     1      -8.873   0.704 -32.970  1.00  0.00     0.062 A 
ENDBRANCH   2  13
TORSDOF 3
ENDMDL
MODEL 7
REMARK VINA RESULT:      -6.5      5.397      7.042
REMARK  3 active torsions:
REMARK  status: ('A' for Active; 'I' for Inactive)
REMARK    1  A    between atoms: C_2  and  N_3 
REMARK    2  A    between atoms: C_2  and  C_14 
REMARK       I    between atoms: N_3  and  C_4 
REMARK    3  A    between atoms: C_4  and  C_5 
ROOT
HETATM    1  N   UNL     1      -4.754   1.494 -32.321  1.00  0.00    -0.347 N 
HETATM    2  C   UNL     1      -4.859   2.861 -32.274  1.00  0.00     0.268 C 
HETATM    3  O   UNL     1      -5.930   3.441 -32.121  1.00  0.00    -0.266 OA
HETATM    4  H   UNL     1      -3.848   1.067 -32.440  1.00  0.00     0.163 HD
ENDROOT
BRANCH   1   5
HETATM    5  C   UNL     1      -5.905   0.626 -32.150  1.00  0.00     0.114 C 
HETATM    6  C   UNL     1      -6.084   0.223 -30.683  1.00  0.00     0.037 C 
BRANCH   5   7
HETATM    7  C   UNL     1      -5.776  -0.574 -33.070  1.00  0.00    -0.033 A 
HETATM    8  C   UNL     1      -4.540  -1.217 -33.208  1.00  0.00     0.028 A 
HETATM    9  C   UNL     1      -4.451  -2.325 -34.035  1.00  0.00     0.116 A 
HETATM   10  N   UNL     1      -5.493  -2.835 -34.723  1.00  0.00    -0.273 NA
HETATM   11  C   UNL     1      -6.679  -2.211 -34.574  1.00  0.00     0.116 A 
HETATM   12  C   UNL     1      -6.870  -1.097 -33.769  1.00  0.00     0.028 A 
ENDBRANCH   5   7
ENDBRANCH   1   5
BRANCH   2  13
HETATM   13  C   UNL     1      -3.616   3.585 -32.416  1.00  0.00     0.103 A 
HETATM   14  N   UNL     1      -3.210   4.071 -33.646  1.00  0.00    -0.341 N 
HETATM   15  H   UNL     1      -3.733   3.956 -34.505  1.00  0.00     0.167 HD
HETATM   16  C   UNL     1      -2.020   4.714 -33.516  1.00  0.00     0.126 A 
HETATM   17 CL   UNL     1      -1.335   5.395 -34.911  1.00  0.00    -0.063 Cl
HETATM   18  C   UNL     1      -1.621   4.666 -32.209  1.00  0.00     0.074 A 
HETATM   19 CL   UNL     1      -0.220   5.311 -31.507  1.00  0.00    -0.081 Cl
HETATM   20  C   UNL     1      -2.627   3.950 -31.508  1.00  0.00     0.062 A 
ENDBRANCH   2  13
TORSDOF 3
ENDMDL
MODEL 8
REMARK VINA RESULT:      -6.4     14.588     16.326
REMARK  3 active torsions:
REMARK  status: ('A' for Active; 'I' for Inactive)
REMARK    1  A    between atoms: C_2  and  N_3 
REMARK    2  A    between atoms: C_2  and  C_14 
REMARK       I    between atoms: N_3  and  C_4 
REMARK    3  A    between atoms: C_4  and  C_5 
ROOT
HETATM    1  N   UNL     1      -6.369 -13.453 -39.398  1.00  0.00    -0.347 N 
HETATM    2  C   UNL     1      -5.638 -12.760 -40.330  1.00  0.00     0.268 C 
HETATM    3  O   UNL     1      -5.873 -11.593 -40.626  1.00  0.00    -0.266 OA
HETATM    4  H   UNL     1      -6.129 -14.409 -39.185  1.00  0.00     0.163 HD
ENDROOT
BRANCH   1   5
HETATM    5  C   UNL     1      -7.456 -12.837 -38.658  1.00  0.00     0.114 C 
HETATM    6  C   UNL     1      -7.440 -13.268 -37.188  1.00  0.00     0.037 C 
BRANCH   5   7
HETATM    7  C   UNL     1      -8.774 -13.149 -39.340  1.00  0.00    -0.033 A 
HETATM    8  C   UNL     1      -9.160 -14.480 -39.537  1.00  0.00     0.028 A 
HETATM    9  C   UNL     1     -10.379 -14.742 -40.142  1.00  0.00     0.116 A 
HETATM   10  N   UNL     1     -11.234 -13.783 -40.554  1.00  0.00    -0.273 NA
HETATM   11  C   UNL     1     -10.854 -12.506 -40.351  1.00  0.00     0.116 A 
HETATM   12  C   UNL     1      -9.655 -12.142 -39.754  1.00  0.00     0.028 A 
ENDBRANCH   5   7
ENDBRANCH   1   5
BRANCH   2  13
HETATM   13  C   UNL     1      -4.560 -13.500 -40.948  1.00  0.00     0.103 A 
HETATM   14  N   UNL     1      -3.266 -13.410 -40.466  1.00  0.00    -0.341 N 
HETATM   15  H   UNL     1      -2.990 -12.839 -39.676  1.00  0.00     0.167 HD
HETATM   16  C   UNL     1      -2.444 -14.196 -41.208  1.00  0.00     0.126 A 
HETATM   17 CL   UNL     1      -0.801 -14.239 -40.786  1.00  0.00    -0.063 Cl
HETATM   18  C   UNL     1      -3.172 -14.815 -42.185  1.00  0.00     0.074 A 
HETATM   19 CL   UNL     1      -2.640 -15.899 -43.375  1.00  0.00    -0.081 Cl
HETATM   20  C   UNL     1      -4.513 -14.376 -42.027  1.00  0.00     0.062 A 
ENDBRANCH   2  13
TORSDOF 3
ENDMDL
MODEL 9
REMARK VINA RESULT:      -6.4      9.058     11.222
REMARK  3 active torsions:
REMARK  status: ('A' for Active; 'I' for Inactive)
REMARK    1  A    between atoms: C_2  and  N_3 
REMARK    2  A    between atoms: C_2  and  C_14 
REMARK       I    between atoms: N_3  and  C_4 
REMARK    3  A    between atoms: C_4  and  C_5 
ROOT
HETATM    1  N   UNL     1      -1.055   5.856 -31.814  1.00  0.00    -0.347 N 
HETATM    2  C   UNL     1      -0.009   5.440 -31.030  1.00  0.00     0.268 C 
HETATM    3  O   UNL     1       0.749   4.533 -31.358  1.00  0.00    -0.266 OA
HETATM    4  H   UNL     1      -1.644   6.612 -31.501  1.00  0.00     0.163 HD
ENDROOT
BRANCH   1   5
HETATM    5  C   UNL     1      -1.319   5.275 -33.119  1.00  0.00     0.114 C 
HETATM    6  C   UNL     1      -1.169   6.319 -34.231  1.00  0.00     0.037 C 
BRANCH   5   7
HETATM    7  C   UNL     1      -2.687   4.622 -33.116  1.00  0.00    -0.033 A 
HETATM    8  C   UNL     1      -3.699   5.119 -33.945  1.00  0.00     0.028 A 
HETATM    9  C   UNL     1      -4.936   4.493 -33.943  1.00  0.00     0.116 A 
HETATM   10  N   UNL     1      -5.230   3.415 -33.187  1.00  0.00    -0.273 NA
HETATM   11  C   UNL     1      -4.244   2.941 -32.400  1.00  0.00     0.116 A 
HETATM   12  C   UNL     1      -2.974   3.497 -32.332  1.00  0.00     0.028 A 
ENDBRANCH   5   7
ENDBRANCH   1   5
BRANCH   2  13
HETATM   13  C   UNL     1       0.148   6.148 -29.779  1.00  0.00     0.103 A 
HETATM   14  N   UNL     1      -0.340   5.621 -28.596  1.00  0.00    -0.341 N 
HETATM   15  H   UNL     1      -0.828   4.736 -28.524  1.00  0.00     0.167 HD
HETATM   16  C   UNL     1      -0.065   6.466 -27.568  1.00  0.00     0.126 A 
HETATM   17 CL   UNL     1      -0.575   6.012 -26.015  1.00  0.00    -0.063 Cl
HETATM   18  C   UNL     1       0.605   7.557 -28.048  1.00  0.00     0.074 A 
HETATM   19 CL   UNL     1       1.184   8.902 -27.195  1.00  0.00    -0.081 Cl
HETATM   20  C   UNL     1       0.741   7.362 -29.448  1.00  0.00     0.062 A 
ENDBRANCH   2  13
TORSDOF 3
ENDMDL
MODEL 10
REMARK VINA RESULT:      -6.3      4.364      6.645
REMARK  3 active torsions:
REMARK  status: ('A' for Active; 'I' for Inactive)
REMARK    1  A    between atoms: C_2  and  N_3 
REMARK    2  A    between atoms: C_2  and  C_14 
REMARK       I    between atoms: N_3  and  C_4 
REMARK    3  A    between atoms: C_4  and  C_5 
ROOT
HETATM    1  N   UNL     1      -6.303   1.083 -33.542  1.00  0.00    -0.347 N 
HETATM    2  C   UNL     1      -6.207  -0.023 -32.737  1.00  0.00     0.268 C 
HETATM    3  O   UNL     1      -6.279   0.036 -31.513  1.00  0.00    -0.266 OA
HETATM    4  H   UNL     1      -6.246   0.979 -34.543  1.00  0.00     0.163 HD
ENDROOT
BRANCH   1   5
HETATM    5  C   UNL     1      -6.540   2.410 -33.002  1.00  0.00     0.114 C 
HETATM    6  C   UNL     1      -7.859   2.993 -33.521  1.00  0.00     0.037 C 
BRANCH   5   7
HETATM    7  C   UNL     1      -5.351   3.302 -33.309  1.00  0.00    -0.033 A 
HETATM    8  C   UNL     1      -4.135   3.094 -32.648  1.00  0.00     0.028 A 
HETATM    9  C   UNL     1      -3.056   3.906 -32.960  1.00  0.00     0.116 A 
HETATM   10  N   UNL     1      -3.100   4.894 -33.877  1.00  0.00    -0.273 NA
HETATM   11  C   UNL     1      -4.275   5.077 -34.512  1.00  0.00     0.116 A 
HETATM   12  C   UNL     1      -5.410   4.317 -34.271  1.00  0.00     0.028 A 
ENDBRANCH   5   7
ENDBRANCH   1   5
BRANCH   2  13
HETATM   13  C   UNL     1      -6.016  -1.279 -33.427  1.00  0.00     0.103 A 
HETATM   14  N   UNL     1      -4.816  -1.963 -33.344  1.00  0.00    -0.341 N 
HETATM   15  H   UNL     1      -4.014  -1.644 -32.814  1.00  0.00     0.167 HD
HETATM   16  C   UNL     1      -4.889  -3.109 -34.071  1.00  0.00     0.126 A 
HETATM   17 CL   UNL     1      -3.519  -4.109 -34.105  1.00  0.00    -0.063 Cl
HETATM   18  C   UNL     1      -6.126  -3.202 -34.644  1.00  0.00     0.074 A 
HETATM   19 CL   UNL     1      -6.740  -4.427 -35.641  1.00  0.00    -0.081 Cl
HETATM   20  C   UNL     1      -6.844  -2.045 -34.241  1.00  0.00     0.062 A 
ENDBRANCH   2  13
TORSDOF 3
ENDMDL
