MODEL 1
REMARK VINA RESULT:     -10.1      0.000      0.000
REMARK  7 active torsions:
REMARK  status: ('A' for Active; 'I' for Inactive)
REMARK    1  A    between atoms: C_4  and  C_5 
REMARK    2  A    between atoms: C_5  and  C_6 
REMARK    3  A    between atoms: C_8  and  C_9 
REMARK    4  A    between atoms: C_9  and  C_10 
REMARK       I    between atoms: C_10  and  N_11 
REMARK    5  A    between atoms: N_11  and  N_12 
REMARK       I    between atoms: N_12  and  C_13 
REMARK       I    between atoms: C_13  and  N_14 
REMARK    6  A    between atoms: N_14  and  C_15 
REMARK    7  A    between atoms: C_17  and  C_18 
ROOT
HETATM    1  C   UNL     1      -3.217   3.382 -32.052  1.00  0.00     0.238 C 
HETATM    2  N   UNL     1      -4.584   3.218 -32.152  1.00  0.00    -0.266 N 
HETATM    3  O   UNL     1      -2.576   2.934 -31.101  1.00  0.00    -0.272 OA
HETATM    4  H   UNL     1      -5.037   3.339 -33.051  1.00  0.00     0.190 HD
ENDROOT
BRANCH   1   5
HETATM    5  C   UNL     1      -2.552   4.263 -33.100  1.00  0.00     0.139 C 
BRANCH   5   6
HETATM    6  C   UNL     1      -1.426   5.198 -32.659  1.00  0.00     0.185 C 
HETATM    7  N   UNL     1      -1.615   5.586 -31.265  1.00  0.00    -0.363 N 
HETATM    8  C   UNL     1      -2.017   6.845 -30.906  1.00  0.00     0.125 C 
HETATM    9  H   UNL     1      -1.374   4.908 -30.549  1.00  0.00     0.161 HD
HETATM   10  N   UNL     1      -2.192   7.815 -31.760  1.00  0.00    -0.159 NA
HETATM   11  N   UNL     1      -1.818   7.597 -33.062  1.00  0.00    -0.244 N 
HETATM   12  C   UNL     1      -1.307   6.418 -33.570  1.00  0.00     0.261 C 
HETATM   13  H   UNL     1      -1.765   8.413 -33.667  1.00  0.00     0.192 HD
HETATM   14  O   UNL     1      -0.880   6.348 -34.719  1.00  0.00    -0.269 OA
BRANCH   8  15
HETATM   15  C   UNL     1      -2.314   7.118 -29.436  1.00  0.00     0.118 C 
BRANCH  15  16
HETATM   16  C   UNL     1      -1.063   7.234 -28.601  1.00  0.00    -0.051 A 
HETATM   17  C   UNL     1       0.041   7.962 -29.067  1.00  0.00     0.007 A 
HETATM   18  C   UNL     1       1.187   8.096 -28.282  1.00  0.00     0.001 A 
HETATM   19  C   UNL     1       1.239   7.510 -27.020  1.00  0.00     0.000 A 
HETATM   20  C   UNL     1       0.146   6.790 -26.542  1.00  0.00     0.001 A 
HETATM   21  C   UNL     1      -1.000   6.653 -27.326  1.00  0.00     0.007 A 
ENDBRANCH  15  16
ENDBRANCH   8  15
ENDBRANCH   5   6
ENDBRANCH   1   5
BRANCH   2  22
HETATM   22  N   UNL     1      -5.179   2.298 -31.268  1.00  0.00    -0.249 N 
HETATM   23  C   UNL     1      -5.543   1.022 -31.647  1.00  0.00     0.339 C 
HETATM   24  N   UNL     1      -4.823   0.506 -32.701  1.00  0.00    -0.308 N 
HETATM   25  O   UNL     1      -6.434   0.450 -31.028  1.00  0.00    -0.245 OA
HETATM   26  H   UNL     1      -3.946   0.965 -32.901  1.00  0.00     0.170 HD
HETATM   27  H   UNL     1      -5.763   2.715 -30.541  1.00  0.00     0.192 HD
BRANCH  24  28
HETATM   28  C   UNL     1      -5.045  -0.716 -33.370  1.00  0.00     0.037 A 
HETATM   29  C   UNL     1      -4.292  -1.873 -33.152  1.00  0.00     0.045 A 
HETATM   30  C   UNL     1      -4.577  -3.065 -33.845  1.00  0.00     0.050 A 
HETATM   31  C   UNL     1      -5.634  -3.082 -34.766  1.00  0.00     0.016 A 
HETATM   32  C   UNL     1      -6.395  -1.935 -34.984  1.00  0.00     0.003 A 
HETATM   33  C   UNL     1      -6.098  -0.760 -34.292  1.00  0.00     0.029 A 
BRANCH  30  34
HETATM   34  C   UNL     1      -3.733  -4.298 -33.637  1.00  0.00     0.417 C 
HETATM   35  F   UNL     1      -4.458  -5.438 -33.470  1.00  0.00    -0.166 F 
HETATM   36  F   UNL     1      -2.898  -4.544 -34.686  1.00  0.00    -0.166 F 
HETATM   37  F   UNL     1      -2.930  -4.197 -32.541  1.00  0.00    -0.166 F 
ENDBRANCH  30  34
ENDBRANCH  24  28
ENDBRANCH   2  22
TORSDOF 7
ENDMDL
MODEL 2
REMARK VINA RESULT:     -10.0      3.810      6.362
REMARK  7 active torsions:
REMARK  status: ('A' for Active; 'I' for Inactive)
REMARK    1  A    between atoms: C_4  and  C_5 
REMARK    2  A    between atoms: C_5  and  C_6 
REMARK    3  A    between atoms: C_8  and  C_9 
REMARK    4  A    between atoms: C_9  and  C_10 
REMARK       I    between atoms: C_10  and  N_11 
REMARK    5  A    between atoms: N_11  and  N_12 
REMARK       I    between atoms: N_12  and  C_13 
REMARK       I    between atoms: C_13  and  N_14 
REMARK    6  A    between atoms: N_14  and  C_15 
REMARK    7  A    between atoms: C_17  and  C_18 
ROOT
HETATM    1  C   UNL     1      -5.725   5.111 -30.517  1.00  0.00     0.238 C 
HETATM    2  N   UNL     1      -4.835   4.073 -30.331  1.00  0.00    -0.266 N 
HETATM    3  O   UNL     1      -6.913   5.012 -30.207  1.00  0.00    -0.272 OA
HETATM    4  H   UNL     1      -3.839   4.265 -30.325  1.00  0.00     0.190 HD
ENDROOT
BRANCH   1   5
HETATM    5  C   UNL     1      -5.208   6.338 -31.254  1.00  0.00     0.139 C 
BRANCH   5   6
HETATM    6  C   UNL     1      -5.469   6.452 -32.755  1.00  0.00     0.185 C 
HETATM    7  N   UNL     1      -6.812   5.974 -33.067  1.00  0.00    -0.363 N 
HETATM    8  C   UNL     1      -7.032   4.784 -33.708  1.00  0.00     0.125 C 
HETATM    9  H   UNL     1      -7.594   6.586 -32.853  1.00  0.00     0.161 HD
HETATM   10  N   UNL     1      -6.073   4.020 -34.155  1.00  0.00    -0.159 NA
HETATM   11  N   UNL     1      -4.792   4.505 -34.104  1.00  0.00    -0.244 N 
HETATM   12  C   UNL     1      -4.409   5.724 -33.577  1.00  0.00     0.261 C 
HETATM   13  H   UNL     1      -4.088   3.998 -34.636  1.00  0.00     0.192 HD
HETATM   14  O   UNL     1      -3.257   6.135 -33.686  1.00  0.00    -0.269 OA
BRANCH   8  15
HETATM   15  C   UNL     1      -8.470   4.306 -33.873  1.00  0.00     0.118 C 
BRANCH  15  16
HETATM   16  C   UNL     1      -8.673   2.891 -33.394  1.00  0.00    -0.051 A 
HETATM   17  C   UNL     1      -8.580   2.580 -32.029  1.00  0.00     0.007 A 
HETATM   18  C   UNL     1      -8.798   1.276 -31.582  1.00  0.00     0.001 A 
HETATM   19  C   UNL     1      -9.119   0.272 -32.491  1.00  0.00     0.000 A 
HETATM   20  C   UNL     1      -9.222   0.569 -33.849  1.00  0.00     0.001 A 
HETATM   21  C   UNL     1      -9.002   1.872 -34.299  1.00  0.00     0.007 A 
ENDBRANCH  15  16
ENDBRANCH   8  15
ENDBRANCH   5   6
ENDBRANCH   1   5
BRANCH   2  22
HETATM   22  N   UNL     1      -5.270   2.998 -29.533  1.00  0.00    -0.249 N 
HETATM   23  C   UNL     1      -5.353   1.702 -30.000  1.00  0.00     0.339 C 
HETATM   24  N   UNL     1      -4.499   1.409 -31.040  1.00  0.00    -0.308 N 
HETATM   25  O   UNL     1      -6.137   0.926 -29.464  1.00  0.00    -0.245 OA
HETATM   26  H   UNL     1      -3.724   2.044 -31.165  1.00  0.00     0.170 HD
HETATM   27  H   UNL     1      -5.957   3.244 -28.817  1.00  0.00     0.192 HD
BRANCH  24  28
HETATM   28  C   UNL     1      -4.441   0.213 -31.786  1.00  0.00     0.037 A 
HETATM   29  C   UNL     1      -5.344  -0.118 -32.800  1.00  0.00     0.045 A 
HETATM   30  C   UNL     1      -5.220  -1.324 -33.516  1.00  0.00     0.050 A 
HETATM   31  C   UNL     1      -4.173  -2.200 -33.200  1.00  0.00     0.016 A 
HETATM   32  C   UNL     1      -3.264  -1.876 -32.195  1.00  0.00     0.003 A 
HETATM   33  C   UNL     1      -3.401  -0.678 -31.491  1.00  0.00     0.029 A 
BRANCH  30  34
HETATM   34  C   UNL     1      -6.223  -1.695 -34.581  1.00  0.00     0.417 C 
HETATM   35  F   UNL     1      -7.392  -2.188 -34.087  1.00  0.00    -0.166 F 
HETATM   36  F   UNL     1      -6.573  -0.633 -35.363  1.00  0.00    -0.166 F 
HETATM   37  F   UNL     1      -5.745  -2.641 -35.436  1.00  0.00    -0.166 F 
ENDBRANCH  30  34
ENDBRANCH  24  28
ENDBRANCH   2  22
TORSDOF 7
ENDMDL
MODEL 3
REMARK VINA RESULT:      -9.9      2.063      2.642
REMARK  7 active torsions:
REMARK  status: ('A' for Active; 'I' for Inactive)
REMARK    1  A    between atoms: C_4  and  C_5 
REMARK    2  A    between atoms: C_5  and  C_6 
REMARK    3  A    between atoms: C_8  and  C_9 
REMARK    4  A    between atoms: C_9  and  C_10 
REMARK       I    between atoms: C_10  and  N_11 
REMARK    5  A    between atoms: N_11  and  N_12 
REMARK       I    between atoms: N_12  and  C_13 
REMARK       I    between atoms: C_13  and  N_14 
REMARK    6  A    between atoms: N_14  and  C_15 
REMARK    7  A    between atoms: C_17  and  C_18 
ROOT
HETATM    1  C   UNL     1      -4.995   4.539 -31.406  1.00  0.00     0.238 C 
HETATM    2  N   UNL     1      -4.411   3.768 -30.422  1.00  0.00    -0.266 N 
HETATM    3  O   UNL     1      -6.097   4.261 -31.881  1.00  0.00    -0.272 OA
HETATM    4  H   UNL     1      -3.662   4.159 -29.860  1.00  0.00     0.190 HD
ENDROOT
BRANCH   1   5
HETATM    5  C   UNL     1      -4.157   5.671 -31.983  1.00  0.00     0.139 C 
BRANCH   5   6
HETATM    6  C   UNL     1      -2.936   5.316 -32.830  1.00  0.00     0.185 C 
HETATM    7  N   UNL     1      -1.712   5.611 -32.093  1.00  0.00    -0.363 N 
HETATM    8  C   UNL     1      -0.904   6.669 -32.413  1.00  0.00     0.125 C 
HETATM    9  H   UNL     1      -1.432   4.962 -31.363  1.00  0.00     0.161 HD
HETATM   10  N   UNL     1      -1.114   7.450 -33.436  1.00  0.00    -0.159 NA
HETATM   11  N   UNL     1      -2.113   7.106 -34.310  1.00  0.00    -0.244 N 
HETATM   12  C   UNL     1      -2.958   6.020 -34.185  1.00  0.00     0.261 C 
HETATM   13  H   UNL     1      -2.133   7.598 -35.201  1.00  0.00     0.192 HD
HETATM   14  O   UNL     1      -3.742   5.713 -35.079  1.00  0.00    -0.269 OA
BRANCH   8  15
HETATM   15  C   UNL     1       0.282   6.974 -31.505  1.00  0.00     0.118 C 
BRANCH  15  16
HETATM   16  C   UNL     1      -0.098   7.022 -30.046  1.00  0.00    -0.051 A 
HETATM   17  C   UNL     1      -1.023   7.968 -29.582  1.00  0.00     0.007 A 
HETATM   18  C   UNL     1      -1.399   7.994 -28.237  1.00  0.00     0.001 A 
HETATM   19  C   UNL     1      -0.861   7.070 -27.346  1.00  0.00     0.000 A 
HETATM   20  C   UNL     1       0.054   6.119 -27.797  1.00  0.00     0.001 A 
HETATM   21  C   UNL     1       0.433   6.093 -29.140  1.00  0.00     0.007 A 
ENDBRANCH  15  16
ENDBRANCH   8  15
ENDBRANCH   5   6
ENDBRANCH   1   5
BRANCH   2  22
HETATM   22  N   UNL     1      -5.230   2.811 -29.795  1.00  0.00    -0.249 N 
HETATM   23  C   UNL     1      -5.422   1.541 -30.298  1.00  0.00     0.339 C 
HETATM   24  N   UNL     1      -4.392   1.070 -31.083  1.00  0.00    -0.308 N 
HETATM   25  O   UNL     1      -6.448   0.934 -30.008  1.00  0.00    -0.245 OA
HETATM   26  H   UNL     1      -3.510   1.551 -30.983  1.00  0.00     0.170 HD
HETATM   27  H   UNL     1      -6.025   3.195 -29.280  1.00  0.00     0.192 HD
BRANCH  24  28
HETATM   28  C   UNL     1      -4.359  -0.134 -31.816  1.00  0.00     0.037 A 
HETATM   29  C   UNL     1      -5.253  -0.446 -32.844  1.00  0.00     0.045 A 
HETATM   30  C   UNL     1      -5.155  -1.662 -33.546  1.00  0.00     0.050 A 
HETATM   31  C   UNL     1      -4.142  -2.568 -33.203  1.00  0.00     0.016 A 
HETATM   32  C   UNL     1      -3.241  -2.262 -32.184  1.00  0.00     0.003 A 
HETATM   33  C   UNL     1      -3.353  -1.054 -31.494  1.00  0.00     0.029 A 
BRANCH  30  34
HETATM   34  C   UNL     1      -6.150  -2.012 -34.626  1.00  0.00     0.417 C 
HETATM   35  F   UNL     1      -5.639  -2.801 -35.610  1.00  0.00    -0.166 F 
HETATM   36  F   UNL     1      -7.233  -2.684 -34.141  1.00  0.00    -0.166 F 
HETATM   37  F   UNL     1      -6.648  -0.907 -35.248  1.00  0.00    -0.166 F 
ENDBRANCH  30  34
ENDBRANCH  24  28
ENDBRANCH   2  22
TORSDOF 7
ENDMDL
MODEL 4
REMARK VINA RESULT:      -9.9      1.626      2.044
REMARK  7 active torsions:
REMARK  status: ('A' for Active; 'I' for Inactive)
REMARK    1  A    between atoms: C_4  and  C_5 
REMARK    2  A    between atoms: C_5  and  C_6 
REMARK    3  A    between atoms: C_8  and  C_9 
REMARK    4  A    between atoms: C_9  and  C_10 
REMARK       I    between atoms: C_10  and  N_11 
REMARK    5  A    between atoms: N_11  and  N_12 
REMARK       I    between atoms: N_12  and  C_13 
REMARK       I    between atoms: C_13  and  N_14 
REMARK    6  A    between atoms: N_14  and  C_15 
REMARK    7  A    between atoms: C_17  and  C_18 
ROOT
HETATM    1  C   UNL     1      -2.775   4.600 -31.896  1.00  0.00     0.238 C 
HETATM    2  N   UNL     1      -2.844   3.320 -31.386  1.00  0.00    -0.266 N 
HETATM    3  O   UNL     1      -3.774   5.314 -32.000  1.00  0.00    -0.272 OA
HETATM    4  H   UNL     1      -1.999   2.869 -31.052  1.00  0.00     0.190 HD
ENDROOT
BRANCH   1   5
HETATM    5  C   UNL     1      -1.432   5.046 -32.457  1.00  0.00     0.139 C 
BRANCH   5   6
HETATM    6  C   UNL     1      -0.871   6.398 -32.019  1.00  0.00     0.185 C 
HETATM    7  N   UNL     1      -0.900   6.504 -30.564  1.00  0.00    -0.363 N 
HETATM    8  C   UNL     1      -1.789   7.314 -29.909  1.00  0.00     0.125 C 
HETATM    9  H   UNL     1      -0.189   6.004 -30.039  1.00  0.00     0.161 HD
HETATM   10  N   UNL     1      -2.625   8.106 -30.521  1.00  0.00    -0.159 NA
HETATM   11  N   UNL     1      -2.507   8.234 -31.882  1.00  0.00    -0.244 N 
HETATM   12  C   UNL     1      -1.602   7.562 -32.681  1.00  0.00     0.261 C 
HETATM   13  H   UNL     1      -3.018   8.999 -32.317  1.00  0.00     0.192 HD
HETATM   14  O   UNL     1      -1.479   7.831 -33.873  1.00  0.00    -0.269 OA
BRANCH   8  15
HETATM   15  C   UNL     1      -1.832   7.260 -28.386  1.00  0.00     0.118 C 
BRANCH  15  16
HETATM   16  C   UNL     1      -0.570   7.785 -27.749  1.00  0.00    -0.051 A 
HETATM   17  C   UNL     1       0.387   6.903 -27.227  1.00  0.00     0.007 A 
HETATM   18  C   UNL     1       1.569   7.388 -26.665  1.00  0.00     0.001 A 
HETATM   19  C   UNL     1       1.811   8.758 -26.626  1.00  0.00     0.000 A 
HETATM   20  C   UNL     1       0.872   9.646 -27.148  1.00  0.00     0.001 A 
HETATM   21  C   UNL     1      -0.312   9.163 -27.709  1.00  0.00     0.007 A 
ENDBRANCH  15  16
ENDBRANCH   8  15
ENDBRANCH   5   6
ENDBRANCH   1   5
BRANCH   2  22
HETATM   22  N   UNL     1      -4.044   2.956 -30.745  1.00  0.00    -0.249 N 
HETATM   23  C   UNL     1      -5.041   2.238 -31.372  1.00  0.00     0.339 C 
HETATM   24  N   UNL     1      -4.612   1.436 -32.406  1.00  0.00    -0.308 N 
HETATM   25  O   UNL     1      -6.194   2.344 -30.967  1.00  0.00    -0.245 OA
HETATM   26  H   UNL     1      -3.624   1.231 -32.422  1.00  0.00     0.170 HD
HETATM   27  H   UNL     1      -4.367   3.611 -30.032  1.00  0.00     0.192 HD
BRANCH  24  28
HETATM   28  C   UNL     1      -5.412   0.684 -33.292  1.00  0.00     0.037 A 
HETATM   29  C   UNL     1      -5.277  -0.694 -33.487  1.00  0.00     0.045 A 
HETATM   30  C   UNL     1      -6.119  -1.386 -34.377  1.00  0.00     0.050 A 
HETATM   31  C   UNL     1      -7.106  -0.675 -35.075  1.00  0.00     0.016 A 
HETATM   32  C   UNL     1      -7.253   0.696 -34.881  1.00  0.00     0.003 A 
HETATM   33  C   UNL     1      -6.408   1.371 -33.997  1.00  0.00     0.029 A 
BRANCH  30  34
HETATM   34  C   UNL     1      -5.939  -2.865 -34.616  1.00  0.00     0.417 C 
HETATM   35  F   UNL     1      -7.064  -3.599 -34.393  1.00  0.00    -0.166 F 
HETATM   36  F   UNL     1      -5.564  -3.147 -35.896  1.00  0.00    -0.166 F 
HETATM   37  F   UNL     1      -4.973  -3.404 -33.821  1.00  0.00    -0.166 F 
ENDBRANCH  30  34
ENDBRANCH  24  28
ENDBRANCH   2  22
TORSDOF 7
ENDMDL
MODEL 5
REMARK VINA RESULT:      -9.8      3.320      4.768
REMARK  7 active torsions:
REMARK  status: ('A' for Active; 'I' for Inactive)
REMARK    1  A    between atoms: C_4  and  C_5 
REMARK    2  A    between atoms: C_5  and  C_6 
REMARK    3  A    between atoms: C_8  and  C_9 
REMARK    4  A    between atoms: C_9  and  C_10 
REMARK       I    between atoms: C_10  and  N_11 
REMARK    5  A    between atoms: N_11  and  N_12 
REMARK       I    between atoms: N_12  and  C_13 
REMARK       I    between atoms: C_13  and  N_14 
REMARK    6  A    between atoms: N_14  and  C_15 
REMARK    7  A    between atoms: C_17  and  C_18 
ROOT
HETATM    1  C   UNL     1      -7.653   4.231 -32.986  1.00  0.00     0.238 C 
HETATM    2  N   UNL     1      -7.883   2.870 -32.993  1.00  0.00    -0.266 N 
HETATM    3  O   UNL     1      -7.340   4.843 -34.008  1.00  0.00    -0.272 OA
HETATM    4  H   UNL     1      -8.401   2.447 -32.231  1.00  0.00     0.190 HD
ENDROOT
BRANCH   1   5
HETATM    5  C   UNL     1      -7.665   4.924 -31.631  1.00  0.00     0.139 C 
BRANCH   5   6
HETATM    6  C   UNL     1      -6.330   5.189 -30.935  1.00  0.00     0.185 C 
HETATM    7  N   UNL     1      -5.227   4.763 -31.790  1.00  0.00    -0.363 N 
HETATM    8  C   UNL     1      -4.484   3.645 -31.520  1.00  0.00     0.125 C 
HETATM    9  H   UNL     1      -4.975   5.363 -32.570  1.00  0.00     0.161 HD
HETATM   10  N   UNL     1      -4.646   2.915 -30.451  1.00  0.00    -0.159 NA
HETATM   11  N   UNL     1      -5.507   3.374 -29.487  1.00  0.00    -0.244 N 
HETATM   12  C   UNL     1      -6.262   4.529 -29.560  1.00  0.00     0.261 C 
HETATM   13  H   UNL     1      -5.470   2.911 -28.581  1.00  0.00     0.192 HD
HETATM   14  O   UNL     1      -6.911   4.931 -28.599  1.00  0.00    -0.269 OA
BRANCH   8  15
HETATM   15  C   UNL     1      -3.438   3.208 -32.539  1.00  0.00     0.118 C 
BRANCH  15  16
HETATM   16  C   UNL     1      -2.496   4.321 -32.921  1.00  0.00    -0.051 A 
HETATM   17  C   UNL     1      -2.458   4.803 -34.238  1.00  0.00     0.007 A 
HETATM   18  C   UNL     1      -1.608   5.854 -34.585  1.00  0.00     0.001 A 
HETATM   19  C   UNL     1      -0.794   6.440 -33.620  1.00  0.00     0.000 A 
HETATM   20  C   UNL     1      -0.827   5.976 -32.306  1.00  0.00     0.001 A 
HETATM   21  C   UNL     1      -1.674   4.923 -31.957  1.00  0.00     0.007 A 
ENDBRANCH  15  16
ENDBRANCH   8  15
ENDBRANCH   5   6
ENDBRANCH   1   5
BRANCH   2  22
HETATM   22  N   UNL     1      -8.008   2.254 -34.253  1.00  0.00    -0.249 N 
HETATM   23  C   UNL     1      -7.280   1.140 -34.618  1.00  0.00     0.339 C 
HETATM   24  N   UNL     1      -6.871   0.348 -33.569  1.00  0.00    -0.308 N 
HETATM   25  O   UNL     1      -7.074   0.930 -35.809  1.00  0.00    -0.245 OA
HETATM   26  H   UNL     1      -7.362   0.486 -32.697  1.00  0.00     0.170 HD
HETATM   27  H   UNL     1      -8.245   2.886 -35.020  1.00  0.00     0.192 HD
BRANCH  24  28
HETATM   28  C   UNL     1      -6.026  -0.780 -33.629  1.00  0.00     0.037 A 
HETATM   29  C   UNL     1      -6.389  -1.996 -34.214  1.00  0.00     0.045 A 
HETATM   30  C   UNL     1      -5.490  -3.079 -34.252  1.00  0.00     0.050 A 
HETATM   31  C   UNL     1      -4.214  -2.926 -33.693  1.00  0.00     0.016 A 
HETATM   32  C   UNL     1      -3.841  -1.715 -33.114  1.00  0.00     0.003 A 
HETATM   33  C   UNL     1      -4.744  -0.651 -33.080  1.00  0.00     0.029 A 
BRANCH  30  34
HETATM   34  C   UNL     1      -5.903  -4.403 -34.847  1.00  0.00     0.417 C 
HETATM   35  F   UNL     1      -7.096  -4.866 -34.383  1.00  0.00    -0.166 F 
HETATM   36  F   UNL     1      -6.032  -4.350 -36.204  1.00  0.00    -0.166 F 
HETATM   37  F   UNL     1      -4.994  -5.387 -34.601  1.00  0.00    -0.166 F 
ENDBRANCH  30  34
ENDBRANCH  24  28
ENDBRANCH   2  22
TORSDOF 7
ENDMDL
MODEL 6
REMARK VINA RESULT:      -9.7      3.463      6.025
REMARK  7 active torsions:
REMARK  status: ('A' for Active; 'I' for Inactive)
REMARK    1  A    between atoms: C_4  and  C_5 
REMARK    2  A    between atoms: C_5  and  C_6 
REMARK    3  A    between atoms: C_8  and  C_9 
REMARK    4  A    between atoms: C_9  and  C_10 
REMARK       I    between atoms: C_10  and  N_11 
REMARK    5  A    between atoms: N_11  and  N_12 
REMARK       I    between atoms: N_12  and  C_13 
REMARK       I    between atoms: C_13  and  N_14 
REMARK    6  A    between atoms: N_14  and  C_15 
REMARK    7  A    between atoms: C_17  and  C_18 
ROOT
HETATM    1  C   UNL     1      -4.121   3.881 -31.181  1.00  0.00     0.238 C 
HETATM    2  N   UNL     1      -3.367   2.888 -31.773  1.00  0.00    -0.266 N 
HETATM    3  O   UNL     1      -4.988   3.627 -30.344  1.00  0.00    -0.272 OA
HETATM    4  H   UNL     1      -2.494   3.129 -32.229  1.00  0.00     0.190 HD
ENDROOT
BRANCH   1   5
HETATM    5  C   UNL     1      -3.932   5.296 -31.708  1.00  0.00     0.139 C 
BRANCH   5   6
HETATM    6  C   UNL     1      -4.950   5.845 -32.707  1.00  0.00     0.185 C 
HETATM    7  N   UNL     1      -6.306   5.581 -32.236  1.00  0.00    -0.363 N 
HETATM    8  C   UNL     1      -7.110   4.639 -32.818  1.00  0.00     0.125 C 
HETATM    9  H   UNL     1      -6.671   6.171 -31.494  1.00  0.00     0.161 HD
HETATM   10  N   UNL     1      -6.769   3.955 -33.875  1.00  0.00    -0.159 NA
HETATM   11  N   UNL     1      -5.605   4.302 -34.513  1.00  0.00    -0.244 N 
HETATM   12  C   UNL     1      -4.727   5.291 -34.112  1.00  0.00     0.261 C 
HETATM   13  H   UNL     1      -5.455   3.908 -35.439  1.00  0.00     0.192 HD
HETATM   14  O   UNL     1      -3.773   5.621 -34.812  1.00  0.00    -0.269 OA
BRANCH   8  15
HETATM   15  C   UNL     1      -8.461   4.344 -32.175  1.00  0.00     0.118 C 
BRANCH  15  16
HETATM   16  C   UNL     1      -8.803   2.875 -32.186  1.00  0.00    -0.051 A 
HETATM   17  C   UNL     1      -9.837   2.390 -33.000  1.00  0.00     0.007 A 
HETATM   18  C   UNL     1     -10.133   1.026 -33.035  1.00  0.00     0.001 A 
HETATM   19  C   UNL     1      -9.396   0.133 -32.263  1.00  0.00     0.000 A 
HETATM   20  C   UNL     1      -8.360   0.601 -31.455  1.00  0.00     0.001 A 
HETATM   21  C   UNL     1      -8.063   1.965 -31.417  1.00  0.00     0.007 A 
ENDBRANCH  15  16
ENDBRANCH   8  15
ENDBRANCH   5   6
ENDBRANCH   1   5
BRANCH   2  22
HETATM   22  N   UNL     1      -3.440   1.606 -31.197  1.00  0.00    -0.249 N 
HETATM   23  C   UNL     1      -4.256   0.608 -31.688  1.00  0.00     0.339 C 
HETATM   24  N   UNL     1      -4.553   0.713 -33.029  1.00  0.00    -0.308 N 
HETATM   25  O   UNL     1      -4.630  -0.281 -30.929  1.00  0.00    -0.245 OA
HETATM   26  H   UNL     1      -3.943   1.310 -33.568  1.00  0.00     0.170 HD
HETATM   27  H   UNL     1      -3.283   1.578 -30.188  1.00  0.00     0.192 HD
BRANCH  24  28
HETATM   28  C   UNL     1      -5.444  -0.090 -33.771  1.00  0.00     0.037 A 
HETATM   29  C   UNL     1      -5.369  -1.484 -33.838  1.00  0.00     0.045 A 
HETATM   30  C   UNL     1      -6.301  -2.226 -34.588  1.00  0.00     0.050 A 
HETATM   31  C   UNL     1      -7.318  -1.548 -35.274  1.00  0.00     0.016 A 
HETATM   32  C   UNL     1      -7.406  -0.159 -35.207  1.00  0.00     0.003 A 
HETATM   33  C   UNL     1      -6.472   0.564 -34.462  1.00  0.00     0.029 A 
BRANCH  30  34
HETATM   34  C   UNL     1      -6.188  -3.727 -34.691  1.00  0.00     0.417 C 
HETATM   35  F   UNL     1      -5.126  -4.246 -34.015  1.00  0.00    -0.166 F 
HETATM   36  F   UNL     1      -7.286  -4.370 -34.200  1.00  0.00    -0.166 F 
HETATM   37  F   UNL     1      -6.058  -4.149 -35.979  1.00  0.00    -0.166 F 
ENDBRANCH  30  34
ENDBRANCH  24  28
ENDBRANCH   2  22
TORSDOF 7
ENDMDL
MODEL 7
REMARK VINA RESULT:      -9.7      4.725     10.893
REMARK  7 active torsions:
REMARK  status: ('A' for Active; 'I' for Inactive)
REMARK    1  A    between atoms: C_4  and  C_5 
REMARK    2  A    between atoms: C_5  and  C_6 
REMARK    3  A    between atoms: C_8  and  C_9 
REMARK    4  A    between atoms: C_9  and  C_10 
REMARK       I    between atoms: C_10  and  N_11 
REMARK    5  A    between atoms: N_11  and  N_12 
REMARK       I    between atoms: N_12  and  C_13 
REMARK       I    between atoms: C_13  and  N_14 
REMARK    6  A    between atoms: N_14  and  C_15 
REMARK    7  A    between atoms: C_17  and  C_18 
ROOT
HETATM    1  C   UNL     1      -4.239   3.756 -32.345  1.00  0.00     0.238 C 
HETATM    2  N   UNL     1      -3.019   3.646 -31.710  1.00  0.00    -0.266 N 
HETATM    3  O   UNL     1      -4.440   4.593 -33.226  1.00  0.00    -0.272 OA
HETATM    4  H   UNL     1      -2.792   2.794 -31.208  1.00  0.00     0.190 HD
ENDROOT
BRANCH   1   5
HETATM    5  C   UNL     1      -5.373   2.891 -31.813  1.00  0.00     0.139 C 
BRANCH   5   6
HETATM    6  C   UNL     1      -5.106   1.405 -31.574  1.00  0.00     0.185 C 
HETATM    7  N   UNL     1      -5.191   0.672 -32.832  1.00  0.00    -0.363 N 
HETATM    8  C   UNL     1      -6.240  -0.158 -33.123  1.00  0.00     0.125 C 
HETATM    9  H   UNL     1      -4.407   0.741 -33.474  1.00  0.00     0.161 HD
HETATM   10  N   UNL     1      -7.204  -0.420 -32.284  1.00  0.00    -0.159 NA
HETATM   11  N   UNL     1      -7.081   0.049 -31.002  1.00  0.00    -0.244 N 
HETATM   12  C   UNL     1      -6.041   0.820 -30.518  1.00  0.00     0.261 C 
HETATM   13  H   UNL     1      -7.725  -0.330 -30.311  1.00  0.00     0.192 HD
HETATM   14  O   UNL     1      -5.946   1.091 -29.324  1.00  0.00    -0.269 OA
BRANCH   8  15
HETATM   15  C   UNL     1      -6.307  -0.778 -34.514  1.00  0.00     0.118 C 
BRANCH  15  16
HETATM   16  C   UNL     1      -5.872  -2.222 -34.530  1.00  0.00    -0.051 A 
HETATM   17  C   UNL     1      -4.568  -2.578 -34.154  1.00  0.00     0.007 A 
HETATM   18  C   UNL     1      -4.174  -3.916 -34.139  1.00  0.00     0.001 A 
HETATM   19  C   UNL     1      -5.079  -4.913 -34.491  1.00  0.00     0.000 A 
HETATM   20  C   UNL     1      -6.380  -4.574 -34.859  1.00  0.00     0.001 A 
HETATM   21  C   UNL     1      -6.776  -3.236 -34.878  1.00  0.00     0.007 A 
ENDBRANCH  15  16
ENDBRANCH   8  15
ENDBRANCH   5   6
ENDBRANCH   1   5
BRANCH   2  22
HETATM   22  N   UNL     1      -1.939   4.342 -32.285  1.00  0.00    -0.249 N 
HETATM   23  C   UNL     1      -1.447   5.523 -31.769  1.00  0.00     0.339 C 
HETATM   24  N   UNL     1      -1.659   5.696 -30.419  1.00  0.00    -0.308 N 
HETATM   25  O   UNL     1      -0.859   6.299 -32.516  1.00  0.00    -0.245 OA
HETATM   26  H   UNL     1      -1.881   4.860 -29.899  1.00  0.00     0.170 HD
HETATM   27  H   UNL     1      -1.855   4.245 -33.298  1.00  0.00     0.192 HD
BRANCH  24  28
HETATM   28  C   UNL     1      -1.371   6.842 -29.650  1.00  0.00     0.037 A 
HETATM   29  C   UNL     1      -0.202   7.006 -28.901  1.00  0.00     0.045 A 
HETATM   30  C   UNL     1       0.028   8.184 -28.165  1.00  0.00     0.050 A 
HETATM   31  C   UNL     1      -0.934   9.203 -28.190  1.00  0.00     0.016 A 
HETATM   32  C   UNL     1      -2.098   9.052 -28.940  1.00  0.00     0.003 A 
HETATM   33  C   UNL     1      -2.315   7.877 -29.662  1.00  0.00     0.029 A 
BRANCH  30  34
HETATM   34  C   UNL     1       1.272   8.336 -27.324  1.00  0.00     0.417 C 
HETATM   35  F   UNL     1       2.269   9.030 -27.938  1.00  0.00    -0.166 F 
HETATM   36  F   UNL     1       1.034   8.993 -26.152  1.00  0.00    -0.166 F 
HETATM   37  F   UNL     1       1.809   7.135 -26.972  1.00  0.00    -0.166 F 
ENDBRANCH  30  34
ENDBRANCH  24  28
ENDBRANCH   2  22
TORSDOF 7
ENDMDL
MODEL 8
REMARK VINA RESULT:      -9.7      1.882      2.604
REMARK  7 active torsions:
REMARK  status: ('A' for Active; 'I' for Inactive)
REMARK    1  A    between atoms: C_4  and  C_5 
REMARK    2  A    between atoms: C_5  and  C_6 
REMARK    3  A    between atoms: C_8  and  C_9 
REMARK    4  A    between atoms: C_9  and  C_10 
REMARK       I    between atoms: C_10  and  N_11 
REMARK    5  A    between atoms: N_11  and  N_12 
REMARK       I    between atoms: N_12  and  C_13 
REMARK       I    between atoms: C_13  and  N_14 
REMARK    6  A    between atoms: N_14  and  C_15 
REMARK    7  A    between atoms: C_17  and  C_18 
ROOT
HETATM    1  C   UNL     1      -2.803   3.584 -32.592  1.00  0.00     0.238 C 
HETATM    2  N   UNL     1      -3.872   2.715 -32.519  1.00  0.00    -0.266 N 
HETATM    3  O   UNL     1      -2.158   3.907 -31.594  1.00  0.00    -0.272 OA
HETATM    4  H   UNL     1      -4.199   2.253 -33.361  1.00  0.00     0.190 HD
ENDROOT
BRANCH   1   5
HETATM    5  C   UNL     1      -2.540   4.240 -33.940  1.00  0.00     0.139 C 
BRANCH   5   6
HETATM    6  C   UNL     1      -3.213   5.577 -34.246  1.00  0.00     0.185 C 
HETATM    7  N   UNL     1      -2.450   6.669 -33.653  1.00  0.00    -0.363 N 
HETATM    8  C   UNL     1      -2.892   7.358 -32.555  1.00  0.00     0.125 C 
HETATM    9  H   UNL     1      -1.595   6.958 -34.121  1.00  0.00     0.161 HD
HETATM   10  N   UNL     1      -4.052   7.150 -31.996  1.00  0.00    -0.159 NA
HETATM   11  N   UNL     1      -4.924   6.300 -32.627  1.00  0.00    -0.244 N 
HETATM   12  C   UNL     1      -4.671   5.599 -33.791  1.00  0.00     0.261 C 
HETATM   13  H   UNL     1      -5.887   6.305 -32.300  1.00  0.00     0.192 HD
HETATM   14  O   UNL     1      -5.552   4.958 -34.356  1.00  0.00    -0.269 OA
BRANCH   8  15
HETATM   15  C   UNL     1      -1.966   8.394 -31.929  1.00  0.00     0.118 C 
BRANCH  15  16
HETATM   16  C   UNL     1      -1.206   7.855 -30.743  1.00  0.00    -0.051 A 
HETATM   17  C   UNL     1      -0.223   6.870 -30.913  1.00  0.00     0.007 A 
HETATM   18  C   UNL     1       0.503   6.393 -29.820  1.00  0.00     0.001 A 
HETATM   19  C   UNL     1       0.259   6.901 -28.548  1.00  0.00     0.000 A 
HETATM   20  C   UNL     1      -0.710   7.887 -28.365  1.00  0.00     0.001 A 
HETATM   21  C   UNL     1      -1.438   8.363 -29.456  1.00  0.00     0.007 A 
ENDBRANCH  15  16
ENDBRANCH   8  15
ENDBRANCH   5   6
ENDBRANCH   1   5
BRANCH   2  22
HETATM   22  N   UNL     1      -4.034   2.006 -31.313  1.00  0.00    -0.249 N 
HETATM   23  C   UNL     1      -4.191   0.637 -31.263  1.00  0.00     0.339 C 
HETATM   24  N   UNL     1      -3.642  -0.046 -32.325  1.00  0.00    -0.308 N 
HETATM   25  O   UNL     1      -4.770   0.140 -30.302  1.00  0.00    -0.245 OA
HETATM   26  H   UNL     1      -2.956   0.460 -32.866  1.00  0.00     0.170 HD
HETATM   27  H   UNL     1      -4.508   2.523 -30.571  1.00  0.00     0.192 HD
BRANCH  24  28
HETATM   28  C   UNL     1      -3.745  -1.427 -32.598  1.00  0.00     0.037 A 
HETATM   29  C   UNL     1      -4.558  -1.966 -33.599  1.00  0.00     0.045 A 
HETATM   30  C   UNL     1      -4.603  -3.354 -33.827  1.00  0.00     0.050 A 
HETATM   31  C   UNL     1      -3.817  -4.202 -33.034  1.00  0.00     0.016 A 
HETATM   32  C   UNL     1      -2.998  -3.672 -32.039  1.00  0.00     0.003 A 
HETATM   33  C   UNL     1      -2.966  -2.294 -31.822  1.00  0.00     0.029 A 
BRANCH  30  34
HETATM   34  C   UNL     1      -5.516  -3.933 -34.880  1.00  0.00     0.417 C 
HETATM   35  F   UNL     1      -5.213  -5.214 -35.226  1.00  0.00    -0.166 F 
HETATM   36  F   UNL     1      -6.822  -3.957 -34.486  1.00  0.00    -0.166 F 
HETATM   37  F   UNL     1      -5.493  -3.214 -36.037  1.00  0.00    -0.166 F 
ENDBRANCH  30  34
ENDBRANCH  24  28
ENDBRANCH   2  22
TORSDOF 7
ENDMDL
MODEL 9
REMARK VINA RESULT:      -9.6      1.749      2.211
REMARK  7 active torsions:
REMARK  status: ('A' for Active; 'I' for Inactive)
REMARK    1  A    between atoms: C_4  and  C_5 
REMARK    2  A    between atoms: C_5  and  C_6 
REMARK    3  A    between atoms: C_8  and  C_9 
REMARK    4  A    between atoms: C_9  and  C_10 
REMARK       I    between atoms: C_10  and  N_11 
REMARK    5  A    between atoms: N_11  and  N_12 
REMARK       I    between atoms: N_12  and  C_13 
REMARK       I    between atoms: C_13  and  N_14 
REMARK    6  A    between atoms: N_14  and  C_15 
REMARK    7  A    between atoms: C_17  and  C_18 
ROOT
HETATM    1  C   UNL     1      -3.320   3.765 -32.679  1.00  0.00     0.238 C 
HETATM    2  N   UNL     1      -4.497   3.095 -32.418  1.00  0.00    -0.266 N 
HETATM    3  O   UNL     1      -2.345   3.685 -31.930  1.00  0.00    -0.272 OA
HETATM    4  H   UNL     1      -5.165   2.948 -33.167  1.00  0.00     0.190 HD
ENDROOT
BRANCH   1   5
HETATM    5  C   UNL     1      -3.320   4.723 -33.862  1.00  0.00     0.139 C 
BRANCH   5   6
HETATM    6  C   UNL     1      -3.705   6.182 -33.620  1.00  0.00     0.185 C 
HETATM    7  N   UNL     1      -2.593   6.898 -33.006  1.00  0.00    -0.363 N 
HETATM    8  C   UNL     1      -2.608   7.281 -31.692  1.00  0.00     0.125 C 
HETATM    9  H   UNL     1      -1.818   7.169 -33.604  1.00  0.00     0.161 HD
HETATM   10  N   UNL     1      -3.633   7.108 -30.904  1.00  0.00    -0.159 NA
HETATM   11  N   UNL     1      -4.798   6.648 -31.462  1.00  0.00    -0.244 N 
HETATM   12  C   UNL     1      -4.980   6.306 -32.788  1.00  0.00     0.261 C 
HETATM   13  H   UNL     1      -5.638   6.713 -30.890  1.00  0.00     0.192 HD
HETATM   14  O   UNL     1      -6.090   6.024 -33.231  1.00  0.00    -0.269 OA
BRANCH   8  15
HETATM   15  C   UNL     1      -1.347   7.907 -31.106  1.00  0.00     0.118 C 
BRANCH  15  16
HETATM   16  C   UNL     1      -0.464   6.900 -30.413  1.00  0.00    -0.051 A 
HETATM   17  C   UNL     1      -0.358   6.887 -29.015  1.00  0.00     0.007 A 
HETATM   18  C   UNL     1       0.435   5.935 -28.371  1.00  0.00     0.001 A 
HETATM   19  C   UNL     1       1.123   4.983 -29.117  1.00  0.00     0.000 A 
HETATM   20  C   UNL     1       1.020   4.980 -30.507  1.00  0.00     0.001 A 
HETATM   21  C   UNL     1       0.230   5.932 -31.153  1.00  0.00     0.007 A 
ENDBRANCH  15  16
ENDBRANCH   8  15
ENDBRANCH   5   6
ENDBRANCH   1   5
BRANCH   2  22
HETATM   22  N   UNL     1      -4.458   2.111 -31.412  1.00  0.00    -0.249 N 
HETATM   23  C   UNL     1      -4.757   0.785 -31.648  1.00  0.00     0.339 C 
HETATM   24  N   UNL     1      -4.549   0.368 -32.944  1.00  0.00    -0.308 N 
HETATM   25  O   UNL     1      -5.154   0.090 -30.717  1.00  0.00    -0.245 OA
HETATM   26  H   UNL     1      -3.951   0.958 -33.504  1.00  0.00     0.170 HD
HETATM   27  H   UNL     1      -4.687   2.445 -30.474  1.00  0.00     0.192 HD
BRANCH  24  28
HETATM   28  C   UNL     1      -4.870  -0.889 -33.498  1.00  0.00     0.037 A 
HETATM   29  C   UNL     1      -4.130  -2.053 -33.274  1.00  0.00     0.045 A 
HETATM   30  C   UNL     1      -4.515  -3.279 -33.848  1.00  0.00     0.050 A 
HETATM   31  C   UNL     1      -5.660  -3.324 -34.656  1.00  0.00     0.016 A 
HETATM   32  C   UNL     1      -6.408  -2.170 -34.880  1.00  0.00     0.003 A 
HETATM   33  C   UNL     1      -6.012  -0.960 -34.306  1.00  0.00     0.029 A 
BRANCH  30  34
HETATM   34  C   UNL     1      -3.687  -4.523 -33.637  1.00  0.00     0.417 C 
HETATM   35  F   UNL     1      -2.883  -4.469 -32.540  1.00  0.00    -0.166 F 
HETATM   36  F   UNL     1      -4.453  -5.641 -33.477  1.00  0.00    -0.166 F 
HETATM   37  F   UNL     1      -2.868  -4.785 -34.693  1.00  0.00    -0.166 F 
ENDBRANCH  30  34
ENDBRANCH  24  28
ENDBRANCH   2  22
TORSDOF 7
ENDMDL
MODEL 10
REMARK VINA RESULT:      -9.6      2.926      5.094
REMARK  7 active torsions:
REMARK  status: ('A' for Active; 'I' for Inactive)
REMARK    1  A    between atoms: C_4  and  C_5 
REMARK    2  A    between atoms: C_5  and  C_6 
REMARK    3  A    between atoms: C_8  and  C_9 
REMARK    4  A    between atoms: C_9  and  C_10 
REMARK       I    between atoms: C_10  and  N_11 
REMARK    5  A    between atoms: N_11  and  N_12 
REMARK       I    between atoms: N_12  and  C_13 
REMARK       I    between atoms: C_13  and  N_14 
REMARK    6  A    between atoms: N_14  and  C_15 
REMARK    7  A    between atoms: C_17  and  C_18 
ROOT
HETATM    1  C   UNL     1      -2.913   3.762 -31.547  1.00  0.00     0.238 C 
HETATM    2  N   UNL     1      -3.186   2.473 -31.960  1.00  0.00    -0.266 N 
HETATM    3  O   UNL     1      -3.505   4.281 -30.600  1.00  0.00    -0.272 OA
HETATM    4  H   UNL     1      -2.513   1.980 -32.535  1.00  0.00     0.190 HD
ENDROOT
BRANCH   1   5
HETATM    5  C   UNL     1      -1.945   4.567 -32.402  1.00  0.00     0.139 C 
BRANCH   5   6
HETATM    6  C   UNL     1      -2.492   5.738 -33.217  1.00  0.00     0.185 C 
HETATM    7  N   UNL     1      -3.868   6.023 -32.823  1.00  0.00    -0.363 N 
HETATM    8  C   UNL     1      -4.935   5.720 -33.625  1.00  0.00     0.125 C 
HETATM    9  H   UNL     1      -4.015   6.522 -31.950  1.00  0.00     0.161 HD
HETATM   10  N   UNL     1      -4.814   5.225 -34.826  1.00  0.00    -0.159 NA
HETATM   11  N   UNL     1      -3.553   5.138 -35.358  1.00  0.00    -0.244 N 
HETATM   12  C   UNL     1      -2.379   5.490 -34.720  1.00  0.00     0.261 C 
HETATM   13  H   UNL     1      -3.489   4.948 -36.356  1.00  0.00     0.192 HD
HETATM   14  O   UNL     1      -1.305   5.500 -35.314  1.00  0.00    -0.269 OA
BRANCH   8  15
HETATM   15  C   UNL     1      -6.339   5.936 -33.073  1.00  0.00     0.118 C 
BRANCH  15  16
HETATM   16  C   UNL     1      -7.228   4.730 -33.253  1.00  0.00    -0.051 A 
HETATM   17  C   UNL     1      -6.894   3.504 -32.661  1.00  0.00     0.007 A 
HETATM   18  C   UNL     1      -7.732   2.396 -32.802  1.00  0.00     0.001 A 
HETATM   19  C   UNL     1      -8.914   2.505 -33.528  1.00  0.00     0.000 A 
HETATM   20  C   UNL     1      -9.261   3.720 -34.116  1.00  0.00     0.001 A 
HETATM   21  C   UNL     1      -8.424   4.828 -33.978  1.00  0.00     0.007 A 
ENDBRANCH  15  16
ENDBRANCH   8  15
ENDBRANCH   5   6
ENDBRANCH   1   5
BRANCH   2  22
HETATM   22  N   UNL     1      -3.972   1.684 -31.099  1.00  0.00    -0.249 N 
HETATM   23  C   UNL     1      -4.675   0.577 -31.528  1.00  0.00     0.339 C 
HETATM   24  N   UNL     1      -4.156  -0.037 -32.646  1.00  0.00    -0.308 N 
HETATM   25  O   UNL     1      -5.663   0.218 -30.896  1.00  0.00    -0.245 OA
HETATM   26  H   UNL     1      -3.197   0.188 -32.866  1.00  0.00     0.170 HD
HETATM   27  H   UNL     1      -4.397   2.190 -30.319  1.00  0.00     0.192 HD
BRANCH  24  28
HETATM   28  C   UNL     1      -4.719  -1.110 -33.369  1.00  0.00     0.037 A 
HETATM   29  C   UNL     1      -4.189  -2.403 -33.387  1.00  0.00     0.045 A 
HETATM   30  C   UNL     1      -4.810  -3.431 -34.120  1.00  0.00     0.050 A 
HETATM   31  C   UNL     1      -5.979  -3.146 -34.841  1.00  0.00     0.016 A 
HETATM   32  C   UNL     1      -6.519  -1.862 -34.823  1.00  0.00     0.003 A 
HETATM   33  C   UNL     1      -5.890  -0.850 -34.094  1.00  0.00     0.029 A 
BRANCH  30  34
HETATM   34  C   UNL     1      -4.208  -4.814 -34.170  1.00  0.00     0.417 C 
HETATM   35  F   UNL     1      -4.191  -5.450 -32.967  1.00  0.00    -0.166 F 
HETATM   36  F   UNL     1      -4.879  -5.647 -35.016  1.00  0.00    -0.166 F 
HETATM   37  F   UNL     1      -2.919  -4.802 -34.610  1.00  0.00    -0.166 F 
ENDBRANCH  30  34
ENDBRANCH  24  28
ENDBRANCH   2  22
TORSDOF 7
ENDMDL
