MODEL 1
REMARK VINA RESULT:     -10.2      0.000      0.000
REMARK  7 active torsions:
REMARK  status: ('A' for Active; 'I' for Inactive)
REMARK    1  A    between atoms: N_7  and  C_8 
REMARK    2  A    between atoms: C_8  and  C_9 
REMARK       I    between atoms: C_9  and  N_10 
REMARK    3  A    between atoms: N_10  and  C_11 
REMARK    4  A    between atoms: C_11  and  C_12 
REMARK    5  A    between atoms: C_12  and  C_13 
REMARK    6  A    between atoms: C_12  and  C_23 
REMARK    7  A    between atoms: C_26  and  O_27 
ROOT
HETATM    1  C   UNL     1      -4.229   2.722 -32.050  1.00  0.00     0.136 C 
ENDROOT
BRANCH   1   2
HETATM    2  N   UNL     1      -3.031   3.101 -32.788  1.00  0.00    -0.359 N 
HETATM    3  C   UNL     1      -3.055   4.332 -33.432  1.00  0.00     0.236 C 
HETATM    4  O   UNL     1      -4.101   4.958 -33.612  1.00  0.00    -0.272 OA
HETATM    5  H   UNL     1      -2.133   2.815 -32.410  1.00  0.00     0.162 HD
BRANCH   3   6
HETATM    6  C   UNL     1      -1.703   4.981 -33.697  1.00  0.00     0.239 C 
BRANCH   6   7
HETATM    7  N   UNL     1      -1.209   5.853 -32.655  1.00  0.00    -0.259 N 
HETATM    8  C   UNL     1      -1.209   7.209 -32.752  1.00  0.00     0.326 C 
HETATM    9  N   UNL     1      -0.873   7.732 -31.527  1.00  0.00    -0.324 N 
HETATM   10  O   UNL     1      -1.495   7.891 -33.720  1.00  0.00    -0.247 OA
HETATM   11  C   UNL     1      -0.868   6.728 -30.475  1.00  0.00     0.119 C 
HETATM   12  H   UNL     1      -0.949   8.732 -31.385  1.00  0.00     0.165 HD
HETATM   13  C   UNL     1       0.391   6.873 -29.597  1.00  0.00     0.019 C 
HETATM   14  C   UNL     1      -0.937   5.467 -31.374  1.00  0.00     0.257 C 
HETATM   15  C   UNL     1      -2.177   6.800 -29.666  1.00  0.00     0.041 C 
HETATM   16  C   UNL     1       0.677   5.650 -28.718  1.00  0.00     0.013 C 
HETATM   17  C   UNL     1       0.278   8.139 -28.717  1.00  0.00     0.007 C 
HETATM   18  C   UNL     1      -1.014   8.190 -27.901  1.00  0.00     0.001 C 
HETATM   19  C   UNL     1      -2.250   8.043 -28.782  1.00  0.00     0.003 C 
HETATM   20  O   UNL     1      -0.881   4.303 -30.995  1.00  0.00    -0.270 OA
ENDBRANCH   6   7
ENDBRANCH   3   6
ENDBRANCH   1   2
BRANCH   1  21
HETATM   21  C   UNL     1      -5.195   1.671 -32.626  1.00  0.00     0.071 C 
BRANCH  21  22
HETATM   22  C   UNL     1      -6.606   1.634 -32.087  1.00  0.00    -0.020 A 
HETATM   23  C   UNL     1      -7.791   1.438 -32.891  1.00  0.00    -0.001 A 
HETATM   24  C   UNL     1      -8.897   1.496 -32.044  1.00  0.00     0.042 A 
HETATM   25  C   UNL     1      -8.021   1.218 -34.266  1.00  0.00     0.014 A 
HETATM   26  C   UNL     1     -10.215   1.353 -32.498  1.00  0.00     0.030 A 
HETATM   27  N   UNL     1      -8.420   1.700 -30.774  1.00  0.00    -0.365 N 
HETATM   28  C   UNL     1     -10.410   1.138 -33.866  1.00  0.00     0.002 A 
HETATM   29  C   UNL     1      -9.330   1.068 -34.739  1.00  0.00     0.001 A 
HETATM   30  H   UNL     1      -9.000   1.775 -29.949  1.00  0.00     0.165 HD
HETATM   31  C   UNL     1      -7.052   1.773 -30.785  1.00  0.00     0.097 A 
ENDBRANCH  21  22
BRANCH  21  32
HETATM   32  C   UNL     1      -4.679   0.244 -32.679  1.00  0.00    -0.048 A 
HETATM   33  C   UNL     1      -3.815  -0.202 -31.664  1.00  0.00     0.011 A 
HETATM   34  C   UNL     1      -3.327  -1.509 -31.657  1.00  0.00     0.037 A 
HETATM   35  C   UNL     1      -3.688  -2.406 -32.660  1.00  0.00     0.068 A 
HETATM   36  C   UNL     1      -4.542  -1.978 -33.677  1.00  0.00     0.037 A 
HETATM   37  C   UNL     1      -5.040  -0.666 -33.682  1.00  0.00     0.011 A 
BRANCH  35  38
HETATM   38  O   UNL     1      -3.139  -3.651 -32.531  1.00  0.00    -0.356 OA
HETATM   39  C   UNL     1      -3.487  -4.610 -33.520  1.00  0.00     0.210 C 
ENDBRANCH  35  38
ENDBRANCH  21  32
ENDBRANCH   1  21
TORSDOF 7
ENDMDL
MODEL 2
REMARK VINA RESULT:     -10.1      1.865      4.023
REMARK  7 active torsions:
REMARK  status: ('A' for Active; 'I' for Inactive)
REMARK    1  A    between atoms: N_7  and  C_8 
REMARK    2  A    between atoms: C_8  and  C_9 
REMARK       I    between atoms: C_9  and  N_10 
REMARK    3  A    between atoms: N_10  and  C_11 
REMARK    4  A    between atoms: C_11  and  C_12 
REMARK    5  A    between atoms: C_12  and  C_13 
REMARK    6  A    between atoms: C_12  and  C_23 
REMARK    7  A    between atoms: C_26  and  O_27 
ROOT
HETATM    1  C   UNL     1      -5.417   3.595 -32.371  1.00  0.00     0.136 C 
ENDROOT
BRANCH   1   2
HETATM    2  N   UNL     1      -4.174   3.578 -33.132  1.00  0.00    -0.359 N 
HETATM    3  C   UNL     1      -3.859   4.731 -33.842  1.00  0.00     0.236 C 
HETATM    4  O   UNL     1      -4.686   5.619 -34.051  1.00  0.00    -0.272 OA
HETATM    5  H   UNL     1      -3.389   3.067 -32.743  1.00  0.00     0.162 HD
BRANCH   3   6
HETATM    6  C   UNL     1      -2.383   4.952 -34.146  1.00  0.00     0.239 C 
BRANCH   6   7
HETATM    7  N   UNL     1      -1.642   5.701 -33.156  1.00  0.00    -0.259 N 
HETATM    8  C   UNL     1      -1.403   7.035 -33.253  1.00  0.00     0.326 C 
HETATM    9  N   UNL     1      -0.864   7.467 -32.066  1.00  0.00    -0.324 N 
HETATM   10  O   UNL     1      -1.651   7.775 -34.188  1.00  0.00    -0.247 OA
HETATM   11  C   UNL     1      -0.942   6.460 -31.019  1.00  0.00     0.119 C 
HETATM   12  H   UNL     1      -0.742   8.461 -31.916  1.00  0.00     0.165 HD
HETATM   13  C   UNL     1       0.400   6.358 -30.266  1.00  0.00     0.019 C 
HETATM   14  C   UNL     1      -1.325   5.248 -31.908  1.00  0.00     0.257 C 
HETATM   15  C   UNL     1      -2.133   6.754 -30.087  1.00  0.00     0.041 C 
HETATM   16  C   UNL     1       0.540   5.088 -29.419  1.00  0.00     0.013 C 
HETATM   17  C   UNL     1       0.604   7.607 -29.379  1.00  0.00     0.007 C 
HETATM   18  C   UNL     1      -0.575   7.878 -28.442  1.00  0.00     0.001 C 
HETATM   19  C   UNL     1      -1.894   7.973 -29.200  1.00  0.00     0.003 C 
HETATM   20  O   UNL     1      -1.446   4.087 -31.537  1.00  0.00    -0.270 OA
ENDBRANCH   6   7
ENDBRANCH   3   6
ENDBRANCH   1   2
BRANCH   1  21
HETATM   21  C   UNL     1      -5.969   2.296 -31.758  1.00  0.00     0.071 C 
BRANCH  21  22
HETATM   22  C   UNL     1      -5.061   1.089 -31.718  1.00  0.00    -0.020 A 
HETATM   23  C   UNL     1      -5.094   0.000 -32.668  1.00  0.00    -0.001 A 
HETATM   24  C   UNL     1      -4.132  -0.934 -32.283  1.00  0.00     0.042 A 
HETATM   25  C   UNL     1      -5.857  -0.273 -33.824  1.00  0.00     0.014 A 
HETATM   26  C   UNL     1      -3.901  -2.124 -32.984  1.00  0.00     0.030 A 
HETATM   27  N   UNL     1      -3.522  -0.440 -31.158  1.00  0.00    -0.365 N 
HETATM   28  C   UNL     1      -4.675  -2.368 -34.123  1.00  0.00     0.002 A 
HETATM   29  C   UNL     1      -5.638  -1.456 -34.540  1.00  0.00     0.001 A 
HETATM   30  H   UNL     1      -2.775  -0.905 -30.661  1.00  0.00     0.165 HD
HETATM   31  C   UNL     1      -4.060   0.773 -30.816  1.00  0.00     0.097 A 
ENDBRANCH  21  22
BRANCH  21  32
HETATM   32  C   UNL     1      -7.326   1.841 -32.261  1.00  0.00    -0.048 A 
HETATM   33  C   UNL     1      -8.064   0.927 -31.489  1.00  0.00     0.011 A 
HETATM   34  C   UNL     1      -9.324   0.490 -31.899  1.00  0.00     0.037 A 
HETATM   35  C   UNL     1      -9.883   0.954 -33.088  1.00  0.00     0.068 A 
HETATM   36  C   UNL     1      -9.162   1.858 -33.868  1.00  0.00     0.037 A 
HETATM   37  C   UNL     1      -7.898   2.304 -33.454  1.00  0.00     0.011 A 
BRANCH  35  38
HETATM   38  O   UNL     1     -11.121   0.446 -33.368  1.00  0.00    -0.356 OA
HETATM   39  C   UNL     1     -12.124   1.376 -33.751  1.00  0.00     0.210 C 
ENDBRANCH  35  38
ENDBRANCH  21  32
ENDBRANCH   1  21
TORSDOF 7
ENDMDL
MODEL 3
REMARK VINA RESULT:     -10.0      2.479      5.357
REMARK  7 active torsions:
REMARK  status: ('A' for Active; 'I' for Inactive)
REMARK    1  A    between atoms: N_7  and  C_8 
REMARK    2  A    between atoms: C_8  and  C_9 
REMARK       I    between atoms: C_9  and  N_10 
REMARK    3  A    between atoms: N_10  and  C_11 
REMARK    4  A    between atoms: C_11  and  C_12 
REMARK    5  A    between atoms: C_12  and  C_13 
REMARK    6  A    between atoms: C_12  and  C_23 
REMARK    7  A    between atoms: C_26  and  O_27 
ROOT
HETATM    1  C   UNL     1      -7.080   2.800 -32.954  1.00  0.00     0.136 C 
ENDROOT
BRANCH   1   2
HETATM    2  N   UNL     1      -5.765   2.962 -33.562  1.00  0.00    -0.359 N 
HETATM    3  C   UNL     1      -5.438   4.235 -34.014  1.00  0.00     0.236 C 
HETATM    4  O   UNL     1      -6.284   5.119 -34.154  1.00  0.00    -0.272 OA
HETATM    5  H   UNL     1      -4.999   2.414 -33.184  1.00  0.00     0.162 HD
BRANCH   3   6
HETATM    6  C   UNL     1      -3.952   4.555 -34.106  1.00  0.00     0.239 C 
BRANCH   6   7
HETATM    7  N   UNL     1      -3.317   4.953 -32.870  1.00  0.00    -0.259 N 
HETATM    8  C   UNL     1      -2.807   4.069 -31.972  1.00  0.00     0.326 C 
HETATM    9  N   UNL     1      -2.101   4.770 -31.025  1.00  0.00    -0.324 N 
HETATM   10  O   UNL     1      -2.892   2.854 -31.986  1.00  0.00    -0.247 OA
HETATM   11  C   UNL     1      -1.907   6.163 -31.394  1.00  0.00     0.119 C 
HETATM   12  H   UNL     1      -1.546   4.258 -30.350  1.00  0.00     0.165 HD
HETATM   13  C   UNL     1      -2.202   7.085 -30.194  1.00  0.00     0.019 C 
HETATM   14  C   UNL     1      -2.915   6.223 -32.570  1.00  0.00     0.257 C 
HETATM   15  C   UNL     1      -0.494   6.367 -31.975  1.00  0.00     0.041 C 
HETATM   16  C   UNL     1      -2.396   8.557 -30.576  1.00  0.00     0.013 C 
HETATM   17  C   UNL     1      -1.077   6.958 -29.141  1.00  0.00     0.007 C 
HETATM   18  C   UNL     1       0.319   7.184 -29.723  1.00  0.00     0.001 C 
HETATM   19  C   UNL     1       0.596   6.268 -30.910  1.00  0.00     0.003 C 
HETATM   20  O   UNL     1      -3.218   7.220 -33.215  1.00  0.00    -0.270 OA
ENDBRANCH   6   7
ENDBRANCH   3   6
ENDBRANCH   1   2
BRANCH   1  21
HETATM   21  C   UNL     1      -7.760   1.419 -32.934  1.00  0.00     0.071 C 
BRANCH  21  22
HETATM   22  C   UNL     1      -7.048   0.267 -33.605  1.00  0.00    -0.020 A 
HETATM   23  C   UNL     1      -5.899  -0.421 -33.061  1.00  0.00    -0.001 A 
HETATM   24  C   UNL     1      -5.511  -1.397 -33.979  1.00  0.00     0.042 A 
HETATM   25  C   UNL     1      -5.153  -0.300 -31.869  1.00  0.00     0.014 A 
HETATM   26  C   UNL     1      -4.418  -2.249 -33.771  1.00  0.00     0.030 A 
HETATM   27  N   UNL     1      -6.387  -1.329 -35.032  1.00  0.00    -0.365 N 
HETATM   28  C   UNL     1      -3.699  -2.102 -32.581  1.00  0.00     0.002 A 
HETATM   29  C   UNL     1      -4.060  -1.144 -31.641  1.00  0.00     0.001 A 
HETATM   30  H   UNL     1      -6.353  -1.928 -35.846  1.00  0.00     0.165 HD
HETATM   31  C   UNL     1      -7.317  -0.346 -34.816  1.00  0.00     0.097 A 
ENDBRANCH  21  22
BRANCH  21  32
HETATM   32  C   UNL     1      -9.214   1.381 -33.366  1.00  0.00    -0.048 A 
HETATM   33  C   UNL     1      -9.697   2.397 -34.210  1.00  0.00     0.011 A 
HETATM   34  C   UNL     1     -11.021   2.399 -34.650  1.00  0.00     0.037 A 
HETATM   35  C   UNL     1     -11.898   1.389 -34.262  1.00  0.00     0.068 A 
HETATM   36  C   UNL     1     -11.437   0.375 -33.422  1.00  0.00     0.037 A 
HETATM   37  C   UNL     1     -10.103   0.368 -32.984  1.00  0.00     0.011 A 
BRANCH  35  38
HETATM   38  O   UNL     1     -13.163   1.513 -34.765  1.00  0.00    -0.356 OA
HETATM   39  C   UNL     1     -14.172   0.709 -34.170  1.00  0.00     0.210 C 
ENDBRANCH  35  38
ENDBRANCH  21  32
ENDBRANCH   1  21
TORSDOF 7
ENDMDL
MODEL 4
REMARK VINA RESULT:     -10.0      1.450      1.861
REMARK  7 active torsions:
REMARK  status: ('A' for Active; 'I' for Inactive)
REMARK    1  A    between atoms: N_7  and  C_8 
REMARK    2  A    between atoms: C_8  and  C_9 
REMARK       I    between atoms: C_9  and  N_10 
REMARK    3  A    between atoms: N_10  and  C_11 
REMARK    4  A    between atoms: C_11  and  C_12 
REMARK    5  A    between atoms: C_12  and  C_13 
REMARK    6  A    between atoms: C_12  and  C_23 
REMARK    7  A    between atoms: C_26  and  O_27 
ROOT
HETATM    1  C   UNL     1      -4.943   3.093 -32.280  1.00  0.00     0.136 C 
ENDROOT
BRANCH   1   2
HETATM    2  N   UNL     1      -3.733   3.300 -33.065  1.00  0.00    -0.359 N 
HETATM    3  C   UNL     1      -3.520   4.581 -33.561  1.00  0.00     0.236 C 
HETATM    4  O   UNL     1      -4.410   5.433 -33.582  1.00  0.00    -0.272 OA
HETATM    5  H   UNL     1      -2.901   2.783 -32.797  1.00  0.00     0.162 HD
BRANCH   3   6
HETATM    6  C   UNL     1      -2.074   4.956 -33.859  1.00  0.00     0.239 C 
BRANCH   6   7
HETATM    7  N   UNL     1      -1.413   5.759 -32.856  1.00  0.00    -0.259 N 
HETATM    8  C   UNL     1      -1.236   7.102 -32.971  1.00  0.00     0.326 C 
HETATM    9  N   UNL     1      -0.768   7.583 -31.772  1.00  0.00    -0.324 N 
HETATM   10  O   UNL     1      -1.480   7.811 -33.931  1.00  0.00    -0.247 OA
HETATM   11  C   UNL     1      -0.840   6.593 -30.709  1.00  0.00     0.119 C 
HETATM   12  H   UNL     1      -0.701   8.584 -31.638  1.00  0.00     0.165 HD
HETATM   13  C   UNL     1       0.472   6.572 -29.900  1.00  0.00     0.019 C 
HETATM   14  C   UNL     1      -1.126   5.347 -31.587  1.00  0.00     0.257 C 
HETATM   15  C   UNL     1      -2.082   6.845 -29.832  1.00  0.00     0.041 C 
HETATM   16  C   UNL     1       0.639   5.327 -29.021  1.00  0.00     0.013 C 
HETATM   17  C   UNL     1       0.578   7.846 -29.031  1.00  0.00     0.007 C 
HETATM   18  C   UNL     1      -0.650   8.075 -28.149  1.00  0.00     0.001 C 
HETATM   19  C   UNL     1      -1.940   8.091 -28.962  1.00  0.00     0.003 C 
HETATM   20  O   UNL     1      -1.206   4.188 -31.197  1.00  0.00    -0.270 OA
ENDBRANCH   6   7
ENDBRANCH   3   6
ENDBRANCH   1   2
BRANCH   1  21
HETATM   21  C   UNL     1      -6.181   2.441 -32.921  1.00  0.00     0.071 C 
BRANCH  21  22
HETATM   22  C   UNL     1      -7.497   2.543 -32.184  1.00  0.00    -0.020 A 
HETATM   23  C   UNL     1      -8.730   3.029 -32.761  1.00  0.00    -0.001 A 
HETATM   24  C   UNL     1      -9.708   3.000 -31.768  1.00  0.00     0.042 A 
HETATM   25  C   UNL     1      -9.101   3.492 -34.042  1.00  0.00     0.014 A 
HETATM   26  C   UNL     1     -11.028   3.414 -31.985  1.00  0.00     0.030 A 
HETATM   27  N   UNL     1      -9.115   2.504 -30.635  1.00  0.00    -0.365 N 
HETATM   28  C   UNL     1     -11.364   3.870 -33.263  1.00  0.00     0.002 A 
HETATM   29  C   UNL     1     -10.416   3.907 -34.280  1.00  0.00     0.001 A 
HETATM   30  H   UNL     1      -9.590   2.363 -29.753  1.00  0.00     0.165 HD
HETATM   31  C   UNL     1      -7.796   2.217 -30.873  1.00  0.00     0.097 A 
ENDBRANCH  21  22
BRANCH  21  32
HETATM   32  C   UNL     1      -6.019   1.006 -33.387  1.00  0.00    -0.048 A 
HETATM   33  C   UNL     1      -6.722   0.580 -34.528  1.00  0.00     0.011 A 
HETATM   34  C   UNL     1      -6.594  -0.723 -35.007  1.00  0.00     0.037 A 
HETATM   35  C   UNL     1      -5.761  -1.636 -34.364  1.00  0.00     0.068 A 
HETATM   36  C   UNL     1      -5.059  -1.231 -33.229  1.00  0.00     0.037 A 
HETATM   37  C   UNL     1      -5.181   0.082 -32.749  1.00  0.00     0.011 A 
BRANCH  35  38
HETATM   38  O   UNL     1      -5.729  -2.877 -34.939  1.00  0.00    -0.356 OA
HETATM   39  C   UNL     1      -6.852  -3.717 -34.713  1.00  0.00     0.210 C 
ENDBRANCH  35  38
ENDBRANCH  21  32
ENDBRANCH   1  21
TORSDOF 7
ENDMDL
MODEL 5
REMARK VINA RESULT:     -10.0      2.008      3.153
REMARK  7 active torsions:
REMARK  status: ('A' for Active; 'I' for Inactive)
REMARK    1  A    between atoms: N_7  and  C_8 
REMARK    2  A    between atoms: C_8  and  C_9 
REMARK       I    between atoms: C_9  and  N_10 
REMARK    3  A    between atoms: N_10  and  C_11 
REMARK    4  A    between atoms: C_11  and  C_12 
REMARK    5  A    between atoms: C_12  and  C_13 
REMARK    6  A    between atoms: C_12  and  C_23 
REMARK    7  A    between atoms: C_26  and  O_27 
ROOT
HETATM    1  C   UNL     1      -7.355   2.686 -33.123  1.00  0.00     0.136 C 
ENDROOT
BRANCH   1   2
HETATM    2  N   UNL     1      -6.339   3.549 -33.712  1.00  0.00    -0.359 N 
HETATM    3  C   UNL     1      -5.795   4.527 -32.888  1.00  0.00     0.236 C 
HETATM    4  O   UNL     1      -6.311   4.843 -31.815  1.00  0.00    -0.272 OA
HETATM    5  H   UNL     1      -5.708   3.139 -34.392  1.00  0.00     0.162 HD
BRANCH   3   6
HETATM    6  C   UNL     1      -4.405   5.025 -33.262  1.00  0.00     0.239 C 
BRANCH   6   7
HETATM    7  N   UNL     1      -3.505   5.266 -32.157  1.00  0.00    -0.259 N 
HETATM    8  C   UNL     1      -2.697   4.310 -31.628  1.00  0.00     0.326 C 
HETATM    9  N   UNL     1      -1.832   4.911 -30.746  1.00  0.00    -0.324 N 
HETATM   10  O   UNL     1      -2.670   3.121 -31.892  1.00  0.00    -0.247 OA
HETATM   11  C   UNL     1      -1.872   6.362 -30.829  1.00  0.00     0.119 C 
HETATM   12  H   UNL     1      -1.074   4.365 -30.354  1.00  0.00     0.165 HD
HETATM   13  C   UNL     1      -1.922   6.983 -29.418  1.00  0.00     0.019 C 
HETATM   14  C   UNL     1      -3.156   6.499 -31.687  1.00  0.00     0.257 C 
HETATM   15  C   UNL     1      -0.688   6.878 -31.670  1.00  0.00     0.041 C 
HETATM   16  C   UNL     1      -2.345   8.457 -29.405  1.00  0.00     0.013 C 
HETATM   17  C   UNL     1      -0.552   6.822 -28.721  1.00  0.00     0.007 C 
HETATM   18  C   UNL     1       0.613   7.356 -29.555  1.00  0.00     0.001 C 
HETATM   19  C   UNL     1       0.649   6.736 -30.947  1.00  0.00     0.003 C 
HETATM   20  O   UNL     1      -3.710   7.546 -32.000  1.00  0.00    -0.270 OA
ENDBRANCH   6   7
ENDBRANCH   3   6
ENDBRANCH   1   2
BRANCH   1  21
HETATM   21  C   UNL     1      -7.887   1.470 -33.902  1.00  0.00     0.071 C 
BRANCH  21  22
HETATM   22  C   UNL     1      -9.303   1.017 -33.630  1.00  0.00    -0.020 A 
HETATM   23  C   UNL     1     -10.489   1.658 -34.150  1.00  0.00    -0.001 A 
HETATM   24  C   UNL     1     -11.598   0.973 -33.656  1.00  0.00     0.042 A 
HETATM   25  C   UNL     1     -10.717   2.762 -35.000  1.00  0.00     0.014 A 
HETATM   26  C   UNL     1     -12.917   1.337 -33.958  1.00  0.00     0.030 A 
HETATM   27  N   UNL     1     -11.123  -0.053 -32.880  1.00  0.00    -0.365 N 
HETATM   28  C   UNL     1     -13.110   2.436 -34.800  1.00  0.00     0.002 A 
HETATM   29  C   UNL     1     -12.027   3.139 -35.317  1.00  0.00     0.001 A 
HETATM   30  H   UNL     1     -11.706  -0.724 -32.397  1.00  0.00     0.165 HD
HETATM   31  C   UNL     1      -9.753  -0.045 -32.865  1.00  0.00     0.097 A 
ENDBRANCH  21  22
BRANCH  21  32
HETATM   32  C   UNL     1      -7.000   0.239 -33.914  1.00  0.00    -0.048 A 
HETATM   33  C   UNL     1      -7.136  -0.686 -34.964  1.00  0.00     0.011 A 
HETATM   34  C   UNL     1      -6.333  -1.824 -35.030  1.00  0.00     0.037 A 
HETATM   35  C   UNL     1      -5.371  -2.071 -34.052  1.00  0.00     0.068 A 
HETATM   36  C   UNL     1      -5.225  -1.165 -33.001  1.00  0.00     0.037 A 
HETATM   37  C   UNL     1      -6.027  -0.015 -32.937  1.00  0.00     0.011 A 
BRANCH  35  38
HETATM   38  O   UNL     1      -4.655  -3.220 -34.239  1.00  0.00    -0.356 OA
HETATM   39  C   UNL     1      -5.380  -4.365 -34.664  1.00  0.00     0.210 C 
ENDBRANCH  35  38
ENDBRANCH  21  32
ENDBRANCH   1  21
TORSDOF 7
ENDMDL
MODEL 6
REMARK VINA RESULT:      -9.9      3.636      8.731
REMARK  7 active torsions:
REMARK  status: ('A' for Active; 'I' for Inactive)
REMARK    1  A    between atoms: N_7  and  C_8 
REMARK    2  A    between atoms: C_8  and  C_9 
REMARK       I    between atoms: C_9  and  N_10 
REMARK    3  A    between atoms: N_10  and  C_11 
REMARK    4  A    between atoms: C_11  and  C_12 
REMARK    5  A    between atoms: C_12  and  C_13 
REMARK    6  A    between atoms: C_12  and  C_23 
REMARK    7  A    between atoms: C_26  and  O_27 
ROOT
HETATM    1  C   UNL     1      -5.578   2.140 -30.205  1.00  0.00     0.136 C 
ENDROOT
BRANCH   1   2
HETATM    2  N   UNL     1      -6.958   2.268 -29.753  1.00  0.00    -0.359 N 
HETATM    3  C   UNL     1      -7.639   3.417 -30.136  1.00  0.00     0.236 C 
HETATM    4  O   UNL     1      -7.058   4.402 -30.593  1.00  0.00    -0.272 OA
HETATM    5  H   UNL     1      -7.514   1.421 -29.691  1.00  0.00     0.162 HD
BRANCH   3   6
HETATM    6  C   UNL     1      -9.157   3.316 -30.182  1.00  0.00     0.239 C 
BRANCH   6   7
HETATM    7  N   UNL     1      -9.720   2.872 -31.438  1.00  0.00    -0.259 N 
HETATM    8  C   UNL     1      -9.653   1.586 -31.875  1.00  0.00     0.326 C 
HETATM    9  N   UNL     1     -10.453   1.461 -32.984  1.00  0.00    -0.324 N 
HETATM   10  O   UNL     1      -9.042   0.656 -31.378  1.00  0.00    -0.247 OA
HETATM   11  C   UNL     1     -11.293   2.629 -33.198  1.00  0.00     0.119 C 
HETATM   12  H   UNL     1     -10.622   0.539 -33.365  1.00  0.00     0.165 HD
HETATM   13  C   UNL     1     -11.269   3.048 -34.682  1.00  0.00     0.019 C 
HETATM   14  C   UNL     1     -10.594   3.589 -32.201  1.00  0.00     0.257 C 
HETATM   15  C   UNL     1     -12.717   2.362 -32.673  1.00  0.00     0.041 C 
HETATM   16  C   UNL     1     -11.802   4.462 -34.936  1.00  0.00     0.013 C 
HETATM   17  C   UNL     1     -12.059   2.027 -35.532  1.00  0.00     0.007 C 
HETATM   18  C   UNL     1     -13.478   1.785 -35.015  1.00  0.00     0.001 C 
HETATM   19  C   UNL     1     -13.487   1.375 -33.547  1.00  0.00     0.003 C 
HETATM   20  O   UNL     1     -10.858   4.774 -32.030  1.00  0.00    -0.270 OA
ENDBRANCH   6   7
ENDBRANCH   3   6
ENDBRANCH   1   2
BRANCH   1  21
HETATM   21  C   UNL     1      -5.271   1.825 -31.680  1.00  0.00     0.071 C 
BRANCH  21  22
HETATM   22  C   UNL     1      -4.631   0.494 -32.002  1.00  0.00    -0.020 A 
HETATM   23  C   UNL     1      -5.100  -0.423 -33.016  1.00  0.00    -0.001 A 
HETATM   24  C   UNL     1      -4.274  -1.546 -32.993  1.00  0.00     0.042 A 
HETATM   25  C   UNL     1      -6.156  -0.397 -33.952  1.00  0.00     0.014 A 
HETATM   26  C   UNL     1      -4.452  -2.642 -33.847  1.00  0.00     0.030 A 
HETATM   27  N   UNL     1      -3.328  -1.328 -32.023  1.00  0.00    -0.365 N 
HETATM   28  C   UNL     1      -5.508  -2.587 -34.761  1.00  0.00     0.002 A 
HETATM   29  C   UNL     1      -6.348  -1.480 -34.817  1.00  0.00     0.001 A 
HETATM   30  H   UNL     1      -2.588  -1.976 -31.790  1.00  0.00     0.165 HD
HETATM   31  C   UNL     1      -3.524  -0.108 -31.431  1.00  0.00     0.097 A 
ENDBRANCH  21  22
BRANCH  21  32
HETATM   32  C   UNL     1      -4.527   2.898 -32.454  1.00  0.00    -0.048 A 
HETATM   33  C   UNL     1      -5.227   3.646 -33.417  1.00  0.00     0.011 A 
HETATM   34  C   UNL     1      -4.595   4.654 -34.144  1.00  0.00     0.037 A 
HETATM   35  C   UNL     1      -3.249   4.946 -33.929  1.00  0.00     0.068 A 
HETATM   36  C   UNL     1      -2.539   4.211 -32.980  1.00  0.00     0.037 A 
HETATM   37  C   UNL     1      -3.176   3.201 -32.242  1.00  0.00     0.011 A 
BRANCH  35  38
HETATM   38  O   UNL     1      -2.757   5.956 -34.708  1.00  0.00    -0.356 OA
HETATM   39  C   UNL     1      -1.967   6.941 -34.056  1.00  0.00     0.210 C 
ENDBRANCH  35  38
ENDBRANCH  21  32
ENDBRANCH   1  21
TORSDOF 7
ENDMDL
MODEL 7
REMARK VINA RESULT:      -9.8      2.461      5.262
REMARK  7 active torsions:
REMARK  status: ('A' for Active; 'I' for Inactive)
REMARK    1  A    between atoms: N_7  and  C_8 
REMARK    2  A    between atoms: C_8  and  C_9 
REMARK       I    between atoms: C_9  and  N_10 
REMARK    3  A    between atoms: N_10  and  C_11 
REMARK    4  A    between atoms: C_11  and  C_12 
REMARK    5  A    between atoms: C_12  and  C_13 
REMARK    6  A    between atoms: C_12  and  C_23 
REMARK    7  A    between atoms: C_26  and  O_27 
ROOT
HETATM    1  C   UNL     1      -6.613   0.631 -30.295  1.00  0.00     0.136 C 
ENDROOT
BRANCH   1   2
HETATM    2  N   UNL     1      -6.858   2.063 -30.189  1.00  0.00    -0.359 N 
HETATM    3  C   UNL     1      -5.785   2.904 -30.457  1.00  0.00     0.236 C 
HETATM    4  O   UNL     1      -4.626   2.491 -30.515  1.00  0.00    -0.272 OA
HETATM    5  H   UNL     1      -7.773   2.407 -30.465  1.00  0.00     0.162 HD
BRANCH   3   6
HETATM    6  C   UNL     1      -6.133   4.317 -30.907  1.00  0.00     0.239 C 
BRANCH   6   7
HETATM    7  N   UNL     1      -5.024   5.239 -30.998  1.00  0.00    -0.259 N 
HETATM    8  C   UNL     1      -4.561   5.960 -29.943  1.00  0.00     0.326 C 
HETATM    9  N   UNL     1      -3.387   6.569 -30.313  1.00  0.00    -0.324 N 
HETATM   10  O   UNL     1      -5.040   6.045 -28.826  1.00  0.00    -0.247 OA
HETATM   11  C   UNL     1      -2.882   6.077 -31.586  1.00  0.00     0.119 C 
HETATM   12  H   UNL     1      -2.838   7.044 -29.607  1.00  0.00     0.165 HD
HETATM   13  C   UNL     1      -2.432   7.252 -32.478  1.00  0.00     0.019 C 
HETATM   14  C   UNL     1      -4.150   5.311 -32.044  1.00  0.00     0.257 C 
HETATM   15  C   UNL     1      -1.767   5.041 -31.349  1.00  0.00     0.041 C 
HETATM   16  C   UNL     1      -2.248   6.874 -33.952  1.00  0.00     0.013 C 
HETATM   17  C   UNL     1      -1.126   7.865 -31.924  1.00  0.00     0.007 C 
HETATM   18  C   UNL     1      -0.019   6.832 -31.714  1.00  0.00     0.001 C 
HETATM   19  C   UNL     1      -0.478   5.676 -30.833  1.00  0.00     0.003 C 
HETATM   20  O   UNL     1      -4.308   4.752 -33.123  1.00  0.00    -0.270 OA
ENDBRANCH   6   7
ENDBRANCH   3   6
ENDBRANCH   1   2
BRANCH   1  21
HETATM   21  C   UNL     1      -6.979  -0.126 -31.585  1.00  0.00     0.071 C 
BRANCH  21  22
HETATM   22  C   UNL     1      -5.851  -0.657 -32.440  1.00  0.00    -0.020 A 
HETATM   23  C   UNL     1      -5.984  -1.714 -33.416  1.00  0.00    -0.001 A 
HETATM   24  C   UNL     1      -4.727  -1.941 -33.975  1.00  0.00     0.042 A 
HETATM   25  C   UNL     1      -7.064  -2.499 -33.874  1.00  0.00     0.014 A 
HETATM   26  C   UNL     1      -4.493  -2.913 -34.957  1.00  0.00     0.030 A 
HETATM   27  N   UNL     1      -3.860  -1.057 -33.386  1.00  0.00    -0.365 N 
HETATM   28  C   UNL     1      -5.581  -3.675 -35.388  1.00  0.00     0.002 A 
HETATM   29  C   UNL     1      -6.851  -3.472 -34.858  1.00  0.00     0.001 A 
HETATM   30  H   UNL     1      -2.875  -0.988 -33.604  1.00  0.00     0.165 HD
HETATM   31  C   UNL     1      -4.522  -0.276 -32.474  1.00  0.00     0.097 A 
ENDBRANCH  21  22
BRANCH  21  32
HETATM   32  C   UNL     1      -7.977   0.556 -32.502  1.00  0.00    -0.048 A 
HETATM   33  C   UNL     1      -9.342   0.247 -32.368  1.00  0.00     0.011 A 
HETATM   34  C   UNL     1     -10.301   0.858 -33.175  1.00  0.00     0.037 A 
HETATM   35  C   UNL     1      -9.927   1.795 -34.136  1.00  0.00     0.068 A 
HETATM   36  C   UNL     1      -8.576   2.110 -34.285  1.00  0.00     0.037 A 
HETATM   37  C   UNL     1      -7.610   1.502 -33.469  1.00  0.00     0.011 A 
BRANCH  35  38
HETATM   38  O   UNL     1     -10.966   2.316 -34.855  1.00  0.00    -0.356 OA
HETATM   39  C   UNL     1     -12.173   1.566 -34.873  1.00  0.00     0.210 C 
ENDBRANCH  35  38
ENDBRANCH  21  32
ENDBRANCH   1  21
TORSDOF 7
ENDMDL
MODEL 8
REMARK VINA RESULT:      -9.8      2.190      3.180
REMARK  7 active torsions:
REMARK  status: ('A' for Active; 'I' for Inactive)
REMARK    1  A    between atoms: N_7  and  C_8 
REMARK    2  A    between atoms: C_8  and  C_9 
REMARK       I    between atoms: C_9  and  N_10 
REMARK    3  A    between atoms: N_10  and  C_11 
REMARK    4  A    between atoms: C_11  and  C_12 
REMARK    5  A    between atoms: C_12  and  C_13 
REMARK    6  A    between atoms: C_12  and  C_23 
REMARK    7  A    between atoms: C_26  and  O_27 
ROOT
HETATM    1  C   UNL     1      -5.985   2.308 -33.254  1.00  0.00     0.136 C 
ENDROOT
BRANCH   1   2
HETATM    2  N   UNL     1      -6.125   3.703 -33.651  1.00  0.00    -0.359 N 
HETATM    3  C   UNL     1      -6.737   4.555 -32.740  1.00  0.00     0.236 C 
HETATM    4  O   UNL     1      -7.371   4.134 -31.772  1.00  0.00    -0.272 OA
HETATM    5  H   UNL     1      -5.385   4.110 -34.214  1.00  0.00     0.162 HD
BRANCH   3   6
HETATM    6  C   UNL     1      -6.389   6.032 -32.862  1.00  0.00     0.239 C 
BRANCH   6   7
HETATM    7  N   UNL     1      -5.060   6.404 -32.431  1.00  0.00    -0.259 N 
HETATM    8  C   UNL     1      -4.767   6.791 -31.161  1.00  0.00     0.326 C 
HETATM    9  N   UNL     1      -3.402   6.871 -31.036  1.00  0.00    -0.324 N 
HETATM   10  O   UNL     1      -5.540   6.998 -30.243  1.00  0.00    -0.247 OA
HETATM   11  C   UNL     1      -2.703   6.296 -32.175  1.00  0.00     0.119 C 
HETATM   12  H   UNL     1      -3.002   7.023 -30.118  1.00  0.00     0.165 HD
HETATM   13  C   UNL     1      -1.563   7.226 -32.635  1.00  0.00     0.019 C 
HETATM   14  C   UNL     1      -3.915   6.169 -33.135  1.00  0.00     0.257 C 
HETATM   15  C   UNL     1      -2.219   4.873 -31.838  1.00  0.00     0.041 C 
HETATM   16  C   UNL     1      -1.025   6.904 -34.034  1.00  0.00     0.013 C 
HETATM   17  C   UNL     1      -0.408   7.194 -31.607  1.00  0.00     0.007 C 
HETATM   18  C   UNL     1       0.079   5.778 -31.296  1.00  0.00     0.001 C 
HETATM   19  C   UNL     1      -1.058   4.870 -30.846  1.00  0.00     0.003 C 
HETATM   20  O   UNL     1      -3.878   5.800 -34.303  1.00  0.00    -0.270 OA
ENDBRANCH   6   7
ENDBRANCH   3   6
ENDBRANCH   1   2
BRANCH   1  21
HETATM   21  C   UNL     1      -6.830   1.217 -33.937  1.00  0.00     0.071 C 
BRANCH  21  22
HETATM   22  C   UNL     1      -8.253   1.023 -33.465  1.00  0.00    -0.020 A 
HETATM   23  C   UNL     1      -9.369   1.860 -33.842  1.00  0.00    -0.001 A 
HETATM   24  C   UNL     1     -10.503   1.384 -33.184  1.00  0.00     0.042 A 
HETATM   25  C   UNL     1      -9.515   2.982 -34.686  1.00  0.00     0.014 A 
HETATM   26  C   UNL     1     -11.766   1.973 -33.319  1.00  0.00     0.030 A 
HETATM   27  N   UNL     1     -10.111   0.295 -32.447  1.00  0.00    -0.365 N 
HETATM   28  C   UNL     1     -11.879   3.083 -34.160  1.00  0.00     0.002 A 
HETATM   29  C   UNL     1     -10.771   3.582 -34.837  1.00  0.00     0.001 A 
HETATM   30  H   UNL     1     -10.730  -0.260 -31.872  1.00  0.00     0.165 HD
HETATM   31  C   UNL     1      -8.772   0.062 -32.615  1.00  0.00     0.097 A 
ENDBRANCH  21  22
BRANCH  21  32
HETATM   32  C   UNL     1      -6.188  -0.153 -34.056  1.00  0.00    -0.048 A 
HETATM   33  C   UNL     1      -5.026  -0.424 -33.313  1.00  0.00     0.011 A 
HETATM   34  C   UNL     1      -4.407  -1.672 -33.373  1.00  0.00     0.037 A 
HETATM   35  C   UNL     1      -4.930  -2.684 -34.175  1.00  0.00     0.068 A 
HETATM   36  C   UNL     1      -6.081  -2.431 -34.922  1.00  0.00     0.037 A 
HETATM   37  C   UNL     1      -6.709  -1.178 -34.856  1.00  0.00     0.011 A 
BRANCH  35  38
HETATM   38  O   UNL     1      -4.226  -3.856 -34.140  1.00  0.00    -0.356 OA
HETATM   39  C   UNL     1      -4.941  -5.043 -34.455  1.00  0.00     0.210 C 
ENDBRANCH  35  38
ENDBRANCH  21  32
ENDBRANCH   1  21
TORSDOF 7
ENDMDL
MODEL 9
REMARK VINA RESULT:      -9.5      2.506      4.677
REMARK  7 active torsions:
REMARK  status: ('A' for Active; 'I' for Inactive)
REMARK    1  A    between atoms: N_7  and  C_8 
REMARK    2  A    between atoms: C_8  and  C_9 
REMARK       I    between atoms: C_9  and  N_10 
REMARK    3  A    between atoms: N_10  and  C_11 
REMARK    4  A    between atoms: C_11  and  C_12 
REMARK    5  A    between atoms: C_12  and  C_13 
REMARK    6  A    between atoms: C_12  and  C_23 
REMARK    7  A    between atoms: C_26  and  O_27 
ROOT
HETATM    1  C   UNL     1      -3.575   3.869 -32.977  1.00  0.00     0.136 C 
ENDROOT
BRANCH   1   2
HETATM    2  N   UNL     1      -2.239   4.438 -32.864  1.00  0.00    -0.359 N 
HETATM    3  C   UNL     1      -2.117   5.801 -33.109  1.00  0.00     0.236 C 
HETATM    4  O   UNL     1      -3.009   6.452 -33.653  1.00  0.00    -0.272 OA
HETATM    5  H   UNL     1      -1.622   4.057 -32.154  1.00  0.00     0.162 HD
BRANCH   3   6
HETATM    6  C   UNL     1      -0.925   6.496 -32.463  1.00  0.00     0.239 C 
BRANCH   6   7
HETATM    7  N   UNL     1      -0.814   6.351 -31.029  1.00  0.00    -0.259 N 
HETATM    8  C   UNL     1      -0.060   5.391 -30.431  1.00  0.00     0.326 C 
HETATM    9  N   UNL     1      -0.006   5.657 -29.085  1.00  0.00    -0.324 N 
HETATM   10  O   UNL     1       0.526   4.462 -30.958  1.00  0.00    -0.247 OA
HETATM   11  C   UNL     1      -0.537   6.970 -28.755  1.00  0.00     0.119 C 
HETATM   12  H   UNL     1       0.619   5.113 -28.503  1.00  0.00     0.165 HD
HETATM   13  C   UNL     1      -1.471   6.883 -27.531  1.00  0.00     0.019 C 
HETATM   14  C   UNL     1      -1.213   7.282 -30.115  1.00  0.00     0.257 C 
HETATM   15  C   UNL     1       0.614   7.975 -28.561  1.00  0.00     0.041 C 
HETATM   16  C   UNL     1      -2.363   8.116 -27.343  1.00  0.00     0.013 C 
HETATM   17  C   UNL     1      -0.642   6.633 -26.251  1.00  0.00     0.007 C 
HETATM   18  C   UNL     1       0.484   7.649 -26.057  1.00  0.00     0.001 C 
HETATM   19  C   UNL     1       1.398   7.726 -27.274  1.00  0.00     0.003 C 
HETATM   20  O   UNL     1      -1.898   8.265 -30.375  1.00  0.00    -0.270 OA
ENDBRANCH   6   7
ENDBRANCH   3   6
ENDBRANCH   1   2
BRANCH   1  21
HETATM   21  C   UNL     1      -4.142   2.988 -31.849  1.00  0.00     0.071 C 
BRANCH  21  22
HETATM   22  C   UNL     1      -4.154   1.491 -32.055  1.00  0.00    -0.020 A 
HETATM   23  C   UNL     1      -5.034   0.790 -32.962  1.00  0.00    -0.001 A 
HETATM   24  C   UNL     1      -4.767  -0.574 -32.850  1.00  0.00     0.042 A 
HETATM   25  C   UNL     1      -6.036   1.196 -33.870  1.00  0.00     0.014 A 
HETATM   26  C   UNL     1      -5.451  -1.548 -33.588  1.00  0.00     0.030 A 
HETATM   27  N   UNL     1      -3.758  -0.711 -31.931  1.00  0.00    -0.365 N 
HETATM   28  C   UNL     1      -6.439  -1.115 -34.477  1.00  0.00     0.002 A 
HETATM   29  C   UNL     1      -6.728   0.238 -34.619  1.00  0.00     0.001 A 
HETATM   30  H   UNL     1      -3.352  -1.594 -31.653  1.00  0.00     0.165 HD
HETATM   31  C   UNL     1      -3.376   0.517 -31.456  1.00  0.00     0.097 A 
ENDBRANCH  21  22
BRANCH  21  32
HETATM   32  C   UNL     1      -5.498   3.393 -31.299  1.00  0.00    -0.048 A 
HETATM   33  C   UNL     1      -6.224   4.399 -31.959  1.00  0.00     0.011 A 
HETATM   34  C   UNL     1      -7.481   4.796 -31.505  1.00  0.00     0.037 A 
HETATM   35  C   UNL     1      -8.050   4.199 -30.382  1.00  0.00     0.068 A 
HETATM   36  C   UNL     1      -7.341   3.201 -29.712  1.00  0.00     0.037 A 
HETATM   37  C   UNL     1      -6.079   2.795 -30.173  1.00  0.00     0.011 A 
BRANCH  35  38
HETATM   38  O   UNL     1      -9.285   4.681 -30.047  1.00  0.00    -0.356 OA
HETATM   39  C   UNL     1     -10.407   3.919 -30.469  1.00  0.00     0.210 C 
ENDBRANCH  35  38
ENDBRANCH  21  32
ENDBRANCH   1  21
TORSDOF 7
ENDMDL
MODEL 10
REMARK VINA RESULT:      -9.4      2.893      5.744
REMARK  7 active torsions:
REMARK  status: ('A' for Active; 'I' for Inactive)
REMARK    1  A    between atoms: N_7  and  C_8 
REMARK    2  A    between atoms: C_8  and  C_9 
REMARK       I    between atoms: C_9  and  N_10 
REMARK    3  A    between atoms: N_10  and  C_11 
REMARK    4  A    between atoms: C_11  and  C_12 
REMARK    5  A    between atoms: C_12  and  C_13 
REMARK    6  A    between atoms: C_12  and  C_23 
REMARK    7  A    between atoms: C_26  and  O_27 
ROOT
HETATM    1  C   UNL     1      -8.021   3.167 -33.463  1.00  0.00     0.136 C 
ENDROOT
BRANCH   1   2
HETATM    2  N   UNL     1      -6.765   3.559 -32.836  1.00  0.00    -0.359 N 
HETATM    3  C   UNL     1      -6.822   3.921 -31.495  1.00  0.00     0.236 C 
HETATM    4  O   UNL     1      -7.886   4.165 -30.926  1.00  0.00    -0.272 OA
HETATM    5  H   UNL     1      -5.920   3.083 -33.133  1.00  0.00     0.162 HD
BRANCH   3   6
HETATM    6  C   UNL     1      -5.530   3.773 -30.703  1.00  0.00     0.239 C 
BRANCH   6   7
HETATM    7  N   UNL     1      -4.511   4.763 -30.971  1.00  0.00    -0.259 N 
HETATM    8  C   UNL     1      -4.293   5.845 -30.177  1.00  0.00     0.326 C 
HETATM    9  N   UNL     1      -3.138   6.462 -30.591  1.00  0.00    -0.324 N 
HETATM   10  O   UNL     1      -4.951   6.219 -29.222  1.00  0.00    -0.247 OA
HETATM   11  C   UNL     1      -2.392   5.661 -31.550  1.00  0.00     0.119 C 
HETATM   12  H   UNL     1      -2.755   7.213 -30.030  1.00  0.00     0.165 HD
HETATM   13  C   UNL     1      -1.918   6.534 -32.729  1.00  0.00     0.019 C 
HETATM   14  C   UNL     1      -3.492   4.616 -31.867  1.00  0.00     0.257 C 
HETATM   15  C   UNL     1      -1.236   4.927 -30.843  1.00  0.00     0.041 C 
HETATM   16  C   UNL     1      -1.466   5.729 -33.953  1.00  0.00     0.013 C 
HETATM   17  C   UNL     1      -0.780   7.473 -32.267  1.00  0.00     0.007 C 
HETATM   18  C   UNL     1       0.372   6.732 -31.587  1.00  0.00     0.001 C 
HETATM   19  C   UNL     1      -0.112   5.871 -30.425  1.00  0.00     0.003 C 
HETATM   20  O   UNL     1      -3.423   3.721 -32.701  1.00  0.00    -0.270 OA
ENDBRANCH   6   7
ENDBRANCH   3   6
ENDBRANCH   1   2
BRANCH   1  21
HETATM   21  C   UNL     1      -8.535   1.722 -33.333  1.00  0.00     0.071 C 
BRANCH  21  22
HETATM   22  C   UNL     1      -7.693   0.613 -33.918  1.00  0.00    -0.020 A 
HETATM   23  C   UNL     1      -6.568  -0.007 -33.255  1.00  0.00    -0.001 A 
HETATM   24  C   UNL     1      -6.032  -0.960 -34.121  1.00  0.00     0.042 A 
HETATM   25  C   UNL     1      -5.957   0.160 -31.994  1.00  0.00     0.014 A 
HETATM   26  C   UNL     1      -4.919  -1.745 -33.796  1.00  0.00     0.030 A 
HETATM   27  N   UNL     1      -6.798  -0.944 -35.259  1.00  0.00    -0.365 N 
HETATM   28  C   UNL     1      -4.335  -1.556 -32.540  1.00  0.00     0.002 A 
HETATM   29  C   UNL     1      -4.846  -0.619 -31.649  1.00  0.00     0.001 A 
HETATM   30  H   UNL     1      -6.646  -1.541 -36.060  1.00  0.00     0.165 HD
HETATM   31  C   UNL     1      -7.800  -0.016 -35.146  1.00  0.00     0.097 A 
ENDBRANCH  21  22
BRANCH  21  32
HETATM   32  C   UNL     1      -9.975   1.483 -33.751  1.00  0.00    -0.048 A 
HETATM   33  C   UNL     1     -10.678   0.409 -33.176  1.00  0.00     0.011 A 
HETATM   34  C   UNL     1     -12.007   0.156 -33.513  1.00  0.00     0.037 A 
HETATM   35  C   UNL     1     -12.672   0.967 -34.431  1.00  0.00     0.068 A 
HETATM   36  C   UNL     1     -11.988   2.035 -35.013  1.00  0.00     0.037 A 
HETATM   37  C   UNL     1     -10.653   2.295 -34.669  1.00  0.00     0.011 A 
BRANCH  35  38
HETATM   38  O   UNL     1     -13.970   0.608 -34.669  1.00  0.00    -0.356 OA
HETATM   39  C   UNL     1     -14.960   1.190 -33.833  1.00  0.00     0.210 C 
ENDBRANCH  35  38
ENDBRANCH  21  32
ENDBRANCH   1  21
TORSDOF 7
ENDMDL
