MODEL 1
REMARK VINA RESULT:      -8.5      0.000      0.000
REMARK  10 active torsions:
REMARK  status: ('A' for Active; 'I' for Inactive)
REMARK    1  A    between atoms: C_2  and  C_3 
REMARK    2  A    between atoms: C_3  and  C_4 
REMARK    3  A    between atoms: C_4  and  O_5 
REMARK    4  A    between atoms: O_5  and  C_6 
REMARK    5  A    between atoms: C_9  and  C_10 
REMARK       I    between atoms: C_10  and  N_11 
REMARK    6  A    between atoms: N_11  and  C_12 
REMARK    7  A    between atoms: C_12  and  N_13 
REMARK    8  A    between atoms: N_13  and  C_14 
REMARK    9  A    between atoms: C_16  and  C_17 
REMARK   10  A    between atoms: C_26  and  O_27 
ROOT
HETATM    1  N   UNL     1      -2.593   3.692 -31.258  1.00  0.00    -0.333 N 
HETATM    2  H   UNL     1      -2.038   3.545 -30.420  1.00  0.00     0.168 HD
ENDROOT
BRANCH   1   3
HETATM    3  C   UNL     1      -1.970   4.489 -32.186  1.00  0.00     0.179 C 
HETATM    4  S   UNL     1      -0.647   5.373 -31.671  1.00  0.00    -0.040 SA
BRANCH   3   5
HETATM    5  N   UNL     1      -2.580   4.562 -33.420  1.00  0.00    -0.299 N 
HETATM    6  C   UNL     1      -3.409   5.611 -33.782  1.00  0.00     0.257 C 
HETATM    7  O   UNL     1      -2.977   6.672 -34.221  1.00  0.00    -0.267 OA
HETATM    8  H   UNL     1      -2.921   3.650 -33.690  1.00  0.00     0.171 HD
BRANCH   6   9
HETATM    9  C   UNL     1      -4.884   5.380 -33.663  1.00  0.00     0.032 A 
HETATM   10  C   UNL     1      -5.527   4.274 -34.239  1.00  0.00     0.020 A 
HETATM   11  C   UNL     1      -6.886   4.051 -34.004  1.00  0.00     0.038 A 
HETATM   12  C   UNL     1      -7.603   4.905 -33.170  1.00  0.00     0.068 A 
HETATM   13  C   UNL     1      -6.988   6.032 -32.629  1.00  0.00     0.038 A 
HETATM   14  C   UNL     1      -5.630   6.265 -32.869  1.00  0.00     0.020 A 
BRANCH  12  15
HETATM   15  O   UNL     1      -8.912   4.577 -32.948  1.00  0.00    -0.351 OA
BRANCH  15  16
HETATM   16  C   UNL     1      -9.313   3.373 -33.617  1.00  0.00     0.175 C 
BRANCH  16  17
HETATM   17  C   UNL     1      -9.937   2.446 -32.576  1.00  0.00     0.026 C 
BRANCH  17  18
HETATM   18  C   UNL     1     -10.162   1.044 -33.133  1.00  0.00    -0.002 C 
HETATM   19  C   UNL     1      -9.157   0.710 -34.225  1.00  0.00     0.005 C 
ENDBRANCH  17  18
ENDBRANCH  16  17
ENDBRANCH  15  16
ENDBRANCH  12  15
ENDBRANCH   6   9
ENDBRANCH   3   5
ENDBRANCH   1   3
BRANCH   1  20
HETATM   20  C   UNL     1      -3.766   2.918 -31.356  1.00  0.00     0.035 A 
HETATM   21  C   UNL     1      -3.830   1.704 -32.042  1.00  0.00     0.048 A 
HETATM   22  C   UNL     1      -4.993   0.913 -32.004  1.00  0.00     0.053 A 
HETATM   23  C   UNL     1      -6.105   1.385 -31.284  1.00  0.00     0.086 A 
HETATM   24  C   UNL     1      -6.072   2.620 -30.623  1.00  0.00    -0.026 A 
HETATM   25  C   UNL     1      -7.251   3.122 -29.839  1.00  0.00     0.051 C 
HETATM   26  C   UNL     1      -4.882   3.360 -30.638  1.00  0.00     0.039 A 
BRANCH  22  27
HETATM   27  C   UNL     1      -5.024  -0.398 -32.646  1.00  0.00     0.183 A 
HETATM   28  O   UNL     1      -6.170  -0.744 -33.313  1.00  0.00    -0.289 OA
HETATM   29  C   UNL     1      -5.890  -1.975 -33.829  1.00  0.00     0.106 A 
HETATM   30  C   UNL     1      -4.600  -2.311 -33.448  1.00  0.00     0.093 A 
HETATM   31  C   UNL     1      -6.719  -2.770 -34.608  1.00  0.00     0.040 A 
HETATM   32  N   UNL     1      -4.068  -1.313 -32.669  1.00  0.00    -0.221 NA
HETATM   33  C   UNL     1      -4.061  -3.528 -33.883  1.00  0.00     0.034 A 
HETATM   34  C   UNL     1      -4.863  -4.357 -34.685  1.00  0.00     0.002 A 
HETATM   35  C   UNL     1      -6.168  -3.985 -35.035  1.00  0.00     0.003 A 
ENDBRANCH  22  27
BRANCH  23  36
HETATM   36  O   UNL     1      -7.264   0.653 -31.179  1.00  0.00    -0.359 OA
HETATM   37  H   UNL     1      -7.184  -0.150 -31.736  1.00  0.00     0.218 HD
ENDBRANCH  23  36
ENDBRANCH   1  20
TORSDOF 10
ENDMDL
MODEL 2
REMARK VINA RESULT:      -7.9      3.580      6.407
REMARK  10 active torsions:
REMARK  status: ('A' for Active; 'I' for Inactive)
REMARK    1  A    between atoms: C_2  and  C_3 
REMARK    2  A    between atoms: C_3  and  C_4 
REMARK    3  A    between atoms: C_4  and  O_5 
REMARK    4  A    between atoms: O_5  and  C_6 
REMARK    5  A    between atoms: C_9  and  C_10 
REMARK       I    between atoms: C_10  and  N_11 
REMARK    6  A    between atoms: N_11  and  C_12 
REMARK    7  A    between atoms: C_12  and  N_13 
REMARK    8  A    between atoms: N_13  and  C_14 
REMARK    9  A    between atoms: C_16  and  C_17 
REMARK   10  A    between atoms: C_26  and  O_27 
ROOT
HETATM    1  N   UNL     1      -3.736   4.480 -32.567  1.00  0.00    -0.333 N 
HETATM    2  H   UNL     1      -2.834   4.273 -32.148  1.00  0.00     0.168 HD
ENDROOT
BRANCH   1   3
HETATM    3  C   UNL     1      -3.693   5.524 -33.456  1.00  0.00     0.179 C 
HETATM    4  S   UNL     1      -3.874   5.158 -35.078  1.00  0.00    -0.040 SA
BRANCH   3   5
HETATM    5  N   UNL     1      -3.385   6.757 -32.920  1.00  0.00    -0.299 N 
HETATM    6  C   UNL     1      -2.097   7.267 -32.911  1.00  0.00     0.257 C 
HETATM    7  O   UNL     1      -1.615   7.855 -33.874  1.00  0.00    -0.267 OA
HETATM    8  H   UNL     1      -3.892   6.891 -32.056  1.00  0.00     0.171 HD
BRANCH   6   9
HETATM    9  C   UNL     1      -1.319   7.117 -31.641  1.00  0.00     0.032 A 
HETATM   10  C   UNL     1      -1.920   7.156 -30.374  1.00  0.00     0.020 A 
HETATM   11  C   UNL     1      -1.160   6.901 -29.229  1.00  0.00     0.038 A 
HETATM   12  C   UNL     1       0.188   6.575 -29.340  1.00  0.00     0.068 A 
HETATM   13  C   UNL     1       0.808   6.578 -30.588  1.00  0.00     0.038 A 
HETATM   14  C   UNL     1       0.054   6.842 -31.736  1.00  0.00     0.020 A 
BRANCH  12  15
HETATM   15  O   UNL     1       0.839   6.283 -28.173  1.00  0.00    -0.351 OA
BRANCH  15  16
HETATM   16  C   UNL     1       0.648   7.277 -27.157  1.00  0.00     0.175 C 
BRANCH  16  17
HETATM   17  C   UNL     1       1.535   8.471 -27.499  1.00  0.00     0.026 C 
BRANCH  17  18
HETATM   18  C   UNL     1       1.789   9.353 -26.281  1.00  0.00    -0.002 C 
HETATM   19  C   UNL     1       2.348   8.550 -25.117  1.00  0.00     0.005 C 
ENDBRANCH  17  18
ENDBRANCH  16  17
ENDBRANCH  15  16
ENDBRANCH  12  15
ENDBRANCH   6   9
ENDBRANCH   3   5
ENDBRANCH   1   3
BRANCH   1  20
HETATM   20  C   UNL     1      -4.763   3.556 -32.288  1.00  0.00     0.035 A 
HETATM   21  C   UNL     1      -4.874   2.318 -32.924  1.00  0.00     0.048 A 
HETATM   22  C   UNL     1      -5.846   1.384 -32.520  1.00  0.00     0.053 A 
HETATM   23  C   UNL     1      -6.727   1.735 -31.480  1.00  0.00     0.086 A 
HETATM   24  C   UNL     1      -6.654   2.989 -30.859  1.00  0.00    -0.026 A 
HETATM   25  C   UNL     1      -7.580   3.363 -29.737  1.00  0.00     0.051 C 
HETATM   26  C   UNL     1      -5.642   3.877 -31.249  1.00  0.00     0.039 A 
BRANCH  22  27
HETATM   27  C   UNL     1      -5.901   0.057 -33.124  1.00  0.00     0.183 A 
HETATM   28  O   UNL     1      -4.729  -0.651 -33.190  1.00  0.00    -0.289 OA
HETATM   29  C   UNL     1      -5.096  -1.839 -33.753  1.00  0.00     0.106 A 
HETATM   30  C   UNL     1      -6.459  -1.788 -34.000  1.00  0.00     0.093 A 
HETATM   31  C   UNL     1      -4.280  -2.927 -34.030  1.00  0.00     0.040 A 
HETATM   32  N   UNL     1      -6.957  -0.565 -33.623  1.00  0.00    -0.221 NA
HETATM   33  C   UNL     1      -7.089  -2.910 -34.552  1.00  0.00     0.034 A 
HETATM   34  C   UNL     1      -6.302  -4.037 -34.837  1.00  0.00     0.002 A 
HETATM   35  C   UNL     1      -4.923  -4.041 -34.585  1.00  0.00     0.003 A 
ENDBRANCH  22  27
BRANCH  23  36
HETATM   36  O   UNL     1      -7.681   0.863 -31.014  1.00  0.00    -0.359 OA
HETATM   37  H   UNL     1      -8.205   1.310 -30.316  1.00  0.00     0.218 HD
ENDBRANCH  23  36
ENDBRANCH   1  20
TORSDOF 10
ENDMDL
MODEL 3
REMARK VINA RESULT:      -7.8      3.207      7.682
REMARK  10 active torsions:
REMARK  status: ('A' for Active; 'I' for Inactive)
REMARK    1  A    between atoms: C_2  and  C_3 
REMARK    2  A    between atoms: C_3  and  C_4 
REMARK    3  A    between atoms: C_4  and  O_5 
REMARK    4  A    between atoms: O_5  and  C_6 
REMARK    5  A    between atoms: C_9  and  C_10 
REMARK       I    between atoms: C_10  and  N_11 
REMARK    6  A    between atoms: N_11  and  C_12 
REMARK    7  A    between atoms: C_12  and  N_13 
REMARK    8  A    between atoms: N_13  and  C_14 
REMARK    9  A    between atoms: C_16  and  C_17 
REMARK   10  A    between atoms: C_26  and  O_27 
ROOT
HETATM    1  N   UNL     1      -9.789   2.286 -34.511  1.00  0.00    -0.333 N 
HETATM    2  H   UNL     1      -9.263   1.870 -35.274  1.00  0.00     0.168 HD
ENDROOT
BRANCH   1   3
HETATM    3  C   UNL     1     -10.767   1.460 -34.015  1.00  0.00     0.179 C 
HETATM    4  S   UNL     1     -12.302   1.619 -34.660  1.00  0.00    -0.040 SA
BRANCH   3   5
HETATM    5  N   UNL     1     -10.400   0.665 -32.950  1.00  0.00    -0.299 N 
HETATM    6  C   UNL     1      -9.275   0.919 -32.182  1.00  0.00     0.257 C 
HETATM    7  O   UNL     1      -9.280   1.716 -31.250  1.00  0.00    -0.267 OA
HETATM    8  H   UNL     1     -10.531  -0.309 -33.187  1.00  0.00     0.171 HD
BRANCH   6   9
HETATM    9  C   UNL     1      -8.044   0.130 -32.505  1.00  0.00     0.032 A 
HETATM   10  C   UNL     1      -7.868  -0.536 -33.727  1.00  0.00     0.020 A 
HETATM   11  C   UNL     1      -6.654  -1.165 -34.016  1.00  0.00     0.038 A 
HETATM   12  C   UNL     1      -5.601  -1.106 -33.109  1.00  0.00     0.068 A 
HETATM   13  C   UNL     1      -5.776  -0.487 -31.872  1.00  0.00     0.038 A 
HETATM   14  C   UNL     1      -6.993   0.135 -31.575  1.00  0.00     0.020 A 
BRANCH  12  15
HETATM   15  O   UNL     1      -4.431  -1.697 -33.499  1.00  0.00    -0.351 OA
BRANCH  15  16
HETATM   16  C   UNL     1      -4.594  -2.591 -34.609  1.00  0.00     0.175 C 
BRANCH  16  17
HETATM   17  C   UNL     1      -4.142  -3.979 -34.161  1.00  0.00     0.026 C 
BRANCH  17  18
HETATM   18  C   UNL     1      -5.219  -5.030 -34.410  1.00  0.00    -0.002 C 
HETATM   19  C   UNL     1      -6.239  -4.552 -35.431  1.00  0.00     0.005 C 
ENDBRANCH  17  18
ENDBRANCH  16  17
ENDBRANCH  15  16
ENDBRANCH  12  15
ENDBRANCH   6   9
ENDBRANCH   3   5
ENDBRANCH   1   3
BRANCH   1  20
HETATM   20  C   UNL     1      -9.291   3.510 -34.023  1.00  0.00     0.035 A 
HETATM   21  C   UNL     1      -7.928   3.790 -33.900  1.00  0.00     0.048 A 
HETATM   22  C   UNL     1      -7.486   5.071 -33.524  1.00  0.00     0.053 A 
HETATM   23  C   UNL     1      -8.446   6.061 -33.244  1.00  0.00     0.086 A 
HETATM   24  C   UNL     1      -9.817   5.785 -33.324  1.00  0.00    -0.026 A 
HETATM   25  C   UNL     1     -10.847   6.842 -33.042  1.00  0.00     0.051 C 
HETATM   26  C   UNL     1     -10.225   4.514 -33.751  1.00  0.00     0.039 A 
BRANCH  22  27
HETATM   27  C   UNL     1      -6.061   5.386 -33.486  1.00  0.00     0.183 A 
HETATM   28  O   UNL     1      -5.296   4.962 -34.541  1.00  0.00    -0.289 OA
HETATM   29  C   UNL     1      -4.047   5.428 -34.248  1.00  0.00     0.106 A 
HETATM   30  C   UNL     1      -4.119   6.101 -33.038  1.00  0.00     0.093 A 
HETATM   31  C   UNL     1      -2.895   5.282 -35.007  1.00  0.00     0.040 A 
HETATM   32  N   UNL     1      -5.400   6.043 -32.546  1.00  0.00    -0.221 NA
HETATM   33  C   UNL     1      -2.962   6.705 -32.530  1.00  0.00     0.034 A 
HETATM   34  C   UNL     1      -1.777   6.593 -33.274  1.00  0.00     0.002 A 
HETATM   35  C   UNL     1      -1.745   5.890 -34.486  1.00  0.00     0.003 A 
ENDBRANCH  22  27
BRANCH  23  36
HETATM   36  O   UNL     1      -8.087   7.342 -32.900  1.00  0.00    -0.359 OA
HETATM   37  H   UNL     1      -8.608   7.974 -33.440  1.00  0.00     0.218 HD
ENDBRANCH  23  36
ENDBRANCH   1  20
TORSDOF 10
ENDMDL
MODEL 4
REMARK VINA RESULT:      -7.7      3.684      5.807
REMARK  10 active torsions:
REMARK  status: ('A' for Active; 'I' for Inactive)
REMARK    1  A    between atoms: C_2  and  C_3 
REMARK    2  A    between atoms: C_3  and  C_4 
REMARK    3  A    between atoms: C_4  and  O_5 
REMARK    4  A    between atoms: O_5  and  C_6 
REMARK    5  A    between atoms: C_9  and  C_10 
REMARK       I    between atoms: C_10  and  N_11 
REMARK    6  A    between atoms: N_11  and  C_12 
REMARK    7  A    between atoms: C_12  and  N_13 
REMARK    8  A    between atoms: N_13  and  C_14 
REMARK    9  A    between atoms: C_16  and  C_17 
REMARK   10  A    between atoms: C_26  and  O_27 
ROOT
HETATM    1  N   UNL     1      -2.320   4.045 -31.948  1.00  0.00    -0.333 N 
HETATM    2  H   UNL     1      -1.491   3.619 -31.544  1.00  0.00     0.168 HD
ENDROOT
BRANCH   1   3
HETATM    3  C   UNL     1      -2.049   5.180 -32.670  1.00  0.00     0.179 C 
HETATM    4  S   UNL     1      -3.159   5.628 -33.838  1.00  0.00    -0.040 SA
BRANCH   3   5
HETATM    5  N   UNL     1      -0.824   5.766 -32.431  1.00  0.00    -0.299 N 
HETATM    6  C   UNL     1      -0.166   5.652 -31.217  1.00  0.00     0.257 C 
HETATM    7  O   UNL     1       0.533   4.685 -30.935  1.00  0.00    -0.267 OA
HETATM    8  H   UNL     1      -0.804   6.695 -32.830  1.00  0.00     0.171 HD
BRANCH   6   9
HETATM    9  C   UNL     1      -0.301   6.800 -30.264  1.00  0.00     0.032 A 
HETATM   10  C   UNL     1      -1.410   7.659 -30.264  1.00  0.00     0.020 A 
HETATM   11  C   UNL     1      -1.533   8.646 -29.282  1.00  0.00     0.038 A 
HETATM   12  C   UNL     1      -0.575   8.760 -28.279  1.00  0.00     0.068 A 
HETATM   13  C   UNL     1       0.554   7.943 -28.293  1.00  0.00     0.038 A 
HETATM   14  C   UNL     1       0.687   6.961 -29.280  1.00  0.00     0.020 A 
BRANCH  12  15
HETATM   15  O   UNL     1      -0.807   9.713 -27.325  1.00  0.00    -0.351 OA
BRANCH  15  16
HETATM   16  C   UNL     1      -2.177   9.765 -26.902  1.00  0.00     0.175 C 
BRANCH  16  17
HETATM   17  C   UNL     1      -2.312   8.904 -25.649  1.00  0.00     0.026 C 
BRANCH  17  18
HETATM   18  C   UNL     1      -3.003   7.578 -25.948  1.00  0.00    -0.002 C 
HETATM   19  C   UNL     1      -2.043   6.406 -25.818  1.00  0.00     0.005 C 
ENDBRANCH  17  18
ENDBRANCH  16  17
ENDBRANCH  15  16
ENDBRANCH  12  15
ENDBRANCH   6   9
ENDBRANCH   3   5
ENDBRANCH   1   3
BRANCH   1  20
HETATM   20  C   UNL     1      -3.507   3.295 -31.833  1.00  0.00     0.035 A 
HETATM   21  C   UNL     1      -3.705   2.069 -32.472  1.00  0.00     0.048 A 
HETATM   22  C   UNL     1      -4.859   1.304 -32.225  1.00  0.00     0.053 A 
HETATM   23  C   UNL     1      -5.828   1.813 -31.341  1.00  0.00     0.086 A 
HETATM   24  C   UNL     1      -5.664   3.059 -30.722  1.00  0.00    -0.026 A 
HETATM   25  C   UNL     1      -6.688   3.601 -29.765  1.00  0.00     0.051 C 
HETATM   26  C   UNL     1      -4.479   3.773 -30.950  1.00  0.00     0.039 A 
BRANCH  22  27
HETATM   27  C   UNL     1      -5.020  -0.018 -32.823  1.00  0.00     0.183 A 
HETATM   28  O   UNL     1      -6.276  -0.369 -33.242  1.00  0.00    -0.289 OA
HETATM   29  C   UNL     1      -6.107  -1.611 -33.780  1.00  0.00     0.106 A 
HETATM   30  C   UNL     1      -4.768  -1.947 -33.658  1.00  0.00     0.093 A 
HETATM   31  C   UNL     1      -7.076  -2.415 -34.365  1.00  0.00     0.040 A 
HETATM   32  N   UNL     1      -4.090  -0.938 -33.019  1.00  0.00    -0.221 NA
HETATM   33  C   UNL     1      -4.328  -3.174 -34.169  1.00  0.00     0.034 A 
HETATM   34  C   UNL     1      -5.275  -4.013 -34.780  1.00  0.00     0.002 A 
HETATM   35  C   UNL     1      -6.623  -3.641 -34.870  1.00  0.00     0.003 A 
ENDBRANCH  22  27
BRANCH  23  36
HETATM   36  O   UNL     1      -6.966   1.108 -31.029  1.00  0.00    -0.359 OA
HETATM   37  H   UNL     1      -6.840   0.669 -30.161  1.00  0.00     0.218 HD
ENDBRANCH  23  36
ENDBRANCH   1  20
TORSDOF 10
ENDMDL
MODEL 5
REMARK VINA RESULT:      -7.5      5.146      7.816
REMARK  10 active torsions:
REMARK  status: ('A' for Active; 'I' for Inactive)
REMARK    1  A    between atoms: C_2  and  C_3 
REMARK    2  A    between atoms: C_3  and  C_4 
REMARK    3  A    between atoms: C_4  and  O_5 
REMARK    4  A    between atoms: O_5  and  C_6 
REMARK    5  A    between atoms: C_9  and  C_10 
REMARK       I    between atoms: C_10  and  N_11 
REMARK    6  A    between atoms: N_11  and  C_12 
REMARK    7  A    between atoms: C_12  and  N_13 
REMARK    8  A    between atoms: N_13  and  C_14 
REMARK    9  A    between atoms: C_16  and  C_17 
REMARK   10  A    between atoms: C_26  and  O_27 
ROOT
HETATM    1  N   UNL     1      -1.896   4.860 -31.044  1.00  0.00    -0.333 N 
HETATM    2  H   UNL     1      -1.442   4.366 -30.282  1.00  0.00     0.168 HD
ENDROOT
BRANCH   1   3
HETATM    3  C   UNL     1      -1.055   5.713 -31.714  1.00  0.00     0.179 C 
HETATM    4  S   UNL     1      -1.569   6.286 -33.199  1.00  0.00    -0.040 SA
BRANCH   3   5
HETATM    5  N   UNL     1       0.181   5.912 -31.137  1.00  0.00    -0.299 N 
HETATM    6  C   UNL     1       0.508   5.424 -29.882  1.00  0.00     0.257 C 
HETATM    7  O   UNL     1       0.899   4.275 -29.704  1.00  0.00    -0.267 OA
HETATM    8  H   UNL     1       0.491   6.859 -31.309  1.00  0.00     0.171 HD
BRANCH   6   9
HETATM    9  C   UNL     1       0.413   6.384 -28.737  1.00  0.00     0.032 A 
HETATM   10  C   UNL     1      -0.092   6.018 -27.480  1.00  0.00     0.020 A 
HETATM   11  C   UNL     1      -0.055   6.925 -26.418  1.00  0.00     0.038 A 
HETATM   12  C   UNL     1       0.513   8.184 -26.590  1.00  0.00     0.068 A 
HETATM   13  C   UNL     1       0.977   8.576 -27.844  1.00  0.00     0.038 A 
HETATM   14  C   UNL     1       0.933   7.676 -28.913  1.00  0.00     0.020 A 
BRANCH  12  15
HETATM   15  O   UNL     1       0.561   8.984 -25.481  1.00  0.00    -0.351 OA
BRANCH  15  16
HETATM   16  C   UNL     1       1.849   9.575 -25.267  1.00  0.00     0.175 C 
BRANCH  16  17
HETATM   17  C   UNL     1       2.656   8.630 -24.380  1.00  0.00     0.026 C 
BRANCH  17  18
HETATM   18  C   UNL     1       2.704   9.117 -22.935  1.00  0.00    -0.002 C 
HETATM   19  C   UNL     1       3.603   8.238 -22.080  1.00  0.00     0.005 C 
ENDBRANCH  17  18
ENDBRANCH  16  17
ENDBRANCH  15  16
ENDBRANCH  12  15
ENDBRANCH   6   9
ENDBRANCH   3   5
ENDBRANCH   1   3
BRANCH   1  20
HETATM   20  C   UNL     1      -3.204   4.435 -31.352  1.00  0.00     0.035 A 
HETATM   21  C   UNL     1      -3.484   3.263 -32.058  1.00  0.00     0.048 A 
HETATM   22  C   UNL     1      -4.809   2.823 -32.231  1.00  0.00     0.053 A 
HETATM   23  C   UNL     1      -5.853   3.605 -31.703  1.00  0.00     0.086 A 
HETATM   24  C   UNL     1      -5.591   4.804 -31.027  1.00  0.00    -0.026 A 
HETATM   25  C   UNL     1      -6.700   5.636 -30.448  1.00  0.00     0.051 C 
HETATM   26  C   UNL     1      -4.258   5.189 -30.828  1.00  0.00     0.039 A 
BRANCH  22  27
HETATM   27  C   UNL     1      -5.092   1.551 -32.888  1.00  0.00     0.183 A 
HETATM   28  O   UNL     1      -4.209   0.524 -32.677  1.00  0.00    -0.289 OA
HETATM   29  C   UNL     1      -4.749  -0.519 -33.370  1.00  0.00     0.106 A 
HETATM   30  C   UNL     1      -5.919  -0.074 -33.964  1.00  0.00     0.093 A 
HETATM   31  C   UNL     1      -4.249  -1.810 -33.473  1.00  0.00     0.040 A 
HETATM   32  N   UNL     1      -6.113   1.254 -33.676  1.00  0.00    -0.221 NA
HETATM   33  C   UNL     1      -6.684  -0.977 -34.714  1.00  0.00     0.034 A 
HETATM   34  C   UNL     1      -6.220  -2.296 -34.833  1.00  0.00     0.002 A 
HETATM   35  C   UNL     1      -5.023  -2.701 -34.228  1.00  0.00     0.003 A 
ENDBRANCH  22  27
BRANCH  23  36
HETATM   36  O   UNL     1      -7.169   3.223 -31.808  1.00  0.00    -0.359 OA
HETATM   37  H   UNL     1      -7.466   2.868 -30.944  1.00  0.00     0.218 HD
ENDBRANCH  23  36
ENDBRANCH   1  20
TORSDOF 10
ENDMDL
MODEL 6
REMARK VINA RESULT:      -7.5      3.182      5.162
REMARK  10 active torsions:
REMARK  status: ('A' for Active; 'I' for Inactive)
REMARK    1  A    between atoms: C_2  and  C_3 
REMARK    2  A    between atoms: C_3  and  C_4 
REMARK    3  A    between atoms: C_4  and  O_5 
REMARK    4  A    between atoms: O_5  and  C_6 
REMARK    5  A    between atoms: C_9  and  C_10 
REMARK       I    between atoms: C_10  and  N_11 
REMARK    6  A    between atoms: N_11  and  C_12 
REMARK    7  A    between atoms: C_12  and  N_13 
REMARK    8  A    between atoms: N_13  and  C_14 
REMARK    9  A    between atoms: C_16  and  C_17 
REMARK   10  A    between atoms: C_26  and  O_27 
ROOT
HETATM    1  N   UNL     1     -10.768   3.122 -31.948  1.00  0.00    -0.333 N 
HETATM    2  H   UNL     1     -11.516   3.072 -31.262  1.00  0.00     0.168 HD
ENDROOT
BRANCH   1   3
HETATM    3  C   UNL     1     -11.130   3.784 -33.094  1.00  0.00     0.179 C 
HETATM    4  S   UNL     1     -12.013   2.927 -34.228  1.00  0.00    -0.040 SA
BRANCH   3   5
HETATM    5  N   UNL     1     -10.621   5.057 -33.238  1.00  0.00    -0.299 N 
HETATM    6  C   UNL     1      -9.577   5.351 -34.101  1.00  0.00     0.257 C 
HETATM    7  O   UNL     1      -9.750   5.565 -35.296  1.00  0.00    -0.267 OA
HETATM    8  H   UNL     1     -10.552   5.503 -32.334  1.00  0.00     0.171 HD
BRANCH   6   9
HETATM    9  C   UNL     1      -8.209   5.450 -33.499  1.00  0.00     0.032 A 
HETATM   10  C   UNL     1      -7.875   6.408 -32.529  1.00  0.00     0.020 A 
HETATM   11  C   UNL     1      -6.616   6.383 -31.924  1.00  0.00     0.038 A 
HETATM   12  C   UNL     1      -5.698   5.389 -32.253  1.00  0.00     0.068 A 
HETATM   13  C   UNL     1      -6.001   4.460 -33.247  1.00  0.00     0.038 A 
HETATM   14  C   UNL     1      -7.256   4.487 -33.863  1.00  0.00     0.020 A 
BRANCH  12  15
HETATM   15  O   UNL     1      -4.515   5.407 -31.569  1.00  0.00    -0.351 OA
BRANCH  15  16
HETATM   16  C   UNL     1      -3.623   6.439 -32.010  1.00  0.00     0.175 C 
BRANCH  16  17
HETATM   17  C   UNL     1      -2.438   5.769 -32.702  1.00  0.00     0.026 C 
BRANCH  17  18
HETATM   18  C   UNL     1      -2.485   5.963 -34.214  1.00  0.00    -0.002 C 
HETATM   19  C   UNL     1      -1.277   5.338 -34.894  1.00  0.00     0.005 C 
ENDBRANCH  17  18
ENDBRANCH  16  17
ENDBRANCH  15  16
ENDBRANCH  12  15
ENDBRANCH   6   9
ENDBRANCH   3   5
ENDBRANCH   1   3
BRANCH   1  20
HETATM   20  C   UNL     1      -9.507   2.673 -31.509  1.00  0.00     0.035 A 
HETATM   21  C   UNL     1      -8.844   1.580 -32.069  1.00  0.00     0.048 A 
HETATM   22  C   UNL     1      -7.533   1.251 -31.676  1.00  0.00     0.053 A 
HETATM   23  C   UNL     1      -6.913   2.029 -30.682  1.00  0.00     0.086 A 
HETATM   24  C   UNL     1      -7.580   3.105 -30.080  1.00  0.00    -0.026 A 
HETATM   25  C   UNL     1      -6.917   3.950 -29.030  1.00  0.00     0.051 C 
HETATM   26  C   UNL     1      -8.865   3.438 -30.531  1.00  0.00     0.039 A 
BRANCH  22  27
HETATM   27  C   UNL     1      -6.809   0.165 -32.329  1.00  0.00     0.183 A 
HETATM   28  O   UNL     1      -7.521  -0.644 -33.176  1.00  0.00    -0.289 OA
HETATM   29  C   UNL     1      -6.589  -1.518 -33.654  1.00  0.00     0.106 A 
HETATM   30  C   UNL     1      -5.371  -1.199 -33.074  1.00  0.00     0.093 A 
HETATM   31  C   UNL     1      -6.788  -2.545 -34.567  1.00  0.00     0.040 A 
HETATM   32  N   UNL     1      -5.529  -0.145 -32.208  1.00  0.00    -0.221 NA
HETATM   33  C   UNL     1      -4.237  -1.939 -33.431  1.00  0.00     0.034 A 
HETATM   34  C   UNL     1      -4.392  -2.979 -34.360  1.00  0.00     0.002 A 
HETATM   35  C   UNL     1      -5.645  -3.278 -34.912  1.00  0.00     0.003 A 
ENDBRANCH  22  27
BRANCH  23  36
HETATM   36  O   UNL     1      -5.625   1.785 -30.269  1.00  0.00    -0.359 OA
HETATM   37  H   UNL     1      -5.407   0.846 -30.448  1.00  0.00     0.218 HD
ENDBRANCH  23  36
ENDBRANCH   1  20
TORSDOF 10
ENDMDL
MODEL 7
REMARK VINA RESULT:      -7.4      3.405      7.323
REMARK  10 active torsions:
REMARK  status: ('A' for Active; 'I' for Inactive)
REMARK    1  A    between atoms: C_2  and  C_3 
REMARK    2  A    between atoms: C_3  and  C_4 
REMARK    3  A    between atoms: C_4  and  O_5 
REMARK    4  A    between atoms: O_5  and  C_6 
REMARK    5  A    between atoms: C_9  and  C_10 
REMARK       I    between atoms: C_10  and  N_11 
REMARK    6  A    between atoms: N_11  and  C_12 
REMARK    7  A    between atoms: C_12  and  N_13 
REMARK    8  A    between atoms: N_13  and  C_14 
REMARK    9  A    between atoms: C_16  and  C_17 
REMARK   10  A    between atoms: C_26  and  O_27 
ROOT
HETATM    1  N   UNL     1     -10.153   4.594 -34.569  1.00  0.00    -0.333 N 
HETATM    2  H   UNL     1     -10.025   5.226 -35.354  1.00  0.00     0.168 HD
ENDROOT
BRANCH   1   3
HETATM    3  C   UNL     1     -11.276   3.814 -34.680  1.00  0.00     0.179 C 
HETATM    4  S   UNL     1     -12.718   4.466 -34.139  1.00  0.00    -0.040 SA
BRANCH   3   5
HETATM    5  N   UNL     1     -11.071   2.524 -35.121  1.00  0.00    -0.299 N 
HETATM    6  C   UNL     1     -11.070   1.433 -34.266  1.00  0.00     0.257 C 
HETATM    7  O   UNL     1     -12.102   0.872 -33.914  1.00  0.00    -0.267 OA
HETATM    8  H   UNL     1     -10.334   2.511 -35.813  1.00  0.00     0.171 HD
BRANCH   6   9
HETATM    9  C   UNL     1      -9.734   0.924 -33.821  1.00  0.00     0.032 A 
HETATM   10  C   UNL     1      -8.650   0.770 -34.699  1.00  0.00     0.020 A 
HETATM   11  C   UNL     1      -7.397   0.394 -34.207  1.00  0.00     0.038 A 
HETATM   12  C   UNL     1      -7.208   0.204 -32.841  1.00  0.00     0.068 A 
HETATM   13  C   UNL     1      -8.286   0.309 -31.964  1.00  0.00     0.038 A 
HETATM   14  C   UNL     1      -9.544   0.674 -32.453  1.00  0.00     0.020 A 
BRANCH  12  15
HETATM   15  O   UNL     1      -5.936  -0.103 -32.443  1.00  0.00    -0.351 OA
BRANCH  15  16
HETATM   16  C   UNL     1      -5.721   0.099 -31.039  1.00  0.00     0.175 C 
BRANCH  16  17
HETATM   17  C   UNL     1      -4.390   0.828 -30.871  1.00  0.00     0.026 C 
BRANCH  17  18
HETATM   18  C   UNL     1      -4.236   1.960 -31.883  1.00  0.00    -0.002 C 
HETATM   19  C   UNL     1      -3.111   2.906 -31.494  1.00  0.00     0.005 C 
ENDBRANCH  17  18
ENDBRANCH  16  17
ENDBRANCH  15  16
ENDBRANCH  12  15
ENDBRANCH   6   9
ENDBRANCH   3   5
ENDBRANCH   1   3
BRANCH   1  20
HETATM   20  C   UNL     1      -9.081   4.530 -33.657  1.00  0.00     0.035 A 
HETATM   21  C   UNL     1      -7.754   4.782 -34.014  1.00  0.00     0.048 A 
HETATM   22  C   UNL     1      -6.740   4.826 -33.039  1.00  0.00     0.053 A 
HETATM   23  C   UNL     1      -7.085   4.580 -31.697  1.00  0.00     0.086 A 
HETATM   24  C   UNL     1      -8.404   4.286 -31.328  1.00  0.00    -0.026 A 
HETATM   25  C   UNL     1      -8.780   4.039 -29.895  1.00  0.00     0.051 C 
HETATM   26  C   UNL     1      -9.399   4.301 -32.315  1.00  0.00     0.039 A 
BRANCH  22  27
HETATM   27  C   UNL     1      -5.372   5.180 -33.403  1.00  0.00     0.183 A 
HETATM   28  O   UNL     1      -4.761   6.162 -32.667  1.00  0.00    -0.289 OA
HETATM   29  C   UNL     1      -3.508   6.241 -33.202  1.00  0.00     0.106 A 
HETATM   30  C   UNL     1      -3.427   5.314 -34.230  1.00  0.00     0.093 A 
HETATM   31  C   UNL     1      -2.475   7.078 -32.806  1.00  0.00     0.040 A 
HETATM   32  N   UNL     1      -4.629   4.665 -34.369  1.00  0.00    -0.221 NA
HETATM   33  C   UNL     1      -2.219   5.177 -34.924  1.00  0.00     0.034 A 
HETATM   34  C   UNL     1      -1.143   5.997 -34.547  1.00  0.00     0.002 A 
HETATM   35  C   UNL     1      -1.273   6.932 -33.512  1.00  0.00     0.003 A 
ENDBRANCH  22  27
BRANCH  23  36
HETATM   36  O   UNL     1      -6.153   4.635 -30.689  1.00  0.00    -0.359 OA
HETATM   37  H   UNL     1      -6.197   3.804 -30.170  1.00  0.00     0.218 HD
ENDBRANCH  23  36
ENDBRANCH   1  20
TORSDOF 10
ENDMDL
MODEL 8
REMARK VINA RESULT:      -7.3      3.536      8.682
REMARK  10 active torsions:
REMARK  status: ('A' for Active; 'I' for Inactive)
REMARK    1  A    between atoms: C_2  and  C_3 
REMARK    2  A    between atoms: C_3  and  C_4 
REMARK    3  A    between atoms: C_4  and  O_5 
REMARK    4  A    between atoms: O_5  and  C_6 
REMARK    5  A    between atoms: C_9  and  C_10 
REMARK       I    between atoms: C_10  and  N_11 
REMARK    6  A    between atoms: N_11  and  C_12 
REMARK    7  A    between atoms: C_12  and  N_13 
REMARK    8  A    between atoms: N_13  and  C_14 
REMARK    9  A    between atoms: C_16  and  C_17 
REMARK   10  A    between atoms: C_26  and  O_27 
ROOT
HETATM    1  N   UNL     1      -4.920   3.360 -31.436  1.00  0.00    -0.333 N 
HETATM    2  H   UNL     1      -4.573   2.471 -31.089  1.00  0.00     0.168 HD
ENDROOT
BRANCH   1   3
HETATM    3  C   UNL     1      -6.284   3.483 -31.343  1.00  0.00     0.179 C 
HETATM    4  S   UNL     1      -6.895   4.216 -29.970  1.00  0.00    -0.040 SA
BRANCH   3   5
HETATM    5  N   UNL     1      -7.011   2.877 -32.346  1.00  0.00    -0.299 N 
HETATM    6  C   UNL     1      -7.573   1.619 -32.206  1.00  0.00     0.257 C 
HETATM    7  O   UNL     1      -8.659   1.439 -31.665  1.00  0.00    -0.267 OA
HETATM    8  H   UNL     1      -6.564   3.037 -33.238  1.00  0.00     0.171 HD
BRANCH   6   9
HETATM    9  C   UNL     1      -6.814   0.470 -32.796  1.00  0.00     0.032 A 
HETATM   10  C   UNL     1      -7.007   0.032 -34.115  1.00  0.00     0.020 A 
HETATM   11  C   UNL     1      -6.195  -0.973 -34.646  1.00  0.00     0.038 A 
HETATM   12  C   UNL     1      -5.168  -1.522 -33.883  1.00  0.00     0.068 A 
HETATM   13  C   UNL     1      -4.996  -1.128 -32.557  1.00  0.00     0.038 A 
HETATM   14  C   UNL     1      -5.812  -0.130 -32.018  1.00  0.00     0.020 A 
BRANCH  12  15
HETATM   15  O   UNL     1      -4.386  -2.457 -34.502  1.00  0.00    -0.351 OA
BRANCH  15  16
HETATM   16  C   UNL     1      -3.986  -3.524 -33.633  1.00  0.00     0.175 C 
BRANCH  16  17
HETATM   17  C   UNL     1      -4.560  -4.823 -34.193  1.00  0.00     0.026 C 
BRANCH  17  18
HETATM   18  C   UNL     1      -5.556  -4.560 -35.318  1.00  0.00    -0.002 C 
HETATM   19  C   UNL     1      -6.986  -4.533 -34.802  1.00  0.00     0.005 C 
ENDBRANCH  17  18
ENDBRANCH  16  17
ENDBRANCH  15  16
ENDBRANCH  12  15
ENDBRANCH   6   9
ENDBRANCH   3   5
ENDBRANCH   1   3
BRANCH   1  20
HETATM   20  C   UNL     1      -3.935   4.315 -31.758  1.00  0.00     0.035 A 
HETATM   21  C   UNL     1      -3.405   5.213 -30.829  1.00  0.00     0.048 A 
HETATM   22  C   UNL     1      -2.337   6.061 -31.174  1.00  0.00     0.053 A 
HETATM   23  C   UNL     1      -1.831   6.009 -32.486  1.00  0.00     0.086 A 
HETATM   24  C   UNL     1      -2.378   5.143 -33.441  1.00  0.00    -0.026 A 
HETATM   25  C   UNL     1      -1.832   5.071 -34.839  1.00  0.00     0.051 C 
HETATM   26  C   UNL     1      -3.408   4.274 -33.052  1.00  0.00     0.039 A 
BRANCH  22  27
HETATM   27  C   UNL     1      -1.724   6.933 -30.175  1.00  0.00     0.183 A 
HETATM   28  O   UNL     1      -0.412   6.698 -29.858  1.00  0.00    -0.289 OA
HETATM   29  C   UNL     1      -0.116   7.673 -28.951  1.00  0.00     0.106 A 
HETATM   30  C   UNL     1      -1.255   8.440 -28.764  1.00  0.00     0.093 A 
HETATM   31  C   UNL     1       1.101   7.893 -28.319  1.00  0.00     0.040 A 
HETATM   32  N   UNL     1      -2.283   7.941 -29.526  1.00  0.00    -0.221 NA
HETATM   33  C   UNL     1      -1.199   9.535 -27.894  1.00  0.00     0.034 A 
HETATM   34  C   UNL     1       0.016   9.801 -27.243  1.00  0.00     0.002 A 
HETATM   35  C   UNL     1       1.141   8.991 -27.449  1.00  0.00     0.003 A 
ENDBRANCH  22  27
BRANCH  23  36
HETATM   36  O   UNL     1      -0.771   6.787 -32.885  1.00  0.00    -0.359 OA
HETATM   37  H   UNL     1      -0.665   7.529 -32.253  1.00  0.00     0.218 HD
ENDBRANCH  23  36
ENDBRANCH   1  20
TORSDOF 10
ENDMDL
MODEL 9
REMARK VINA RESULT:      -7.3      3.241      6.214
REMARK  10 active torsions:
REMARK  status: ('A' for Active; 'I' for Inactive)
REMARK    1  A    between atoms: C_2  and  C_3 
REMARK    2  A    between atoms: C_3  and  C_4 
REMARK    3  A    between atoms: C_4  and  O_5 
REMARK    4  A    between atoms: O_5  and  C_6 
REMARK    5  A    between atoms: C_9  and  C_10 
REMARK       I    between atoms: C_10  and  N_11 
REMARK    6  A    between atoms: N_11  and  C_12 
REMARK    7  A    between atoms: C_12  and  N_13 
REMARK    8  A    between atoms: N_13  and  C_14 
REMARK    9  A    between atoms: C_16  and  C_17 
REMARK   10  A    between atoms: C_26  and  O_27 
ROOT
HETATM    1  N   UNL     1      -6.462   4.550 -34.192  1.00  0.00    -0.333 N 
HETATM    2  H   UNL     1      -6.829   5.140 -34.933  1.00  0.00     0.168 HD
ENDROOT
BRANCH   1   3
HETATM    3  C   UNL     1      -5.489   5.164 -33.443  1.00  0.00     0.179 C 
HETATM    4  S   UNL     1      -5.965   6.431 -32.460  1.00  0.00    -0.040 SA
BRANCH   3   5
HETATM    5  N   UNL     1      -4.198   4.742 -33.674  1.00  0.00    -0.299 N 
HETATM    6  C   UNL     1      -3.453   4.062 -32.724  1.00  0.00     0.257 C 
HETATM    7  O   UNL     1      -3.543   2.851 -32.559  1.00  0.00    -0.267 OA
HETATM    8  H   UNL     1      -3.685   5.459 -34.170  1.00  0.00     0.171 HD
BRANCH   6   9
HETATM    9  C   UNL     1      -2.477   4.870 -31.925  1.00  0.00     0.032 A 
HETATM   10  C   UNL     1      -1.140   5.047 -32.314  1.00  0.00     0.020 A 
HETATM   11  C   UNL     1      -0.305   5.900 -31.588  1.00  0.00     0.038 A 
HETATM   12  C   UNL     1      -0.801   6.604 -30.495  1.00  0.00     0.068 A 
HETATM   13  C   UNL     1      -2.113   6.403 -30.070  1.00  0.00     0.038 A 
HETATM   14  C   UNL     1      -2.951   5.543 -30.788  1.00  0.00     0.020 A 
BRANCH  12  15
HETATM   15  O   UNL     1       0.070   7.461 -29.880  1.00  0.00    -0.351 OA
BRANCH  15  16
HETATM   16  C   UNL     1       0.644   6.918 -28.684  1.00  0.00     0.175 C 
BRANCH  16  17
HETATM   17  C   UNL     1       1.252   8.074 -27.892  1.00  0.00     0.026 C 
BRANCH  17  18
HETATM   18  C   UNL     1       1.609   7.655 -26.469  1.00  0.00    -0.002 C 
HETATM   19  C   UNL     1       2.253   8.796 -25.697  1.00  0.00     0.005 C 
ENDBRANCH  17  18
ENDBRANCH  16  17
ENDBRANCH  15  16
ENDBRANCH  12  15
ENDBRANCH   6   9
ENDBRANCH   3   5
ENDBRANCH   1   3
BRANCH   1  20
HETATM   20  C   UNL     1      -7.144   3.334 -33.987  1.00  0.00     0.035 A 
HETATM   21  C   UNL     1      -6.549   2.083 -34.161  1.00  0.00     0.048 A 
HETATM   22  C   UNL     1      -7.238   0.903 -33.824  1.00  0.00     0.053 A 
HETATM   23  C   UNL     1      -8.553   1.007 -33.334  1.00  0.00     0.086 A 
HETATM   24  C   UNL     1      -9.178   2.253 -33.191  1.00  0.00    -0.026 A 
HETATM   25  C   UNL     1     -10.576   2.372 -32.653  1.00  0.00     0.051 C 
HETATM   26  C   UNL     1      -8.447   3.412 -33.487  1.00  0.00     0.039 A 
BRANCH  22  27
HETATM   27  C   UNL     1      -6.581  -0.397 -33.921  1.00  0.00     0.183 A 
HETATM   28  O   UNL     1      -7.327  -1.443 -34.399  1.00  0.00    -0.289 OA
HETATM   29  C   UNL     1      -6.452  -2.489 -34.412  1.00  0.00     0.106 A 
HETATM   30  C   UNL     1      -5.232  -2.029 -33.941  1.00  0.00     0.093 A 
HETATM   31  C   UNL     1      -6.701  -3.790 -34.827  1.00  0.00     0.040 A 
HETATM   32  N   UNL     1      -5.334  -0.702 -33.602  1.00  0.00    -0.221 NA
HETATM   33  C   UNL     1      -4.149  -2.914 -33.886  1.00  0.00     0.034 A 
HETATM   34  C   UNL     1      -4.355  -4.238 -34.308  1.00  0.00     0.002 A 
HETATM   35  C   UNL     1      -5.609  -4.666 -34.764  1.00  0.00     0.003 A 
ENDBRANCH  22  27
BRANCH  23  36
HETATM   36  O   UNL     1      -9.275  -0.099 -32.957  1.00  0.00    -0.359 OA
HETATM   37  H   UNL     1      -8.851  -0.899 -33.335  1.00  0.00     0.218 HD
ENDBRANCH  23  36
ENDBRANCH   1  20
TORSDOF 10
ENDMDL
MODEL 10
REMARK VINA RESULT:      -7.2      3.403      7.302
REMARK  10 active torsions:
REMARK  status: ('A' for Active; 'I' for Inactive)
REMARK    1  A    between atoms: C_2  and  C_3 
REMARK    2  A    between atoms: C_3  and  C_4 
REMARK    3  A    between atoms: C_4  and  O_5 
REMARK    4  A    between atoms: O_5  and  C_6 
REMARK    5  A    between atoms: C_9  and  C_10 
REMARK       I    between atoms: C_10  and  N_11 
REMARK    6  A    between atoms: N_11  and  C_12 
REMARK    7  A    between atoms: C_12  and  N_13 
REMARK    8  A    between atoms: N_13  and  C_14 
REMARK    9  A    between atoms: C_16  and  C_17 
REMARK   10  A    between atoms: C_26  and  O_27 
ROOT
HETATM    1  N   UNL     1     -10.122   5.263 -34.140  1.00  0.00    -0.333 N 
HETATM    2  H   UNL     1     -10.073   6.179 -34.577  1.00  0.00     0.168 HD
ENDROOT
BRANCH   1   3
HETATM    3  C   UNL     1     -11.201   4.523 -34.554  1.00  0.00     0.179 C 
HETATM    4  S   UNL     1     -12.717   5.046 -34.077  1.00  0.00    -0.040 SA
BRANCH   3   5
HETATM    5  N   UNL     1     -10.907   3.356 -35.225  1.00  0.00    -0.299 N 
HETATM    6  C   UNL     1     -11.112   2.103 -34.670  1.00  0.00     0.257 C 
HETATM    7  O   UNL     1     -12.201   1.540 -34.700  1.00  0.00    -0.267 OA
HETATM    8  H   UNL     1     -10.029   3.455 -35.717  1.00  0.00     0.171 HD
BRANCH   6   9
HETATM    9  C   UNL     1      -9.920   1.427 -34.066  1.00  0.00     0.032 A 
HETATM   10  C   UNL     1     -10.013   0.573 -32.957  1.00  0.00     0.020 A 
HETATM   11  C   UNL     1      -8.885  -0.115 -32.504  1.00  0.00     0.038 A 
HETATM   12  C   UNL     1      -7.669   0.015 -33.170  1.00  0.00     0.068 A 
HETATM   13  C   UNL     1      -7.552   0.895 -34.245  1.00  0.00     0.038 A 
HETATM   14  C   UNL     1      -8.676   1.594 -34.696  1.00  0.00     0.020 A 
BRANCH  12  15
HETATM   15  O   UNL     1      -6.634  -0.741 -32.695  1.00  0.00    -0.351 OA
BRANCH  15  16
HETATM   16  C   UNL     1      -5.454  -0.655 -33.506  1.00  0.00     0.175 C 
BRANCH  16  17
HETATM   17  C   UNL     1      -5.110  -2.065 -33.979  1.00  0.00     0.026 C 
BRANCH  17  18
HETATM   18  C   UNL     1      -6.076  -2.551 -35.055  1.00  0.00    -0.002 C 
HETATM   19  C   UNL     1      -6.391  -4.030 -34.896  1.00  0.00     0.005 C 
ENDBRANCH  17  18
ENDBRANCH  16  17
ENDBRANCH  15  16
ENDBRANCH  12  15
ENDBRANCH   6   9
ENDBRANCH   3   5
ENDBRANCH   1   3
BRANCH   1  20
HETATM   20  C   UNL     1      -9.003   4.897 -33.366  1.00  0.00     0.035 A 
HETATM   21  C   UNL     1      -7.687   5.176 -33.741  1.00  0.00     0.048 A 
HETATM   22  C   UNL     1      -6.615   4.897 -32.873  1.00  0.00     0.053 A 
HETATM   23  C   UNL     1      -6.893   4.301 -31.629  1.00  0.00     0.086 A 
HETATM   24  C   UNL     1      -8.204   3.979 -31.254  1.00  0.00    -0.026 A 
HETATM   25  C   UNL     1      -8.509   3.358 -29.921  1.00  0.00     0.051 C 
HETATM   26  C   UNL     1      -9.254   4.316 -32.120  1.00  0.00     0.039 A 
BRANCH  22  27
HETATM   27  C   UNL     1      -5.251   5.273 -33.228  1.00  0.00     0.183 A 
HETATM   28  O   UNL     1      -4.681   6.304 -32.527  1.00  0.00    -0.289 OA
HETATM   29  C   UNL     1      -3.422   6.394 -33.044  1.00  0.00     0.106 A 
HETATM   30  C   UNL     1      -3.296   5.425 -34.027  1.00  0.00     0.093 A 
HETATM   31  C   UNL     1      -2.419   7.278 -32.669  1.00  0.00     0.040 A 
HETATM   32  N   UNL     1      -4.476   4.736 -34.157  1.00  0.00    -0.221 NA
HETATM   33  C   UNL     1      -2.072   5.292 -34.694  1.00  0.00     0.034 A 
HETATM   34  C   UNL     1      -1.027   6.159 -34.336  1.00  0.00     0.002 A 
HETATM   35  C   UNL     1      -1.201   7.135 -33.347  1.00  0.00     0.003 A 
ENDBRANCH  22  27
BRANCH  23  36
HETATM   36  O   UNL     1      -5.900   4.027 -30.719  1.00  0.00    -0.359 OA
HETATM   37  H   UNL     1      -5.840   3.056 -30.596  1.00  0.00     0.218 HD
ENDBRANCH  23  36
ENDBRANCH   1  20
TORSDOF 10
ENDMDL
