MODEL 1
REMARK VINA RESULT:      -8.8      0.000      0.000
REMARK  4 active torsions:
REMARK  status: ('A' for Active; 'I' for Inactive)
REMARK    1  A    between atoms: C_8  and  N_9 
REMARK       I    between atoms: N_9  and  C_10 
REMARK       I    between atoms: C_10  and  N_11 
REMARK    2  A    between atoms: N_11  and  C_12 
REMARK    3  A    between atoms: C_15  and  O_16 
REMARK    4  A    between atoms: O_16  and  C_17 
ROOT
HETATM    1  C   UNL     1      -8.317   1.114 -33.616  1.00  0.00     0.054 A 
HETATM    2  C   UNL     1      -7.807   0.779 -34.868  1.00  0.00     0.149 A 
HETATM    3  N   UNL     1      -6.655   0.086 -35.061  1.00  0.00    -0.235 NA
HETATM    4  C   UNL     1      -5.977  -0.299 -33.960  1.00  0.00     0.169 A 
HETATM    5  C   UNL     1      -6.407  -0.029 -32.670  1.00  0.00     0.060 A 
HETATM    6  C   UNL     1      -7.593   0.688 -32.500  1.00  0.00     0.035 A 
ENDROOT
BRANCH   1   7
HETATM    7  N   UNL     1      -9.497   1.855 -33.388  1.00  0.00    -0.307 N 
HETATM    8  C   UNL     1     -10.752   1.343 -33.089  1.00  0.00     0.325 C 
HETATM    9  N   UNL     1     -11.677   2.363 -32.961  1.00  0.00    -0.305 N 
HETATM   10  O   UNL     1     -10.995   0.152 -32.959  1.00  0.00    -0.247 OA
HETATM   11  H   UNL     1     -11.321   3.286 -32.776  1.00  0.00     0.171 HD
HETATM   12  H   UNL     1      -9.445   2.846 -33.563  1.00  0.00     0.170 HD
BRANCH   9  13
HETATM   13  C   UNL     1     -13.052   2.221 -32.845  1.00  0.00     0.086 A 
HETATM   14  C   UNL     1     -13.789   2.975 -31.950  1.00  0.00     0.052 A 
HETATM   15  C   UNL     1     -13.412   4.012 -30.961  1.00  0.00     0.072 C 
HETATM   16  N   UNL     1     -15.086   2.579 -32.108  1.00  0.00    -0.280 N 
HETATM   17  H   UNL     1     -15.908   2.907 -31.612  1.00  0.00     0.189 HD
HETATM   18  N   UNL     1     -15.258   1.652 -33.053  1.00  0.00    -0.177 NA
HETATM   19  C   UNL     1     -14.022   1.423 -33.522  1.00  0.00     0.079 A 
HETATM   20  C   UNL     1     -13.872   0.454 -34.639  1.00  0.00     0.075 C 
ENDBRANCH   9  13
ENDBRANCH   1   7
BRANCH   4  21
HETATM   21  O   UNL     1      -4.778  -0.996 -34.071  1.00  0.00    -0.292 OA
BRANCH  21  22
HETATM   22  C   UNL     1      -4.870  -2.364 -34.153  1.00  0.00     0.080 A 
HETATM   23  C   UNL     1      -5.904  -2.918 -34.904  1.00  0.00     0.079 A 
HETATM   24  C   UNL     1      -5.975  -4.300 -35.032  1.00  0.00     0.119 A 
HETATM   25  F   UNL     1      -6.970  -4.845 -35.745  1.00  0.00    -0.206 F 
HETATM   26  C   UNL     1      -5.026  -5.129 -34.440  1.00  0.00     0.042 A 
HETATM   27  C   UNL     1      -3.980  -4.567 -33.707  1.00  0.00     0.006 A 
HETATM   28  C   UNL     1      -3.895  -3.180 -33.571  1.00  0.00     0.037 A 
ENDBRANCH  21  22
ENDBRANCH   4  21
TORSDOF 4
ENDMDL
MODEL 2
REMARK VINA RESULT:      -8.6      1.073      1.635
REMARK  4 active torsions:
REMARK  status: ('A' for Active; 'I' for Inactive)
REMARK    1  A    between atoms: C_8  and  N_9 
REMARK       I    between atoms: N_9  and  C_10 
REMARK       I    between atoms: C_10  and  N_11 
REMARK    2  A    between atoms: N_11  and  C_12 
REMARK    3  A    between atoms: C_15  and  O_16 
REMARK    4  A    between atoms: O_16  and  C_17 
ROOT
HETATM    1  C   UNL     1      -8.510   1.233 -33.379  1.00  0.00     0.054 A 
HETATM    2  C   UNL     1      -7.787   0.589 -32.378  1.00  0.00     0.149 A 
HETATM    3  N   UNL     1      -6.641  -0.108 -32.592  1.00  0.00    -0.235 NA
HETATM    4  C   UNL     1      -6.186  -0.165 -33.861  1.00  0.00     0.169 A 
HETATM    5  C   UNL     1      -6.821   0.454 -34.926  1.00  0.00     0.060 A 
HETATM    6  C   UNL     1      -7.999   1.161 -34.677  1.00  0.00     0.035 A 
ENDROOT
BRANCH   1   7
HETATM    7  N   UNL     1      -9.717   1.941 -33.188  1.00  0.00    -0.307 N 
HETATM    8  C   UNL     1     -10.984   1.395 -33.046  1.00  0.00     0.325 C 
HETATM    9  N   UNL     1     -11.932   2.393 -32.907  1.00  0.00    -0.305 N 
HETATM   10  O   UNL     1     -11.220   0.197 -33.045  1.00  0.00    -0.247 OA
HETATM   11  H   UNL     1     -11.607   3.298 -32.610  1.00  0.00     0.171 HD
HETATM   12  H   UNL     1      -9.664   2.945 -33.268  1.00  0.00     0.170 HD
BRANCH   9  13
HETATM   13  C   UNL     1     -13.309   2.232 -32.924  1.00  0.00     0.086 A 
HETATM   14  C   UNL     1     -14.146   3.033 -32.169  1.00  0.00     0.052 A 
HETATM   15  C   UNL     1     -13.888   4.146 -31.225  1.00  0.00     0.072 C 
HETATM   16  N   UNL     1     -15.414   2.600 -32.429  1.00  0.00    -0.280 N 
HETATM   17  H   UNL     1     -16.288   2.945 -32.046  1.00  0.00     0.189 HD
HETATM   18  N   UNL     1     -15.474   1.604 -33.316  1.00  0.00    -0.177 NA
HETATM   19  C   UNL     1     -14.193   1.367 -33.637  1.00  0.00     0.079 A 
HETATM   20  C   UNL     1     -13.914   0.324 -34.657  1.00  0.00     0.075 C 
ENDBRANCH   9  13
ENDBRANCH   1   7
BRANCH   4  21
HETATM   21  O   UNL     1      -5.028  -0.874 -34.169  1.00  0.00    -0.292 OA
BRANCH  21  22
HETATM   22  C   UNL     1      -5.166  -2.229 -34.338  1.00  0.00     0.080 A 
HETATM   23  C   UNL     1      -4.130  -3.061 -33.920  1.00  0.00     0.079 A 
HETATM   24  C   UNL     1      -4.282  -4.437 -34.043  1.00  0.00     0.119 A 
HETATM   25  F   UNL     1      -3.289  -5.247 -33.652  1.00  0.00    -0.206 F 
HETATM   26  C   UNL     1      -5.451  -4.990 -34.557  1.00  0.00     0.042 A 
HETATM   27  C   UNL     1      -6.494  -4.152 -34.954  1.00  0.00     0.006 A 
HETATM   28  C   UNL     1      -6.356  -2.769 -34.835  1.00  0.00     0.037 A 
ENDBRANCH  21  22
ENDBRANCH   4  21
TORSDOF 4
ENDMDL
MODEL 3
REMARK VINA RESULT:      -8.6      1.734      2.415
REMARK  4 active torsions:
REMARK  status: ('A' for Active; 'I' for Inactive)
REMARK    1  A    between atoms: C_8  and  N_9 
REMARK       I    between atoms: N_9  and  C_10 
REMARK       I    between atoms: C_10  and  N_11 
REMARK    2  A    between atoms: N_11  and  C_12 
REMARK    3  A    between atoms: C_15  and  O_16 
REMARK    4  A    between atoms: O_16  and  C_17 
ROOT
HETATM    1  C   UNL     1      -9.246   0.785 -33.092  1.00  0.00     0.054 A 
HETATM    2  C   UNL     1      -8.938   0.680 -34.446  1.00  0.00     0.149 A 
HETATM    3  N   UNL     1      -7.774   0.172 -34.926  1.00  0.00    -0.235 NA
HETATM    4  C   UNL     1      -6.872  -0.258 -34.021  1.00  0.00     0.169 A 
HETATM    5  C   UNL     1      -7.087  -0.212 -32.652  1.00  0.00     0.060 A 
HETATM    6  C   UNL     1      -8.291   0.318 -32.186  1.00  0.00     0.035 A 
ENDROOT
BRANCH   1   7
HETATM    7  N   UNL     1     -10.437   1.332 -32.565  1.00  0.00    -0.307 N 
HETATM    8  C   UNL     1     -11.262   2.264 -33.178  1.00  0.00     0.325 C 
HETATM    9  N   UNL     1     -12.322   2.593 -32.353  1.00  0.00    -0.305 N 
HETATM   10  O   UNL     1     -11.069   2.724 -34.293  1.00  0.00    -0.247 OA
HETATM   11  H   UNL     1     -12.554   1.943 -31.620  1.00  0.00     0.171 HD
HETATM   12  H   UNL     1     -10.649   1.101 -31.607  1.00  0.00     0.170 HD
BRANCH   9  13
HETATM   13  C   UNL     1     -13.240   3.612 -32.555  1.00  0.00     0.086 A 
HETATM   14  C   UNL     1     -14.603   3.394 -32.470  1.00  0.00     0.052 A 
HETATM   15  C   UNL     1     -15.411   2.182 -32.193  1.00  0.00     0.072 C 
HETATM   16  N   UNL     1     -15.192   4.600 -32.719  1.00  0.00    -0.280 N 
HETATM   17  H   UNL     1     -16.181   4.822 -32.752  1.00  0.00     0.189 HD
HETATM   18  N   UNL     1     -14.324   5.592 -32.929  1.00  0.00    -0.177 NA
HETATM   19  C   UNL     1     -13.120   5.009 -32.827  1.00  0.00     0.079 A 
HETATM   20  C   UNL     1     -11.917   5.869 -32.966  1.00  0.00     0.075 C 
ENDBRANCH   9  13
ENDBRANCH   1   7
BRANCH   4  21
HETATM   21  O   UNL     1      -5.646  -0.775 -34.429  1.00  0.00    -0.292 OA
BRANCH  21  22
HETATM   22  C   UNL     1      -5.551  -2.143 -34.504  1.00  0.00     0.080 A 
HETATM   23  C   UNL     1      -4.355  -2.749 -34.129  1.00  0.00     0.079 A 
HETATM   24  C   UNL     1      -4.267  -4.136 -34.155  1.00  0.00     0.119 A 
HETATM   25  F   UNL     1      -3.119  -4.730 -33.805  1.00  0.00    -0.206 F 
HETATM   26  C   UNL     1      -5.354  -4.920 -34.532  1.00  0.00     0.042 A 
HETATM   27  C   UNL     1      -6.557  -4.308 -34.886  1.00  0.00     0.006 A 
HETATM   28  C   UNL     1      -6.660  -2.916 -34.863  1.00  0.00     0.037 A 
ENDBRANCH  21  22
ENDBRANCH   4  21
TORSDOF 4
ENDMDL
MODEL 4
REMARK VINA RESULT:      -8.6      1.160      2.034
REMARK  4 active torsions:
REMARK  status: ('A' for Active; 'I' for Inactive)
REMARK    1  A    between atoms: C_8  and  N_9 
REMARK       I    between atoms: N_9  and  C_10 
REMARK       I    between atoms: C_10  and  N_11 
REMARK    2  A    between atoms: N_11  and  C_12 
REMARK    3  A    between atoms: C_15  and  O_16 
REMARK    4  A    between atoms: O_16  and  C_17 
ROOT
HETATM    1  C   UNL     1      -8.653   0.552 -34.262  1.00  0.00     0.054 A 
HETATM    2  C   UNL     1      -8.219   0.051 -33.038  1.00  0.00     0.149 A 
HETATM    3  N   UNL     1      -6.991  -0.491 -32.827  1.00  0.00    -0.235 NA
HETATM    4  C   UNL     1      -6.150  -0.534 -33.880  1.00  0.00     0.169 A 
HETATM    5  C   UNL     1      -6.478  -0.049 -35.136  1.00  0.00     0.060 A 
HETATM    6  C   UNL     1      -7.748   0.500 -35.326  1.00  0.00     0.035 A 
ENDROOT
BRANCH   1   7
HETATM    7  N   UNL     1      -9.930   1.097 -34.515  1.00  0.00    -0.307 N 
HETATM    8  C   UNL     1     -10.697   1.851 -33.639  1.00  0.00     0.325 C 
HETATM    9  N   UNL     1     -11.908   2.188 -34.216  1.00  0.00    -0.305 N 
HETATM   10  O   UNL     1     -10.343   2.167 -32.513  1.00  0.00    -0.247 OA
HETATM   11  H   UNL     1     -11.964   2.153 -35.221  1.00  0.00     0.171 HD
HETATM   12  H   UNL     1     -10.371   0.821 -35.379  1.00  0.00     0.170 HD
BRANCH   9  13
HETATM   13  C   UNL     1     -12.991   2.777 -33.581  1.00  0.00     0.086 A 
HETATM   14  C   UNL     1     -14.197   2.117 -33.435  1.00  0.00     0.052 A 
HETATM   15  C   UNL     1     -14.666   0.776 -33.857  1.00  0.00     0.072 C 
HETATM   16  N   UNL     1     -15.019   2.982 -32.771  1.00  0.00    -0.280 N 
HETATM   17  H   UNL     1     -15.986   2.846 -32.497  1.00  0.00     0.189 HD
HETATM   18  N   UNL     1     -14.437   4.139 -32.446  1.00  0.00    -0.177 NA
HETATM   19  C   UNL     1     -13.189   4.031 -32.929  1.00  0.00     0.079 A 
HETATM   20  C   UNL     1     -12.251   5.157 -32.687  1.00  0.00     0.075 C 
ENDBRANCH   9  13
ENDBRANCH   1   7
BRANCH   4  21
HETATM   21  O   UNL     1      -4.880  -1.091 -33.753  1.00  0.00    -0.292 OA
BRANCH  21  22
HETATM   22  C   UNL     1      -4.792  -2.454 -33.887  1.00  0.00     0.080 A 
HETATM   23  C   UNL     1      -5.737  -3.108 -34.675  1.00  0.00     0.079 A 
HETATM   24  C   UNL     1      -5.626  -4.482 -34.855  1.00  0.00     0.119 A 
HETATM   25  F   UNL     1      -6.534  -5.123 -35.604  1.00  0.00    -0.206 F 
HETATM   26  C   UNL     1      -4.585  -5.203 -34.278  1.00  0.00     0.042 A 
HETATM   27  C   UNL     1      -3.630  -4.539 -33.508  1.00  0.00     0.006 A 
HETATM   28  C   UNL     1      -3.727  -3.160 -33.320  1.00  0.00     0.037 A 
ENDBRANCH  21  22
ENDBRANCH   4  21
TORSDOF 4
ENDMDL
MODEL 5
REMARK VINA RESULT:      -8.5      1.971      2.473
REMARK  4 active torsions:
REMARK  status: ('A' for Active; 'I' for Inactive)
REMARK    1  A    between atoms: C_8  and  N_9 
REMARK       I    between atoms: N_9  and  C_10 
REMARK       I    between atoms: C_10  and  N_11 
REMARK    2  A    between atoms: N_11  and  C_12 
REMARK    3  A    between atoms: C_15  and  O_16 
REMARK    4  A    between atoms: O_16  and  C_17 
ROOT
HETATM    1  C   UNL     1      -9.037   0.691 -33.163  1.00  0.00     0.054 A 
HETATM    2  C   UNL     1      -8.119   0.284 -32.198  1.00  0.00     0.149 A 
HETATM    3  N   UNL     1      -6.902  -0.250 -32.478  1.00  0.00    -0.235 NA
HETATM    4  C   UNL     1      -6.576  -0.383 -33.780  1.00  0.00     0.169 A 
HETATM    5  C   UNL     1      -7.410   0.004 -34.817  1.00  0.00     0.060 A 
HETATM    6  C   UNL     1      -8.656   0.547 -34.500  1.00  0.00     0.035 A 
ENDROOT
BRANCH   1   7
HETATM    7  N   UNL     1     -10.317   1.225 -32.900  1.00  0.00    -0.307 N 
HETATM    8  C   UNL     1     -10.770   2.493 -33.234  1.00  0.00     0.325 C 
HETATM    9  N   UNL     1     -12.066   2.679 -32.790  1.00  0.00    -0.305 N 
HETATM   10  O   UNL     1     -10.107   3.323 -33.836  1.00  0.00    -0.247 OA
HETATM   11  H   UNL     1     -12.610   1.854 -32.598  1.00  0.00     0.171 HD
HETATM   12  H   UNL     1     -10.923   0.667 -32.319  1.00  0.00     0.170 HD
BRANCH   9  13
HETATM   13  C   UNL     1     -12.774   3.872 -32.785  1.00  0.00     0.086 A 
HETATM   14  C   UNL     1     -13.232   4.443 -31.612  1.00  0.00     0.052 A 
HETATM   15  C   UNL     1     -13.146   4.027 -30.192  1.00  0.00     0.072 C 
HETATM   16  N   UNL     1     -13.872   5.592 -31.980  1.00  0.00    -0.280 N 
HETATM   17  H   UNL     1     -14.344   6.266 -31.387  1.00  0.00     0.189 HD
HETATM   18  N   UNL     1     -13.841   5.831 -33.293  1.00  0.00    -0.177 NA
HETATM   19  C   UNL     1     -13.166   4.790 -33.805  1.00  0.00     0.079 A 
HETATM   20  C   UNL     1     -12.915   4.778 -35.269  1.00  0.00     0.075 C 
ENDBRANCH   9  13
ENDBRANCH   1   7
BRANCH   4  21
HETATM   21  O   UNL     1      -5.355  -0.939 -34.153  1.00  0.00    -0.292 OA
BRANCH  21  22
HETATM   22  C   UNL     1      -5.329  -2.301 -34.326  1.00  0.00     0.080 A 
HETATM   23  C   UNL     1      -4.185  -2.998 -33.943  1.00  0.00     0.079 A 
HETATM   24  C   UNL     1      -4.169  -4.382 -34.069  1.00  0.00     0.119 A 
HETATM   25  F   UNL     1      -3.072  -5.063 -33.711  1.00  0.00    -0.206 F 
HETATM   26  C   UNL     1      -5.275  -5.075 -34.552  1.00  0.00     0.042 A 
HETATM   27  C   UNL     1      -6.425  -4.373 -34.914  1.00  0.00     0.006 A 
HETATM   28  C   UNL     1      -6.456  -2.983 -34.792  1.00  0.00     0.037 A 
ENDBRANCH  21  22
ENDBRANCH   4  21
TORSDOF 4
ENDMDL
MODEL 6
REMARK VINA RESULT:      -8.4      5.649      8.643
REMARK  4 active torsions:
REMARK  status: ('A' for Active; 'I' for Inactive)
REMARK    1  A    between atoms: C_8  and  N_9 
REMARK       I    between atoms: N_9  and  C_10 
REMARK       I    between atoms: C_10  and  N_11 
REMARK    2  A    between atoms: N_11  and  C_12 
REMARK    3  A    between atoms: C_15  and  O_16 
REMARK    4  A    between atoms: O_16  and  C_17 
ROOT
HETATM    1  C   UNL     1      -4.666   2.194 -31.496  1.00  0.00     0.054 A 
HETATM    2  C   UNL     1      -4.882   0.980 -30.848  1.00  0.00     0.149 A 
HETATM    3  N   UNL     1      -5.628  -0.034 -31.358  1.00  0.00    -0.235 NA
HETATM    4  C   UNL     1      -6.182   0.161 -32.573  1.00  0.00     0.169 A 
HETATM    5  C   UNL     1      -6.015   1.325 -33.306  1.00  0.00     0.060 A 
HETATM    6  C   UNL     1      -5.246   2.353 -32.757  1.00  0.00     0.035 A 
ENDROOT
BRANCH   1   7
HETATM    7  N   UNL     1      -3.917   3.273 -30.978  1.00  0.00    -0.307 N 
HETATM    8  C   UNL     1      -2.899   3.960 -31.623  1.00  0.00     0.325 C 
HETATM    9  N   UNL     1      -2.372   4.937 -30.799  1.00  0.00    -0.305 N 
HETATM   10  O   UNL     1      -2.527   3.726 -32.763  1.00  0.00    -0.247 OA
HETATM   11  H   UNL     1      -2.942   5.248 -30.030  1.00  0.00     0.171 HD
HETATM   12  H   UNL     1      -4.067   3.496 -30.006  1.00  0.00     0.170 HD
BRANCH   9  13
HETATM   13  C   UNL     1      -1.233   5.692 -31.037  1.00  0.00     0.086 A 
HETATM   14  C   UNL     1      -1.253   6.801 -31.864  1.00  0.00     0.052 A 
HETATM   15  C   UNL     1      -2.327   7.440 -32.661  1.00  0.00     0.072 C 
HETATM   16  N   UNL     1       0.021   7.291 -31.864  1.00  0.00    -0.280 N 
HETATM   17  H   UNL     1       0.387   8.092 -32.367  1.00  0.00     0.189 HD
HETATM   18  N   UNL     1       0.862   6.611 -31.080  1.00  0.00    -0.177 NA
HETATM   19  C   UNL     1       0.110   5.630 -30.558  1.00  0.00     0.079 A 
HETATM   20  C   UNL     1       0.751   4.706 -29.587  1.00  0.00     0.075 C 
ENDBRANCH   9  13
ENDBRANCH   1   7
BRANCH   4  21
HETATM   21  O   UNL     1      -6.975  -0.821 -33.158  1.00  0.00    -0.292 OA
BRANCH  21  22
HETATM   22  C   UNL     1      -6.316  -1.877 -33.737  1.00  0.00     0.080 A 
HETATM   23  C   UNL     1      -7.064  -2.842 -34.408  1.00  0.00     0.079 A 
HETATM   24  C   UNL     1      -6.401  -3.888 -35.038  1.00  0.00     0.119 A 
HETATM   25  F   UNL     1      -7.111  -4.826 -35.680  1.00  0.00    -0.206 F 
HETATM   26  C   UNL     1      -5.012  -3.974 -35.022  1.00  0.00     0.042 A 
HETATM   27  C   UNL     1      -4.267  -2.994 -34.367  1.00  0.00     0.006 A 
HETATM   28  C   UNL     1      -4.920  -1.937 -33.730  1.00  0.00     0.037 A 
ENDBRANCH  21  22
ENDBRANCH   4  21
TORSDOF 4
ENDMDL
MODEL 7
REMARK VINA RESULT:      -8.0      5.931      8.009
REMARK  4 active torsions:
REMARK  status: ('A' for Active; 'I' for Inactive)
REMARK    1  A    between atoms: C_8  and  N_9 
REMARK       I    between atoms: N_9  and  C_10 
REMARK       I    between atoms: C_10  and  N_11 
REMARK    2  A    between atoms: N_11  and  C_12 
REMARK    3  A    between atoms: C_15  and  O_16 
REMARK    4  A    between atoms: O_16  and  C_17 
ROOT
HETATM    1  C   UNL     1      -4.595   2.729 -31.492  1.00  0.00     0.054 A 
HETATM    2  C   UNL     1      -4.844   2.466 -32.836  1.00  0.00     0.149 A 
HETATM    3  N   UNL     1      -5.606   1.434 -33.284  1.00  0.00    -0.235 NA
HETATM    4  C   UNL     1      -6.153   0.626 -32.352  1.00  0.00     0.169 A 
HETATM    5  C   UNL     1      -5.979   0.810 -30.990  1.00  0.00     0.060 A 
HETATM    6  C   UNL     1      -5.189   1.876 -30.558  1.00  0.00     0.035 A 
ENDROOT
BRANCH   1   7
HETATM    7  N   UNL     1      -3.787   3.777 -31.001  1.00  0.00    -0.307 N 
HETATM    8  C   UNL     1      -3.902   5.125 -31.308  1.00  0.00     0.325 C 
HETATM    9  N   UNL     1      -2.920   5.858 -30.667  1.00  0.00    -0.305 N 
HETATM   10  O   UNL     1      -4.758   5.591 -32.046  1.00  0.00    -0.247 OA
HETATM   11  H   UNL     1      -2.485   5.437 -29.862  1.00  0.00     0.171 HD
HETATM   12  H   UNL     1      -2.983   3.506 -30.457  1.00  0.00     0.170 HD
BRANCH   9  13
HETATM   13  C   UNL     1      -2.617   7.194 -30.877  1.00  0.00     0.086 A 
HETATM   14  C   UNL     1      -2.691   8.128 -29.859  1.00  0.00     0.052 A 
HETATM   15  C   UNL     1      -3.076   8.027 -28.431  1.00  0.00     0.072 C 
HETATM   16  N   UNL     1      -2.327   9.319 -30.416  1.00  0.00    -0.280 N 
HETATM   17  H   UNL     1      -2.274  10.230 -29.973  1.00  0.00     0.189 HD
HETATM   18  N   UNL     1      -1.991   9.233 -31.705  1.00  0.00    -0.177 NA
HETATM   19  C   UNL     1      -2.156   7.936 -32.006  1.00  0.00     0.079 A 
HETATM   20  C   UNL     1      -1.816   7.493 -33.383  1.00  0.00     0.075 C 
ENDBRANCH   9  13
ENDBRANCH   1   7
BRANCH   4  21
HETATM   21  O   UNL     1      -6.931  -0.465 -32.728  1.00  0.00    -0.292 OA
BRANCH  21  22
HETATM   22  C   UNL     1      -6.277  -1.502 -33.346  1.00  0.00     0.080 A 
HETATM   23  C   UNL     1      -7.013  -2.365 -34.156  1.00  0.00     0.079 A 
HETATM   24  C   UNL     1      -6.349  -3.387 -34.824  1.00  0.00     0.119 A 
HETATM   25  F   UNL     1      -7.047  -4.228 -35.599  1.00  0.00    -0.206 F 
HETATM   26  C   UNL     1      -4.972  -3.548 -34.709  1.00  0.00     0.042 A 
HETATM   27  C   UNL     1      -4.238  -2.668 -33.914  1.00  0.00     0.006 A 
HETATM   28  C   UNL     1      -4.890  -1.635 -33.238  1.00  0.00     0.037 A 
ENDBRANCH  21  22
ENDBRANCH   4  21
TORSDOF 4
ENDMDL
MODEL 8
REMARK VINA RESULT:      -7.9      7.941      9.582
REMARK  4 active torsions:
REMARK  status: ('A' for Active; 'I' for Inactive)
REMARK    1  A    between atoms: C_8  and  N_9 
REMARK       I    between atoms: N_9  and  C_10 
REMARK       I    between atoms: C_10  and  N_11 
REMARK    2  A    between atoms: N_11  and  C_12 
REMARK    3  A    between atoms: C_15  and  O_16 
REMARK    4  A    between atoms: O_16  and  C_17 
ROOT
HETATM    1  C   UNL     1      -3.440   5.039 -31.484  1.00  0.00     0.054 A 
HETATM    2  C   UNL     1      -2.264   4.295 -31.550  1.00  0.00     0.149 A 
HETATM    3  N   UNL     1      -1.041   4.768 -31.194  1.00  0.00    -0.235 NA
HETATM    4  C   UNL     1      -0.981   6.038 -30.744  1.00  0.00     0.169 A 
HETATM    5  C   UNL     1      -2.093   6.856 -30.625  1.00  0.00     0.060 A 
HETATM    6  C   UNL     1      -3.337   6.346 -31.001  1.00  0.00     0.035 A 
ENDROOT
BRANCH   1   7
HETATM    7  N   UNL     1      -4.718   4.582 -31.872  1.00  0.00    -0.307 N 
HETATM    8  C   UNL     1      -5.488   3.627 -31.223  1.00  0.00     0.325 C 
HETATM    9  N   UNL     1      -6.671   3.409 -31.906  1.00  0.00    -0.305 N 
HETATM   10  O   UNL     1      -5.157   3.063 -30.191  1.00  0.00    -0.247 OA
HETATM   11  H   UNL     1      -6.975   4.129 -32.540  1.00  0.00     0.171 HD
HETATM   12  H   UNL     1      -5.056   4.904 -32.765  1.00  0.00     0.170 HD
BRANCH   9  13
HETATM   13  C   UNL     1      -7.596   2.407 -31.655  1.00  0.00     0.086 A 
HETATM   14  C   UNL     1      -8.789   2.662 -31.003  1.00  0.00     0.052 A 
HETATM   15  C   UNL     1      -9.376   3.897 -30.430  1.00  0.00     0.072 C 
HETATM   16  N   UNL     1      -9.441   1.465 -30.934  1.00  0.00    -0.280 N 
HETATM   17  H   UNL     1     -10.342   1.264 -30.515  1.00  0.00     0.189 HD
HETATM   18  N   UNL     1      -8.785   0.458 -31.515  1.00  0.00    -0.177 NA
HETATM   19  C   UNL     1      -7.653   1.016 -31.970  1.00  0.00     0.079 A 
HETATM   20  C   UNL     1      -6.706   0.153 -32.721  1.00  0.00     0.075 C 
ENDBRANCH   9  13
ENDBRANCH   1   7
BRANCH   4  21
HETATM   21  O   UNL     1       0.236   6.604 -30.376  1.00  0.00    -0.292 OA
BRANCH  21  22
HETATM   22  C   UNL     1       0.387   6.924 -29.049  1.00  0.00     0.080 A 
HETATM   23  C   UNL     1      -0.146   6.065 -28.092  1.00  0.00     0.079 A 
HETATM   24  C   UNL     1       0.045   6.356 -26.746  1.00  0.00     0.119 A 
HETATM   25  F   UNL     1      -0.471   5.541 -25.816  1.00  0.00    -0.206 F 
HETATM   26  C   UNL     1       0.769   7.476 -26.347  1.00  0.00     0.042 A 
HETATM   27  C   UNL     1       1.319   8.322 -27.311  1.00  0.00     0.006 A 
HETATM   28  C   UNL     1       1.136   8.041 -28.665  1.00  0.00     0.037 A 
ENDBRANCH  21  22
ENDBRANCH   4  21
TORSDOF 4
ENDMDL
MODEL 9
REMARK VINA RESULT:      -7.9      5.379      6.826
REMARK  4 active torsions:
REMARK  status: ('A' for Active; 'I' for Inactive)
REMARK    1  A    between atoms: C_8  and  N_9 
REMARK       I    between atoms: N_9  and  C_10 
REMARK       I    between atoms: C_10  and  N_11 
REMARK    2  A    between atoms: N_11  and  C_12 
REMARK    3  A    between atoms: C_15  and  O_16 
REMARK    4  A    between atoms: O_16  and  C_17 
ROOT
HETATM    1  C   UNL     1      -5.121   1.964 -30.492  1.00  0.00     0.054 A 
HETATM    2  C   UNL     1      -5.971   0.892 -30.753  1.00  0.00     0.149 A 
HETATM    3  N   UNL     1      -5.839   0.055 -31.815  1.00  0.00    -0.235 NA
HETATM    4  C   UNL     1      -4.811   0.289 -32.656  1.00  0.00     0.169 A 
HETATM    5  C   UNL     1      -3.901   1.318 -32.477  1.00  0.00     0.060 A 
HETATM    6  C   UNL     1      -4.062   2.165 -31.380  1.00  0.00     0.035 A 
ENDROOT
BRANCH   1   7
HETATM    7  N   UNL     1      -5.251   2.864 -29.411  1.00  0.00    -0.307 N 
HETATM    8  C   UNL     1      -5.804   4.136 -29.454  1.00  0.00     0.325 C 
HETATM    9  N   UNL     1      -5.734   4.740 -28.212  1.00  0.00    -0.305 N 
HETATM   10  O   UNL     1      -6.285   4.642 -30.457  1.00  0.00    -0.247 OA
HETATM   11  H   UNL     1      -5.617   4.138 -27.413  1.00  0.00     0.171 HD
HETATM   12  H   UNL     1      -4.801   2.596 -28.550  1.00  0.00     0.170 HD
BRANCH   9  13
HETATM   13  C   UNL     1      -6.022   6.065 -27.921  1.00  0.00     0.086 A 
HETATM   14  C   UNL     1      -5.053   6.936 -27.458  1.00  0.00     0.052 A 
HETATM   15  C   UNL     1      -3.613   6.766 -27.151  1.00  0.00     0.072 C 
HETATM   16  N   UNL     1      -5.681   8.136 -27.283  1.00  0.00    -0.280 N 
HETATM   17  H   UNL     1      -5.289   9.008 -26.945  1.00  0.00     0.189 HD
HETATM   18  N   UNL     1      -6.972   8.125 -27.624  1.00  0.00    -0.177 NA
HETATM   19  C   UNL     1      -7.200   6.864 -28.025  1.00  0.00     0.079 A 
HETATM   20  C   UNL     1      -8.559   6.528 -28.521  1.00  0.00     0.075 C 
ENDBRANCH   9  13
ENDBRANCH   1   7
BRANCH   4  21
HETATM   21  O   UNL     1      -4.616  -0.511 -33.778  1.00  0.00    -0.292 OA
BRANCH  21  22
HETATM   22  C   UNL     1      -4.214  -1.804 -33.548  1.00  0.00     0.080 A 
HETATM   23  C   UNL     1      -3.519  -2.086 -32.374  1.00  0.00     0.079 A 
HETATM   24  C   UNL     1      -3.152  -3.400 -32.110  1.00  0.00     0.119 A 
HETATM   25  F   UNL     1      -2.476  -3.682 -30.988  1.00  0.00    -0.206 F 
HETATM   26  C   UNL     1      -3.480  -4.430 -32.987  1.00  0.00     0.042 A 
HETATM   27  C   UNL     1      -4.194  -4.145 -34.150  1.00  0.00     0.006 A 
HETATM   28  C   UNL     1      -4.572  -2.830 -34.427  1.00  0.00     0.037 A 
ENDBRANCH  21  22
ENDBRANCH   4  21
TORSDOF 4
ENDMDL
MODEL 10
REMARK VINA RESULT:      -7.8      7.236      8.923
REMARK  4 active torsions:
REMARK  status: ('A' for Active; 'I' for Inactive)
REMARK    1  A    between atoms: C_8  and  N_9 
REMARK       I    between atoms: N_9  and  C_10 
REMARK       I    between atoms: C_10  and  N_11 
REMARK    2  A    between atoms: N_11  and  C_12 
REMARK    3  A    between atoms: C_15  and  O_16 
REMARK    4  A    between atoms: O_16  and  C_17 
ROOT
HETATM    1  C   UNL     1      -4.055   5.037 -33.424  1.00  0.00     0.054 A 
HETATM    2  C   UNL     1      -3.974   6.212 -32.680  1.00  0.00     0.149 A 
HETATM    3  N   UNL     1      -2.808   6.803 -32.312  1.00  0.00    -0.235 NA
HETATM    4  C   UNL     1      -1.665   6.205 -32.705  1.00  0.00     0.169 A 
HETATM    5  C   UNL     1      -1.636   5.043 -33.461  1.00  0.00     0.060 A 
HETATM    6  C   UNL     1      -2.849   4.455 -33.822  1.00  0.00     0.035 A 
ENDROOT
BRANCH   1   7
HETATM    7  N   UNL     1      -5.252   4.388 -33.798  1.00  0.00    -0.307 N 
HETATM    8  C   UNL     1      -5.951   3.449 -33.055  1.00  0.00     0.325 C 
HETATM    9  N   UNL     1      -7.061   3.006 -33.750  1.00  0.00    -0.305 N 
HETATM   10  O   UNL     1      -5.622   3.071 -31.940  1.00  0.00    -0.247 OA
HETATM   11  H   UNL     1      -7.404   3.594 -34.492  1.00  0.00     0.171 HD
HETATM   12  H   UNL     1      -5.570   4.546 -34.741  1.00  0.00     0.170 HD
BRANCH   9  13
HETATM   13  C   UNL     1      -7.887   1.947 -33.400  1.00  0.00     0.086 A 
HETATM   14  C   UNL     1      -7.913   0.772 -34.129  1.00  0.00     0.052 A 
HETATM   15  C   UNL     1      -7.192   0.329 -35.346  1.00  0.00     0.072 C 
HETATM   16  N   UNL     1      -8.822  -0.034 -33.507  1.00  0.00    -0.280 N 
HETATM   17  H   UNL     1      -9.112  -0.971 -33.765  1.00  0.00     0.189 HD
HETATM   18  N   UNL     1      -9.366   0.507 -32.415  1.00  0.00    -0.177 NA
HETATM   19  C   UNL     1      -8.801   1.722 -32.328  1.00  0.00     0.079 A 
HETATM   20  C   UNL     1      -9.168   2.577 -31.171  1.00  0.00     0.075 C 
ENDBRANCH   9  13
ENDBRANCH   1   7
BRANCH   4  21
HETATM   21  O   UNL     1      -0.427   6.736 -32.354  1.00  0.00    -0.292 OA
BRANCH  21  22
HETATM   22  C   UNL     1       0.003   6.494 -31.073  1.00  0.00     0.080 A 
HETATM   23  C   UNL     1      -0.020   7.540 -30.154  1.00  0.00     0.079 A 
HETATM   24  C   UNL     1       0.368   7.291 -28.843  1.00  0.00     0.119 A 
HETATM   25  F   UNL     1       0.358   8.292 -27.952  1.00  0.00    -0.206 F 
HETATM   26  C   UNL     1       0.759   6.019 -28.436  1.00  0.00     0.042 A 
HETATM   27  C   UNL     1       0.759   4.970 -29.356  1.00  0.00     0.006 A 
HETATM   28  C   UNL     1       0.371   5.205 -30.676  1.00  0.00     0.037 A 
ENDBRANCH  21  22
ENDBRANCH   4  21
TORSDOF 4
ENDMDL
