MODEL 1
REMARK VINA RESULT:      -8.2      0.000      0.000
REMARK  7 active torsions:
REMARK  status: ('A' for Active; 'I' for Inactive)
REMARK    1  A    between atoms: C_2  and  N_3 
REMARK       I    between atoms: N_3  and  C_4 
REMARK    2  A    between atoms: C_4  and  C_5 
REMARK    3  A    between atoms: C_9  and  N_10 
REMARK       I    between atoms: N_10  and  C_11 
REMARK    4  A    between atoms: C_11  and  C_12 
REMARK    5  A    between atoms: C_12  and  S_13 
REMARK    6  A    between atoms: S_13  and  C_14 
REMARK    7  A    between atoms: C_14  and  C_15 
ROOT
HETATM    1  N   UNL     1      -7.146   2.019 -32.530  1.00  0.00    -0.326 N 
HETATM    2  C   UNL     1      -6.687   2.380 -31.270  1.00  0.00     0.231 C 
HETATM    3  O   UNL     1      -7.374   2.536 -30.263  1.00  0.00    -0.272 OA
HETATM    4  H   UNL     1      -6.432   1.778 -33.217  1.00  0.00     0.169 HD
ENDROOT
BRANCH   2   5
HETATM    5  C   UNL     1      -5.179   2.575 -31.204  1.00  0.00     0.177 C 
BRANCH   5   6
HETATM    6  S   UNL     1      -4.322   1.619 -32.505  1.00  0.00    -0.147 SA
BRANCH   6   7
HETATM    7  C   UNL     1      -4.115   0.019 -31.634  1.00  0.00     0.113 C 
HETATM    8  C   UNL     1      -2.668  -0.125 -31.167  1.00  0.00     0.029 C 
BRANCH   7   9
HETATM    9  C   UNL     1      -4.539  -1.104 -32.532  1.00  0.00     0.118 A 
HETATM   10  N   UNL     1      -3.853  -2.205 -32.782  1.00  0.00    -0.232 NA
HETATM   11  C   UNL     1      -4.647  -2.950 -33.624  1.00  0.00     0.085 A 
HETATM   12  C   UNL     1      -5.863  -2.316 -33.849  1.00  0.00     0.062 A 
HETATM   13  C   UNL     1      -4.401  -4.191 -34.231  1.00  0.00     0.034 A 
HETATM   14  N   UNL     1      -5.774  -1.150 -33.138  1.00  0.00    -0.342 N 
HETATM   15  C   UNL     1      -6.876  -2.857 -34.642  1.00  0.00     0.032 A 
HETATM   16  H   UNL     1      -6.499  -0.452 -33.051  1.00  0.00     0.167 HD
HETATM   17  C   UNL     1      -6.615  -4.096 -35.237  1.00  0.00     0.002 A 
HETATM   18  C   UNL     1      -5.398  -4.753 -35.039  1.00  0.00     0.002 A 
ENDBRANCH   7   9
ENDBRANCH   6   7
ENDBRANCH   5   6
ENDBRANCH   2   5
BRANCH   1  19
HETATM   19  C   UNL     1      -8.496   1.849 -32.935  1.00  0.00     0.040 A 
HETATM   20  C   UNL     1      -9.174   2.926 -33.548  1.00  0.00    -0.034 A 
HETATM   21  C   UNL     1     -10.507   2.760 -33.980  1.00  0.00     0.026 A 
HETATM   22  C   UNL     1      -8.523   4.262 -33.788  1.00  0.00     0.050 C 
HETATM   23  C   UNL     1     -11.175   1.545 -33.800  1.00  0.00     0.032 A 
HETATM   24  C   UNL     1     -10.518   0.499 -33.157  1.00  0.00     0.019 A 
HETATM   25  C   UNL     1      -9.193   0.650 -32.733  1.00  0.00     0.031 A 
BRANCH  23  26
HETATM   26  C   UNL     1     -12.577   1.332 -34.255  1.00  0.00     0.251 C 
HETATM   27  N   UNL     1     -13.532   1.221 -33.262  1.00  0.00    -0.357 N 
HETATM   28  H   UNL     1     -13.281   1.458 -32.313  1.00  0.00     0.162 HD
HETATM   29  O   UNL     1     -12.841   1.302 -35.452  1.00  0.00    -0.268 OA
BRANCH  27  30
HETATM   30  C   UNL     1     -14.941   1.129 -33.580  1.00  0.00     0.118 C 
HETATM   31  C   UNL     1     -15.781   1.961 -32.628  1.00  0.00     0.026 C 
ENDBRANCH  27  30
ENDBRANCH  23  26
ENDBRANCH   1  19
TORSDOF 7
ENDMDL
MODEL 2
REMARK VINA RESULT:      -8.2      2.698      7.583
REMARK  7 active torsions:
REMARK  status: ('A' for Active; 'I' for Inactive)
REMARK    1  A    between atoms: C_2  and  N_3 
REMARK       I    between atoms: N_3  and  C_4 
REMARK    2  A    between atoms: C_4  and  C_5 
REMARK    3  A    between atoms: C_9  and  N_10 
REMARK       I    between atoms: N_10  and  C_11 
REMARK    4  A    between atoms: C_11  and  C_12 
REMARK    5  A    between atoms: C_12  and  S_13 
REMARK    6  A    between atoms: S_13  and  C_14 
REMARK    7  A    between atoms: C_14  and  C_15 
ROOT
HETATM    1  N   UNL     1      -7.648   2.689 -33.423  1.00  0.00    -0.326 N 
HETATM    2  C   UNL     1      -6.987   3.848 -33.809  1.00  0.00     0.231 C 
HETATM    3  O   UNL     1      -5.997   3.913 -34.533  1.00  0.00    -0.272 OA
HETATM    4  H   UNL     1      -8.542   2.816 -32.952  1.00  0.00     0.169 HD
ENDROOT
BRANCH   2   5
HETATM    5  C   UNL     1      -7.611   5.119 -33.252  1.00  0.00     0.177 C 
BRANCH   5   6
HETATM    6  S   UNL     1      -9.226   5.470 -34.033  1.00  0.00    -0.147 SA
BRANCH   6   7
HETATM    7  C   UNL     1     -10.340   5.139 -32.615  1.00  0.00     0.113 C 
HETATM    8  C   UNL     1      -9.511   4.972 -31.343  1.00  0.00     0.029 C 
BRANCH   7   9
HETATM    9  C   UNL     1     -11.186   3.936 -32.907  1.00  0.00     0.118 A 
HETATM   10  N   UNL     1     -10.746   2.723 -33.192  1.00  0.00    -0.232 NA
HETATM   11  C   UNL     1     -11.874   1.949 -33.345  1.00  0.00     0.085 A 
HETATM   12  C   UNL     1     -13.022   2.692 -33.096  1.00  0.00     0.062 A 
HETATM   13  C   UNL     1     -11.998   0.594 -33.686  1.00  0.00     0.034 A 
HETATM   14  N   UNL     1     -12.559   3.948 -32.811  1.00  0.00    -0.342 N 
HETATM   15  C   UNL     1     -14.310   2.156 -33.151  1.00  0.00     0.032 A 
HETATM   16  H   UNL     1     -13.124   4.743 -32.551  1.00  0.00     0.167 HD
HETATM   17  C   UNL     1     -14.414   0.803 -33.490  1.00  0.00     0.002 A 
HETATM   18  C   UNL     1     -13.280   0.033 -33.757  1.00  0.00     0.002 A 
ENDBRANCH   7   9
ENDBRANCH   6   7
ENDBRANCH   5   6
ENDBRANCH   2   5
BRANCH   1  19
HETATM   19  C   UNL     1      -7.266   1.350 -33.703  1.00  0.00     0.040 A 
HETATM   20  C   UNL     1      -6.666   0.576 -32.685  1.00  0.00    -0.034 A 
HETATM   21  C   UNL     1      -6.307  -0.765 -32.943  1.00  0.00     0.026 A 
HETATM   22  C   UNL     1      -6.405   1.115 -31.303  1.00  0.00     0.050 C 
HETATM   23  C   UNL     1      -6.528  -1.338 -34.199  1.00  0.00     0.032 A 
HETATM   24  C   UNL     1      -7.080  -0.560 -35.213  1.00  0.00     0.019 A 
HETATM   25  C   UNL     1      -7.447   0.768 -34.964  1.00  0.00     0.031 A 
BRANCH  23  26
HETATM   26  C   UNL     1      -6.173  -2.753 -34.501  1.00  0.00     0.251 C 
HETATM   27  N   UNL     1      -4.885  -3.141 -34.188  1.00  0.00    -0.357 N 
HETATM   28  H   UNL     1      -4.312  -2.528 -33.624  1.00  0.00     0.162 HD
HETATM   29  O   UNL     1      -7.014  -3.515 -34.965  1.00  0.00    -0.268 OA
BRANCH  27  30
HETATM   30  C   UNL     1      -4.458  -4.517 -34.326  1.00  0.00     0.118 C 
HETATM   31  C   UNL     1      -3.310  -4.840 -33.386  1.00  0.00     0.026 C 
ENDBRANCH  27  30
ENDBRANCH  23  26
ENDBRANCH   1  19
TORSDOF 7
ENDMDL
MODEL 3
REMARK VINA RESULT:      -8.1      4.106      8.170
REMARK  7 active torsions:
REMARK  status: ('A' for Active; 'I' for Inactive)
REMARK    1  A    between atoms: C_2  and  N_3 
REMARK       I    between atoms: N_3  and  C_4 
REMARK    2  A    between atoms: C_4  and  C_5 
REMARK    3  A    between atoms: C_9  and  N_10 
REMARK       I    between atoms: N_10  and  C_11 
REMARK    4  A    between atoms: C_11  and  C_12 
REMARK    5  A    between atoms: C_12  and  S_13 
REMARK    6  A    between atoms: S_13  and  C_14 
REMARK    7  A    between atoms: C_14  and  C_15 
ROOT
HETATM    1  N   UNL     1      -7.386   2.850 -33.372  1.00  0.00    -0.326 N 
HETATM    2  C   UNL     1      -6.733   3.986 -33.832  1.00  0.00     0.231 C 
HETATM    3  O   UNL     1      -5.810   4.016 -34.641  1.00  0.00    -0.272 OA
HETATM    4  H   UNL     1      -8.232   3.007 -32.825  1.00  0.00     0.169 HD
ENDROOT
BRANCH   2   5
HETATM    5  C   UNL     1      -7.274   5.280 -33.240  1.00  0.00     0.177 C 
BRANCH   5   6
HETATM    6  S   UNL     1      -5.930   6.322 -32.569  1.00  0.00    -0.147 SA
BRANCH   6   7
HETATM    7  C   UNL     1      -5.100   5.101 -31.481  1.00  0.00     0.113 C 
HETATM    8  C   UNL     1      -5.896   4.945 -30.187  1.00  0.00     0.029 C 
BRANCH   7   9
HETATM    9  C   UNL     1      -3.684   5.527 -31.232  1.00  0.00     0.118 A 
HETATM   10  N   UNL     1      -2.696   5.502 -32.109  1.00  0.00    -0.232 NA
HETATM   11  C   UNL     1      -1.604   6.015 -31.447  1.00  0.00     0.085 A 
HETATM   12  C   UNL     1      -1.945   6.409 -30.159  1.00  0.00     0.062 A 
HETATM   13  C   UNL     1      -0.283   6.188 -31.886  1.00  0.00     0.034 A 
HETATM   14  N   UNL     1      -3.273   6.097 -30.049  1.00  0.00    -0.342 N 
HETATM   15  C   UNL     1      -1.041   6.990 -29.268  1.00  0.00     0.032 A 
HETATM   16  H   UNL     1      -3.860   6.277 -29.247  1.00  0.00     0.167 HD
HETATM   17  C   UNL     1       0.272   7.158 -29.724  1.00  0.00     0.002 A 
HETATM   18  C   UNL     1       0.648   6.761 -31.010  1.00  0.00     0.002 A 
ENDBRANCH   7   9
ENDBRANCH   6   7
ENDBRANCH   5   6
ENDBRANCH   2   5
BRANCH   1  19
HETATM   19  C   UNL     1      -7.065   1.498 -33.665  1.00  0.00     0.040 A 
HETATM   20  C   UNL     1      -6.381   0.726 -32.699  1.00  0.00    -0.034 A 
HETATM   21  C   UNL     1      -6.080  -0.626 -32.968  1.00  0.00     0.026 A 
HETATM   22  C   UNL     1      -5.968   1.281 -31.362  1.00  0.00     0.050 C 
HETATM   23  C   UNL     1      -6.440  -1.214 -34.185  1.00  0.00     0.032 A 
HETATM   24  C   UNL     1      -7.076  -0.439 -35.151  1.00  0.00     0.019 A 
HETATM   25  C   UNL     1      -7.387   0.900 -34.890  1.00  0.00     0.031 A 
BRANCH  23  26
HETATM   26  C   UNL     1      -6.150  -2.642 -34.496  1.00  0.00     0.251 C 
HETATM   27  N   UNL     1      -4.879  -3.088 -34.187  1.00  0.00    -0.357 N 
HETATM   28  H   UNL     1      -4.279  -2.505 -33.622  1.00  0.00     0.162 HD
HETATM   29  O   UNL     1      -7.024  -3.363 -34.962  1.00  0.00    -0.268 OA
BRANCH  27  30
HETATM   30  C   UNL     1      -4.514  -4.481 -34.335  1.00  0.00     0.118 C 
HETATM   31  C   UNL     1      -3.300  -4.830 -33.492  1.00  0.00     0.026 C 
ENDBRANCH  27  30
ENDBRANCH  23  26
ENDBRANCH   1  19
TORSDOF 7
ENDMDL
MODEL 4
REMARK VINA RESULT:      -7.9      3.469      7.613
REMARK  7 active torsions:
REMARK  status: ('A' for Active; 'I' for Inactive)
REMARK    1  A    between atoms: C_2  and  N_3 
REMARK       I    between atoms: N_3  and  C_4 
REMARK    2  A    between atoms: C_4  and  C_5 
REMARK    3  A    between atoms: C_9  and  N_10 
REMARK       I    between atoms: N_10  and  C_11 
REMARK    4  A    between atoms: C_11  and  C_12 
REMARK    5  A    between atoms: C_12  and  S_13 
REMARK    6  A    between atoms: S_13  and  C_14 
REMARK    7  A    between atoms: C_14  and  C_15 
ROOT
HETATM    1  N   UNL     1      -6.745   3.421 -32.820  1.00  0.00    -0.326 N 
HETATM    2  C   UNL     1      -7.623   4.108 -33.648  1.00  0.00     0.231 C 
HETATM    3  O   UNL     1      -7.383   5.144 -34.262  1.00  0.00    -0.272 OA
HETATM    4  H   UNL     1      -7.045   2.497 -32.512  1.00  0.00     0.169 HD
ENDROOT
BRANCH   2   5
HETATM    5  C   UNL     1      -8.990   3.448 -33.766  1.00  0.00     0.177 C 
BRANCH   5   6
HETATM    6  S   UNL     1      -9.279   2.258 -32.409  1.00  0.00    -0.147 SA
BRANCH   6   7
HETATM    7  C   UNL     1      -9.303   0.693 -33.364  1.00  0.00     0.113 C 
HETATM    8  C   UNL     1     -10.419  -0.208 -32.839  1.00  0.00     0.029 C 
BRANCH   7   9
HETATM    9  C   UNL     1      -7.958   0.036 -33.291  1.00  0.00     0.118 A 
HETATM   10  N   UNL     1      -7.042   0.232 -32.359  1.00  0.00    -0.232 NA
HETATM   11  C   UNL     1      -6.000  -0.606 -32.684  1.00  0.00     0.085 A 
HETATM   12  C   UNL     1      -6.308  -1.367 -33.805  1.00  0.00     0.062 A 
HETATM   13  C   UNL     1      -4.757  -0.783 -32.059  1.00  0.00     0.034 A 
HETATM   14  N   UNL     1      -7.560  -0.948 -34.167  1.00  0.00    -0.342 N 
HETATM   15  C   UNL     1      -5.446  -2.324 -34.345  1.00  0.00     0.032 A 
HETATM   16  H   UNL     1      -8.110  -1.315 -34.931  1.00  0.00     0.167 HD
HETATM   17  C   UNL     1      -4.211  -2.488 -33.707  1.00  0.00     0.002 A 
HETATM   18  C   UNL     1      -3.869  -1.730 -32.585  1.00  0.00     0.002 A 
ENDBRANCH   7   9
ENDBRANCH   6   7
ENDBRANCH   5   6
ENDBRANCH   2   5
BRANCH   1  19
HETATM   19  C   UNL     1      -5.436   3.819 -32.439  1.00  0.00     0.040 A 
HETATM   20  C   UNL     1      -5.245   4.464 -31.196  1.00  0.00    -0.034 A 
HETATM   21  C   UNL     1      -3.945   4.840 -30.795  1.00  0.00     0.026 A 
HETATM   22  C   UNL     1      -6.379   4.755 -30.250  1.00  0.00     0.050 C 
HETATM   23  C   UNL     1      -2.840   4.593 -31.616  1.00  0.00     0.032 A 
HETATM   24  C   UNL     1      -3.038   3.998 -32.858  1.00  0.00     0.019 A 
HETATM   25  C   UNL     1      -4.322   3.613 -33.262  1.00  0.00     0.031 A 
BRANCH  23  26
HETATM   26  C   UNL     1      -1.454   4.966 -31.217  1.00  0.00     0.251 C 
HETATM   27  N   UNL     1      -1.316   5.584 -29.990  1.00  0.00    -0.357 N 
HETATM   28  H   UNL     1      -2.102   5.597 -29.357  1.00  0.00     0.162 HD
HETATM   29  O   UNL     1      -0.507   4.689 -31.945  1.00  0.00    -0.268 OA
BRANCH  27  30
HETATM   30  C   UNL     1      -0.010   5.888 -29.443  1.00  0.00     0.118 C 
HETATM   31  C   UNL     1       0.323   7.362 -29.586  1.00  0.00     0.026 C 
ENDBRANCH  27  30
ENDBRANCH  23  26
ENDBRANCH   1  19
TORSDOF 7
ENDMDL
MODEL 5
REMARK VINA RESULT:      -7.9      4.397      8.283
REMARK  7 active torsions:
REMARK  status: ('A' for Active; 'I' for Inactive)
REMARK    1  A    between atoms: C_2  and  N_3 
REMARK       I    between atoms: N_3  and  C_4 
REMARK    2  A    between atoms: C_4  and  C_5 
REMARK    3  A    between atoms: C_9  and  N_10 
REMARK       I    between atoms: N_10  and  C_11 
REMARK    4  A    between atoms: C_11  and  C_12 
REMARK    5  A    between atoms: C_12  and  S_13 
REMARK    6  A    between atoms: S_13  and  C_14 
REMARK    7  A    between atoms: C_14  and  C_15 
ROOT
HETATM    1  N   UNL     1      -4.653   3.584 -32.723  1.00  0.00    -0.326 N 
HETATM    2  C   UNL     1      -5.500   3.890 -33.780  1.00  0.00     0.231 C 
HETATM    3  O   UNL     1      -5.410   4.863 -34.524  1.00  0.00    -0.272 OA
HETATM    4  H   UNL     1      -4.770   2.661 -32.305  1.00  0.00     0.169 HD
ENDROOT
BRANCH   2   5
HETATM    5  C   UNL     1      -6.615   2.873 -33.982  1.00  0.00     0.177 C 
BRANCH   5   6
HETATM    6  S   UNL     1      -7.987   3.142 -32.804  1.00  0.00    -0.147 SA
BRANCH   6   7
HETATM    7  C   UNL     1      -7.692   1.743 -31.656  1.00  0.00     0.113 C 
HETATM    8  C   UNL     1      -6.902   2.233 -30.445  1.00  0.00     0.029 C 
BRANCH   7   9
HETATM    9  C   UNL     1      -6.994   0.632 -32.381  1.00  0.00     0.118 A 
HETATM   10  N   UNL     1      -5.711   0.330 -32.296  1.00  0.00    -0.232 NA
HETATM   11  C   UNL     1      -5.538  -0.773 -33.101  1.00  0.00     0.085 A 
HETATM   12  C   UNL     1      -6.749  -1.184 -33.645  1.00  0.00     0.062 A 
HETATM   13  C   UNL     1      -4.373  -1.491 -33.408  1.00  0.00     0.034 A 
HETATM   14  N   UNL     1      -7.660  -0.281 -33.167  1.00  0.00    -0.342 N 
HETATM   15  C   UNL     1      -6.878  -2.295 -34.480  1.00  0.00     0.032 A 
HETATM   16  H   UNL     1      -8.655  -0.295 -33.338  1.00  0.00     0.167 HD
HETATM   17  C   UNL     1      -5.706  -3.001 -34.774  1.00  0.00     0.002 A 
HETATM   18  C   UNL     1      -4.472  -2.606 -34.251  1.00  0.00     0.002 A 
ENDBRANCH   7   9
ENDBRANCH   6   7
ENDBRANCH   5   6
ENDBRANCH   2   5
BRANCH   1  19
HETATM   19  C   UNL     1      -3.579   4.370 -32.228  1.00  0.00     0.040 A 
HETATM   20  C   UNL     1      -3.819   5.285 -31.179  1.00  0.00    -0.034 A 
HETATM   21  C   UNL     1      -2.754   6.052 -30.661  1.00  0.00     0.026 A 
HETATM   22  C   UNL     1      -5.179   5.470 -30.559  1.00  0.00     0.050 C 
HETATM   23  C   UNL     1      -1.461   5.928 -31.179  1.00  0.00     0.032 A 
HETATM   24  C   UNL     1      -1.236   5.057 -32.241  1.00  0.00     0.019 A 
HETATM   25  C   UNL     1      -2.284   4.285 -32.756  1.00  0.00     0.031 A 
BRANCH  23  26
HETATM   26  C   UNL     1      -0.312   6.713 -30.646  1.00  0.00     0.251 C 
HETATM   27  N   UNL     1      -0.448   7.202 -29.362  1.00  0.00    -0.357 N 
HETATM   28  H   UNL     1      -1.213   6.872 -28.790  1.00  0.00     0.162 HD
HETATM   29  O   UNL     1       0.699   6.864 -31.323  1.00  0.00    -0.268 OA
BRANCH  27  30
HETATM   30  C   UNL     1       0.643   7.879 -28.694  1.00  0.00     0.118 C 
HETATM   31  C   UNL     1       1.083   7.130 -27.449  1.00  0.00     0.026 C 
ENDBRANCH  27  30
ENDBRANCH  23  26
ENDBRANCH   1  19
TORSDOF 7
ENDMDL
MODEL 6
REMARK VINA RESULT:      -7.9      3.912      7.706
REMARK  7 active torsions:
REMARK  status: ('A' for Active; 'I' for Inactive)
REMARK    1  A    between atoms: C_2  and  N_3 
REMARK       I    between atoms: N_3  and  C_4 
REMARK    2  A    between atoms: C_4  and  C_5 
REMARK    3  A    between atoms: C_9  and  N_10 
REMARK       I    between atoms: N_10  and  C_11 
REMARK    4  A    between atoms: C_11  and  C_12 
REMARK    5  A    between atoms: C_12  and  S_13 
REMARK    6  A    between atoms: S_13  and  C_14 
REMARK    7  A    between atoms: C_14  and  C_15 
ROOT
HETATM    1  N   UNL     1      -6.655   3.617 -31.700  1.00  0.00    -0.326 N 
HETATM    2  C   UNL     1      -7.255   3.890 -30.478  1.00  0.00     0.231 C 
HETATM    3  O   UNL     1      -7.465   3.083 -29.576  1.00  0.00    -0.272 OA
HETATM    4  H   UNL     1      -6.412   4.425 -32.273  1.00  0.00     0.169 HD
ENDROOT
BRANCH   2   5
HETATM    5  C   UNL     1      -7.655   5.349 -30.308  1.00  0.00     0.177 C 
BRANCH   5   6
HETATM    6  S   UNL     1      -6.253   6.364 -29.721  1.00  0.00    -0.147 SA
BRANCH   6   7
HETATM    7  C   UNL     1      -6.027   7.457 -31.176  1.00  0.00     0.113 C 
HETATM    8  C   UNL     1      -7.349   7.586 -31.929  1.00  0.00     0.029 C 
BRANCH   7   9
HETATM    9  C   UNL     1      -4.927   6.922 -32.043  1.00  0.00     0.118 A 
HETATM   10  N   UNL     1      -5.059   6.039 -33.016  1.00  0.00    -0.232 NA
HETATM   11  C   UNL     1      -3.798   5.884 -33.547  1.00  0.00     0.085 A 
HETATM   12  C   UNL     1      -2.890   6.728 -32.920  1.00  0.00     0.062 A 
HETATM   13  C   UNL     1      -3.352   5.045 -34.579  1.00  0.00     0.034 A 
HETATM   14  N   UNL     1      -3.631   7.384 -31.975  1.00  0.00    -0.342 N 
HETATM   15  C   UNL     1      -1.541   6.803 -33.273  1.00  0.00     0.032 A 
HETATM   16  H   UNL     1      -3.294   8.102 -31.350  1.00  0.00     0.167 HD
HETATM   17  C   UNL     1      -1.114   5.962 -34.307  1.00  0.00     0.002 A 
HETATM   18  C   UNL     1      -2.001   5.094 -34.948  1.00  0.00     0.002 A 
ENDBRANCH   7   9
ENDBRANCH   6   7
ENDBRANCH   5   6
ENDBRANCH   2   5
BRANCH   1  19
HETATM   19  C   UNL     1      -6.250   2.349 -32.194  1.00  0.00     0.040 A 
HETATM   20  C   UNL     1      -4.890   1.975 -32.104  1.00  0.00    -0.034 A 
HETATM   21  C   UNL     1      -4.480   0.706 -32.567  1.00  0.00     0.026 A 
HETATM   22  C   UNL     1      -3.840   2.873 -31.506  1.00  0.00     0.050 C 
HETATM   23  C   UNL     1      -5.401  -0.186 -33.125  1.00  0.00     0.032 A 
HETATM   24  C   UNL     1      -6.731   0.202 -33.251  1.00  0.00     0.019 A 
HETATM   25  C   UNL     1      -7.150   1.455 -32.787  1.00  0.00     0.031 A 
BRANCH  23  26
HETATM   26  C   UNL     1      -5.004  -1.538 -33.611  1.00  0.00     0.251 C 
HETATM   27  N   UNL     1      -5.826  -2.111 -34.561  1.00  0.00    -0.357 N 
HETATM   28  H   UNL     1      -6.534  -1.543 -35.004  1.00  0.00     0.162 HD
HETATM   29  O   UNL     1      -3.977  -2.065 -33.199  1.00  0.00    -0.268 OA
BRANCH  27  30
HETATM   30  C   UNL     1      -5.484  -3.367 -35.194  1.00  0.00     0.118 C 
HETATM   31  C   UNL     1      -6.565  -4.411 -34.980  1.00  0.00     0.026 C 
ENDBRANCH  27  30
ENDBRANCH  23  26
ENDBRANCH   1  19
TORSDOF 7
ENDMDL
MODEL 7
REMARK VINA RESULT:      -7.8      3.756      7.839
REMARK  7 active torsions:
REMARK  status: ('A' for Active; 'I' for Inactive)
REMARK    1  A    between atoms: C_2  and  N_3 
REMARK       I    between atoms: N_3  and  C_4 
REMARK    2  A    between atoms: C_4  and  C_5 
REMARK    3  A    between atoms: C_9  and  N_10 
REMARK       I    between atoms: N_10  and  C_11 
REMARK    4  A    between atoms: C_11  and  C_12 
REMARK    5  A    between atoms: C_12  and  S_13 
REMARK    6  A    between atoms: S_13  and  C_14 
REMARK    7  A    between atoms: C_14  and  C_15 
ROOT
HETATM    1  N   UNL     1      -7.700   2.566 -33.517  1.00  0.00    -0.326 N 
HETATM    2  C   UNL     1      -8.669   2.911 -32.584  1.00  0.00     0.231 C 
HETATM    3  O   UNL     1      -9.222   2.149 -31.795  1.00  0.00    -0.272 OA
HETATM    4  H   UNL     1      -7.230   3.340 -33.985  1.00  0.00     0.169 HD
ENDROOT
BRANCH   2   5
HETATM    5  C   UNL     1      -9.022   4.392 -32.591  1.00  0.00     0.177 C 
BRANCH   5   6
HETATM    6  S   UNL     1      -7.864   5.351 -33.630  1.00  0.00    -0.147 SA
BRANCH   6   7
HETATM    7  C   UNL     1      -6.817   6.100 -32.324  1.00  0.00     0.113 C 
HETATM    8  C   UNL     1      -7.362   7.481 -31.963  1.00  0.00     0.029 C 
BRANCH   7   9
HETATM    9  C   UNL     1      -5.392   6.152 -32.786  1.00  0.00     0.118 A 
HETATM   10  N   UNL     1      -4.411   6.831 -32.218  1.00  0.00    -0.232 NA
HETATM   11  C   UNL     1      -3.289   6.549 -32.962  1.00  0.00     0.085 A 
HETATM   12  C   UNL     1      -3.579   5.637 -33.970  1.00  0.00     0.062 A 
HETATM   13  C   UNL     1      -1.976   7.024 -32.829  1.00  0.00     0.034 A 
HETATM   14  N   UNL     1      -4.919   5.394 -33.833  1.00  0.00    -0.342 N 
HETATM   15  C   UNL     1      -2.623   5.149 -34.863  1.00  0.00     0.032 A 
HETATM   16  H   UNL     1      -5.464   4.750 -34.387  1.00  0.00     0.167 HD
HETATM   17  C   UNL     1      -1.318   5.632 -34.714  1.00  0.00     0.002 A 
HETATM   18  C   UNL     1      -0.998   6.557 -33.717  1.00  0.00     0.002 A 
ENDBRANCH   7   9
ENDBRANCH   6   7
ENDBRANCH   5   6
ENDBRANCH   2   5
BRANCH   1  19
HETATM   19  C   UNL     1      -7.221   1.263 -33.815  1.00  0.00     0.040 A 
HETATM   20  C   UNL     1      -6.008   0.825 -33.239  1.00  0.00    -0.034 A 
HETATM   21  C   UNL     1      -5.535  -0.478 -33.507  1.00  0.00     0.026 A 
HETATM   22  C   UNL     1      -5.189   1.689 -32.317  1.00  0.00     0.050 C 
HETATM   23  C   UNL     1      -6.246  -1.341 -34.347  1.00  0.00     0.032 A 
HETATM   24  C   UNL     1      -7.419  -0.891 -34.947  1.00  0.00     0.019 A 
HETATM   25  C   UNL     1      -7.900   0.396 -34.680  1.00  0.00     0.031 A 
BRANCH  23  26
HETATM   26  C   UNL     1      -5.782  -2.726 -34.640  1.00  0.00     0.251 C 
HETATM   27  N   UNL     1      -4.461  -3.004 -34.346  1.00  0.00    -0.357 N 
HETATM   28  H   UNL     1      -3.931  -2.340 -33.800  1.00  0.00     0.162 HD
HETATM   29  O   UNL     1      -6.566  -3.560 -35.081  1.00  0.00    -0.268 OA
BRANCH  27  30
HETATM   30  C   UNL     1      -3.926  -4.342 -34.478  1.00  0.00     0.118 C 
HETATM   31  C   UNL     1      -3.377  -4.854 -33.159  1.00  0.00     0.026 C 
ENDBRANCH  27  30
ENDBRANCH  23  26
ENDBRANCH   1  19
TORSDOF 7
ENDMDL
MODEL 8
REMARK VINA RESULT:      -7.8      2.660      4.610
REMARK  7 active torsions:
REMARK  status: ('A' for Active; 'I' for Inactive)
REMARK    1  A    between atoms: C_2  and  N_3 
REMARK       I    between atoms: N_3  and  C_4 
REMARK    2  A    between atoms: C_4  and  C_5 
REMARK    3  A    between atoms: C_9  and  N_10 
REMARK       I    between atoms: N_10  and  C_11 
REMARK    4  A    between atoms: C_11  and  C_12 
REMARK    5  A    between atoms: C_12  and  S_13 
REMARK    6  A    between atoms: S_13  and  C_14 
REMARK    7  A    between atoms: C_14  and  C_15 
ROOT
HETATM    1  N   UNL     1     -11.706   2.265 -33.131  1.00  0.00    -0.326 N 
HETATM    2  C   UNL     1     -10.963   2.811 -34.170  1.00  0.00     0.231 C 
HETATM    3  O   UNL     1     -11.353   3.646 -34.982  1.00  0.00    -0.272 OA
HETATM    4  H   UNL     1     -11.190   1.706 -32.454  1.00  0.00     0.169 HD
ENDROOT
BRANCH   2   5
HETATM    5  C   UNL     1      -9.536   2.284 -34.240  1.00  0.00     0.177 C 
BRANCH   5   6
HETATM    6  S   UNL     1      -9.297   0.851 -33.130  1.00  0.00    -0.147 SA
BRANCH   6   7
HETATM    7  C   UNL     1      -7.468   0.860 -32.997  1.00  0.00     0.113 C 
HETATM    8  C   UNL     1      -6.900   2.006 -33.833  1.00  0.00     0.029 C 
BRANCH   7   9
HETATM    9  C   UNL     1      -6.924  -0.473 -33.414  1.00  0.00     0.118 A 
HETATM   10  N   UNL     1      -7.602  -1.443 -34.002  1.00  0.00    -0.232 NA
HETATM   11  C   UNL     1      -6.688  -2.448 -34.224  1.00  0.00     0.085 A 
HETATM   12  C   UNL     1      -5.418  -2.063 -33.812  1.00  0.00     0.062 A 
HETATM   13  C   UNL     1      -6.867  -3.720 -34.787  1.00  0.00     0.034 A 
HETATM   14  N   UNL     1      -5.592  -0.802 -33.310  1.00  0.00    -0.342 N 
HETATM   15  C   UNL     1      -4.289  -2.874 -33.943  1.00  0.00     0.032 A 
HETATM   16  H   UNL     1      -4.864  -0.203 -32.947  1.00  0.00     0.167 HD
HETATM   17  C   UNL     1      -4.485  -4.139 -34.509  1.00  0.00     0.002 A 
HETATM   18  C   UNL     1      -5.752  -4.559 -34.922  1.00  0.00     0.002 A 
ENDBRANCH   7   9
ENDBRANCH   6   7
ENDBRANCH   5   6
ENDBRANCH   2   5
BRANCH   1  19
HETATM   19  C   UNL     1     -13.081   2.484 -32.853  1.00  0.00     0.040 A 
HETATM   20  C   UNL     1     -14.032   1.528 -33.273  1.00  0.00    -0.034 A 
HETATM   21  C   UNL     1     -15.398   1.722 -32.979  1.00  0.00     0.026 A 
HETATM   22  C   UNL     1     -13.648   0.276 -34.016  1.00  0.00     0.050 C 
HETATM   23  C   UNL     1     -15.829   2.856 -32.283  1.00  0.00     0.032 A 
HETATM   24  C   UNL     1     -14.895   3.817 -31.908  1.00  0.00     0.019 A 
HETATM   25  C   UNL     1     -13.537   3.630 -32.188  1.00  0.00     0.031 A 
BRANCH  23  26
HETATM   26  C   UNL     1     -17.262   3.085 -31.945  1.00  0.00     0.251 C 
HETATM   27  N   UNL     1     -17.691   4.398 -31.956  1.00  0.00    -0.357 N 
HETATM   28  H   UNL     1     -17.089   5.106 -32.351  1.00  0.00     0.162 HD
HETATM   29  O   UNL     1     -18.001   2.135 -31.714  1.00  0.00    -0.268 OA
BRANCH  27  30
HETATM   30  C   UNL     1     -19.084   4.737 -31.758  1.00  0.00     0.118 C 
HETATM   31  C   UNL     1     -19.365   5.115 -30.315  1.00  0.00     0.026 C 
ENDBRANCH  27  30
ENDBRANCH  23  26
ENDBRANCH   1  19
TORSDOF 7
ENDMDL
MODEL 9
REMARK VINA RESULT:      -7.7      3.145      6.449
REMARK  7 active torsions:
REMARK  status: ('A' for Active; 'I' for Inactive)
REMARK    1  A    between atoms: C_2  and  N_3 
REMARK       I    between atoms: N_3  and  C_4 
REMARK    2  A    between atoms: C_4  and  C_5 
REMARK    3  A    between atoms: C_9  and  N_10 
REMARK       I    between atoms: N_10  and  C_11 
REMARK    4  A    between atoms: C_11  and  C_12 
REMARK    5  A    between atoms: C_12  and  S_13 
REMARK    6  A    between atoms: S_13  and  C_14 
REMARK    7  A    between atoms: C_14  and  C_15 
ROOT
HETATM    1  N   UNL     1      -8.123   2.931 -32.860  1.00  0.00    -0.326 N 
HETATM    2  C   UNL     1      -7.691   4.166 -33.325  1.00  0.00     0.231 C 
HETATM    3  O   UNL     1      -6.850   4.360 -34.199  1.00  0.00    -0.272 OA
HETATM    4  H   UNL     1      -8.937   2.940 -32.246  1.00  0.00     0.169 HD
ENDROOT
BRANCH   2   5
HETATM    5  C   UNL     1      -8.375   5.345 -32.647  1.00  0.00     0.177 C 
BRANCH   5   6
HETATM    6  S   UNL     1      -8.791   4.969 -30.908  1.00  0.00    -0.147 SA
BRANCH   6   7
HETATM    7  C   UNL     1      -7.145   5.199 -30.135  1.00  0.00     0.113 C 
HETATM    8  C   UNL     1      -6.472   6.437 -30.725  1.00  0.00     0.029 C 
BRANCH   7   9
HETATM    9  C   UNL     1      -6.322   3.960 -30.319  1.00  0.00     0.118 A 
HETATM   10  N   UNL     1      -6.684   2.728 -30.005  1.00  0.00    -0.232 NA
HETATM   11  C   UNL     1      -5.631   1.927 -30.386  1.00  0.00     0.085 A 
HETATM   12  C   UNL     1      -4.631   2.678 -30.992  1.00  0.00     0.062 A 
HETATM   13  C   UNL     1      -5.461   0.541 -30.256  1.00  0.00     0.034 A 
HETATM   14  N   UNL     1      -5.096   3.964 -30.946  1.00  0.00    -0.342 N 
HETATM   15  C   UNL     1      -3.456   2.122 -31.502  1.00  0.00     0.032 A 
HETATM   16  H   UNL     1      -4.633   4.776 -31.329  1.00  0.00     0.167 HD
HETATM   17  C   UNL     1      -3.305   0.738 -31.367  1.00  0.00     0.002 A 
HETATM   18  C   UNL     1      -4.288  -0.042 -30.752  1.00  0.00     0.002 A 
ENDBRANCH   7   9
ENDBRANCH   6   7
ENDBRANCH   5   6
ENDBRANCH   2   5
BRANCH   1  19
HETATM   19  C   UNL     1      -7.622   1.653 -33.224  1.00  0.00     0.040 A 
HETATM   20  C   UNL     1      -8.272   0.494 -32.746  1.00  0.00    -0.034 A 
HETATM   21  C   UNL     1      -7.799  -0.781 -33.124  1.00  0.00     0.026 A 
HETATM   22  C   UNL     1      -9.483   0.553 -31.853  1.00  0.00     0.050 C 
HETATM   23  C   UNL     1      -6.686  -0.916 -33.959  1.00  0.00     0.032 A 
HETATM   24  C   UNL     1      -6.021   0.227 -34.393  1.00  0.00     0.019 A 
HETATM   25  C   UNL     1      -6.487   1.497 -34.032  1.00  0.00     0.031 A 
BRANCH  23  26
HETATM   26  C   UNL     1      -6.169  -2.246 -34.387  1.00  0.00     0.251 C 
HETATM   27  N   UNL     1      -4.877  -2.551 -34.005  1.00  0.00    -0.357 N 
HETATM   28  H   UNL     1      -4.415  -1.963 -33.326  1.00  0.00     0.162 HD
HETATM   29  O   UNL     1      -6.890  -3.018 -35.008  1.00  0.00    -0.268 OA
BRANCH  27  30
HETATM   30  C   UNL     1      -4.305  -3.857 -34.260  1.00  0.00     0.118 C 
HETATM   31  C   UNL     1      -3.425  -4.313 -33.110  1.00  0.00     0.026 C 
ENDBRANCH  27  30
ENDBRANCH  23  26
ENDBRANCH   1  19
TORSDOF 7
ENDMDL
MODEL 10
REMARK VINA RESULT:      -7.5      3.530      7.597
REMARK  7 active torsions:
REMARK  status: ('A' for Active; 'I' for Inactive)
REMARK    1  A    between atoms: C_2  and  N_3 
REMARK       I    between atoms: N_3  and  C_4 
REMARK    2  A    between atoms: C_4  and  C_5 
REMARK    3  A    between atoms: C_9  and  N_10 
REMARK       I    between atoms: N_10  and  C_11 
REMARK    4  A    between atoms: C_11  and  C_12 
REMARK    5  A    between atoms: C_12  and  S_13 
REMARK    6  A    between atoms: S_13  and  C_14 
REMARK    7  A    between atoms: C_14  and  C_15 
ROOT
HETATM    1  N   UNL     1      -6.189   3.088 -32.527  1.00  0.00    -0.326 N 
HETATM    2  C   UNL     1      -7.362   3.065 -31.784  1.00  0.00     0.231 C 
HETATM    3  O   UNL     1      -7.581   3.694 -30.752  1.00  0.00    -0.272 OA
HETATM    4  H   UNL     1      -6.224   2.633 -33.439  1.00  0.00     0.169 HD
ENDROOT
BRANCH   2   5
HETATM    5  C   UNL     1      -8.436   2.158 -32.369  1.00  0.00     0.177 C 
BRANCH   5   6
HETATM    6  S   UNL     1      -7.949   0.399 -32.278  1.00  0.00    -0.147 SA
BRANCH   6   7
HETATM    7  C   UNL     1      -7.115   0.219 -33.901  1.00  0.00     0.113 C 
HETATM    8  C   UNL     1      -8.126   0.442 -35.023  1.00  0.00     0.029 C 
BRANCH   7   9
HETATM    9  C   UNL     1      -6.457  -1.125 -33.985  1.00  0.00     0.118 A 
HETATM   10  N   UNL     1      -6.930  -2.188 -34.610  1.00  0.00    -0.232 NA
HETATM   11  C   UNL     1      -5.976  -3.166 -34.448  1.00  0.00     0.085 A 
HETATM   12  C   UNL     1      -4.875  -2.675 -33.757  1.00  0.00     0.062 A 
HETATM   13  C   UNL     1      -5.972  -4.502 -34.876  1.00  0.00     0.034 A 
HETATM   14  N   UNL     1      -5.200  -1.374 -33.481  1.00  0.00    -0.342 N 
HETATM   15  C   UNL     1      -3.742  -3.440 -33.473  1.00  0.00     0.032 A 
HETATM   16  H   UNL     1      -4.610  -0.703 -33.011  1.00  0.00     0.167 HD
HETATM   17  C   UNL     1      -3.755  -4.769 -33.910  1.00  0.00     0.002 A 
HETATM   18  C   UNL     1      -4.851  -5.295 -34.597  1.00  0.00     0.002 A 
ENDBRANCH   7   9
ENDBRANCH   6   7
ENDBRANCH   5   6
ENDBRANCH   2   5
BRANCH   1  19
HETATM   19  C   UNL     1      -4.981   3.761 -32.204  1.00  0.00     0.040 A 
HETATM   20  C   UNL     1      -3.830   3.003 -31.893  1.00  0.00    -0.034 A 
HETATM   21  C   UNL     1      -2.617   3.661 -31.596  1.00  0.00     0.026 A 
HETATM   22  C   UNL     1      -3.828   1.497 -31.885  1.00  0.00     0.050 C 
HETATM   23  C   UNL     1      -2.539   5.057 -31.594  1.00  0.00     0.032 A 
HETATM   24  C   UNL     1      -3.685   5.801 -31.858  1.00  0.00     0.019 A 
HETATM   25  C   UNL     1      -4.891   5.158 -32.163  1.00  0.00     0.031 A 
BRANCH  23  26
HETATM   26  C   UNL     1      -1.272   5.782 -31.298  1.00  0.00     0.251 C 
HETATM   27  N   UNL     1      -0.741   5.596 -30.036  1.00  0.00    -0.357 N 
HETATM   28  H   UNL     1      -1.118   4.866 -29.449  1.00  0.00     0.162 HD
HETATM   29  O   UNL     1      -0.735   6.466 -32.162  1.00  0.00    -0.268 OA
BRANCH  27  30
HETATM   30  C   UNL     1       0.543   6.153 -29.670  1.00  0.00     0.118 C 
HETATM   31  C   UNL     1       0.387   7.458 -28.909  1.00  0.00     0.026 C 
ENDBRANCH  27  30
ENDBRANCH  23  26
ENDBRANCH   1  19
TORSDOF 7
ENDMDL
