MODEL 1
REMARK VINA RESULT:      -9.8      0.000      0.000
REMARK  7 active torsions:
REMARK  status: ('A' for Active; 'I' for Inactive)
REMARK    1  A    between atoms: C_5  and  C_6 
REMARK    2  A    between atoms: C_10  and  C_11 
REMARK       I    between atoms: C_11  and  N_12 
REMARK    3  A    between atoms: N_12  and  N_13 
REMARK       I    between atoms: N_13  and  C_14 
REMARK       I    between atoms: C_14  and  N_15 
REMARK    4  A    between atoms: N_15  and  C_16 
REMARK    5  A    between atoms: C_16  and  C_17 
REMARK    6  A    between atoms: C_17  and  C_18 
REMARK    7  A    between atoms: C_21  and  O_22 
ROOT
HETATM    1  C   UNL     1      -2.013   4.539 -31.810  1.00  0.00     0.288 C 
HETATM    2  N   UNL     1      -2.820   3.559 -31.277  1.00  0.00    -0.261 N 
HETATM    3  O   UNL     1      -1.688   4.541 -32.997  1.00  0.00    -0.264 OA
HETATM    4  H   UNL     1      -3.179   3.568 -30.327  1.00  0.00     0.190 HD
ENDROOT
BRANCH   2   5
HETATM    5  N   UNL     1      -3.197   2.469 -32.077  1.00  0.00    -0.249 N 
HETATM    6  C   UNL     1      -4.526   2.103 -32.044  1.00  0.00     0.335 C 
HETATM    7  N   UNL     1      -4.783   1.044 -32.873  1.00  0.00    -0.337 N 
HETATM    8  O   UNL     1      -5.356   2.647 -31.323  1.00  0.00    -0.246 OA
HETATM    9  H   UNL     1      -3.987   0.494 -33.162  1.00  0.00     0.164 HD
HETATM   10  H   UNL     1      -2.711   2.408 -32.970  1.00  0.00     0.192 HD
BRANCH   7  11
HETATM   11  C   UNL     1      -6.110   0.448 -32.994  1.00  0.00     0.086 C 
HETATM   12  C   UNL     1      -6.363  -0.553 -31.863  1.00  0.00     0.032 C 
BRANCH  11  13
HETATM   13  C   UNL     1      -6.286  -0.261 -34.355  1.00  0.00     0.063 C 
BRANCH  13  14
HETATM   14  C   UNL     1      -5.901  -1.725 -34.408  1.00  0.00    -0.056 A 
HETATM   15  C   UNL     1      -6.885  -2.687 -34.689  1.00  0.00     0.010 A 
HETATM   16  C   UNL     1      -6.561  -4.044 -34.767  1.00  0.00     0.037 A 
HETATM   17  C   UNL     1      -5.244  -4.442 -34.575  1.00  0.00     0.065 A 
HETATM   18  C   UNL     1      -4.251  -3.506 -34.312  1.00  0.00     0.037 A 
HETATM   19  C   UNL     1      -4.576  -2.150 -34.238  1.00  0.00     0.010 A 
BRANCH  17  20
HETATM   20  O   UNL     1      -4.882  -5.754 -34.641  1.00  0.00    -0.361 OA
HETATM   21  H   UNL     1      -3.963  -5.807 -34.951  1.00  0.00     0.217 HD
ENDBRANCH  17  20
ENDBRANCH  13  14
ENDBRANCH  11  13
ENDBRANCH   7  11
ENDBRANCH   2   5
BRANCH   1  22
HETATM   22  C   UNL     1      -1.556   5.534 -30.881  1.00  0.00     0.121 A 
HETATM   23  N   UNL     1      -1.927   6.845 -30.988  1.00  0.00    -0.272 N 
HETATM   24  N   UNL     1      -1.336   7.659 -30.103  1.00  0.00    -0.174 NA
HETATM   25  H   UNL     1      -2.559   7.244 -31.676  1.00  0.00     0.189 HD
HETATM   26  C   UNL     1      -0.565   6.850 -29.359  1.00  0.00     0.089 A 
HETATM   27  C   UNL     1      -0.698   5.502 -29.799  1.00  0.00     0.071 A 
BRANCH  26  28
HETATM   28  C   UNL     1       0.304   7.365 -28.300  1.00  0.00    -0.006 A 
HETATM   29  C   UNL     1       1.140   8.467 -28.521  1.00  0.00     0.014 A 
HETATM   30  C   UNL     1       1.927   8.984 -27.485  1.00  0.00     0.007 A 
HETATM   31  C   UNL     1       1.897   8.404 -26.213  1.00  0.00    -0.062 A 
HETATM   32  C   UNL     1       2.698   8.992 -25.089  1.00  0.00     0.048 C 
HETATM   33  C   UNL     1       1.063   7.304 -25.988  1.00  0.00     0.007 A 
HETATM   34  C   UNL     1       0.282   6.785 -27.025  1.00  0.00     0.014 A 
ENDBRANCH  26  28
ENDBRANCH   1  22
TORSDOF 7
ENDMDL
MODEL 2
REMARK VINA RESULT:      -9.7      1.292      1.956
REMARK  7 active torsions:
REMARK  status: ('A' for Active; 'I' for Inactive)
REMARK    1  A    between atoms: C_5  and  C_6 
REMARK    2  A    between atoms: C_10  and  C_11 
REMARK       I    between atoms: C_11  and  N_12 
REMARK    3  A    between atoms: N_12  and  N_13 
REMARK       I    between atoms: N_13  and  C_14 
REMARK       I    between atoms: C_14  and  N_15 
REMARK    4  A    between atoms: N_15  and  C_16 
REMARK    5  A    between atoms: C_16  and  C_17 
REMARK    6  A    between atoms: C_17  and  C_18 
REMARK    7  A    between atoms: C_21  and  O_22 
ROOT
HETATM    1  C   UNL     1      -3.551   5.114 -31.932  1.00  0.00     0.288 C 
HETATM    2  N   UNL     1      -4.219   4.009 -31.454  1.00  0.00    -0.261 N 
HETATM    3  O   UNL     1      -3.930   5.720 -32.933  1.00  0.00    -0.264 OA
HETATM    4  H   UNL     1      -3.989   3.533 -30.586  1.00  0.00     0.190 HD
ENDROOT
BRANCH   2   5
HETATM    5  N   UNL     1      -5.298   3.488 -32.185  1.00  0.00    -0.249 N 
HETATM    6  C   UNL     1      -5.101   2.272 -32.805  1.00  0.00     0.335 C 
HETATM    7  N   UNL     1      -6.221   1.853 -33.472  1.00  0.00    -0.337 N 
HETATM    8  O   UNL     1      -4.031   1.672 -32.784  1.00  0.00    -0.246 OA
HETATM    9  H   UNL     1      -6.912   2.559 -33.679  1.00  0.00     0.164 HD
HETATM   10  H   UNL     1      -6.214   3.669 -31.780  1.00  0.00     0.192 HD
BRANCH   7  11
HETATM   11  C   UNL     1      -6.258   0.610 -34.235  1.00  0.00     0.086 C 
HETATM   12  C   UNL     1      -7.276   0.701 -35.377  1.00  0.00     0.032 C 
BRANCH  11  13
HETATM   13  C   UNL     1      -6.608  -0.594 -33.332  1.00  0.00     0.063 C 
BRANCH  13  14
HETATM   14  C   UNL     1      -6.163  -1.956 -33.823  1.00  0.00    -0.056 A 
HETATM   15  C   UNL     1      -4.805  -2.310 -33.735  1.00  0.00     0.010 A 
HETATM   16  C   UNL     1      -4.363  -3.566 -34.158  1.00  0.00     0.037 A 
HETATM   17  C   UNL     1      -5.282  -4.479 -34.660  1.00  0.00     0.065 A 
HETATM   18  C   UNL     1      -6.631  -4.156 -34.740  1.00  0.00     0.037 A 
HETATM   19  C   UNL     1      -7.072  -2.902 -34.314  1.00  0.00     0.010 A 
BRANCH  17  20
HETATM   20  O   UNL     1      -4.896  -5.715 -35.085  1.00  0.00    -0.361 OA
HETATM   21  H   UNL     1      -5.581  -6.069 -35.675  1.00  0.00     0.217 HD
ENDBRANCH  17  20
ENDBRANCH  13  14
ENDBRANCH  11  13
ENDBRANCH   7  11
ENDBRANCH   2   5
BRANCH   1  22
HETATM   22  C   UNL     1      -2.372   5.485 -31.201  1.00  0.00     0.121 A 
HETATM   23  N   UNL     1      -1.172   4.865 -31.406  1.00  0.00    -0.272 N 
HETATM   24  N   UNL     1      -0.198   5.262 -30.576  1.00  0.00    -0.174 NA
HETATM   25  H   UNL     1      -0.973   4.133 -32.082  1.00  0.00     0.189 HD
HETATM   26  C   UNL     1      -0.768   6.206 -29.810  1.00  0.00     0.089 A 
HETATM   27  C   UNL     1      -2.126   6.395 -30.192  1.00  0.00     0.071 A 
BRANCH  26  28
HETATM   28  C   UNL     1      -0.043   6.861 -28.720  1.00  0.00    -0.006 A 
HETATM   29  C   UNL     1      -0.148   6.402 -27.401  1.00  0.00     0.014 A 
HETATM   30  C   UNL     1       0.591   7.004 -26.375  1.00  0.00     0.007 A 
HETATM   31  C   UNL     1       1.441   8.079 -26.650  1.00  0.00    -0.062 A 
HETATM   32  C   UNL     1       2.275   8.688 -25.561  1.00  0.00     0.048 C 
HETATM   33  C   UNL     1       1.549   8.541 -27.966  1.00  0.00     0.007 A 
HETATM   34  C   UNL     1       0.807   7.942 -28.988  1.00  0.00     0.014 A 
ENDBRANCH  26  28
ENDBRANCH   1  22
TORSDOF 7
ENDMDL
MODEL 3
REMARK VINA RESULT:      -9.6      2.044      2.813
REMARK  7 active torsions:
REMARK  status: ('A' for Active; 'I' for Inactive)
REMARK    1  A    between atoms: C_5  and  C_6 
REMARK    2  A    between atoms: C_10  and  C_11 
REMARK       I    between atoms: C_11  and  N_12 
REMARK    3  A    between atoms: N_12  and  N_13 
REMARK       I    between atoms: N_13  and  C_14 
REMARK       I    between atoms: C_14  and  N_15 
REMARK    4  A    between atoms: N_15  and  C_16 
REMARK    5  A    between atoms: C_16  and  C_17 
REMARK    6  A    between atoms: C_17  and  C_18 
REMARK    7  A    between atoms: C_21  and  O_22 
ROOT
HETATM    1  C   UNL     1      -4.135   5.335 -34.444  1.00  0.00     0.288 C 
HETATM    2  N   UNL     1      -5.064   4.636 -33.707  1.00  0.00    -0.261 N 
HETATM    3  O   UNL     1      -4.092   5.266 -35.672  1.00  0.00    -0.264 OA
HETATM    4  H   UNL     1      -5.188   4.732 -32.703  1.00  0.00     0.190 HD
ENDROOT
BRANCH   2   5
HETATM    5  N   UNL     1      -5.918   3.732 -34.357  1.00  0.00    -0.249 N 
HETATM    6  C   UNL     1      -6.084   2.497 -33.766  1.00  0.00     0.335 C 
HETATM    7  N   UNL     1      -6.948   1.706 -34.474  1.00  0.00    -0.337 N 
HETATM    8  O   UNL     1      -5.490   2.152 -32.750  1.00  0.00    -0.246 OA
HETATM    9  H   UNL     1      -7.119   1.971 -35.434  1.00  0.00     0.164 HD
HETATM   10  H   UNL     1      -6.729   4.156 -34.801  1.00  0.00     0.192 HD
BRANCH   7  11
HETATM   11  C   UNL     1      -7.267   0.339 -34.072  1.00  0.00     0.086 C 
HETATM   12  C   UNL     1      -8.429   0.321 -33.074  1.00  0.00     0.032 C 
BRANCH  11  13
HETATM   13  C   UNL     1      -6.042  -0.363 -33.445  1.00  0.00     0.063 C 
BRANCH  13  14
HETATM   14  C   UNL     1      -5.778  -1.786 -33.893  1.00  0.00    -0.056 A 
HETATM   15  C   UNL     1      -4.508  -2.349 -33.683  1.00  0.00     0.010 A 
HETATM   16  C   UNL     1      -4.236  -3.666 -34.064  1.00  0.00     0.037 A 
HETATM   17  C   UNL     1      -5.240  -4.429 -34.646  1.00  0.00     0.065 A 
HETATM   18  C   UNL     1      -6.508  -3.897 -34.847  1.00  0.00     0.037 A 
HETATM   19  C   UNL     1      -6.780  -2.583 -34.463  1.00  0.00     0.010 A 
BRANCH  17  20
HETATM   20  O   UNL     1      -5.021  -5.717 -35.033  1.00  0.00    -0.361 OA
HETATM   21  H   UNL     1      -5.727  -5.982 -35.644  1.00  0.00     0.217 HD
ENDBRANCH  17  20
ENDBRANCH  13  14
ENDBRANCH  11  13
ENDBRANCH   7  11
ENDBRANCH   2   5
BRANCH   1  22
HETATM   22  C   UNL     1      -3.208   6.122 -33.680  1.00  0.00     0.121 A 
HETATM   23  N   UNL     1      -2.295   6.944 -34.280  1.00  0.00    -0.272 N 
HETATM   24  N   UNL     1      -1.441   7.530 -33.430  1.00  0.00    -0.174 NA
HETATM   25  H   UNL     1      -2.191   7.113 -35.276  1.00  0.00     0.189 HD
HETATM   26  C   UNL     1      -1.822   7.103 -32.216  1.00  0.00     0.089 A 
HETATM   27  C   UNL     1      -2.947   6.240 -32.329  1.00  0.00     0.071 A 
BRANCH  26  28
HETATM   28  C   UNL     1      -1.096   7.475 -31.001  1.00  0.00    -0.006 A 
HETATM   29  C   UNL     1      -1.665   8.331 -30.049  1.00  0.00     0.014 A 
HETATM   30  C   UNL     1      -0.982   8.637 -28.866  1.00  0.00     0.007 A 
HETATM   31  C   UNL     1       0.285   8.100 -28.618  1.00  0.00    -0.062 A 
HETATM   32  C   UNL     1       0.992   8.384 -27.326  1.00  0.00     0.048 C 
HETATM   33  C   UNL     1       0.857   7.245 -29.565  1.00  0.00     0.007 A 
HETATM   34  C   UNL     1       0.177   6.944 -30.749  1.00  0.00     0.014 A 
ENDBRANCH  26  28
ENDBRANCH   1  22
TORSDOF 7
ENDMDL
MODEL 4
REMARK VINA RESULT:      -9.4      2.334     12.001
REMARK  7 active torsions:
REMARK  status: ('A' for Active; 'I' for Inactive)
REMARK    1  A    between atoms: C_5  and  C_6 
REMARK    2  A    between atoms: C_10  and  C_11 
REMARK       I    between atoms: C_11  and  N_12 
REMARK    3  A    between atoms: N_12  and  N_13 
REMARK       I    between atoms: N_13  and  C_14 
REMARK       I    between atoms: C_14  and  N_15 
REMARK    4  A    between atoms: N_15  and  C_16 
REMARK    5  A    between atoms: C_16  and  C_17 
REMARK    6  A    between atoms: C_17  and  C_18 
REMARK    7  A    between atoms: C_21  and  O_22 
ROOT
HETATM    1  C   UNL     1      -4.570   3.301 -31.218  1.00  0.00     0.288 C 
HETATM    2  N   UNL     1      -3.621   4.175 -31.700  1.00  0.00    -0.261 N 
HETATM    3  O   UNL     1      -4.998   3.374 -30.067  1.00  0.00    -0.264 OA
HETATM    4  H   UNL     1      -3.307   4.202 -32.666  1.00  0.00     0.190 HD
ENDROOT
BRANCH   2   5
HETATM    5  N   UNL     1      -3.041   5.108 -30.827  1.00  0.00    -0.249 N 
HETATM    6  C   UNL     1      -1.663   5.161 -30.800  1.00  0.00     0.335 C 
HETATM    7  N   UNL     1      -1.207   6.115 -29.930  1.00  0.00    -0.337 N 
HETATM    8  O   UNL     1      -0.948   4.410 -31.454  1.00  0.00    -0.246 OA
HETATM    9  H   UNL     1      -1.862   6.439 -29.233  1.00  0.00     0.164 HD
HETATM   10  H   UNL     1      -3.550   5.985 -30.741  1.00  0.00     0.192 HD
BRANCH   7  11
HETATM   11  C   UNL     1       0.214   6.348 -29.697  1.00  0.00     0.086 C 
HETATM   12  C   UNL     1       0.711   5.536 -28.496  1.00  0.00     0.032 C 
BRANCH  11  13
HETATM   13  C   UNL     1       0.509   7.846 -29.460  1.00  0.00     0.063 C 
BRANCH  13  14
HETATM   14  C   UNL     1       0.522   8.310 -28.018  1.00  0.00    -0.056 A 
HETATM   15  C   UNL     1       1.752   8.578 -27.393  1.00  0.00     0.010 A 
HETATM   16  C   UNL     1       1.801   9.028 -26.071  1.00  0.00     0.037 A 
HETATM   17  C   UNL     1       0.616   9.225 -25.373  1.00  0.00     0.065 A 
HETATM   18  C   UNL     1      -0.611   8.983 -25.978  1.00  0.00     0.037 A 
HETATM   19  C   UNL     1      -0.659   8.535 -27.299  1.00  0.00     0.010 A 
BRANCH  17  20
HETATM   20  O   UNL     1       0.616   9.663 -24.083  1.00  0.00    -0.361 OA
HETATM   21  H   UNL     1      -0.215  10.136 -23.916  1.00  0.00     0.217 HD
ENDBRANCH  17  20
ENDBRANCH  13  14
ENDBRANCH  11  13
ENDBRANCH   7  11
ENDBRANCH   2   5
BRANCH   1  22
HETATM   22  C   UNL     1      -4.999   2.287 -32.141  1.00  0.00     0.121 A 
HETATM   23  N   UNL     1      -5.910   2.548 -33.125  1.00  0.00    -0.272 N 
HETATM   24  N   UNL     1      -6.276   1.472 -33.835  1.00  0.00    -0.174 NA
HETATM   25  H   UNL     1      -6.344   3.443 -33.332  1.00  0.00     0.189 HD
HETATM   26  C   UNL     1      -5.554   0.463 -33.321  1.00  0.00     0.089 A 
HETATM   27  C   UNL     1      -4.718   0.941 -32.273  1.00  0.00     0.071 A 
BRANCH  26  28
HETATM   28  C   UNL     1      -5.705  -0.915 -33.789  1.00  0.00    -0.006 A 
HETATM   29  C   UNL     1      -6.963  -1.434 -34.122  1.00  0.00     0.014 A 
HETATM   30  C   UNL     1      -7.088  -2.737 -34.620  1.00  0.00     0.007 A 
HETATM   31  C   UNL     1      -5.958  -3.545 -34.786  1.00  0.00    -0.062 A 
HETATM   32  C   UNL     1      -6.086  -4.921 -35.370  1.00  0.00     0.048 C 
HETATM   33  C   UNL     1      -4.701  -3.031 -34.454  1.00  0.00     0.007 A 
HETATM   34  C   UNL     1      -4.577  -1.732 -33.953  1.00  0.00     0.014 A 
ENDBRANCH  26  28
ENDBRANCH   1  22
TORSDOF 7
ENDMDL
MODEL 5
REMARK VINA RESULT:      -8.9      2.806     10.674
REMARK  7 active torsions:
REMARK  status: ('A' for Active; 'I' for Inactive)
REMARK    1  A    between atoms: C_5  and  C_6 
REMARK    2  A    between atoms: C_10  and  C_11 
REMARK       I    between atoms: C_11  and  N_12 
REMARK    3  A    between atoms: N_12  and  N_13 
REMARK       I    between atoms: N_13  and  C_14 
REMARK       I    between atoms: C_14  and  N_15 
REMARK    4  A    between atoms: N_15  and  C_16 
REMARK    5  A    between atoms: C_16  and  C_17 
REMARK    6  A    between atoms: C_17  and  C_18 
REMARK    7  A    between atoms: C_21  and  O_22 
ROOT
HETATM    1  C   UNL     1      -3.322   3.505 -31.988  1.00  0.00     0.288 C 
HETATM    2  N   UNL     1      -4.267   4.475 -32.236  1.00  0.00    -0.261 N 
HETATM    3  O   UNL     1      -2.157   3.787 -31.710  1.00  0.00    -0.264 OA
HETATM    4  H   UNL     1      -5.255   4.287 -32.384  1.00  0.00     0.190 HD
ENDROOT
BRANCH   2   5
HETATM    5  N   UNL     1      -3.874   5.821 -32.283  1.00  0.00    -0.249 N 
HETATM    6  C   UNL     1      -3.784   6.486 -31.078  1.00  0.00     0.335 C 
HETATM    7  N   UNL     1      -3.376   7.783 -31.242  1.00  0.00    -0.337 N 
HETATM    8  O   UNL     1      -4.075   5.973 -30.003  1.00  0.00    -0.246 OA
HETATM    9  H   UNL     1      -3.473   8.172 -32.169  1.00  0.00     0.164 HD
HETATM   10  H   UNL     1      -3.181   6.038 -32.996  1.00  0.00     0.192 HD
BRANCH   7  11
HETATM   11  C   UNL     1      -3.232   8.706 -30.121  1.00  0.00     0.086 C 
HETATM   12  C   UNL     1      -3.901  10.049 -30.429  1.00  0.00     0.032 C 
BRANCH  11  13
HETATM   13  C   UNL     1      -1.745   8.943 -29.774  1.00  0.00     0.063 C 
BRANCH  13  14
HETATM   14  C   UNL     1      -0.886   7.707 -29.609  1.00  0.00    -0.056 A 
HETATM   15  C   UNL     1      -0.738   7.135 -28.334  1.00  0.00     0.010 A 
HETATM   16  C   UNL     1       0.029   5.983 -28.148  1.00  0.00     0.037 A 
HETATM   17  C   UNL     1       0.643   5.389 -29.243  1.00  0.00     0.065 A 
HETATM   18  C   UNL     1       0.497   5.927 -30.516  1.00  0.00     0.037 A 
HETATM   19  C   UNL     1      -0.273   7.077 -30.701  1.00  0.00     0.010 A 
BRANCH  17  20
HETATM   20  O   UNL     1       1.401   4.264 -29.110  1.00  0.00    -0.361 OA
HETATM   21  H   UNL     1       2.249   4.406 -29.562  1.00  0.00     0.217 HD
ENDBRANCH  17  20
ENDBRANCH  13  14
ENDBRANCH  11  13
ENDBRANCH   7  11
ENDBRANCH   2   5
BRANCH   1  22
HETATM   22  C   UNL     1      -3.783   2.150 -32.106  1.00  0.00     0.121 A 
HETATM   23  N   UNL     1      -3.527   1.215 -31.142  1.00  0.00    -0.272 N 
HETATM   24  N   UNL     1      -3.940  -0.021 -31.452  1.00  0.00    -0.174 NA
HETATM   25  H   UNL     1      -3.039   1.365 -30.264  1.00  0.00     0.189 HD
HETATM   26  C   UNL     1      -4.520   0.105 -32.656  1.00  0.00     0.089 A 
HETATM   27  C   UNL     1      -4.467   1.460 -33.088  1.00  0.00     0.071 A 
BRANCH  26  28
HETATM   28  C   UNL     1      -5.059  -1.047 -33.381  1.00  0.00    -0.006 A 
HETATM   29  C   UNL     1      -4.229  -2.097 -33.792  1.00  0.00     0.014 A 
HETATM   30  C   UNL     1      -4.764  -3.218 -34.438  1.00  0.00     0.007 A 
HETATM   31  C   UNL     1      -6.137  -3.304 -34.691  1.00  0.00    -0.062 A 
HETATM   32  C   UNL     1      -6.717  -4.529 -35.334  1.00  0.00     0.048 C 
HETATM   33  C   UNL     1      -6.969  -2.257 -34.283  1.00  0.00     0.007 A 
HETATM   34  C   UNL     1      -6.434  -1.136 -33.642  1.00  0.00     0.014 A 
ENDBRANCH  26  28
ENDBRANCH   1  22
TORSDOF 7
ENDMDL
MODEL 6
REMARK VINA RESULT:      -8.7      2.770     10.906
REMARK  7 active torsions:
REMARK  status: ('A' for Active; 'I' for Inactive)
REMARK    1  A    between atoms: C_5  and  C_6 
REMARK    2  A    between atoms: C_10  and  C_11 
REMARK       I    between atoms: C_11  and  N_12 
REMARK    3  A    between atoms: N_12  and  N_13 
REMARK       I    between atoms: N_13  and  C_14 
REMARK       I    between atoms: C_14  and  N_15 
REMARK    4  A    between atoms: N_15  and  C_16 
REMARK    5  A    between atoms: C_16  and  C_17 
REMARK    6  A    between atoms: C_17  and  C_18 
REMARK    7  A    between atoms: C_21  and  O_22 
ROOT
HETATM    1  C   UNL     1      -3.001   3.547 -31.696  1.00  0.00     0.288 C 
HETATM    2  N   UNL     1      -3.907   4.547 -31.970  1.00  0.00    -0.261 N 
HETATM    3  O   UNL     1      -1.843   3.792 -31.361  1.00  0.00    -0.264 OA
HETATM    4  H   UNL     1      -4.892   4.389 -32.166  1.00  0.00     0.190 HD
ENDROOT
BRANCH   2   5
HETATM    5  N   UNL     1      -3.476   5.882 -31.976  1.00  0.00    -0.249 N 
HETATM    6  C   UNL     1      -3.703   6.615 -30.830  1.00  0.00     0.335 C 
HETATM    7  N   UNL     1      -3.227   7.894 -30.940  1.00  0.00    -0.337 N 
HETATM    8  O   UNL     1      -4.297   6.170 -29.853  1.00  0.00    -0.246 OA
HETATM    9  H   UNL     1      -3.051   8.230 -31.876  1.00  0.00     0.164 HD
HETATM   10  H   UNL     1      -2.606   6.046 -32.477  1.00  0.00     0.192 HD
BRANCH   7  11
HETATM   11  C   UNL     1      -3.372   8.878 -29.872  1.00  0.00     0.086 C 
HETATM   12  C   UNL     1      -3.855  10.221 -30.430  1.00  0.00     0.032 C 
BRANCH  11  13
HETATM   13  C   UNL     1      -2.041   9.087 -29.115  1.00  0.00     0.063 C 
BRANCH  13  14
HETATM   14  C   UNL     1      -1.650   8.008 -28.128  1.00  0.00    -0.056 A 
HETATM   15  C   UNL     1      -2.509   7.710 -27.056  1.00  0.00     0.010 A 
HETATM   16  C   UNL     1      -2.191   6.706 -26.139  1.00  0.00     0.037 A 
HETATM   17  C   UNL     1      -1.014   5.985 -26.299  1.00  0.00     0.065 A 
HETATM   18  C   UNL     1      -0.159   6.250 -27.361  1.00  0.00     0.037 A 
HETATM   19  C   UNL     1      -0.480   7.252 -28.279  1.00  0.00     0.010 A 
BRANCH  17  20
HETATM   20  O   UNL     1      -0.663   4.997 -25.429  1.00  0.00    -0.361 OA
HETATM   21  H   UNL     1      -1.351   4.312 -25.441  1.00  0.00     0.217 HD
ENDBRANCH  17  20
ENDBRANCH  13  14
ENDBRANCH  11  13
ENDBRANCH   7  11
ENDBRANCH   2   5
BRANCH   1  22
HETATM   22  C   UNL     1      -3.493   2.208 -31.859  1.00  0.00     0.121 A 
HETATM   23  N   UNL     1      -3.202   1.219 -30.962  1.00  0.00    -0.272 N 
HETATM   24  N   UNL     1      -3.654   0.007 -31.312  1.00  0.00    -0.174 NA
HETATM   25  H   UNL     1      -2.662   1.313 -30.106  1.00  0.00     0.189 HD
HETATM   26  C   UNL     1      -4.298   0.207 -32.473  1.00  0.00     0.089 A 
HETATM   27  C   UNL     1      -4.244   1.582 -32.835  1.00  0.00     0.071 A 
BRANCH  26  28
HETATM   28  C   UNL     1      -4.898  -0.896 -33.226  1.00  0.00    -0.006 A 
HETATM   29  C   UNL     1      -4.134  -1.999 -33.628  1.00  0.00     0.014 A 
HETATM   30  C   UNL     1      -4.730  -3.072 -34.301  1.00  0.00     0.007 A 
HETATM   31  C   UNL     1      -6.098  -3.057 -34.592  1.00  0.00    -0.062 A 
HETATM   32  C   UNL     1      -6.746  -4.230 -35.264  1.00  0.00     0.048 C 
HETATM   33  C   UNL     1      -6.864  -1.957 -34.193  1.00  0.00     0.007 A 
HETATM   34  C   UNL     1      -6.267  -0.884 -33.524  1.00  0.00     0.014 A 
ENDBRANCH  26  28
ENDBRANCH   1  22
TORSDOF 7
ENDMDL
MODEL 7
REMARK VINA RESULT:      -8.7      8.114     12.313
REMARK  7 active torsions:
REMARK  status: ('A' for Active; 'I' for Inactive)
REMARK    1  A    between atoms: C_5  and  C_6 
REMARK    2  A    between atoms: C_10  and  C_11 
REMARK       I    between atoms: C_11  and  N_12 
REMARK    3  A    between atoms: N_12  and  N_13 
REMARK       I    between atoms: N_13  and  C_14 
REMARK       I    between atoms: C_14  and  N_15 
REMARK    4  A    between atoms: N_15  and  C_16 
REMARK    5  A    between atoms: C_16  and  C_17 
REMARK    6  A    between atoms: C_17  and  C_18 
REMARK    7  A    between atoms: C_21  and  O_22 
ROOT
HETATM    1  C   UNL     1     -10.217   2.153 -34.004  1.00  0.00     0.288 C 
HETATM    2  N   UNL     1     -10.441   2.920 -35.125  1.00  0.00    -0.261 N 
HETATM    3  O   UNL     1     -11.031   2.092 -33.083  1.00  0.00    -0.264 OA
HETATM    4  H   UNL     1      -9.836   2.930 -35.941  1.00  0.00     0.190 HD
ENDROOT
BRANCH   2   5
HETATM    5  N   UNL     1     -11.576   3.743 -35.179  1.00  0.00    -0.249 N 
HETATM    6  C   UNL     1     -11.358   5.094 -35.354  1.00  0.00     0.335 C 
HETATM    7  N   UNL     1     -12.532   5.796 -35.409  1.00  0.00    -0.337 N 
HETATM    8  O   UNL     1     -10.239   5.592 -35.411  1.00  0.00    -0.246 OA
HETATM    9  H   UNL     1     -13.351   5.335 -35.041  1.00  0.00     0.164 HD
HETATM   10  H   UNL     1     -12.381   3.330 -35.646  1.00  0.00     0.192 HD
BRANCH   7  11
HETATM   11  C   UNL     1     -12.570   7.247 -35.559  1.00  0.00     0.086 C 
HETATM   12  C   UNL     1     -13.554   7.873 -34.565  1.00  0.00     0.032 C 
BRANCH  11  13
HETATM   13  C   UNL     1     -12.964   7.655 -36.996  1.00  0.00     0.063 C 
BRANCH  13  14
HETATM   14  C   UNL     1     -12.023   8.604 -37.709  1.00  0.00    -0.056 A 
HETATM   15  C   UNL     1     -10.730   8.808 -37.196  1.00  0.00     0.010 A 
HETATM   16  C   UNL     1      -9.829   9.659 -37.840  1.00  0.00     0.037 A 
HETATM   17  C   UNL     1     -10.214  10.301 -39.010  1.00  0.00     0.065 A 
HETATM   18  C   UNL     1     -11.481  10.101 -39.544  1.00  0.00     0.037 A 
HETATM   19  C   UNL     1     -12.380   9.248 -38.901  1.00  0.00     0.010 A 
BRANCH  17  20
HETATM   20  O   UNL     1      -9.369  11.140 -39.672  1.00  0.00    -0.361 OA
HETATM   21  H   UNL     1      -9.401  10.929 -40.619  1.00  0.00     0.217 HD
ENDBRANCH  17  20
ENDBRANCH  13  14
ENDBRANCH  11  13
ENDBRANCH   7  11
ENDBRANCH   2   5
BRANCH   1  22
HETATM   22  C   UNL     1      -8.960   1.459 -33.972  1.00  0.00     0.121 A 
HETATM   23  N   UNL     1      -7.775   2.105 -34.192  1.00  0.00    -0.272 N 
HETATM   24  N   UNL     1      -6.707   1.297 -34.226  1.00  0.00    -0.174 NA
HETATM   25  H   UNL     1      -7.645   3.098 -34.361  1.00  0.00     0.189 HD
HETATM   26  C   UNL     1      -7.200   0.071 -33.989  1.00  0.00     0.089 A 
HETATM   27  C   UNL     1      -8.608   0.136 -33.795  1.00  0.00     0.071 A 
BRANCH  26  28
HETATM   28  C   UNL     1      -6.350  -1.121 -33.999  1.00  0.00    -0.006 A 
HETATM   29  C   UNL     1      -6.744  -2.286 -34.670  1.00  0.00     0.014 A 
HETATM   30  C   UNL     1      -5.900  -3.402 -34.717  1.00  0.00     0.007 A 
HETATM   31  C   UNL     1      -4.651  -3.375 -34.089  1.00  0.00    -0.062 A 
HETATM   32  C   UNL     1      -3.723  -4.550 -34.187  1.00  0.00     0.048 C 
HETATM   33  C   UNL     1      -4.253  -2.213 -33.419  1.00  0.00     0.007 A 
HETATM   34  C   UNL     1      -5.099  -1.101 -33.367  1.00  0.00     0.014 A 
ENDBRANCH  26  28
ENDBRANCH   1  22
TORSDOF 7
ENDMDL
MODEL 8
REMARK VINA RESULT:      -8.6      4.275     11.755
REMARK  7 active torsions:
REMARK  status: ('A' for Active; 'I' for Inactive)
REMARK    1  A    between atoms: C_5  and  C_6 
REMARK    2  A    between atoms: C_10  and  C_11 
REMARK       I    between atoms: C_11  and  N_12 
REMARK    3  A    between atoms: N_12  and  N_13 
REMARK       I    between atoms: N_13  and  C_14 
REMARK       I    between atoms: C_14  and  N_15 
REMARK    4  A    between atoms: N_15  and  C_16 
REMARK    5  A    between atoms: C_16  and  C_17 
REMARK    6  A    between atoms: C_17  and  C_18 
REMARK    7  A    between atoms: C_21  and  O_22 
ROOT
HETATM    1  C   UNL     1      -6.658   3.047 -32.367  1.00  0.00     0.288 C 
HETATM    2  N   UNL     1      -6.000   3.908 -33.216  1.00  0.00    -0.261 N 
HETATM    3  O   UNL     1      -6.274   2.848 -31.216  1.00  0.00    -0.264 OA
HETATM    4  H   UNL     1      -6.333   4.164 -34.142  1.00  0.00     0.190 HD
ENDROOT
BRANCH   2   5
HETATM    5  N   UNL     1      -4.795   4.495 -32.801  1.00  0.00    -0.249 N 
HETATM    6  C   UNL     1      -4.077   5.186 -33.755  1.00  0.00     0.335 C 
HETATM    7  N   UNL     1      -2.933   5.729 -33.237  1.00  0.00    -0.337 N 
HETATM    8  O   UNL     1      -4.419   5.260 -34.931  1.00  0.00    -0.246 OA
HETATM    9  H   UNL     1      -2.606   5.343 -32.363  1.00  0.00     0.164 HD
HETATM   10  H   UNL     1      -4.807   4.870 -31.855  1.00  0.00     0.192 HD
BRANCH   7  11
HETATM   11  C   UNL     1      -1.985   6.483 -34.052  1.00  0.00     0.086 C 
HETATM   12  C   UNL     1      -1.078   5.539 -34.848  1.00  0.00     0.032 C 
BRANCH  11  13
HETATM   13  C   UNL     1      -1.114   7.418 -33.183  1.00  0.00     0.063 C 
BRANCH  13  14
HETATM   14  C   UNL     1      -0.797   6.935 -31.783  1.00  0.00    -0.056 A 
HETATM   15  C   UNL     1      -1.430   7.542 -30.685  1.00  0.00     0.010 A 
HETATM   16  C   UNL     1      -1.178   7.109 -29.381  1.00  0.00     0.037 A 
HETATM   17  C   UNL     1      -0.298   6.054 -29.172  1.00  0.00     0.065 A 
HETATM   18  C   UNL     1       0.326   5.428 -30.244  1.00  0.00     0.037 A 
HETATM   19  C   UNL     1       0.071   5.860 -31.547  1.00  0.00     0.010 A 
BRANCH  17  20
HETATM   20  O   UNL     1      -0.021   5.598 -27.919  1.00  0.00    -0.361 OA
HETATM   21  H   UNL     1       0.296   4.682 -27.984  1.00  0.00     0.217 HD
ENDBRANCH  17  20
ENDBRANCH  13  14
ENDBRANCH  11  13
ENDBRANCH   7  11
ENDBRANCH   2   5
BRANCH   1  22
HETATM   22  C   UNL     1      -7.799   2.379 -32.929  1.00  0.00     0.121 A 
HETATM   23  N   UNL     1      -7.691   1.563 -34.019  1.00  0.00    -0.272 N 
HETATM   24  N   UNL     1      -8.862   1.098 -34.477  1.00  0.00    -0.174 NA
HETATM   25  H   UNL     1      -6.839   1.318 -34.515  1.00  0.00     0.189 HD
HETATM   26  C   UNL     1      -9.779   1.602 -33.636  1.00  0.00     0.089 A 
HETATM   27  C   UNL     1      -9.148   2.389 -32.632  1.00  0.00     0.071 A 
BRANCH  26  28
HETATM   28  C   UNL     1     -11.213   1.373 -33.826  1.00  0.00    -0.006 A 
HETATM   29  C   UNL     1     -12.022   2.328 -34.454  1.00  0.00     0.014 A 
HETATM   30  C   UNL     1     -13.381   2.075 -34.677  1.00  0.00     0.007 A 
HETATM   31  C   UNL     1     -13.955   0.866 -34.269  1.00  0.00    -0.062 A 
HETATM   32  C   UNL     1     -15.397   0.573 -34.558  1.00  0.00     0.048 C 
HETATM   33  C   UNL     1     -13.150  -0.090 -33.642  1.00  0.00     0.007 A 
HETATM   34  C   UNL     1     -11.794   0.165 -33.415  1.00  0.00     0.014 A 
ENDBRANCH  26  28
ENDBRANCH   1  22
TORSDOF 7
ENDMDL
MODEL 9
REMARK VINA RESULT:      -8.5      2.819     12.054
REMARK  7 active torsions:
REMARK  status: ('A' for Active; 'I' for Inactive)
REMARK    1  A    between atoms: C_5  and  C_6 
REMARK    2  A    between atoms: C_10  and  C_11 
REMARK       I    between atoms: C_11  and  N_12 
REMARK    3  A    between atoms: N_12  and  N_13 
REMARK       I    between atoms: N_13  and  C_14 
REMARK       I    between atoms: C_14  and  N_15 
REMARK    4  A    between atoms: N_15  and  C_16 
REMARK    5  A    between atoms: C_16  and  C_17 
REMARK    6  A    between atoms: C_17  and  C_18 
REMARK    7  A    between atoms: C_21  and  O_22 
ROOT
HETATM    1  C   UNL     1      -2.824   4.213 -31.229  1.00  0.00     0.288 C 
HETATM    2  N   UNL     1      -3.374   5.285 -30.563  1.00  0.00    -0.261 N 
HETATM    3  O   UNL     1      -1.608   4.089 -31.369  1.00  0.00    -0.264 OA
HETATM    4  H   UNL     1      -4.363   5.381 -30.351  1.00  0.00     0.190 HD
ENDROOT
BRANCH   2   5
HETATM    5  N   UNL     1      -2.539   6.324 -30.125  1.00  0.00    -0.249 N 
HETATM    6  C   UNL     1      -2.940   7.013 -28.999  1.00  0.00     0.335 C 
HETATM    7  N   UNL     1      -2.044   7.989 -28.654  1.00  0.00    -0.337 N 
HETATM    8  O   UNL     1      -3.994   6.790 -28.414  1.00  0.00    -0.246 OA
HETATM    9  H   UNL     1      -1.396   8.281 -29.372  1.00  0.00     0.164 HD
HETATM   10  H   UNL     1      -1.543   6.149 -30.242  1.00  0.00     0.192 HD
BRANCH   7  11
HETATM   11  C   UNL     1      -2.255   8.878 -27.516  1.00  0.00     0.086 C 
HETATM   12  C   UNL     1      -1.620  10.250 -27.770  1.00  0.00     0.032 C 
BRANCH  11  13
HETATM   13  C   UNL     1      -1.673   8.278 -26.217  1.00  0.00     0.063 C 
BRANCH  13  14
HETATM   14  C   UNL     1      -0.261   8.691 -25.856  1.00  0.00    -0.056 A 
HETATM   15  C   UNL     1      -0.059   9.636 -24.836  1.00  0.00     0.010 A 
HETATM   16  C   UNL     1       1.230  10.024 -24.462  1.00  0.00     0.037 A 
HETATM   17  C   UNL     1       2.325   9.457 -25.102  1.00  0.00     0.065 A 
HETATM   18  C   UNL     1       2.149   8.508 -26.102  1.00  0.00     0.037 A 
HETATM   19  C   UNL     1       0.860   8.118 -26.472  1.00  0.00     0.010 A 
BRANCH  17  20
HETATM   20  O   UNL     1       3.600   9.805 -24.772  1.00  0.00    -0.361 OA
HETATM   21  H   UNL     1       4.172   9.027 -24.876  1.00  0.00     0.217 HD
ENDBRANCH  17  20
ENDBRANCH  13  14
ENDBRANCH  11  13
ENDBRANCH   7  11
ENDBRANCH   2   5
BRANCH   1  22
HETATM   22  C   UNL     1      -3.766   3.274 -31.770  1.00  0.00     0.121 A 
HETATM   23  N   UNL     1      -5.112   3.410 -31.575  1.00  0.00    -0.272 N 
HETATM   24  N   UNL     1      -5.843   2.398 -32.061  1.00  0.00    -0.174 NA
HETATM   25  H   UNL     1      -5.582   4.163 -31.082  1.00  0.00     0.189 HD
HETATM   26  C   UNL     1      -4.948   1.573 -32.627  1.00  0.00     0.089 A 
HETATM   27  C   UNL     1      -3.635   2.103 -32.491  1.00  0.00     0.071 A 
BRANCH  26  28
HETATM   28  C   UNL     1      -5.343   0.299 -33.231  1.00  0.00    -0.006 A 
HETATM   29  C   UNL     1      -4.431  -0.757 -33.355  1.00  0.00     0.014 A 
HETATM   30  C   UNL     1      -4.834  -1.988 -33.886  1.00  0.00     0.007 A 
HETATM   31  C   UNL     1      -6.153  -2.182 -34.309  1.00  0.00    -0.062 A 
HETATM   32  C   UNL     1      -6.599  -3.518 -34.826  1.00  0.00     0.048 C 
HETATM   33  C   UNL     1      -7.067  -1.130 -34.187  1.00  0.00     0.007 A 
HETATM   34  C   UNL     1      -6.662   0.101 -33.662  1.00  0.00     0.014 A 
ENDBRANCH  26  28
ENDBRANCH   1  22
TORSDOF 7
ENDMDL
MODEL 10
REMARK VINA RESULT:      -8.4     18.261     19.348
REMARK  7 active torsions:
REMARK  status: ('A' for Active; 'I' for Inactive)
REMARK    1  A    between atoms: C_5  and  C_6 
REMARK    2  A    between atoms: C_10  and  C_11 
REMARK       I    between atoms: C_11  and  N_12 
REMARK    3  A    between atoms: N_12  and  N_13 
REMARK       I    between atoms: N_13  and  C_14 
REMARK       I    between atoms: C_14  and  N_15 
REMARK    4  A    between atoms: N_15  and  C_16 
REMARK    5  A    between atoms: C_16  and  C_17 
REMARK    6  A    between atoms: C_17  and  C_18 
REMARK    7  A    between atoms: C_21  and  O_22 
ROOT
HETATM    1  C   UNL     1      -5.708 -14.710 -32.448  1.00  0.00     0.288 C 
HETATM    2  N   UNL     1      -4.866 -14.000 -33.274  1.00  0.00    -0.261 N 
HETATM    3  O   UNL     1      -6.919 -14.776 -32.654  1.00  0.00    -0.264 OA
HETATM    4  H   UNL     1      -3.854 -13.991 -33.188  1.00  0.00     0.190 HD
ENDROOT
BRANCH   2   5
HETATM    5  N   UNL     1      -5.410 -13.237 -34.319  1.00  0.00    -0.249 N 
HETATM    6  C   UNL     1      -5.538 -13.860 -35.543  1.00  0.00     0.335 C 
HETATM    7  N   UNL     1      -6.095 -13.031 -36.479  1.00  0.00    -0.337 N 
HETATM    8  O   UNL     1      -5.158 -15.006 -35.757  1.00  0.00    -0.246 OA
HETATM    9  H   UNL     1      -6.072 -12.042 -36.277  1.00  0.00     0.164 HD
HETATM   10  H   UNL     1      -6.145 -12.592 -34.037  1.00  0.00     0.192 HD
BRANCH   7  11
HETATM   11  C   UNL     1      -6.309 -13.445 -37.863  1.00  0.00     0.086 C 
HETATM   12  C   UNL     1      -4.972 -13.687 -38.572  1.00  0.00     0.032 C 
BRANCH  11  13
HETATM   13  C   UNL     1      -7.121 -12.391 -38.647  1.00  0.00     0.063 C 
BRANCH  13  14
HETATM   14  C   UNL     1      -8.428 -12.860 -39.251  1.00  0.00    -0.056 A 
HETATM   15  C   UNL     1      -9.299 -11.918 -39.824  1.00  0.00     0.010 A 
HETATM   16  C   UNL     1     -10.503 -12.317 -40.410  1.00  0.00     0.037 A 
HETATM   17  C   UNL     1     -10.835 -13.666 -40.434  1.00  0.00     0.065 A 
HETATM   18  C   UNL     1      -9.981 -14.616 -39.887  1.00  0.00     0.037 A 
HETATM   19  C   UNL     1      -8.777 -14.216 -39.306  1.00  0.00     0.010 A 
BRANCH  17  20
HETATM   20  O   UNL     1     -11.999 -14.101 -40.993  1.00  0.00    -0.361 OA
HETATM   21  H   UNL     1     -12.699 -13.457 -40.796  1.00  0.00     0.217 HD
ENDBRANCH  17  20
ENDBRANCH  13  14
ENDBRANCH  11  13
ENDBRANCH   7  11
ENDBRANCH   2   5
BRANCH   1  22
HETATM   22  C   UNL     1      -5.080 -15.337 -31.319  1.00  0.00     0.121 A 
HETATM   23  N   UNL     1      -5.794 -15.721 -30.219  1.00  0.00    -0.272 N 
HETATM   24  N   UNL     1      -5.044 -16.200 -29.216  1.00  0.00    -0.174 NA
HETATM   25  H   UNL     1      -6.798 -15.644 -30.087  1.00  0.00     0.189 HD
HETATM   26  C   UNL     1      -3.786 -16.160 -29.683  1.00  0.00     0.089 A 
HETATM   27  C   UNL     1      -3.770 -15.651 -31.012  1.00  0.00     0.071 A 
BRANCH  26  28
HETATM   28  C   UNL     1      -2.641 -16.551 -28.859  1.00  0.00    -0.006 A 
HETATM   29  C   UNL     1      -1.488 -15.758 -28.798  1.00  0.00     0.014 A 
HETATM   30  C   UNL     1      -0.421 -16.115 -27.965  1.00  0.00     0.007 A 
HETATM   31  C   UNL     1      -0.485 -17.274 -27.185  1.00  0.00    -0.062 A 
HETATM   32  C   UNL     1       0.635 -17.627 -26.252  1.00  0.00     0.048 C 
HETATM   33  C   UNL     1      -1.635 -18.068 -27.243  1.00  0.00     0.007 A 
HETATM   34  C   UNL     1      -2.698 -17.714 -28.079  1.00  0.00     0.014 A 
ENDBRANCH  26  28
ENDBRANCH   1  22
TORSDOF 7
ENDMDL
