MODEL 1
REMARK VINA RESULT:      -7.7      0.000      0.000
REMARK  3 active torsions:
REMARK  status: ('A' for Active; 'I' for Inactive)
REMARK    1  A    between atoms: O_2  and  C_3 
REMARK    2  A    between atoms: C_4  and  C_5 
REMARK    3  A    between atoms: C_16  and  N_17 
ROOT
HETATM    1  C   UNL     1      -9.179   3.184 -33.285  1.00  0.00     0.246 A 
HETATM    2  N   UNL     1      -8.421   2.057 -32.788  1.00  0.00    -0.151 N 
HETATM    3  C   UNL     1      -8.191   1.901 -31.445  1.00  0.00     0.734 A 
HETATM    4  N   UNL     1      -7.464   0.822 -31.247  1.00  0.00    -0.060 NA
HETATM    5  C   UNL     1      -7.195   0.302 -32.489  1.00  0.00     0.103 A 
HETATM    6  C   UNL     1      -7.776   1.074 -33.489  1.00  0.00     0.083 A 
HETATM    7  C   UNL     1      -6.449  -0.833 -32.839  1.00  0.00     0.034 A 
HETATM    8  C   UNL     1      -6.312  -1.153 -34.195  1.00  0.00     0.002 A 
HETATM    9  C   UNL     1      -6.904  -0.360 -35.181  1.00  0.00     0.002 A 
HETATM   10  C   UNL     1      -7.652   0.777 -34.851  1.00  0.00     0.033 A 
HETATM   11  N   UNL     1      -8.657   2.765 -30.516  1.00  0.00    -0.033 NA
HETATM   12  C   UNL     1      -9.268   3.826 -30.906  1.00  0.00     0.193 A 
HETATM   13  N   UNL     1      -9.527   4.145 -32.241  1.00  0.00    -0.338 N 
HETATM   14  H   UNL     1     -10.067   4.956 -32.501  1.00  0.00     0.164 HD
ENDROOT
BRANCH   1  15
HETATM   15  C   UNL     1     -10.477   2.798 -33.982  1.00  0.00     0.020 A 
HETATM   16  C   UNL     1     -10.963   3.619 -35.023  1.00  0.00     0.078 A 
HETATM   17  C   UNL     1     -12.171   3.310 -35.656  1.00  0.00     0.039 A 
HETATM   18  C   UNL     1     -12.901   2.184 -35.272  1.00  0.00     0.022 A 
HETATM   19  C   UNL     1     -12.435   1.376 -34.243  1.00  0.00     0.011 A 
HETATM   20  C   UNL     1     -11.242   1.682 -33.588  1.00  0.00     0.033 A 
HETATM   21 BR   UNL     1     -13.429  -0.144 -33.719  1.00  0.00    -0.051 Br
BRANCH  16  22
HETATM   22  O   UNL     1     -10.203   4.724 -35.308  1.00  0.00    -0.355 OA
HETATM   23  C   UNL     1     -10.871   5.984 -35.291  1.00  0.00     0.210 C 
ENDBRANCH  16  22
ENDBRANCH   1  15
BRANCH  12  24
HETATM   24  N   UNL     1      -9.739   4.756 -30.051  1.00  0.00    -0.272 NA
HETATM   25  H   UNL     1      -9.516   4.511 -29.088  1.00  0.00     0.127 HD
HETATM   26  H   UNL     1      -9.493   5.717 -30.249  1.00  0.00     0.127 HD
ENDBRANCH  12  24
TORSDOF 3
ENDMDL
MODEL 2
REMARK VINA RESULT:      -7.5      4.176      5.985
REMARK  3 active torsions:
REMARK  status: ('A' for Active; 'I' for Inactive)
REMARK    1  A    between atoms: O_2  and  C_3 
REMARK    2  A    between atoms: C_4  and  C_5 
REMARK    3  A    between atoms: C_16  and  N_17 
ROOT
HETATM    1  C   UNL     1      -6.397   0.766 -31.392  1.00  0.00     0.246 A 
HETATM    2  N   UNL     1      -6.863  -0.071 -32.475  1.00  0.00    -0.151 N 
HETATM    3  C   UNL     1      -8.180  -0.060 -32.858  1.00  0.00     0.734 A 
HETATM    4  N   UNL     1      -8.359  -0.916 -33.841  1.00  0.00    -0.060 NA
HETATM    5  C   UNL     1      -7.142  -1.511 -34.064  1.00  0.00     0.103 A 
HETATM    6  C   UNL     1      -6.175  -1.007 -33.201  1.00  0.00     0.083 A 
HETATM    7  C   UNL     1      -6.789  -2.503 -34.990  1.00  0.00     0.034 A 
HETATM    8  C   UNL     1      -5.465  -2.957 -35.015  1.00  0.00     0.002 A 
HETATM    9  C   UNL     1      -4.513  -2.435 -34.136  1.00  0.00     0.002 A 
HETATM   10  C   UNL     1      -4.846  -1.444 -33.204  1.00  0.00     0.033 A 
HETATM   11  N   UNL     1      -9.108   0.726 -32.268  1.00  0.00    -0.033 NA
HETATM   12  C   UNL     1      -8.768   1.430 -31.248  1.00  0.00     0.193 A 
HETATM   13  N   UNL     1      -7.479   1.477 -30.713  1.00  0.00    -0.338 N 
HETATM   14  H   UNL     1      -7.238   2.094 -29.952  1.00  0.00     0.164 HD
ENDROOT
BRANCH   1  15
HETATM   15  C   UNL     1      -5.375   1.812 -31.813  1.00  0.00     0.020 A 
HETATM   16  C   UNL     1      -4.029   1.649 -31.417  1.00  0.00     0.078 A 
HETATM   17  C   UNL     1      -3.074   2.612 -31.758  1.00  0.00     0.039 A 
HETATM   18  C   UNL     1      -3.440   3.737 -32.499  1.00  0.00     0.022 A 
HETATM   19  C   UNL     1      -4.764   3.910 -32.885  1.00  0.00     0.011 A 
HETATM   20  C   UNL     1      -5.731   2.968 -32.536  1.00  0.00     0.033 A 
HETATM   21 BR   UNL     1      -5.259   5.437 -33.883  1.00  0.00    -0.051 Br
BRANCH  16  22
HETATM   22  O   UNL     1      -3.766   0.536 -30.659  1.00  0.00    -0.355 OA
HETATM   23  C   UNL     1      -2.668  -0.276 -31.072  1.00  0.00     0.210 C 
ENDBRANCH  16  22
ENDBRANCH   1  15
BRANCH  12  24
HETATM   24  N   UNL     1      -9.635   2.218 -30.580  1.00  0.00    -0.272 NA
HETATM   25  H   UNL     1     -10.518   1.737 -30.425  1.00  0.00     0.127 HD
HETATM   26  H   UNL     1      -9.294   2.641 -29.727  1.00  0.00     0.127 HD
ENDBRANCH  12  24
TORSDOF 3
ENDMDL
MODEL 3
REMARK VINA RESULT:      -7.4      4.165      5.234
REMARK  3 active torsions:
REMARK  status: ('A' for Active; 'I' for Inactive)
REMARK    1  A    between atoms: O_2  and  C_3 
REMARK    2  A    between atoms: C_4  and  C_5 
REMARK    3  A    between atoms: C_16  and  N_17 
ROOT
HETATM    1  C   UNL     1      -6.731   3.320 -32.559  1.00  0.00     0.246 A 
HETATM    2  N   UNL     1      -5.432   3.928 -32.378  1.00  0.00    -0.151 N 
HETATM    3  C   UNL     1      -4.900   4.093 -31.124  1.00  0.00     0.734 A 
HETATM    4  N   UNL     1      -3.730   4.685 -31.218  1.00  0.00    -0.060 NA
HETATM    5  C   UNL     1      -3.527   4.937 -32.552  1.00  0.00     0.103 A 
HETATM    6  C   UNL     1      -4.599   4.481 -33.313  1.00  0.00     0.083 A 
HETATM    7  C   UNL     1      -2.445   5.561 -33.190  1.00  0.00     0.034 A 
HETATM    8  C   UNL     1      -2.480   5.707 -34.582  1.00  0.00     0.002 A 
HETATM    9  C   UNL     1      -3.569   5.243 -35.323  1.00  0.00     0.002 A 
HETATM   10  C   UNL     1      -4.659   4.617 -34.704  1.00  0.00     0.033 A 
HETATM   11  N   UNL     1      -5.538   3.695 -30.000  1.00  0.00    -0.033 NA
HETATM   12  C   UNL     1      -6.728   3.223 -30.095  1.00  0.00     0.193 A 
HETATM   13  N   UNL     1      -7.417   3.048 -31.298  1.00  0.00    -0.338 N 
HETATM   14  H   UNL     1      -8.325   2.612 -31.335  1.00  0.00     0.164 HD
ENDROOT
BRANCH   1  15
HETATM   15  C   UNL     1      -6.699   2.012 -33.337  1.00  0.00     0.020 A 
HETATM   16  C   UNL     1      -7.751   1.725 -34.235  1.00  0.00     0.078 A 
HETATM   17  C   UNL     1      -7.768   0.515 -34.936  1.00  0.00     0.039 A 
HETATM   18  C   UNL     1      -6.741  -0.415 -34.762  1.00  0.00     0.022 A 
HETATM   19  C   UNL     1      -5.707  -0.146 -33.874  1.00  0.00     0.011 A 
HETATM   20  C   UNL     1      -5.687   1.048 -33.152  1.00  0.00     0.033 A 
HETATM   21 BR   UNL     1      -4.322  -1.409 -33.635  1.00  0.00    -0.051 Br
BRANCH  16  22
HETATM   22  O   UNL     1      -8.735   2.677 -34.315  1.00  0.00    -0.355 OA
HETATM   23  C   UNL     1     -10.081   2.218 -34.197  1.00  0.00     0.210 C 
ENDBRANCH  16  22
ENDBRANCH   1  15
BRANCH  12  24
HETATM   24  N   UNL     1      -7.449   2.831 -29.024  1.00  0.00    -0.272 NA
HETATM   25  H   UNL     1      -7.003   2.046 -28.554  1.00  0.00     0.127 HD
HETATM   26  H   UNL     1      -7.705   3.554 -28.365  1.00  0.00     0.127 HD
ENDBRANCH  12  24
TORSDOF 3
ENDMDL
MODEL 4
REMARK VINA RESULT:      -7.1      3.767      5.679
REMARK  3 active torsions:
REMARK  status: ('A' for Active; 'I' for Inactive)
REMARK    1  A    between atoms: O_2  and  C_3 
REMARK    2  A    between atoms: C_4  and  C_5 
REMARK    3  A    between atoms: C_16  and  N_17 
ROOT
HETATM    1  C   UNL     1      -7.085   1.598 -32.527  1.00  0.00     0.246 A 
HETATM    2  N   UNL     1      -6.571   0.451 -33.243  1.00  0.00    -0.151 N 
HETATM    3  C   UNL     1      -7.168   0.018 -34.399  1.00  0.00     0.734 A 
HETATM    4  N   UNL     1      -6.537  -1.046 -34.846  1.00  0.00    -0.060 NA
HETATM    5  C   UNL     1      -5.543  -1.319 -33.939  1.00  0.00     0.103 A 
HETATM    6  C   UNL     1      -5.550  -0.394 -32.901  1.00  0.00     0.083 A 
HETATM    7  C   UNL     1      -4.595  -2.352 -33.936  1.00  0.00     0.034 A 
HETATM    8  C   UNL     1      -3.680  -2.420 -32.878  1.00  0.00     0.002 A 
HETATM    9  C   UNL     1      -3.709  -1.480 -31.846  1.00  0.00     0.002 A 
HETATM   10  C   UNL     1      -4.648  -0.440 -31.832  1.00  0.00     0.033 A 
HETATM   11  N   UNL     1      -8.246   0.629 -34.941  1.00  0.00    -0.033 NA
HETATM   12  C   UNL     1      -8.792   1.602 -34.306  1.00  0.00     0.193 A 
HETATM   13  N   UNL     1      -8.329   2.116 -33.092  1.00  0.00    -0.338 N 
HETATM   14  H   UNL     1      -8.748   2.924 -32.660  1.00  0.00     0.164 HD
ENDROOT
BRANCH   1  15
HETATM   15  C   UNL     1      -6.112   2.767 -32.452  1.00  0.00     0.020 A 
HETATM   16  C   UNL     1      -5.834   3.344 -31.193  1.00  0.00     0.078 A 
HETATM   17  C   UNL     1      -4.974   4.442 -31.097  1.00  0.00     0.039 A 
HETATM   18  C   UNL     1      -4.376   4.972 -32.242  1.00  0.00     0.022 A 
HETATM   19  C   UNL     1      -4.650   4.417 -33.486  1.00  0.00     0.011 A 
HETATM   20  C   UNL     1      -5.522   3.334 -33.600  1.00  0.00     0.033 A 
HETATM   21 BR   UNL     1      -3.845   5.139 -35.035  1.00  0.00    -0.051 Br
BRANCH  16  22
HETATM   22  O   UNL     1      -6.495   2.786 -30.128  1.00  0.00    -0.355 OA
HETATM   23  C   UNL     1      -7.555   3.552 -29.558  1.00  0.00     0.210 C 
ENDBRANCH  16  22
ENDBRANCH   1  15
BRANCH  12  24
HETATM   24  N   UNL     1      -9.887   2.248 -34.757  1.00  0.00    -0.272 NA
HETATM   25  H   UNL     1     -10.564   2.382 -34.009  1.00  0.00     0.127 HD
HETATM   26  H   UNL     1      -9.725   3.110 -35.262  1.00  0.00     0.127 HD
ENDBRANCH  12  24
TORSDOF 3
ENDMDL
MODEL 5
REMARK VINA RESULT:      -6.8     15.974     17.967
REMARK  3 active torsions:
REMARK  status: ('A' for Active; 'I' for Inactive)
REMARK    1  A    between atoms: O_2  and  C_3 
REMARK    2  A    between atoms: C_4  and  C_5 
REMARK    3  A    between atoms: C_16  and  N_17 
ROOT
HETATM    1  C   UNL     1      -5.996 -13.122 -39.109  1.00  0.00     0.246 A 
HETATM    2  N   UNL     1      -4.818 -13.637 -39.771  1.00  0.00    -0.151 N 
HETATM    3  C   UNL     1      -3.617 -13.714 -39.113  1.00  0.00     0.734 A 
HETATM    4  N   UNL     1      -2.700 -14.190 -39.927  1.00  0.00    -0.060 NA
HETATM    5  C   UNL     1      -3.318 -14.385 -41.137  1.00  0.00     0.103 A 
HETATM    6  C   UNL     1      -4.660 -14.027 -41.074  1.00  0.00     0.083 A 
HETATM    7  C   UNL     1      -2.788 -14.862 -42.345  1.00  0.00     0.034 A 
HETATM    8  C   UNL     1      -3.634 -14.962 -43.455  1.00  0.00     0.002 A 
HETATM    9  C   UNL     1      -4.978 -14.595 -43.367  1.00  0.00     0.002 A 
HETATM   10  C   UNL     1      -5.526 -14.116 -42.170  1.00  0.00     0.033 A 
HETATM   11  N   UNL     1      -3.462 -13.333 -37.825  1.00  0.00    -0.033 NA
HETATM   12  C   UNL     1      -4.454 -12.793 -37.214  1.00  0.00     0.193 A 
HETATM   13  N   UNL     1      -5.719 -12.600 -37.773  1.00  0.00    -0.338 N 
HETATM   14  H   UNL     1      -6.489 -12.232 -37.236  1.00  0.00     0.164 HD
ENDROOT
BRANCH   1  15
HETATM   15  C   UNL     1      -7.119 -14.139 -38.963  1.00  0.00     0.020 A 
HETATM   16  C   UNL     1      -8.322 -13.934 -39.674  1.00  0.00     0.078 A 
HETATM   17  C   UNL     1      -9.385 -14.832 -39.531  1.00  0.00     0.039 A 
HETATM   18  C   UNL     1      -9.263 -15.942 -38.694  1.00  0.00     0.022 A 
HETATM   19  C   UNL     1      -8.086 -16.147 -37.985  1.00  0.00     0.011 A 
HETATM   20  C   UNL     1      -7.024 -15.250 -38.100  1.00  0.00     0.033 A 
HETATM   21 BR   UNL     1      -7.925 -17.647 -36.846  1.00  0.00    -0.051 Br
BRANCH  16  22
HETATM   22  O   UNL     1      -8.369 -12.798 -40.442  1.00  0.00    -0.355 OA
HETATM   23  C   UNL     1      -9.503 -11.951 -40.264  1.00  0.00     0.210 C 
ENDBRANCH  16  22
ENDBRANCH   1  15
BRANCH  12  24
HETATM   24  N   UNL     1      -4.379 -12.356 -35.939  1.00  0.00    -0.272 NA
HETATM   25  H   UNL     1      -4.926 -11.507 -35.814  1.00  0.00     0.127 HD
HETATM   26  H   UNL     1      -4.586 -13.034 -35.218  1.00  0.00     0.127 HD
ENDBRANCH  12  24
TORSDOF 3
ENDMDL
MODEL 6
REMARK VINA RESULT:      -6.6      2.604      3.275
REMARK  3 active torsions:
REMARK  status: ('A' for Active; 'I' for Inactive)
REMARK    1  A    between atoms: O_2  and  C_3 
REMARK    2  A    between atoms: C_4  and  C_5 
REMARK    3  A    between atoms: C_16  and  N_17 
ROOT
HETATM    1  C   UNL     1      -6.356   3.365 -32.361  1.00  0.00     0.246 A 
HETATM    2  N   UNL     1      -6.418   1.921 -32.319  1.00  0.00    -0.151 N 
HETATM    3  C   UNL     1      -6.171   1.239 -31.155  1.00  0.00     0.734 A 
HETATM    4  N   UNL     1      -6.265  -0.055 -31.376  1.00  0.00    -0.060 NA
HETATM    5  C   UNL     1      -6.540  -0.202 -32.713  1.00  0.00     0.103 A 
HETATM    6  C   UNL     1      -6.627   1.035 -33.342  1.00  0.00     0.083 A 
HETATM    7  C   UNL     1      -6.723  -1.372 -33.464  1.00  0.00     0.034 A 
HETATM    8  C   UNL     1      -6.989  -1.255 -34.833  1.00  0.00     0.002 A 
HETATM    9  C   UNL     1      -7.069  -0.001 -35.442  1.00  0.00     0.002 A 
HETATM   10  C   UNL     1      -6.890   1.179 -34.709  1.00  0.00     0.033 A 
HETATM   11  N   UNL     1      -5.870   1.860 -29.992  1.00  0.00    -0.033 NA
HETATM   12  C   UNL     1      -5.722   3.135 -29.989  1.00  0.00     0.193 A 
HETATM   13  N   UNL     1      -5.888   3.955 -31.109  1.00  0.00    -0.338 N 
HETATM   14  H   UNL     1      -5.828   4.959 -31.049  1.00  0.00     0.164 HD
ENDROOT
BRANCH   1  15
HETATM   15  C   UNL     1      -7.682   4.032 -32.697  1.00  0.00     0.020 A 
HETATM   16  C   UNL     1      -7.694   5.410 -33.008  1.00  0.00     0.078 A 
HETATM   17  C   UNL     1      -8.902   6.059 -33.284  1.00  0.00     0.039 A 
HETATM   18  C   UNL     1     -10.104   5.349 -33.265  1.00  0.00     0.022 A 
HETATM   19  C   UNL     1     -10.103   3.995 -32.952  1.00  0.00     0.011 A 
HETATM   20  C   UNL     1      -8.909   3.339 -32.654  1.00  0.00     0.033 A 
HETATM   21 BR   UNL     1     -11.732   3.038 -32.920  1.00  0.00    -0.051 Br
BRANCH  16  22
HETATM   22  O   UNL     1      -6.474   6.036 -32.965  1.00  0.00    -0.355 OA
HETATM   23  C   UNL     1      -6.398   7.239 -32.203  1.00  0.00     0.210 C 
ENDBRANCH  16  22
ENDBRANCH   1  15
BRANCH  12  24
HETATM   24  N   UNL     1      -5.394   3.832 -28.882  1.00  0.00    -0.272 NA
HETATM   25  H   UNL     1      -4.412   3.699 -28.647  1.00  0.00     0.127 HD
HETATM   26  H   UNL     1      -5.640   4.813 -28.878  1.00  0.00     0.127 HD
ENDBRANCH  12  24
TORSDOF 3
ENDMDL
MODEL 7
REMARK VINA RESULT:      -6.5      4.413      6.479
REMARK  3 active torsions:
REMARK  status: ('A' for Active; 'I' for Inactive)
REMARK    1  A    between atoms: O_2  and  C_3 
REMARK    2  A    between atoms: C_4  and  C_5 
REMARK    3  A    between atoms: C_16  and  N_17 
ROOT
HETATM    1  C   UNL     1      -4.614   2.236 -32.523  1.00  0.00     0.246 A 
HETATM    2  N   UNL     1      -5.802   1.452 -32.263  1.00  0.00    -0.151 N 
HETATM    3  C   UNL     1      -5.727   0.265 -31.582  1.00  0.00     0.734 A 
HETATM    4  N   UNL     1      -6.927  -0.267 -31.493  1.00  0.00    -0.060 NA
HETATM    5  C   UNL     1      -7.776   0.578 -32.163  1.00  0.00     0.103 A 
HETATM    6  C   UNL     1      -7.088   1.671 -32.677  1.00  0.00     0.083 A 
HETATM    7  C   UNL     1      -9.158   0.470 -32.378  1.00  0.00     0.034 A 
HETATM    8  C   UNL     1      -9.803   1.473 -33.110  1.00  0.00     0.002 A 
HETATM    9  C   UNL     1      -9.089   2.560 -33.618  1.00  0.00     0.002 A 
HETATM   10  C   UNL     1      -7.709   2.687 -33.413  1.00  0.00     0.033 A 
HETATM   11  N   UNL     1      -4.564  -0.236 -31.108  1.00  0.00    -0.033 NA
HETATM   12  C   UNL     1      -3.468   0.376 -31.379  1.00  0.00     0.193 A 
HETATM   13  N   UNL     1      -3.384   1.565 -32.108  1.00  0.00    -0.338 N 
HETATM   14  H   UNL     1      -2.509   2.049 -32.242  1.00  0.00     0.164 HD
ENDROOT
BRANCH   1  15
HETATM   15  C   UNL     1      -4.618   3.605 -31.858  1.00  0.00     0.020 A 
HETATM   16  C   UNL     1      -3.865   4.648 -32.440  1.00  0.00     0.078 A 
HETATM   17  C   UNL     1      -3.819   5.907 -31.832  1.00  0.00     0.039 A 
HETATM   18  C   UNL     1      -4.525   6.146 -30.651  1.00  0.00     0.022 A 
HETATM   19  C   UNL     1      -5.262   5.122 -30.067  1.00  0.00     0.011 A 
HETATM   20  C   UNL     1      -5.300   3.856 -30.650  1.00  0.00     0.033 A 
HETATM   21 BR   UNL     1      -6.211   5.445 -28.465  1.00  0.00    -0.051 Br
BRANCH  16  22
HETATM   22  O   UNL     1      -3.173   4.315 -33.576  1.00  0.00    -0.355 OA
HETATM   23  C   UNL     1      -1.860   4.860 -33.710  1.00  0.00     0.210 C 
ENDBRANCH  16  22
ENDBRANCH   1  15
BRANCH  12  24
HETATM   24  N   UNL     1      -2.260  -0.068 -30.972  1.00  0.00    -0.272 NA
HETATM   25  H   UNL     1      -2.241  -1.085 -30.935  1.00  0.00     0.127 HD
HETATM   26  H   UNL     1      -1.457   0.295 -31.469  1.00  0.00     0.127 HD
ENDBRANCH  12  24
TORSDOF 3
ENDMDL
MODEL 8
REMARK VINA RESULT:      -6.4      3.047      5.239
REMARK  3 active torsions:
REMARK  status: ('A' for Active; 'I' for Inactive)
REMARK    1  A    between atoms: O_2  and  C_3 
REMARK    2  A    between atoms: C_4  and  C_5 
REMARK    3  A    between atoms: C_16  and  N_17 
ROOT
HETATM    1  C   UNL     1      -7.128   2.488 -33.792  1.00  0.00     0.246 A 
HETATM    2  N   UNL     1      -8.346   1.742 -33.560  1.00  0.00    -0.151 N 
HETATM    3  C   UNL     1      -8.316   0.523 -32.933  1.00  0.00     0.734 A 
HETATM    4  N   UNL     1      -9.537   0.037 -32.860  1.00  0.00    -0.060 NA
HETATM    5  C   UNL     1     -10.354   0.946 -33.485  1.00  0.00     0.103 A 
HETATM    6  C   UNL     1      -9.624   2.032 -33.954  1.00  0.00     0.083 A 
HETATM    7  C   UNL     1     -11.740   0.904 -33.695  1.00  0.00     0.034 A 
HETATM    8  C   UNL     1     -12.348   1.965 -34.377  1.00  0.00     0.002 A 
HETATM    9  C   UNL     1     -11.592   3.044 -34.840  1.00  0.00     0.002 A 
HETATM   10  C   UNL     1     -10.207   3.104 -34.640  1.00  0.00     0.033 A 
HETATM   11  N   UNL     1      -7.172  -0.046 -32.490  1.00  0.00    -0.033 NA
HETATM   12  C   UNL     1      -6.054   0.533 -32.741  1.00  0.00     0.193 A 
HETATM   13  N   UNL     1      -5.924   1.749 -33.416  1.00  0.00    -0.338 N 
HETATM   14  H   UNL     1      -5.032   2.202 -33.534  1.00  0.00     0.164 HD
ENDROOT
BRANCH   1  15
HETATM   15  C   UNL     1      -7.073   3.824 -33.066  1.00  0.00     0.020 A 
HETATM   16  C   UNL     1      -6.236   4.842 -33.574  1.00  0.00     0.078 A 
HETATM   17  C   UNL     1      -6.135   6.068 -32.908  1.00  0.00     0.039 A 
HETATM   18  C   UNL     1      -6.868   6.300 -31.742  1.00  0.00     0.022 A 
HETATM   19  C   UNL     1      -7.688   5.301 -31.231  1.00  0.00     0.011 A 
HETATM   20  C   UNL     1      -7.782   4.066 -31.872  1.00  0.00     0.033 A 
HETATM   21 BR   UNL     1      -8.674   5.613 -29.649  1.00  0.00    -0.051 Br
BRANCH  16  22
HETATM   22  O   UNL     1      -5.523   4.515 -34.699  1.00  0.00    -0.355 OA
HETATM   23  C   UNL     1      -4.220   5.084 -34.821  1.00  0.00     0.210 C 
ENDBRANCH  16  22
ENDBRANCH   1  15
BRANCH  12  24
HETATM   24  N   UNL     1      -4.863   0.022 -32.363  1.00  0.00    -0.272 NA
HETATM   25  H   UNL     1      -4.523   0.480 -31.520  1.00  0.00     0.127 HD
HETATM   26  H   UNL     1      -4.813  -0.985 -32.278  1.00  0.00     0.127 HD
ENDBRANCH  12  24
TORSDOF 3
ENDMDL
MODEL 9
REMARK VINA RESULT:      -6.4      3.558      5.262
REMARK  3 active torsions:
REMARK  status: ('A' for Active; 'I' for Inactive)
REMARK    1  A    between atoms: O_2  and  C_3 
REMARK    2  A    between atoms: C_4  and  C_5 
REMARK    3  A    between atoms: C_16  and  N_17 
ROOT
HETATM    1  C   UNL     1      -7.841   2.778 -31.999  1.00  0.00     0.246 A 
HETATM    2  N   UNL     1      -7.869   1.730 -32.995  1.00  0.00    -0.151 N 
HETATM    3  C   UNL     1      -8.839   1.706 -33.964  1.00  0.00     0.734 A 
HETATM    4  N   UNL     1      -8.667   0.651 -34.732  1.00  0.00    -0.060 NA
HETATM    5  C   UNL     1      -7.590  -0.030 -34.220  1.00  0.00     0.103 A 
HETATM    6  C   UNL     1      -7.072   0.622 -33.106  1.00  0.00     0.083 A 
HETATM    7  C   UNL     1      -7.000  -1.225 -34.655  1.00  0.00     0.034 A 
HETATM    8  C   UNL     1      -5.901  -1.727 -33.948  1.00  0.00     0.002 A 
HETATM    9  C   UNL     1      -5.401  -1.054 -32.831  1.00  0.00     0.002 A 
HETATM   10  C   UNL     1      -5.976   0.141 -32.381  1.00  0.00     0.033 A 
HETATM   11  N   UNL     1      -9.805   2.647 -34.058  1.00  0.00    -0.033 NA
HETATM   12  C   UNL     1      -9.877   3.555 -33.153  1.00  0.00     0.193 A 
HETATM   13  N   UNL     1      -8.994   3.673 -32.077  1.00  0.00    -0.338 N 
HETATM   14  H   UNL     1      -9.045   4.440 -31.425  1.00  0.00     0.164 HD
ENDROOT
BRANCH   1  15
HETATM   15  C   UNL     1      -6.596   3.652 -32.055  1.00  0.00     0.020 A 
HETATM   16  C   UNL     1      -6.115   4.231 -30.861  1.00  0.00     0.078 A 
HETATM   17  C   UNL     1      -4.995   5.069 -30.887  1.00  0.00     0.039 A 
HETATM   18  C   UNL     1      -4.339   5.332 -32.091  1.00  0.00     0.022 A 
HETATM   19  C   UNL     1      -4.811   4.773 -33.272  1.00  0.00     0.011 A 
HETATM   20  C   UNL     1      -5.938   3.952 -33.265  1.00  0.00     0.033 A 
HETATM   21 BR   UNL     1      -3.925   5.136 -34.901  1.00  0.00    -0.051 Br
BRANCH  16  22
HETATM   22  O   UNL     1      -6.842   3.951 -29.732  1.00  0.00    -0.355 OA
HETATM   23  C   UNL     1      -7.043   5.026 -28.815  1.00  0.00     0.210 C 
ENDBRANCH  16  22
ENDBRANCH   1  15
BRANCH  12  24
HETATM   24  N   UNL     1     -10.826   4.514 -33.150  1.00  0.00    -0.272 NA
HETATM   25  H   UNL     1     -11.757   4.103 -33.148  1.00  0.00     0.127 HD
HETATM   26  H   UNL     1     -10.741   5.230 -32.441  1.00  0.00     0.127 HD
ENDBRANCH  12  24
TORSDOF 3
ENDMDL
MODEL 10
REMARK VINA RESULT:      -6.3      3.991      6.189
REMARK  3 active torsions:
REMARK  status: ('A' for Active; 'I' for Inactive)
REMARK    1  A    between atoms: O_2  and  C_3 
REMARK    2  A    between atoms: C_4  and  C_5 
REMARK    3  A    between atoms: C_16  and  N_17 
ROOT
HETATM    1  C   UNL     1      -6.566   2.889 -30.112  1.00  0.00     0.246 A 
HETATM    2  N   UNL     1      -7.820   2.840 -30.831  1.00  0.00    -0.151 N 
HETATM    3  C   UNL     1      -8.786   3.792 -30.628  1.00  0.00     0.734 A 
HETATM    4  N   UNL     1      -9.835   3.519 -31.374  1.00  0.00    -0.060 NA
HETATM    5  C   UNL     1      -9.547   2.352 -32.037  1.00  0.00     0.103 A 
HETATM    6  C   UNL     1      -8.280   1.887 -31.700  1.00  0.00     0.083 A 
HETATM    7  C   UNL     1     -10.330   1.623 -32.944  1.00  0.00     0.034 A 
HETATM    8  C   UNL     1      -9.807   0.442 -33.483  1.00  0.00     0.002 A 
HETATM    9  C   UNL     1      -8.532  -0.005 -33.127  1.00  0.00     0.002 A 
HETATM   10  C   UNL     1      -7.735   0.709 -32.223  1.00  0.00     0.033 A 
HETATM   11  N   UNL     1      -8.629   4.824 -29.769  1.00  0.00    -0.033 NA
HETATM   12  C   UNL     1      -7.569   4.873 -29.045  1.00  0.00     0.193 A 
HETATM   13  N   UNL     1      -6.526   3.946 -29.103  1.00  0.00    -0.338 N 
HETATM   14  H   UNL     1      -5.681   4.057 -28.564  1.00  0.00     0.164 HD
ENDROOT
BRANCH   1  15
HETATM   15  C   UNL     1      -5.348   3.083 -31.004  1.00  0.00     0.020 A 
HETATM   16  C   UNL     1      -4.446   2.009 -31.169  1.00  0.00     0.078 A 
HETATM   17  C   UNL     1      -3.298   2.168 -31.953  1.00  0.00     0.039 A 
HETATM   18  C   UNL     1      -3.040   3.386 -32.586  1.00  0.00     0.022 A 
HETATM   19  C   UNL     1      -3.918   4.450 -32.422  1.00  0.00     0.011 A 
HETATM   20  C   UNL     1      -5.056   4.313 -31.627  1.00  0.00     0.033 A 
HETATM   21 BR   UNL     1      -3.563   6.100 -33.274  1.00  0.00    -0.051 Br
BRANCH  16  22
HETATM   22  O   UNL     1      -4.756   0.864 -30.481  1.00  0.00    -0.355 OA
HETATM   23  C   UNL     1      -4.275  -0.363 -31.027  1.00  0.00     0.210 C 
ENDBRANCH  16  22
ENDBRANCH   1  15
BRANCH  12  24
HETATM   24  N   UNL     1      -7.344   5.849 -28.141  1.00  0.00    -0.272 NA
HETATM   25  H   UNL     1      -6.582   5.597 -27.516  1.00  0.00     0.127 HD
HETATM   26  H   UNL     1      -7.220   6.783 -28.509  1.00  0.00     0.127 HD
ENDBRANCH  12  24
TORSDOF 3
ENDMDL
