MODEL 1
REMARK VINA RESULT:      -8.5      0.000      0.000
REMARK  6 active torsions:
REMARK  status: ('A' for Active; 'I' for Inactive)
REMARK    1  A    between atoms: C_3  and  C_4 
REMARK    2  A    between atoms: C_4  and  N_5 
REMARK       I    between atoms: N_5  and  C_6 
REMARK    3  A    between atoms: C_6  and  C_7 
REMARK    4  A    between atoms: C_7  and  N_8 
REMARK    5  A    between atoms: C_12  and  N_13 
REMARK       I    between atoms: N_13  and  C_14 
REMARK       I    between atoms: C_14  and  N_15 
REMARK    6  A    between atoms: N_15  and  C_16 
ROOT
HETATM    1  N   UNL     1      -4.589   2.523 -31.328  1.00  0.00    -0.063 N 
HETATM    2  H   UNL     1      -5.009   3.227 -30.709  1.00  0.00     0.280 HD
HETATM    3  C   UNL     1      -5.178   2.774 -32.698  1.00  0.00     0.237 C 
HETATM    4  C   UNL     1      -6.653   2.422 -32.744  1.00  0.00     0.053 C 
HETATM    5  C   UNL     1      -6.994   1.042 -32.181  1.00  0.00     0.089 C 
HETATM    6  C   UNL     1      -6.369   0.835 -30.802  1.00  0.00     0.053 C 
HETATM    7  C   UNL     1      -4.895   1.187 -30.706  1.00  0.00     0.237 C 
ENDROOT
BRANCH   1   8
HETATM    8  C   UNL     1      -3.072   2.819 -31.290  1.00  0.00     0.337 C 
BRANCH   8   9
HETATM    9  C   UNL     1      -2.646   4.259 -31.605  1.00  0.00     0.243 C 
HETATM   10  N   UNL     1      -3.033   5.221 -30.703  1.00  0.00    -0.355 N 
HETATM   11  H   UNL     1      -3.098   4.955 -29.724  1.00  0.00     0.162 HD
HETATM   12  O   UNL     1      -1.965   4.504 -32.599  1.00  0.00    -0.272 OA
BRANCH  10  13
HETATM   13  C   UNL     1      -2.594   6.592 -30.882  1.00  0.00     0.169 C 
BRANCH  13  14
HETATM   14  C   UNL     1      -1.560   6.997 -29.863  1.00  0.00     0.006 A 
HETATM   15  C   UNL     1      -0.183   7.064 -30.052  1.00  0.00    -0.047 A 
HETATM   16  C   UNL     1       0.528   6.764 -31.335  1.00  0.00     0.049 C 
HETATM   17  C   UNL     1       0.496   7.444 -28.848  1.00  0.00     0.015 A 
HETATM   18  C   UNL     1      -0.363   7.652 -27.797  1.00  0.00     0.051 A 
HETATM   19  S   UNL     1      -1.983   7.389 -28.243  1.00  0.00    -0.104 SA
ENDBRANCH  13  14
ENDBRANCH  10  13
ENDBRANCH   8   9
ENDBRANCH   1   8
BRANCH   5  20
HETATM   20  N   UNL     1      -6.797  -0.069 -33.114  1.00  0.00    -0.338 N 
HETATM   21  C   UNL     1      -7.558  -0.370 -34.195  1.00  0.00     0.321 C 
HETATM   22  N   UNL     1      -7.208  -1.432 -34.957  1.00  0.00    -0.309 N 
HETATM   23  O   UNL     1      -8.514   0.322 -34.534  1.00  0.00    -0.247 OA
HETATM   24  H   UNL     1      -7.700  -1.434 -35.846  1.00  0.00     0.170 HD
HETATM   25  H   UNL     1      -5.849  -0.422 -33.187  1.00  0.00     0.164 HD
BRANCH  22  26
HETATM   26  C   UNL     1      -6.380  -2.547 -34.730  1.00  0.00     0.036 A 
HETATM   27  C   UNL     1      -6.760  -3.873 -34.944  1.00  0.00     0.029 A 
HETATM   28  C   UNL     1      -5.856  -4.914 -34.706  1.00  0.00     0.002 A 
HETATM   29  C   UNL     1      -4.562  -4.636 -34.270  1.00  0.00     0.000 A 
HETATM   30  C   UNL     1      -4.164  -3.316 -34.083  1.00  0.00     0.002 A 
HETATM   31  C   UNL     1      -5.066  -2.277 -34.320  1.00  0.00     0.029 A 
ENDBRANCH  22  26
ENDBRANCH   5  20
TORSDOF 6
ENDMDL
MODEL 2
REMARK VINA RESULT:      -8.5      4.867      8.509
REMARK  6 active torsions:
REMARK  status: ('A' for Active; 'I' for Inactive)
REMARK    1  A    between atoms: C_3  and  C_4 
REMARK    2  A    between atoms: C_4  and  N_5 
REMARK       I    between atoms: N_5  and  C_6 
REMARK    3  A    between atoms: C_6  and  C_7 
REMARK    4  A    between atoms: C_7  and  N_8 
REMARK    5  A    between atoms: C_12  and  N_13 
REMARK       I    between atoms: N_13  and  C_14 
REMARK       I    between atoms: C_14  and  N_15 
REMARK    6  A    between atoms: N_15  and  C_16 
ROOT
HETATM    1  N   UNL     1      -7.913   1.674 -33.097  1.00  0.00    -0.063 N 
HETATM    2  H   UNL     1      -8.217   2.581 -32.723  1.00  0.00     0.280 HD
HETATM    3  C   UNL     1      -7.969   0.708 -31.934  1.00  0.00     0.237 C 
HETATM    4  C   UNL     1      -6.902   1.019 -30.900  1.00  0.00     0.053 C 
HETATM    5  C   UNL     1      -5.495   1.198 -31.473  1.00  0.00     0.089 C 
HETATM    6  C   UNL     1      -5.496   2.173 -32.649  1.00  0.00     0.053 C 
HETATM    7  C   UNL     1      -6.555   1.909 -33.704  1.00  0.00     0.237 C 
ENDROOT
BRANCH   1   8
HETATM    8  C   UNL     1      -8.955   1.326 -34.184  1.00  0.00     0.337 C 
BRANCH   8   9
HETATM    9  C   UNL     1     -10.080   2.345 -34.408  1.00  0.00     0.243 C 
HETATM   10  N   UNL     1     -11.272   1.844 -34.873  1.00  0.00    -0.355 N 
HETATM   11  H   UNL     1     -11.539   0.907 -34.584  1.00  0.00     0.162 HD
HETATM   12  O   UNL     1      -9.907   3.533 -34.142  1.00  0.00    -0.272 OA
BRANCH  10  13
HETATM   13  C   UNL     1     -12.412   2.729 -35.025  1.00  0.00     0.169 C 
BRANCH  13  14
HETATM   14  C   UNL     1     -13.281   2.755 -33.794  1.00  0.00     0.006 A 
HETATM   15  C   UNL     1     -14.281   1.847 -33.458  1.00  0.00    -0.047 A 
HETATM   16  C   UNL     1     -14.659   0.644 -34.263  1.00  0.00     0.049 C 
HETATM   17  C   UNL     1     -14.933   2.211 -32.234  1.00  0.00     0.015 A 
HETATM   18  C   UNL     1     -14.424   3.362 -31.683  1.00  0.00     0.051 A 
HETATM   19  S   UNL     1     -13.169   4.014 -32.627  1.00  0.00    -0.104 SA
ENDBRANCH  13  14
ENDBRANCH  10  13
ENDBRANCH   8   9
ENDBRANCH   1   8
BRANCH   5  20
HETATM   20  N   UNL     1      -4.766  -0.048 -31.713  1.00  0.00    -0.338 N 
HETATM   21  C   UNL     1      -3.460  -0.293 -31.446  1.00  0.00     0.321 C 
HETATM   22  N   UNL     1      -2.961  -1.520 -31.721  1.00  0.00    -0.309 N 
HETATM   23  O   UNL     1      -2.734   0.543 -30.912  1.00  0.00    -0.247 OA
HETATM   24  H   UNL     1      -2.055  -1.663 -31.285  1.00  0.00     0.170 HD
HETATM   25  H   UNL     1      -5.328  -0.892 -31.738  1.00  0.00     0.164 HD
BRANCH  22  26
HETATM   26  C   UNL     1      -3.405  -2.577 -32.537  1.00  0.00     0.036 A 
HETATM   27  C   UNL     1      -3.118  -3.925 -32.314  1.00  0.00     0.029 A 
HETATM   28  C   UNL     1      -3.623  -4.906 -33.174  1.00  0.00     0.002 A 
HETATM   29  C   UNL     1      -4.434  -4.549 -34.250  1.00  0.00     0.000 A 
HETATM   30  C   UNL     1      -4.752  -3.212 -34.462  1.00  0.00     0.002 A 
HETATM   31  C   UNL     1      -4.246  -2.232 -33.605  1.00  0.00     0.029 A 
ENDBRANCH  22  26
ENDBRANCH   5  20
TORSDOF 6
ENDMDL
MODEL 3
REMARK VINA RESULT:      -8.4      4.732      8.412
REMARK  6 active torsions:
REMARK  status: ('A' for Active; 'I' for Inactive)
REMARK    1  A    between atoms: C_3  and  C_4 
REMARK    2  A    between atoms: C_4  and  N_5 
REMARK       I    between atoms: N_5  and  C_6 
REMARK    3  A    between atoms: C_6  and  C_7 
REMARK    4  A    between atoms: C_7  and  N_8 
REMARK    5  A    between atoms: C_12  and  N_13 
REMARK       I    between atoms: N_13  and  C_14 
REMARK       I    between atoms: C_14  and  N_15 
REMARK    6  A    between atoms: N_15  and  C_16 
ROOT
HETATM    1  N   UNL     1      -7.426   2.193 -31.382  1.00  0.00    -0.063 N 
HETATM    2  H   UNL     1      -7.380   3.212 -31.266  1.00  0.00     0.280 HD
HETATM    3  C   UNL     1      -6.632   1.612 -30.233  1.00  0.00     0.237 C 
HETATM    4  C   UNL     1      -5.149   1.900 -30.378  1.00  0.00     0.053 C 
HETATM    5  C   UNL     1      -4.567   1.560 -31.751  1.00  0.00     0.089 C 
HETATM    6  C   UNL     1      -5.409   2.161 -32.874  1.00  0.00     0.053 C 
HETATM    7  C   UNL     1      -6.903   1.908 -32.765  1.00  0.00     0.237 C 
ENDROOT
BRANCH   1   8
HETATM    8  C   UNL     1      -8.929   1.850 -31.275  1.00  0.00     0.337 C 
BRANCH   8   9
HETATM    9  C   UNL     1      -9.865   2.548 -32.271  1.00  0.00     0.243 C 
HETATM   10  N   UNL     1     -10.770   1.744 -32.922  1.00  0.00    -0.355 N 
HETATM   11  H   UNL     1     -11.135   0.938 -32.422  1.00  0.00     0.162 HD
HETATM   12  O   UNL     1      -9.809   3.765 -32.430  1.00  0.00    -0.272 OA
BRANCH  10  13
HETATM   13  C   UNL     1     -11.749   2.340 -33.812  1.00  0.00     0.169 C 
BRANCH  13  14
HETATM   14  C   UNL     1     -13.099   2.487 -33.158  1.00  0.00     0.006 A 
HETATM   15  C   UNL     1     -14.089   1.513 -33.058  1.00  0.00    -0.047 A 
HETATM   16  C   UNL     1     -13.975   0.111 -33.569  1.00  0.00     0.049 C 
HETATM   17  C   UNL     1     -15.263   2.021 -32.410  1.00  0.00     0.015 A 
HETATM   18  C   UNL     1     -15.139   3.338 -32.042  1.00  0.00     0.051 A 
HETATM   19  S   UNL     1     -13.622   3.976 -32.473  1.00  0.00    -0.104 SA
ENDBRANCH  13  14
ENDBRANCH  10  13
ENDBRANCH   8   9
ENDBRANCH   1   8
BRANCH   5  20
HETATM   20  N   UNL     1      -4.215   0.151 -31.937  1.00  0.00    -0.338 N 
HETATM   21  C   UNL     1      -3.084  -0.469 -31.520  1.00  0.00     0.321 C 
HETATM   22  N   UNL     1      -2.940  -1.792 -31.769  1.00  0.00    -0.309 N 
HETATM   23  O   UNL     1      -2.217   0.117 -30.878  1.00  0.00    -0.247 OA
HETATM   24  H   UNL     1      -2.179  -2.194 -31.231  1.00  0.00     0.170 HD
HETATM   25  H   UNL     1      -4.994  -0.488 -32.056  1.00  0.00     0.164 HD
BRANCH  22  26
HETATM   26  C   UNL     1      -3.572  -2.675 -32.664  1.00  0.00     0.036 A 
HETATM   27  C   UNL     1      -4.444  -2.282 -33.681  1.00  0.00     0.029 A 
HETATM   28  C   UNL     1      -5.008  -3.237 -34.535  1.00  0.00     0.002 A 
HETATM   29  C   UNL     1      -4.691  -4.586 -34.389  1.00  0.00     0.000 A 
HETATM   30  C   UNL     1      -3.799  -4.983 -33.398  1.00  0.00     0.002 A 
HETATM   31  C   UNL     1      -3.237  -4.031 -32.546  1.00  0.00     0.029 A 
ENDBRANCH  22  26
ENDBRANCH   5  20
TORSDOF 6
ENDMDL
MODEL 4
REMARK VINA RESULT:      -8.4      4.456      7.947
REMARK  6 active torsions:
REMARK  status: ('A' for Active; 'I' for Inactive)
REMARK    1  A    between atoms: C_3  and  C_4 
REMARK    2  A    between atoms: C_4  and  N_5 
REMARK       I    between atoms: N_5  and  C_6 
REMARK    3  A    between atoms: C_6  and  C_7 
REMARK    4  A    between atoms: C_7  and  N_8 
REMARK    5  A    between atoms: C_12  and  N_13 
REMARK       I    between atoms: N_13  and  C_14 
REMARK       I    between atoms: C_14  and  N_15 
REMARK    6  A    between atoms: N_15  and  C_16 
ROOT
HETATM    1  N   UNL     1      -6.299   2.510 -31.369  1.00  0.00    -0.063 N 
HETATM    2  H   UNL     1      -6.079   3.192 -30.633  1.00  0.00     0.280 HD
HETATM    3  C   UNL     1      -6.705   1.243 -30.650  1.00  0.00     0.237 C 
HETATM    4  C   UNL     1      -5.526   0.603 -29.940  1.00  0.00     0.053 C 
HETATM    5  C   UNL     1      -4.277   0.435 -30.807  1.00  0.00     0.089 C 
HETATM    6  C   UNL     1      -3.916   1.738 -31.518  1.00  0.00     0.053 C 
HETATM    7  C   UNL     1      -5.069   2.422 -32.233  1.00  0.00     0.237 C 
ENDROOT
BRANCH   1   8
HETATM    8  C   UNL     1      -7.479   3.135 -32.147  1.00  0.00     0.337 C 
BRANCH   8   9
HETATM    9  C   UNL     1      -8.807   2.367 -32.113  1.00  0.00     0.243 C 
HETATM   10  N   UNL     1      -9.064   1.547 -33.186  1.00  0.00    -0.355 N 
HETATM   11  H   UNL     1      -8.275   1.098 -33.641  1.00  0.00     0.162 HD
HETATM   12  O   UNL     1      -9.562   2.470 -31.149  1.00  0.00    -0.272 OA
BRANCH  10  13
HETATM   13  C   UNL     1     -10.255   0.719 -33.187  1.00  0.00     0.169 C 
BRANCH  13  14
HETATM   14  C   UNL     1     -11.414   1.388 -33.882  1.00  0.00     0.006 A 
HETATM   15  C   UNL     1     -12.694   0.872 -34.057  1.00  0.00    -0.047 A 
HETATM   16  C   UNL     1     -13.165  -0.456 -33.552  1.00  0.00     0.049 C 
HETATM   17  C   UNL     1     -13.526   1.768 -34.805  1.00  0.00     0.015 A 
HETATM   18  C   UNL     1     -12.871   2.918 -35.173  1.00  0.00     0.051 A 
HETATM   19  S   UNL     1     -11.260   2.930 -34.630  1.00  0.00    -0.104 SA
ENDBRANCH  13  14
ENDBRANCH  10  13
ENDBRANCH   8   9
ENDBRANCH   1   8
BRANCH   5  20
HETATM   20  N   UNL     1      -4.282  -0.750 -31.667  1.00  0.00    -0.338 N 
HETATM   21  C   UNL     1      -3.202  -1.441 -32.108  1.00  0.00     0.321 C 
HETATM   22  N   UNL     1      -3.403  -2.529 -32.886  1.00  0.00    -0.309 N 
HETATM   23  O   UNL     1      -2.057  -1.145 -31.777  1.00  0.00    -0.247 OA
HETATM   24  H   UNL     1      -2.561  -3.090 -32.972  1.00  0.00     0.170 HD
HETATM   25  H   UNL     1      -5.127  -1.310 -31.645  1.00  0.00     0.164 HD
BRANCH  22  26
HETATM   26  C   UNL     1      -4.500  -2.979 -33.644  1.00  0.00     0.036 A 
HETATM   27  C   UNL     1      -5.547  -2.166 -34.082  1.00  0.00     0.029 A 
HETATM   28  C   UNL     1      -6.586  -2.704 -34.849  1.00  0.00     0.002 A 
HETATM   29  C   UNL     1      -6.577  -4.053 -35.198  1.00  0.00     0.000 A 
HETATM   30  C   UNL     1      -5.523  -4.865 -34.792  1.00  0.00     0.002 A 
HETATM   31  C   UNL     1      -4.486  -4.328 -34.026  1.00  0.00     0.029 A 
ENDBRANCH  22  26
ENDBRANCH   5  20
TORSDOF 6
ENDMDL
MODEL 5
REMARK VINA RESULT:      -8.3      3.418      9.274
REMARK  6 active torsions:
REMARK  status: ('A' for Active; 'I' for Inactive)
REMARK    1  A    between atoms: C_3  and  C_4 
REMARK    2  A    between atoms: C_4  and  N_5 
REMARK       I    between atoms: N_5  and  C_6 
REMARK    3  A    between atoms: C_6  and  C_7 
REMARK    4  A    between atoms: C_7  and  N_8 
REMARK    5  A    between atoms: C_12  and  N_13 
REMARK       I    between atoms: N_13  and  C_14 
REMARK       I    between atoms: C_14  and  N_15 
REMARK    6  A    between atoms: N_15  and  C_16 
ROOT
HETATM    1  N   UNL     1      -5.942   4.470 -31.371  1.00  0.00    -0.063 N 
HETATM    2  H   UNL     1      -6.742   4.401 -32.011  1.00  0.00     0.280 HD
HETATM    3  C   UNL     1      -5.779   5.944 -31.072  1.00  0.00     0.237 C 
HETATM    4  C   UNL     1      -5.301   6.710 -32.292  1.00  0.00     0.053 C 
HETATM    5  C   UNL     1      -4.089   6.097 -32.993  1.00  0.00     0.089 C 
HETATM    6  C   UNL     1      -4.300   4.608 -33.263  1.00  0.00     0.053 C 
HETATM    7  C   UNL     1      -4.790   3.802 -32.073  1.00  0.00     0.237 C 
ENDROOT
BRANCH   1   8
HETATM    8  C   UNL     1      -6.368   3.672 -30.118  1.00  0.00     0.337 C 
BRANCH   8   9
HETATM    9  C   UNL     1      -6.721   2.195 -30.332  1.00  0.00     0.243 C 
HETATM   10  N   UNL     1      -7.789   1.937 -31.159  1.00  0.00    -0.355 N 
HETATM   11  H   UNL     1      -7.957   2.576 -31.931  1.00  0.00     0.162 HD
HETATM   12  O   UNL     1      -6.046   1.310 -29.810  1.00  0.00    -0.272 OA
BRANCH  10  13
HETATM   13  C   UNL     1      -8.131   0.565 -31.483  1.00  0.00     0.169 C 
BRANCH  13  14
HETATM   14  C   UNL     1      -7.767   0.208 -32.902  1.00  0.00     0.006 A 
HETATM   15  C   UNL     1      -6.632  -0.476 -33.326  1.00  0.00    -0.047 A 
HETATM   16  C   UNL     1      -5.562  -1.012 -32.427  1.00  0.00     0.049 C 
HETATM   17  C   UNL     1      -6.593  -0.598 -34.754  1.00  0.00     0.015 A 
HETATM   18  C   UNL     1      -7.676  -0.016 -35.366  1.00  0.00     0.051 A 
HETATM   19  S   UNL     1      -8.741   0.682 -34.239  1.00  0.00    -0.104 SA
ENDBRANCH  13  14
ENDBRANCH  10  13
ENDBRANCH   8   9
ENDBRANCH   1   8
BRANCH   5  20
HETATM   20  N   UNL     1      -2.796   6.432 -32.392  1.00  0.00    -0.338 N 
HETATM   21  C   UNL     1      -1.737   7.009 -33.009  1.00  0.00     0.321 C 
HETATM   22  N   UNL     1      -0.623   7.262 -32.282  1.00  0.00    -0.309 N 
HETATM   23  O   UNL     1      -1.776   7.361 -34.185  1.00  0.00    -0.247 OA
HETATM   24  H   UNL     1       0.011   7.885 -32.773  1.00  0.00     0.170 HD
HETATM   25  H   UNL     1      -2.800   6.583 -31.389  1.00  0.00     0.164 HD
BRANCH  22  26
HETATM   26  C   UNL     1      -0.151   6.778 -31.048  1.00  0.00     0.036 A 
HETATM   27  C   UNL     1      -0.192   7.491 -29.849  1.00  0.00     0.029 A 
HETATM   28  C   UNL     1       0.286   6.914 -28.667  1.00  0.00     0.002 A 
HETATM   29  C   UNL     1       0.791   5.616 -28.673  1.00  0.00     0.000 A 
HETATM   30  C   UNL     1       0.808   4.886 -29.857  1.00  0.00     0.002 A 
HETATM   31  C   UNL     1       0.332   5.461 -31.036  1.00  0.00     0.029 A 
ENDBRANCH  22  26
ENDBRANCH   5  20
TORSDOF 6
ENDMDL
MODEL 6
REMARK VINA RESULT:      -8.2      3.107      9.528
REMARK  6 active torsions:
REMARK  status: ('A' for Active; 'I' for Inactive)
REMARK    1  A    between atoms: C_3  and  C_4 
REMARK    2  A    between atoms: C_4  and  N_5 
REMARK       I    between atoms: N_5  and  C_6 
REMARK    3  A    between atoms: C_6  and  C_7 
REMARK    4  A    between atoms: C_7  and  N_8 
REMARK    5  A    between atoms: C_12  and  N_13 
REMARK       I    between atoms: N_13  and  C_14 
REMARK       I    between atoms: C_14  and  N_15 
REMARK    6  A    between atoms: N_15  and  C_16 
ROOT
HETATM    1  N   UNL     1      -5.367   3.818 -33.221  1.00  0.00    -0.063 N 
HETATM    2  H   UNL     1      -5.431   3.166 -34.013  1.00  0.00     0.280 HD
HETATM    3  C   UNL     1      -5.233   5.195 -33.832  1.00  0.00     0.237 C 
HETATM    4  C   UNL     1      -3.892   5.371 -34.520  1.00  0.00     0.053 C 
HETATM    5  C   UNL     1      -2.685   4.962 -33.674  1.00  0.00     0.089 C 
HETATM    6  C   UNL     1      -2.875   3.570 -33.075  1.00  0.00     0.053 C 
HETATM    7  C   UNL     1      -4.209   3.343 -32.385  1.00  0.00     0.237 C 
ENDROOT
BRANCH   1   8
HETATM    8  C   UNL     1      -6.704   3.651 -32.464  1.00  0.00     0.337 C 
BRANCH   8   9
HETATM    9  C   UNL     1      -7.061   2.231 -32.005  1.00  0.00     0.243 C 
HETATM   10  N   UNL     1      -7.167   1.280 -32.992  1.00  0.00    -0.355 N 
HETATM   11  H   UNL     1      -6.568   1.372 -33.807  1.00  0.00     0.162 HD
HETATM   12  O   UNL     1      -7.201   1.979 -30.810  1.00  0.00    -0.272 OA
BRANCH  10  13
HETATM   13  C   UNL     1      -7.413  -0.103 -32.632  1.00  0.00     0.169 C 
BRANCH  13  14
HETATM   14  C   UNL     1      -6.356  -1.030 -33.175  1.00  0.00     0.006 A 
HETATM   15  C   UNL     1      -5.045  -1.156 -32.724  1.00  0.00    -0.047 A 
HETATM   16  C   UNL     1      -4.449  -0.396 -31.581  1.00  0.00     0.049 C 
HETATM   17  C   UNL     1      -4.308  -2.105 -33.508  1.00  0.00     0.015 A 
HETATM   18  C   UNL     1      -5.061  -2.663 -34.512  1.00  0.00     0.051 A 
HETATM   19  S   UNL     1      -6.648  -2.054 -34.526  1.00  0.00    -0.104 SA
ENDBRANCH  13  14
ENDBRANCH  10  13
ENDBRANCH   8   9
ENDBRANCH   1   8
BRANCH   5  20
HETATM   20  N   UNL     1      -2.226   5.979 -32.726  1.00  0.00    -0.338 N 
HETATM   21  C   UNL     1      -1.698   7.191 -33.024  1.00  0.00     0.321 C 
HETATM   22  N   UNL     1      -1.344   8.011 -32.007  1.00  0.00    -0.309 N 
HETATM   23  O   UNL     1      -1.585   7.589 -34.180  1.00  0.00    -0.247 OA
HETATM   24  H   UNL     1      -1.174   8.958 -32.331  1.00  0.00     0.170 HD
HETATM   25  H   UNL     1      -2.648   5.947 -31.804  1.00  0.00     0.164 HD
BRANCH  22  26
HETATM   26  C   UNL     1      -1.095   7.792 -30.639  1.00  0.00     0.036 A 
HETATM   27  C   UNL     1      -1.999   8.078 -29.614  1.00  0.00     0.029 A 
HETATM   28  C   UNL     1      -1.664   7.806 -28.282  1.00  0.00     0.002 A 
HETATM   29  C   UNL     1      -0.435   7.231 -27.969  1.00  0.00     0.000 A 
HETATM   30  C   UNL     1       0.460   6.914 -28.986  1.00  0.00     0.002 A 
HETATM   31  C   UNL     1       0.127   7.187 -30.315  1.00  0.00     0.029 A 
ENDBRANCH  22  26
ENDBRANCH   5  20
TORSDOF 6
ENDMDL
MODEL 7
REMARK VINA RESULT:      -8.2      2.116      2.774
REMARK  6 active torsions:
REMARK  status: ('A' for Active; 'I' for Inactive)
REMARK    1  A    between atoms: C_3  and  C_4 
REMARK    2  A    between atoms: C_4  and  N_5 
REMARK       I    between atoms: N_5  and  C_6 
REMARK    3  A    between atoms: C_6  and  C_7 
REMARK    4  A    between atoms: C_7  and  N_8 
REMARK    5  A    between atoms: C_12  and  N_13 
REMARK       I    between atoms: N_13  and  C_14 
REMARK       I    between atoms: C_14  and  N_15 
REMARK    6  A    between atoms: N_15  and  C_16 
ROOT
HETATM    1  N   UNL     1      -4.473   4.895 -33.638  1.00  0.00    -0.063 N 
HETATM    2  H   UNL     1      -4.558   5.776 -33.116  1.00  0.00     0.280 HD
HETATM    3  C   UNL     1      -5.859   4.595 -34.166  1.00  0.00     0.237 C 
HETATM    4  C   UNL     1      -6.815   4.231 -33.046  1.00  0.00     0.053 C 
HETATM    5  C   UNL     1      -6.290   3.166 -32.082  1.00  0.00     0.089 C 
HETATM    6  C   UNL     1      -4.887   3.512 -31.586  1.00  0.00     0.053 C 
HETATM    7  C   UNL     1      -3.897   3.895 -32.672  1.00  0.00     0.237 C 
ENDROOT
BRANCH   1   8
HETATM    8  C   UNL     1      -3.477   5.206 -34.778  1.00  0.00     0.337 C 
BRANCH   8   9
HETATM    9  C   UNL     1      -2.212   5.982 -34.391  1.00  0.00     0.243 C 
HETATM   10  N   UNL     1      -2.310   6.798 -33.289  1.00  0.00    -0.355 N 
HETATM   11  H   UNL     1      -2.930   6.508 -32.538  1.00  0.00     0.162 HD
HETATM   12  O   UNL     1      -1.171   5.835 -35.029  1.00  0.00    -0.272 OA
BRANCH  10  13
HETATM   13  C   UNL     1      -1.134   7.497 -32.806  1.00  0.00     0.169 C 
BRANCH  13  14
HETATM   14  C   UNL     1      -0.736   7.052 -31.422  1.00  0.00     0.006 A 
HETATM   15  C   UNL     1      -1.073   7.666 -30.218  1.00  0.00    -0.047 A 
HETATM   16  C   UNL     1      -1.930   8.885 -30.082  1.00  0.00     0.049 C 
HETATM   17  C   UNL     1      -0.480   6.992 -29.100  1.00  0.00     0.015 A 
HETATM   18  C   UNL     1       0.277   5.908 -29.473  1.00  0.00     0.051 A 
HETATM   19  S   UNL     1       0.285   5.693 -31.160  1.00  0.00    -0.104 SA
ENDBRANCH  13  14
ENDBRANCH  10  13
ENDBRANCH   8   9
ENDBRANCH   1   8
BRANCH   5  20
HETATM   20  N   UNL     1      -6.453   1.786 -32.543  1.00  0.00    -0.338 N 
HETATM   21  C   UNL     1      -7.502   0.964 -32.297  1.00  0.00     0.321 C 
HETATM   22  N   UNL     1      -7.486  -0.282 -32.825  1.00  0.00    -0.309 N 
HETATM   23  O   UNL     1      -8.487   1.332 -31.663  1.00  0.00    -0.247 OA
HETATM   24  H   UNL     1      -8.398  -0.725 -32.769  1.00  0.00     0.170 HD
HETATM   25  H   UNL     1      -5.945   1.538 -33.385  1.00  0.00     0.164 HD
BRANCH  22  26
HETATM   26  C   UNL     1      -6.459  -1.091 -33.348  1.00  0.00     0.036 A 
HETATM   27  C   UNL     1      -5.161  -1.152 -32.837  1.00  0.00     0.029 A 
HETATM   28  C   UNL     1      -4.214  -2.004 -33.416  1.00  0.00     0.002 A 
HETATM   29  C   UNL     1      -4.562  -2.813 -34.496  1.00  0.00     0.000 A 
HETATM   30  C   UNL     1      -5.861  -2.782 -34.992  1.00  0.00     0.002 A 
HETATM   31  C   UNL     1      -6.806  -1.931 -34.415  1.00  0.00     0.029 A 
ENDBRANCH  22  26
ENDBRANCH   5  20
TORSDOF 6
ENDMDL
MODEL 8
REMARK VINA RESULT:      -8.1      2.679      9.811
REMARK  6 active torsions:
REMARK  status: ('A' for Active; 'I' for Inactive)
REMARK    1  A    between atoms: C_3  and  C_4 
REMARK    2  A    between atoms: C_4  and  N_5 
REMARK       I    between atoms: N_5  and  C_6 
REMARK    3  A    between atoms: C_6  and  C_7 
REMARK    4  A    between atoms: C_7  and  N_8 
REMARK    5  A    between atoms: C_12  and  N_13 
REMARK       I    between atoms: N_13  and  C_14 
REMARK       I    between atoms: C_14  and  N_15 
REMARK    6  A    between atoms: N_15  and  C_16 
ROOT
HETATM    1  N   UNL     1      -4.501   3.519 -32.338  1.00  0.00    -0.063 N 
HETATM    2  H   UNL     1      -4.690   3.209 -33.299  1.00  0.00     0.280 HD
HETATM    3  C   UNL     1      -5.046   4.927 -32.245  1.00  0.00     0.237 C 
HETATM    4  C   UNL     1      -4.229   5.897 -33.078  1.00  0.00     0.053 C 
HETATM    5  C   UNL     1      -2.719   5.815 -32.850  1.00  0.00     0.089 C 
HETATM    6  C   UNL     1      -2.222   4.374 -32.946  1.00  0.00     0.053 C 
HETATM    7  C   UNL     1      -3.017   3.364 -32.137  1.00  0.00     0.237 C 
ENDROOT
BRANCH   1   8
HETATM    8  C   UNL     1      -5.289   2.536 -31.443  1.00  0.00     0.337 C 
BRANCH   8   9
HETATM    9  C   UNL     1      -5.856   1.286 -32.129  1.00  0.00     0.243 C 
HETATM   10  N   UNL     1      -5.076   0.724 -33.112  1.00  0.00    -0.355 N 
HETATM   11  H   UNL     1      -4.067   0.787 -33.011  1.00  0.00     0.162 HD
HETATM   12  O   UNL     1      -6.934   0.815 -31.773  1.00  0.00    -0.272 OA
BRANCH  10  13
HETATM   13  C   UNL     1      -5.500  -0.510 -33.746  1.00  0.00     0.169 C 
BRANCH  13  14
HETATM   14  C   UNL     1      -4.638  -1.680 -33.348  1.00  0.00     0.006 A 
HETATM   15  C   UNL     1      -4.586  -2.927 -33.964  1.00  0.00    -0.047 A 
HETATM   16  C   UNL     1      -5.373  -3.325 -35.173  1.00  0.00     0.049 C 
HETATM   17  C   UNL     1      -3.684  -3.812 -33.286  1.00  0.00     0.015 A 
HETATM   18  C   UNL     1      -3.088  -3.229 -32.195  1.00  0.00     0.051 A 
HETATM   19  S   UNL     1      -3.604  -1.624 -31.974  1.00  0.00    -0.104 SA
ENDBRANCH  13  14
ENDBRANCH  10  13
ENDBRANCH   8   9
ENDBRANCH   1   8
BRANCH   5  20
HETATM   20  N   UNL     1      -2.232   6.554 -31.684  1.00  0.00    -0.338 N 
HETATM   21  C   UNL     1      -1.808   7.841 -31.653  1.00  0.00     0.321 C 
HETATM   22  N   UNL     1      -1.408   8.363 -30.470  1.00  0.00    -0.309 N 
HETATM   23  O   UNL     1      -1.830   8.560 -32.649  1.00  0.00    -0.247 OA
HETATM   24  H   UNL     1      -1.326   9.374 -30.516  1.00  0.00     0.170 HD
HETATM   25  H   UNL     1      -2.562   6.225 -30.783  1.00  0.00     0.164 HD
BRANCH  22  26
HETATM   26  C   UNL     1      -1.017   7.785 -29.248  1.00  0.00     0.036 A 
HETATM   27  C   UNL     1      -1.883   7.516 -28.187  1.00  0.00     0.029 A 
HETATM   28  C   UNL     1      -1.400   6.920 -27.016  1.00  0.00     0.002 A 
HETATM   29  C   UNL     1      -0.055   6.573 -26.906  1.00  0.00     0.000 A 
HETATM   30  C   UNL     1       0.809   6.810 -27.970  1.00  0.00     0.002 A 
HETATM   31  C   UNL     1       0.328   7.405 -29.138  1.00  0.00     0.029 A 
ENDBRANCH  22  26
ENDBRANCH   5  20
TORSDOF 6
ENDMDL
MODEL 9
REMARK VINA RESULT:      -7.9      1.834      2.459
REMARK  6 active torsions:
REMARK  status: ('A' for Active; 'I' for Inactive)
REMARK    1  A    between atoms: C_3  and  C_4 
REMARK    2  A    between atoms: C_4  and  N_5 
REMARK       I    between atoms: N_5  and  C_6 
REMARK    3  A    between atoms: C_6  and  C_7 
REMARK    4  A    between atoms: C_7  and  N_8 
REMARK    5  A    between atoms: C_12  and  N_13 
REMARK       I    between atoms: N_13  and  C_14 
REMARK       I    between atoms: C_14  and  N_15 
REMARK    6  A    between atoms: N_15  and  C_16 
ROOT
HETATM    1  N   UNL     1      -6.534   2.988 -30.601  1.00  0.00    -0.063 N 
HETATM    2  H   UNL     1      -7.130   3.202 -29.792  1.00  0.00     0.280 HD
HETATM    3  C   UNL     1      -7.458   2.427 -31.658  1.00  0.00     0.237 C 
HETATM    4  C   UNL     1      -7.991   1.061 -31.264  1.00  0.00     0.053 C 
HETATM    5  C   UNL     1      -6.922   0.070 -30.805  1.00  0.00     0.089 C 
HETATM    6  C   UNL     1      -6.011   0.688 -29.747  1.00  0.00     0.053 C 
HETATM    7  C   UNL     1      -5.462   2.061 -30.092  1.00  0.00     0.237 C 
ENDROOT
BRANCH   1   8
HETATM    8  C   UNL     1      -5.937   4.350 -31.022  1.00  0.00     0.337 C 
BRANCH   8   9
HETATM    9  C   UNL     1      -4.670   4.306 -31.887  1.00  0.00     0.243 C 
HETATM   10  N   UNL     1      -3.475   4.219 -31.213  1.00  0.00    -0.355 N 
HETATM   11  H   UNL     1      -3.461   3.707 -30.335  1.00  0.00     0.162 HD
HETATM   12  O   UNL     1      -4.752   4.314 -33.113  1.00  0.00    -0.272 OA
BRANCH  10  13
HETATM   13  C   UNL     1      -2.238   4.083 -31.959  1.00  0.00     0.169 C 
BRANCH  13  14
HETATM   14  C   UNL     1      -1.296   5.233 -31.714  1.00  0.00     0.006 A 
HETATM   15  C   UNL     1      -1.110   6.348 -32.527  1.00  0.00    -0.047 A 
HETATM   16  C   UNL     1      -1.847   6.620 -33.800  1.00  0.00     0.049 C 
HETATM   17  C   UNL     1      -0.097   7.218 -32.003  1.00  0.00     0.015 A 
HETATM   18  C   UNL     1       0.449   6.752 -30.832  1.00  0.00     0.051 A 
HETATM   19  S   UNL     1      -0.242   5.273 -30.355  1.00  0.00    -0.104 SA
ENDBRANCH  13  14
ENDBRANCH  10  13
ENDBRANCH   8   9
ENDBRANCH   1   8
BRANCH   5  20
HETATM   20  N   UNL     1      -6.219  -0.621 -31.888  1.00  0.00    -0.338 N 
HETATM   21  C   UNL     1      -5.563  -0.051 -32.928  1.00  0.00     0.321 C 
HETATM   22  N   UNL     1      -4.953  -0.857 -33.829  1.00  0.00    -0.309 N 
HETATM   23  O   UNL     1      -5.457   1.167 -33.046  1.00  0.00    -0.247 OA
HETATM   24  H   UNL     1      -4.317  -0.337 -34.426  1.00  0.00     0.170 HD
HETATM   25  H   UNL     1      -5.885  -1.555 -31.674  1.00  0.00     0.164 HD
BRANCH  22  26
HETATM   26  C   UNL     1      -5.087  -2.222 -34.142  1.00  0.00     0.036 A 
HETATM   27  C   UNL     1      -4.130  -3.198 -33.857  1.00  0.00     0.029 A 
HETATM   28  C   UNL     1      -4.364  -4.536 -34.192  1.00  0.00     0.002 A 
HETATM   29  C   UNL     1      -5.563  -4.910 -34.796  1.00  0.00     0.000 A 
HETATM   30  C   UNL     1      -6.535  -3.950 -35.056  1.00  0.00     0.002 A 
HETATM   31  C   UNL     1      -6.301  -2.615 -34.723  1.00  0.00     0.029 A 
ENDBRANCH  22  26
ENDBRANCH   5  20
TORSDOF 6
ENDMDL
MODEL 10
REMARK VINA RESULT:      -7.7      4.298      7.126
REMARK  6 active torsions:
REMARK  status: ('A' for Active; 'I' for Inactive)
REMARK    1  A    between atoms: C_3  and  C_4 
REMARK    2  A    between atoms: C_4  and  N_5 
REMARK       I    between atoms: N_5  and  C_6 
REMARK    3  A    between atoms: C_6  and  C_7 
REMARK    4  A    between atoms: C_7  and  N_8 
REMARK    5  A    between atoms: C_12  and  N_13 
REMARK       I    between atoms: N_13  and  C_14 
REMARK       I    between atoms: C_14  and  N_15 
REMARK    6  A    between atoms: N_15  and  C_16 
ROOT
HETATM    1  N   UNL     1      -5.981   3.472 -31.423  1.00  0.00    -0.063 N 
HETATM    2  H   UNL     1      -5.477   3.947 -30.664  1.00  0.00     0.280 HD
HETATM    3  C   UNL     1      -6.490   2.176 -30.831  1.00  0.00     0.237 C 
HETATM    4  C   UNL     1      -5.354   1.216 -30.532  1.00  0.00     0.053 C 
HETATM    5  C   UNL     1      -4.374   1.012 -31.688  1.00  0.00     0.089 C 
HETATM    6  C   UNL     1      -3.898   2.348 -32.255  1.00  0.00     0.053 C 
HETATM    7  C   UNL     1      -5.001   3.347 -32.558  1.00  0.00     0.237 C 
ENDROOT
BRANCH   1   8
HETATM    8  C   UNL     1      -7.137   4.431 -31.788  1.00  0.00     0.337 C 
BRANCH   8   9
HETATM    9  C   UNL     1      -7.799   4.218 -33.155  1.00  0.00     0.243 C 
HETATM   10  N   UNL     1      -8.808   3.285 -33.205  1.00  0.00    -0.355 N 
HETATM   11  H   UNL     1      -9.388   3.169 -32.380  1.00  0.00     0.162 HD
HETATM   12  O   UNL     1      -7.452   4.886 -34.127  1.00  0.00    -0.272 OA
BRANCH  10  13
HETATM   13  C   UNL     1      -9.544   3.089 -34.439  1.00  0.00     0.169 C 
BRANCH  13  14
HETATM   14  C   UNL     1     -10.848   2.368 -34.217  1.00  0.00     0.006 A 
HETATM   15  C   UNL     1     -11.020   1.106 -33.655  1.00  0.00    -0.047 A 
HETATM   16  C   UNL     1      -9.918   0.235 -33.139  1.00  0.00     0.049 C 
HETATM   17  C   UNL     1     -12.401   0.719 -33.642  1.00  0.00     0.015 A 
HETATM   18  C   UNL     1     -13.226   1.675 -34.182  1.00  0.00     0.051 A 
HETATM   19  S   UNL     1     -12.355   3.037 -34.711  1.00  0.00    -0.104 SA
ENDBRANCH  13  14
ENDBRANCH  10  13
ENDBRANCH   8   9
ENDBRANCH   1   8
BRANCH   5  20
HETATM   20  N   UNL     1      -4.805   0.040 -32.695  1.00  0.00    -0.338 N 
HETATM   21  C   UNL     1      -5.810   0.187 -33.592  1.00  0.00     0.321 C 
HETATM   22  N   UNL     1      -6.054  -0.819 -34.464  1.00  0.00    -0.309 N 
HETATM   23  O   UNL     1      -6.465   1.223 -33.676  1.00  0.00    -0.247 OA
HETATM   24  H   UNL     1      -6.663  -0.521 -35.220  1.00  0.00     0.170 HD
HETATM   25  H   UNL     1      -4.103  -0.627 -32.996  1.00  0.00     0.164 HD
BRANCH  22  26
HETATM   26  C   UNL     1      -5.700  -2.181 -34.482  1.00  0.00     0.036 A 
HETATM   27  C   UNL     1      -4.431  -2.674 -34.175  1.00  0.00     0.029 A 
HETATM   28  C   UNL     1      -4.183  -4.051 -34.202  1.00  0.00     0.002 A 
HETATM   29  C   UNL     1      -5.205  -4.944 -34.518  1.00  0.00     0.000 A 
HETATM   30  C   UNL     1      -6.480  -4.464 -34.795  1.00  0.00     0.002 A 
HETATM   31  C   UNL     1      -6.728  -3.090 -34.769  1.00  0.00     0.029 A 
ENDBRANCH  22  26
ENDBRANCH   5  20
TORSDOF 6
ENDMDL
