MODEL 1
REMARK VINA RESULT:      -8.6      0.000      0.000
REMARK  9 active torsions:
REMARK  status: ('A' for Active; 'I' for Inactive)
REMARK    1  A    between atoms: C_2  and  O_3 
REMARK    2  A    between atoms: O_3  and  C_4 
REMARK    3  A    between atoms: C_7  and  C_8 
REMARK    4  A    between atoms: C_9  and  C_10 
REMARK       I    between atoms: C_10  and  N_11 
REMARK    5  A    between atoms: N_11  and  C_12 
REMARK    6  A    between atoms: C_22  and  S_23 
REMARK    7  A    between atoms: S_23  and  C_24 
REMARK    8  A    between atoms: C_24  and  C_25 
REMARK       I    between atoms: C_25  and  N_26 
REMARK    9  A    between atoms: N_26  and  C_27 
ROOT
HETATM    1  C   UNL     1      -8.125   3.792 -33.772  1.00  0.00     0.104 C 
HETATM    2  C   UNL     1      -9.359   4.075 -32.913  1.00  0.00     0.046 C 
HETATM    3  C   UNL     1      -9.236   4.659 -31.698  1.00  0.00     0.019 C 
HETATM    4  C   UNL     1     -10.337   4.775 -30.673  1.00  0.00     0.069 C 
HETATM    5  N   UNL     1      -8.016   5.196 -31.327  1.00  0.00    -0.353 N 
HETATM    6  C   UNL     1      -6.911   5.299 -32.156  1.00  0.00     0.087 C 
HETATM    7  C   UNL     1      -6.918   4.621 -33.339  1.00  0.00     0.055 C 
HETATM    8  C   UNL     1      -5.654   4.604 -34.184  1.00  0.00     0.019 C 
HETATM    9  N   UNL     1      -4.607   4.591 -34.886  1.00  0.00    -0.096 N 
HETATM   10  H   UNL     1      -7.913   5.487 -30.356  1.00  0.00     0.166 HD
ENDROOT
BRANCH   1  11
HETATM   11  C   UNL     1      -7.759   2.306 -33.776  1.00  0.00    -0.044 A 
HETATM   12  C   UNL     1      -7.842   1.554 -32.596  1.00  0.00     0.011 A 
HETATM   13  C   UNL     1      -7.544   0.187 -32.605  1.00  0.00     0.037 A 
HETATM   14  C   UNL     1      -7.164  -0.455 -33.786  1.00  0.00     0.068 A 
HETATM   15  C   UNL     1      -7.065   0.288 -34.960  1.00  0.00     0.037 A 
HETATM   16  C   UNL     1      -7.361   1.654 -34.956  1.00  0.00     0.011 A 
BRANCH  14  17
HETATM   17  O   UNL     1      -6.915  -1.794 -33.659  1.00  0.00    -0.352 OA
BRANCH  17  18
HETATM   18  C   UNL     1      -6.475  -2.480 -34.830  1.00  0.00     0.171 C 
HETATM   19  C   UNL     1      -6.775  -3.957 -34.650  1.00  0.00     0.034 C 
ENDBRANCH  17  18
ENDBRANCH  14  17
ENDBRANCH   1  11
BRANCH   6  20
HETATM   20  S   UNL     1      -5.500   6.286 -31.764  1.00  0.00    -0.102 SA
BRANCH  20  21
HETATM   21  C   UNL     1      -4.675   5.409 -30.421  1.00  0.00     0.184 C 
BRANCH  21  22
HETATM   22  C   UNL     1      -3.939   4.200 -30.972  1.00  0.00     0.231 C 
HETATM   23  N   UNL     1      -4.668   3.032 -30.825  1.00  0.00    -0.327 N 
HETATM   24  H   UNL     1      -5.473   3.090 -30.210  1.00  0.00     0.169 HD
HETATM   25  O   UNL     1      -2.821   4.328 -31.462  1.00  0.00    -0.272 OA
BRANCH  23  26
HETATM   26  C   UNL     1      -4.358   1.747 -31.304  1.00  0.00     0.034 A 
HETATM   27  C   UNL     1      -3.781   1.498 -32.548  1.00  0.00     0.030 A 
HETATM   28  C   UNL     1      -3.541   0.181 -32.961  1.00  0.00     0.009 A 
HETATM   29  C   UNL     1      -3.878  -0.900 -32.140  1.00  0.00    -0.062 A 
HETATM   30  C   UNL     1      -3.591  -2.307 -32.577  1.00  0.00     0.048 C 
HETATM   31  C   UNL     1      -4.436  -0.647 -30.886  1.00  0.00     0.009 A 
HETATM   32  C   UNL     1      -4.683   0.665 -30.476  1.00  0.00     0.030 A 
ENDBRANCH  23  26
ENDBRANCH  21  22
ENDBRANCH  20  21
ENDBRANCH   6  20
BRANCH   2  33
HETATM   33  C   UNL     1     -10.683   3.713 -33.507  1.00  0.00     0.255 C 
HETATM   34  N   UNL     1     -11.300   2.684 -32.819  1.00  0.00    -0.323 N 
HETATM   35  H   UNL     1     -10.813   2.321 -32.009  1.00  0.00     0.169 HD
HETATM   36  O   UNL     1     -11.141   4.353 -34.442  1.00  0.00    -0.268 OA
BRANCH  34  37
HETATM   37  C   UNL     1     -12.509   2.032 -33.135  1.00  0.00     0.035 A 
HETATM   38  C   UNL     1     -13.771   2.515 -32.793  1.00  0.00     0.029 A 
HETATM   39  C   UNL     1     -14.921   1.811 -33.166  1.00  0.00     0.002 A 
HETATM   40  C   UNL     1     -14.817   0.623 -33.888  1.00  0.00     0.000 A 
HETATM   41  C   UNL     1     -13.562   0.133 -34.233  1.00  0.00     0.002 A 
HETATM   42  C   UNL     1     -12.413   0.832 -33.854  1.00  0.00     0.029 A 
ENDBRANCH  34  37
ENDBRANCH   2  33
TORSDOF 9
ENDMDL
MODEL 2
REMARK VINA RESULT:      -8.4      2.978      8.408
REMARK  9 active torsions:
REMARK  status: ('A' for Active; 'I' for Inactive)
REMARK    1  A    between atoms: C_2  and  O_3 
REMARK    2  A    between atoms: O_3  and  C_4 
REMARK    3  A    between atoms: C_7  and  C_8 
REMARK    4  A    between atoms: C_9  and  C_10 
REMARK       I    between atoms: C_10  and  N_11 
REMARK    5  A    between atoms: N_11  and  C_12 
REMARK    6  A    between atoms: C_22  and  S_23 
REMARK    7  A    between atoms: S_23  and  C_24 
REMARK    8  A    between atoms: C_24  and  C_25 
REMARK       I    between atoms: C_25  and  N_26 
REMARK    9  A    between atoms: N_26  and  C_27 
ROOT
HETATM    1  C   UNL     1      -6.148   4.358 -32.081  1.00  0.00     0.104 C 
HETATM    2  C   UNL     1      -4.909   3.462 -32.024  1.00  0.00     0.046 C 
HETATM    3  C   UNL     1      -5.025   2.136 -31.778  1.00  0.00     0.019 C 
HETATM    4  C   UNL     1      -3.880   1.205 -31.470  1.00  0.00     0.069 C 
HETATM    5  N   UNL     1      -6.280   1.554 -31.793  1.00  0.00    -0.353 N 
HETATM    6  C   UNL     1      -7.448   2.200 -32.165  1.00  0.00     0.087 C 
HETATM    7  C   UNL     1      -7.430   3.557 -32.298  1.00  0.00     0.055 C 
HETATM    8  C   UNL     1      -8.737   4.288 -32.556  1.00  0.00     0.019 C 
HETATM    9  N   UNL     1      -9.820   4.895 -32.771  1.00  0.00    -0.096 N 
HETATM   10  H   UNL     1      -6.352   0.596 -31.455  1.00  0.00     0.166 HD
ENDROOT
BRANCH   1  11
HETATM   11  C   UNL     1      -6.284   5.226 -30.828  1.00  0.00    -0.044 A 
HETATM   12  C   UNL     1      -6.511   4.634 -29.578  1.00  0.00     0.011 A 
HETATM   13  C   UNL     1      -6.599   5.424 -28.427  1.00  0.00     0.037 A 
HETATM   14  C   UNL     1      -6.458   6.811 -28.497  1.00  0.00     0.068 A 
HETATM   15  C   UNL     1      -6.247   7.409 -29.737  1.00  0.00     0.037 A 
HETATM   16  C   UNL     1      -6.158   6.625 -30.892  1.00  0.00     0.011 A 
BRANCH  14  17
HETATM   17  O   UNL     1      -6.550   7.461 -27.297  1.00  0.00    -0.352 OA
BRANCH  17  18
HETATM   18  C   UNL     1      -5.497   8.367 -26.975  1.00  0.00     0.171 C 
HETATM   19  C   UNL     1      -4.316   7.557 -26.470  1.00  0.00     0.034 C 
ENDBRANCH  17  18
ENDBRANCH  14  17
ENDBRANCH   1  11
BRANCH   6  20
HETATM   20  S   UNL     1      -8.959   1.346 -32.498  1.00  0.00    -0.102 SA
BRANCH  20  21
HETATM   21  C   UNL     1      -8.982   1.119 -34.287  1.00  0.00     0.184 C 
BRANCH  21  22
HETATM   22  C   UNL     1      -7.767   0.317 -34.719  1.00  0.00     0.231 C 
HETATM   23  N   UNL     1      -7.531  -0.766 -33.889  1.00  0.00    -0.327 N 
HETATM   24  H   UNL     1      -8.047  -0.770 -33.016  1.00  0.00     0.169 HD
HETATM   25  O   UNL     1      -7.113   0.666 -35.698  1.00  0.00    -0.272 OA
BRANCH  23  26
HETATM   26  C   UNL     1      -6.570  -1.781 -34.036  1.00  0.00     0.034 A 
HETATM   27  C   UNL     1      -6.823  -3.013 -34.633  1.00  0.00     0.030 A 
HETATM   28  C   UNL     1      -5.815  -3.983 -34.702  1.00  0.00     0.009 A 
HETATM   29  C   UNL     1      -4.545  -3.735 -34.172  1.00  0.00    -0.062 A 
HETATM   30  C   UNL     1      -3.461  -4.767 -34.275  1.00  0.00     0.048 C 
HETATM   31  C   UNL     1      -4.286  -2.491 -33.593  1.00  0.00     0.009 A 
HETATM   32  C   UNL     1      -5.294  -1.526 -33.516  1.00  0.00     0.030 A 
ENDBRANCH  23  26
ENDBRANCH  21  22
ENDBRANCH  20  21
ENDBRANCH   6  20
BRANCH   2  33
HETATM   33  C   UNL     1      -3.594   4.122 -32.295  1.00  0.00     0.255 C 
HETATM   34  N   UNL     1      -3.000   4.596 -31.139  1.00  0.00    -0.323 N 
HETATM   35  H   UNL     1      -3.494   4.430 -30.272  1.00  0.00     0.169 HD
HETATM   36  O   UNL     1      -3.123   4.132 -33.423  1.00  0.00    -0.268 OA
BRANCH  34  37
HETATM   37  C   UNL     1      -1.808   5.338 -31.018  1.00  0.00     0.035 A 
HETATM   38  C   UNL     1      -0.542   4.767 -30.891  1.00  0.00     0.029 A 
HETATM   39  C   UNL     1       0.592   5.581 -30.796  1.00  0.00     0.002 A 
HETATM   40  C   UNL     1       0.470   6.969 -30.835  1.00  0.00     0.000 A 
HETATM   41  C   UNL     1      -0.790   7.547 -30.961  1.00  0.00     0.002 A 
HETATM   42  C   UNL     1      -1.923   6.735 -31.046  1.00  0.00     0.029 A 
ENDBRANCH  34  37
ENDBRANCH   2  33
TORSDOF 9
ENDMDL
MODEL 3
REMARK VINA RESULT:      -8.4      2.825      7.951
REMARK  9 active torsions:
REMARK  status: ('A' for Active; 'I' for Inactive)
REMARK    1  A    between atoms: C_2  and  O_3 
REMARK    2  A    between atoms: O_3  and  C_4 
REMARK    3  A    between atoms: C_7  and  C_8 
REMARK    4  A    between atoms: C_9  and  C_10 
REMARK       I    between atoms: C_10  and  N_11 
REMARK    5  A    between atoms: N_11  and  C_12 
REMARK    6  A    between atoms: C_22  and  S_23 
REMARK    7  A    between atoms: S_23  and  C_24 
REMARK    8  A    between atoms: C_24  and  C_25 
REMARK       I    between atoms: C_25  and  N_26 
REMARK    9  A    between atoms: N_26  and  C_27 
ROOT
HETATM    1  C   UNL     1      -4.676   4.257 -30.776  1.00  0.00     0.104 C 
HETATM    2  C   UNL     1      -3.684   5.283 -31.326  1.00  0.00     0.046 C 
HETATM    3  C   UNL     1      -4.044   6.130 -32.320  1.00  0.00     0.019 C 
HETATM    4  C   UNL     1      -3.100   7.014 -33.094  1.00  0.00     0.069 C 
HETATM    5  N   UNL     1      -5.376   6.210 -32.689  1.00  0.00    -0.353 N 
HETATM    6  C   UNL     1      -6.418   5.574 -32.035  1.00  0.00     0.087 C 
HETATM    7  C   UNL     1      -6.122   4.612 -31.116  1.00  0.00     0.055 C 
HETATM    8  C   UNL     1      -7.256   3.804 -30.506  1.00  0.00     0.019 C 
HETATM    9  N   UNL     1      -8.196   3.135 -29.998  1.00  0.00    -0.096 N 
HETATM   10  H   UNL     1      -5.591   6.734 -33.535  1.00  0.00     0.166 HD
ENDROOT
BRANCH   1  11
HETATM   11  C   UNL     1      -4.362   2.840 -31.263  1.00  0.00    -0.044 A 
HETATM   12  C   UNL     1      -3.977   2.618 -32.592  1.00  0.00     0.011 A 
HETATM   13  C   UNL     1      -3.653   1.329 -33.029  1.00  0.00     0.037 A 
HETATM   14  C   UNL     1      -3.702   0.243 -32.153  1.00  0.00     0.068 A 
HETATM   15  C   UNL     1      -4.097   0.452 -30.834  1.00  0.00     0.037 A 
HETATM   16  C   UNL     1      -4.422   1.738 -30.392  1.00  0.00     0.011 A 
BRANCH  14  17
HETATM   17  O   UNL     1      -3.346  -0.958 -32.704  1.00  0.00    -0.352 OA
BRANCH  17  18
HETATM   18  C   UNL     1      -3.069  -2.024 -31.798  1.00  0.00     0.171 C 
HETATM   19  C   UNL     1      -3.364  -3.334 -32.509  1.00  0.00     0.034 C 
ENDBRANCH  17  18
ENDBRANCH  14  17
ENDBRANCH   1  11
BRANCH   6  20
HETATM   20  S   UNL     1      -8.117   5.967 -32.319  1.00  0.00    -0.102 SA
BRANCH  20  21
HETATM   21  C   UNL     1      -8.493   5.268 -33.939  1.00  0.00     0.184 C 
BRANCH  21  22
HETATM   22  C   UNL     1      -8.714   3.771 -33.815  1.00  0.00     0.231 C 
HETATM   23  N   UNL     1      -7.583   3.045 -34.150  1.00  0.00    -0.327 N 
HETATM   24  H   UNL     1      -6.848   3.566 -34.616  1.00  0.00     0.169 HD
HETATM   25  O   UNL     1      -9.807   3.335 -33.465  1.00  0.00    -0.272 OA
BRANCH  23  26
HETATM   26  C   UNL     1      -7.381   1.657 -34.056  1.00  0.00     0.034 A 
HETATM   27  C   UNL     1      -7.391   0.949 -32.856  1.00  0.00     0.030 A 
HETATM   28  C   UNL     1      -7.142  -0.430 -32.851  1.00  0.00     0.009 A 
HETATM   29  C   UNL     1      -6.876  -1.115 -34.041  1.00  0.00    -0.062 A 
HETATM   30  C   UNL     1      -6.639  -2.596 -34.032  1.00  0.00     0.048 C 
HETATM   31  C   UNL     1      -6.888  -0.406 -35.245  1.00  0.00     0.009 A 
HETATM   32  C   UNL     1      -7.129   0.970 -35.250  1.00  0.00     0.030 A 
ENDBRANCH  23  26
ENDBRANCH  21  22
ENDBRANCH  20  21
ENDBRANCH   6  20
BRANCH   2  33
HETATM   33  C   UNL     1      -2.336   5.322 -30.680  1.00  0.00     0.255 C 
HETATM   34  N   UNL     1      -2.263   6.277 -29.682  1.00  0.00    -0.323 N 
HETATM   35  H   UNL     1      -3.104   6.806 -29.495  1.00  0.00     0.169 HD
HETATM   36  O   UNL     1      -1.472   4.517 -30.994  1.00  0.00    -0.268 OA
BRANCH  34  37
HETATM   37  C   UNL     1      -1.138   6.651 -28.920  1.00  0.00     0.035 A 
HETATM   38  C   UNL     1      -0.940   6.288 -27.588  1.00  0.00     0.029 A 
HETATM   39  C   UNL     1       0.218   6.687 -26.913  1.00  0.00     0.002 A 
HETATM   40  C   UNL     1       1.190   7.444 -27.565  1.00  0.00     0.000 A 
HETATM   41  C   UNL     1       1.001   7.810 -28.894  1.00  0.00     0.002 A 
HETATM   42  C   UNL     1      -0.159   7.420 -29.566  1.00  0.00     0.029 A 
ENDBRANCH  34  37
ENDBRANCH   2  33
TORSDOF 9
ENDMDL
MODEL 4
REMARK VINA RESULT:      -8.3      3.365      4.993
REMARK  9 active torsions:
REMARK  status: ('A' for Active; 'I' for Inactive)
REMARK    1  A    between atoms: C_2  and  O_3 
REMARK    2  A    between atoms: O_3  and  C_4 
REMARK    3  A    between atoms: C_7  and  C_8 
REMARK    4  A    between atoms: C_9  and  C_10 
REMARK       I    between atoms: C_10  and  N_11 
REMARK    5  A    between atoms: N_11  and  C_12 
REMARK    6  A    between atoms: C_22  and  S_23 
REMARK    7  A    between atoms: S_23  and  C_24 
REMARK    8  A    between atoms: C_24  and  C_25 
REMARK       I    between atoms: C_25  and  N_26 
REMARK    9  A    between atoms: N_26  and  C_27 
ROOT
HETATM    1  C   UNL     1      -6.757   3.243 -33.022  1.00  0.00     0.104 C 
HETATM    2  C   UNL     1      -7.687   3.268 -31.808  1.00  0.00     0.046 C 
HETATM    3  C   UNL     1      -7.363   3.979 -30.702  1.00  0.00     0.019 C 
HETATM    4  C   UNL     1      -8.073   3.895 -29.374  1.00  0.00     0.069 C 
HETATM    5  N   UNL     1      -6.293   4.856 -30.753  1.00  0.00    -0.353 N 
HETATM    6  C   UNL     1      -5.581   5.169 -31.899  1.00  0.00     0.087 C 
HETATM    7  C   UNL     1      -5.764   4.403 -33.012  1.00  0.00     0.055 C 
HETATM    8  C   UNL     1      -4.878   4.643 -34.223  1.00  0.00     0.019 C 
HETATM    9  N   UNL     1      -4.144   4.842 -35.229  1.00  0.00    -0.096 N 
HETATM   10  H   UNL     1      -5.980   5.256 -29.871  1.00  0.00     0.166 HD
ENDROOT
BRANCH   1  11
HETATM   11  C   UNL     1      -6.004   1.916 -33.139  1.00  0.00    -0.044 A 
HETATM   12  C   UNL     1      -4.906   1.650 -32.309  1.00  0.00     0.011 A 
HETATM   13  C   UNL     1      -4.240   0.423 -32.389  1.00  0.00     0.037 A 
HETATM   14  C   UNL     1      -4.656  -0.560 -33.289  1.00  0.00     0.068 A 
HETATM   15  C   UNL     1      -5.737  -0.299 -34.127  1.00  0.00     0.037 A 
HETATM   16  C   UNL     1      -6.406   0.926 -34.052  1.00  0.00     0.011 A 
BRANCH  14  17
HETATM   17  O   UNL     1      -3.928  -1.718 -33.254  1.00  0.00    -0.352 OA
BRANCH  17  18
HETATM   18  C   UNL     1      -3.245  -2.012 -32.037  1.00  0.00     0.171 C 
HETATM   19  C   UNL     1      -3.021  -3.513 -31.973  1.00  0.00     0.034 C 
ENDBRANCH  17  18
ENDBRANCH  14  17
ENDBRANCH   1  11
BRANCH   6  20
HETATM   20  S   UNL     1      -4.460   6.531 -31.995  1.00  0.00    -0.102 SA
BRANCH  20  21
HETATM   21  C   UNL     1      -2.872   5.868 -31.453  1.00  0.00     0.184 C 
BRANCH  21  22
HETATM   22  C   UNL     1      -2.357   6.669 -30.270  1.00  0.00     0.231 C 
HETATM   23  N   UNL     1      -1.176   6.154 -29.763  1.00  0.00    -0.327 N 
HETATM   24  H   UNL     1      -0.922   5.229 -30.094  1.00  0.00     0.169 HD
HETATM   25  O   UNL     1      -2.986   7.641 -29.861  1.00  0.00    -0.272 OA
BRANCH  23  26
HETATM   26  C   UNL     1      -0.360   6.685 -28.749  1.00  0.00     0.034 A 
HETATM   27  C   UNL     1      -0.390   6.259 -27.423  1.00  0.00     0.030 A 
HETATM   28  C   UNL     1       0.432   6.871 -26.469  1.00  0.00     0.009 A 
HETATM   29  C   UNL     1       1.289   7.917 -26.826  1.00  0.00    -0.062 A 
HETATM   30  C   UNL     1       2.188   8.549 -25.804  1.00  0.00     0.048 C 
HETATM   31  C   UNL     1       1.333   8.328 -28.160  1.00  0.00     0.009 A 
HETATM   32  C   UNL     1       0.507   7.723 -29.111  1.00  0.00     0.030 A 
ENDBRANCH  23  26
ENDBRANCH  21  22
ENDBRANCH  20  21
ENDBRANCH   6  20
BRANCH   2  33
HETATM   33  C   UNL     1      -8.971   2.510 -31.934  1.00  0.00     0.255 C 
HETATM   34  N   UNL     1      -9.837   3.097 -32.837  1.00  0.00    -0.323 N 
HETATM   35  H   UNL     1      -9.509   3.930 -33.309  1.00  0.00     0.169 HD
HETATM   36  O   UNL     1      -9.131   1.455 -31.337  1.00  0.00    -0.268 OA
BRANCH  34  37
HETATM   37  C   UNL     1     -11.157   2.712 -33.149  1.00  0.00     0.035 A 
HETATM   38  C   UNL     1     -11.483   1.627 -33.962  1.00  0.00     0.029 A 
HETATM   39  C   UNL     1     -12.823   1.304 -34.202  1.00  0.00     0.002 A 
HETATM   40  C   UNL     1     -13.844   2.058 -33.628  1.00  0.00     0.000 A 
HETATM   41  C   UNL     1     -13.528   3.143 -32.816  1.00  0.00     0.002 A 
HETATM   42  C   UNL     1     -12.191   3.471 -32.583  1.00  0.00     0.029 A 
ENDBRANCH  34  37
ENDBRANCH   2  33
TORSDOF 9
ENDMDL
MODEL 5
REMARK VINA RESULT:      -8.2      3.701      7.063
REMARK  9 active torsions:
REMARK  status: ('A' for Active; 'I' for Inactive)
REMARK    1  A    between atoms: C_2  and  O_3 
REMARK    2  A    between atoms: O_3  and  C_4 
REMARK    3  A    between atoms: C_7  and  C_8 
REMARK    4  A    between atoms: C_9  and  C_10 
REMARK       I    between atoms: C_10  and  N_11 
REMARK    5  A    between atoms: N_11  and  C_12 
REMARK    6  A    between atoms: C_22  and  S_23 
REMARK    7  A    between atoms: S_23  and  C_24 
REMARK    8  A    between atoms: C_24  and  C_25 
REMARK       I    between atoms: C_25  and  N_26 
REMARK    9  A    between atoms: N_26  and  C_27 
ROOT
HETATM    1  C   UNL     1      -6.593   3.780 -32.156  1.00  0.00     0.104 C 
HETATM    2  C   UNL     1      -6.571   2.352 -31.609  1.00  0.00     0.046 C 
HETATM    3  C   UNL     1      -6.342   2.118 -30.294  1.00  0.00     0.019 C 
HETATM    4  C   UNL     1      -6.068   0.766 -29.687  1.00  0.00     0.069 C 
HETATM    5  N   UNL     1      -6.342   3.182 -29.410  1.00  0.00    -0.353 N 
HETATM    6  C   UNL     1      -6.684   4.484 -29.737  1.00  0.00     0.087 C 
HETATM    7  C   UNL     1      -6.798   4.818 -31.054  1.00  0.00     0.055 C 
HETATM    8  C   UNL     1      -7.021   6.274 -31.427  1.00  0.00     0.019 C 
HETATM    9  N   UNL     1      -7.208   7.482 -31.737  1.00  0.00    -0.096 N 
HETATM   10  H   UNL     1      -6.016   2.998 -28.463  1.00  0.00     0.166 HD
ENDROOT
BRANCH   1  11
HETATM   11  C   UNL     1      -5.326   4.108 -32.949  1.00  0.00    -0.044 A 
HETATM   12  C   UNL     1      -5.416   4.739 -34.197  1.00  0.00     0.011 A 
HETATM   13  C   UNL     1      -4.257   5.073 -34.906  1.00  0.00     0.037 A 
HETATM   14  C   UNL     1      -2.993   4.791 -34.385  1.00  0.00     0.068 A 
HETATM   15  C   UNL     1      -2.894   4.151 -33.151  1.00  0.00     0.037 A 
HETATM   16  C   UNL     1      -4.049   3.815 -32.439  1.00  0.00     0.011 A 
BRANCH  14  17
HETATM   17  O   UNL     1      -1.944   5.183 -35.172  1.00  0.00    -0.352 OA
BRANCH  17  18
HETATM   18  C   UNL     1      -0.906   5.926 -34.536  1.00  0.00     0.171 C 
HETATM   19  C   UNL     1      -1.525   7.168 -33.920  1.00  0.00     0.034 C 
ENDBRANCH  17  18
ENDBRANCH  14  17
ENDBRANCH   1  11
BRANCH   6  20
HETATM   20  S   UNL     1      -7.000   5.731 -28.526  1.00  0.00    -0.102 SA
BRANCH  20  21
HETATM   21  C   UNL     1      -5.598   5.651 -27.396  1.00  0.00     0.184 C 
BRANCH  21  22
HETATM   22  C   UNL     1      -4.494   6.576 -27.879  1.00  0.00     0.231 C 
HETATM   23  N   UNL     1      -3.348   6.472 -27.108  1.00  0.00    -0.327 N 
HETATM   24  H   UNL     1      -3.452   5.970 -26.232  1.00  0.00     0.169 HD
HETATM   25  O   UNL     1      -4.683   7.313 -28.843  1.00  0.00    -0.272 OA
BRANCH  23  26
HETATM   26  C   UNL     1      -2.102   7.088 -27.315  1.00  0.00     0.034 A 
HETATM   27  C   UNL     1      -1.549   7.326 -28.571  1.00  0.00     0.030 A 
HETATM   28  C   UNL     1      -0.282   7.912 -28.683  1.00  0.00     0.009 A 
HETATM   29  C   UNL     1       0.448   8.263 -27.543  1.00  0.00    -0.062 A 
HETATM   30  C   UNL     1       1.793   8.916 -27.671  1.00  0.00     0.048 C 
HETATM   31  C   UNL     1      -0.117   8.043 -26.285  1.00  0.00     0.009 A 
HETATM   32  C   UNL     1      -1.377   7.452 -26.173  1.00  0.00     0.030 A 
ENDBRANCH  23  26
ENDBRANCH  21  22
ENDBRANCH  20  21
ENDBRANCH   6  20
BRANCH   2  33
HETATM   33  C   UNL     1      -6.857   1.257 -32.587  1.00  0.00     0.255 C 
HETATM   34  N   UNL     1      -5.964   0.208 -32.471  1.00  0.00    -0.323 N 
HETATM   35  H   UNL     1      -5.258   0.287 -31.749  1.00  0.00     0.169 HD
HETATM   36  O   UNL     1      -7.834   1.316 -33.319  1.00  0.00    -0.268 OA
BRANCH  34  37
HETATM   37  C   UNL     1      -5.874  -0.948 -33.272  1.00  0.00     0.035 A 
HETATM   38  C   UNL     1      -6.973  -1.595 -33.837  1.00  0.00     0.029 A 
HETATM   39  C   UNL     1      -6.790  -2.727 -34.638  1.00  0.00     0.002 A 
HETATM   40  C   UNL     1      -5.509  -3.216 -34.886  1.00  0.00     0.000 A 
HETATM   41  C   UNL     1      -4.407  -2.577 -34.326  1.00  0.00     0.002 A 
HETATM   42  C   UNL     1      -4.590  -1.452 -33.519  1.00  0.00     0.029 A 
ENDBRANCH  34  37
ENDBRANCH   2  33
TORSDOF 9
ENDMDL
MODEL 6
REMARK VINA RESULT:      -8.2      3.229      4.823
REMARK  9 active torsions:
REMARK  status: ('A' for Active; 'I' for Inactive)
REMARK    1  A    between atoms: C_2  and  O_3 
REMARK    2  A    between atoms: O_3  and  C_4 
REMARK    3  A    between atoms: C_7  and  C_8 
REMARK    4  A    between atoms: C_9  and  C_10 
REMARK       I    between atoms: C_10  and  N_11 
REMARK    5  A    between atoms: N_11  and  C_12 
REMARK    6  A    between atoms: C_22  and  S_23 
REMARK    7  A    between atoms: S_23  and  C_24 
REMARK    8  A    between atoms: C_24  and  C_25 
REMARK       I    between atoms: C_25  and  N_26 
REMARK    9  A    between atoms: N_26  and  C_27 
ROOT
HETATM    1  C   UNL     1      -6.914   3.339 -33.105  1.00  0.00     0.104 C 
HETATM    2  C   UNL     1      -7.624   3.303 -31.751  1.00  0.00     0.046 C 
HETATM    3  C   UNL     1      -6.958   3.612 -30.613  1.00  0.00     0.019 C 
HETATM    4  C   UNL     1      -7.477   3.390 -29.214  1.00  0.00     0.069 C 
HETATM    5  N   UNL     1      -5.694   4.169 -30.699  1.00  0.00    -0.353 N 
HETATM    6  C   UNL     1      -5.081   4.560 -31.878  1.00  0.00     0.087 C 
HETATM    7  C   UNL     1      -5.630   4.165 -33.062  1.00  0.00     0.055 C 
HETATM    8  C   UNL     1      -4.883   4.459 -34.353  1.00  0.00     0.019 C 
HETATM    9  N   UNL     1      -4.265   4.703 -35.424  1.00  0.00    -0.096 N 
HETATM   10  H   UNL     1      -5.161   4.246 -29.835  1.00  0.00     0.166 HD
ENDROOT
BRANCH   1  11
HETATM   11  C   UNL     1      -6.609   1.934 -33.629  1.00  0.00    -0.044 A 
HETATM   12  C   UNL     1      -5.617   1.152 -33.022  1.00  0.00     0.011 A 
HETATM   13  C   UNL     1      -5.363  -0.147 -33.476  1.00  0.00     0.037 A 
HETATM   14  C   UNL     1      -6.093  -0.691 -34.535  1.00  0.00     0.068 A 
HETATM   15  C   UNL     1      -7.072   0.084 -35.153  1.00  0.00     0.037 A 
HETATM   16  C   UNL     1      -7.329   1.383 -34.704  1.00  0.00     0.011 A 
BRANCH  14  17
HETATM   17  O   UNL     1      -5.755  -1.974 -34.868  1.00  0.00    -0.352 OA
BRANCH  17  18
HETATM   18  C   UNL     1      -6.728  -2.984 -34.607  1.00  0.00     0.171 C 
HETATM   19  C   UNL     1      -6.267  -4.266 -35.277  1.00  0.00     0.034 C 
ENDBRANCH  17  18
ENDBRANCH  14  17
ENDBRANCH   1  11
BRANCH   6  20
HETATM   20  S   UNL     1      -3.631   5.568 -31.922  1.00  0.00    -0.102 SA
BRANCH  20  21
HETATM   21  C   UNL     1      -2.253   4.408 -31.818  1.00  0.00     0.184 C 
BRANCH  21  22
HETATM   22  C   UNL     1      -1.057   5.087 -31.174  1.00  0.00     0.231 C 
HETATM   23  N   UNL     1      -1.412   5.832 -30.063  1.00  0.00    -0.327 N 
HETATM   24  H   UNL     1      -2.407   5.996 -29.943  1.00  0.00     0.169 HD
HETATM   25  O   UNL     1       0.064   4.951 -31.657  1.00  0.00    -0.272 OA
BRANCH  23  26
HETATM   26  C   UNL     1      -0.571   6.506 -29.162  1.00  0.00     0.034 A 
HETATM   27  C   UNL     1       0.293   5.866 -28.276  1.00  0.00     0.030 A 
HETATM   28  C   UNL     1       1.070   6.616 -27.384  1.00  0.00     0.009 A 
HETATM   29  C   UNL     1       0.990   8.012 -27.363  1.00  0.00    -0.062 A 
HETATM   30  C   UNL     1       1.846   8.811 -26.425  1.00  0.00     0.048 C 
HETATM   31  C   UNL     1       0.139   8.653 -28.266  1.00  0.00     0.009 A 
HETATM   32  C   UNL     1      -0.642   7.905 -29.151  1.00  0.00     0.030 A 
ENDBRANCH  23  26
ENDBRANCH  21  22
ENDBRANCH  20  21
ENDBRANCH   6  20
BRANCH   2  33
HETATM   33  C   UNL     1      -9.078   2.956 -31.768  1.00  0.00     0.255 C 
HETATM   34  N   UNL     1      -9.881   4.075 -31.887  1.00  0.00    -0.323 N 
HETATM   35  H   UNL     1      -9.410   4.967 -31.969  1.00  0.00     0.169 HD
HETATM   36  O   UNL     1      -9.439   1.788 -31.756  1.00  0.00    -0.268 OA
BRANCH  34  37
HETATM   37  C   UNL     1     -11.288   4.141 -31.856  1.00  0.00     0.035 A 
HETATM   38  C   UNL     1     -12.041   4.236 -30.686  1.00  0.00     0.029 A 
HETATM   39  C   UNL     1     -13.436   4.318 -30.749  1.00  0.00     0.002 A 
HETATM   40  C   UNL     1     -14.088   4.313 -31.981  1.00  0.00     0.000 A 
HETATM   41  C   UNL     1     -13.345   4.218 -33.154  1.00  0.00     0.002 A 
HETATM   42  C   UNL     1     -11.952   4.128 -33.091  1.00  0.00     0.029 A 
ENDBRANCH  34  37
ENDBRANCH   2  33
TORSDOF 9
ENDMDL
MODEL 7
REMARK VINA RESULT:      -8.1      3.775      7.079
REMARK  9 active torsions:
REMARK  status: ('A' for Active; 'I' for Inactive)
REMARK    1  A    between atoms: C_2  and  O_3 
REMARK    2  A    between atoms: O_3  and  C_4 
REMARK    3  A    between atoms: C_7  and  C_8 
REMARK    4  A    between atoms: C_9  and  C_10 
REMARK       I    between atoms: C_10  and  N_11 
REMARK    5  A    between atoms: N_11  and  C_12 
REMARK    6  A    between atoms: C_22  and  S_23 
REMARK    7  A    between atoms: S_23  and  C_24 
REMARK    8  A    between atoms: C_24  and  C_25 
REMARK       I    between atoms: C_25  and  N_26 
REMARK    9  A    between atoms: N_26  and  C_27 
ROOT
HETATM    1  C   UNL     1      -5.952   2.959 -32.314  1.00  0.00     0.104 C 
HETATM    2  C   UNL     1      -5.810   1.615 -31.598  1.00  0.00     0.046 C 
HETATM    3  C   UNL     1      -6.242   1.461 -30.324  1.00  0.00     0.019 C 
HETATM    4  C   UNL     1      -5.950   0.271 -29.444  1.00  0.00     0.069 C 
HETATM    5  N   UNL     1      -7.007   2.458 -29.745  1.00  0.00    -0.353 N 
HETATM    6  C   UNL     1      -7.484   3.576 -30.410  1.00  0.00     0.087 C 
HETATM    7  C   UNL     1      -6.987   3.862 -31.646  1.00  0.00     0.055 C 
HETATM    8  C   UNL     1      -7.390   5.165 -32.318  1.00  0.00     0.019 C 
HETATM    9  N   UNL     1      -7.725   6.245 -32.875  1.00  0.00    -0.096 N 
HETATM   10  H   UNL     1      -7.184   2.386 -28.745  1.00  0.00     0.166 HD
ENDROOT
BRANCH   1  11
HETATM   11  C   UNL     1      -4.614   3.694 -32.421  1.00  0.00    -0.044 A 
HETATM   12  C   UNL     1      -3.713   3.685 -31.348  1.00  0.00     0.011 A 
HETATM   13  C   UNL     1      -2.474   4.325 -31.458  1.00  0.00     0.037 A 
HETATM   14  C   UNL     1      -2.109   4.979 -32.636  1.00  0.00     0.068 A 
HETATM   15  C   UNL     1      -3.003   5.006 -33.703  1.00  0.00     0.037 A 
HETATM   16  C   UNL     1      -4.243   4.368 -33.598  1.00  0.00     0.011 A 
BRANCH  14  17
HETATM   17  O   UNL     1      -0.865   5.550 -32.616  1.00  0.00    -0.352 OA
BRANCH  17  18
HETATM   18  C   UNL     1      -0.089   5.360 -31.434  1.00  0.00     0.171 C 
HETATM   19  C   UNL     1       0.685   6.639 -31.169  1.00  0.00     0.034 C 
ENDBRANCH  17  18
ENDBRANCH  14  17
ENDBRANCH   1  11
BRANCH   6  20
HETATM   20  S   UNL     1      -8.726   4.639 -29.740  1.00  0.00    -0.102 SA
BRANCH  20  21
HETATM   21  C   UNL     1      -7.948   5.426 -28.316  1.00  0.00     0.184 C 
BRANCH  21  22
HETATM   22  C   UNL     1      -7.037   6.549 -28.782  1.00  0.00     0.231 C 
HETATM   23  N   UNL     1      -5.767   6.097 -29.098  1.00  0.00    -0.327 N 
HETATM   24  H   UNL     1      -5.549   5.153 -28.794  1.00  0.00     0.169 HD
HETATM   25  O   UNL     1      -7.454   7.703 -28.831  1.00  0.00    -0.272 OA
BRANCH  23  26
HETATM   26  C   UNL     1      -4.700   6.820 -29.657  1.00  0.00     0.034 A 
HETATM   27  C   UNL     1      -3.534   7.145 -28.967  1.00  0.00     0.030 A 
HETATM   28  C   UNL     1      -2.536   7.904 -29.591  1.00  0.00     0.009 A 
HETATM   29  C   UNL     1      -2.691   8.350 -30.908  1.00  0.00    -0.062 A 
HETATM   30  C   UNL     1      -1.606   9.138 -31.579  1.00  0.00     0.048 C 
HETATM   31  C   UNL     1      -3.852   8.004 -31.604  1.00  0.00     0.009 A 
HETATM   32  C   UNL     1      -4.851   7.254 -30.980  1.00  0.00     0.030 A 
ENDBRANCH  23  26
ENDBRANCH  21  22
ENDBRANCH  20  21
ENDBRANCH   6  20
BRANCH   2  33
HETATM   33  C   UNL     1      -5.217   0.494 -32.392  1.00  0.00     0.255 C 
HETATM   34  N   UNL     1      -6.183  -0.366 -32.881  1.00  0.00    -0.323 N 
HETATM   35  H   UNL     1      -7.146  -0.137 -32.672  1.00  0.00     0.169 HD
HETATM   36  O   UNL     1      -4.015   0.454 -32.610  1.00  0.00    -0.268 OA
BRANCH  34  37
HETATM   37  C   UNL     1      -5.994  -1.567 -33.595  1.00  0.00     0.035 A 
HETATM   38  C   UNL     1      -7.018  -2.269 -34.229  1.00  0.00     0.029 A 
HETATM   39  C   UNL     1      -6.736  -3.443 -34.935  1.00  0.00     0.002 A 
HETATM   40  C   UNL     1      -5.430  -3.920 -35.018  1.00  0.00     0.000 A 
HETATM   41  C   UNL     1      -4.401  -3.226 -34.388  1.00  0.00     0.002 A 
HETATM   42  C   UNL     1      -4.683  -2.058 -33.676  1.00  0.00     0.029 A 
ENDBRANCH  34  37
ENDBRANCH   2  33
TORSDOF 9
ENDMDL
MODEL 8
REMARK VINA RESULT:      -8.1      3.400      7.007
REMARK  9 active torsions:
REMARK  status: ('A' for Active; 'I' for Inactive)
REMARK    1  A    between atoms: C_2  and  O_3 
REMARK    2  A    between atoms: O_3  and  C_4 
REMARK    3  A    between atoms: C_7  and  C_8 
REMARK    4  A    between atoms: C_9  and  C_10 
REMARK       I    between atoms: C_10  and  N_11 
REMARK    5  A    between atoms: N_11  and  C_12 
REMARK    6  A    between atoms: C_22  and  S_23 
REMARK    7  A    between atoms: S_23  and  C_24 
REMARK    8  A    between atoms: C_24  and  C_25 
REMARK       I    between atoms: C_25  and  N_26 
REMARK    9  A    between atoms: N_26  and  C_27 
ROOT
HETATM    1  C   UNL     1      -6.457   1.824 -31.226  1.00  0.00     0.104 C 
HETATM    2  C   UNL     1      -5.184   1.314 -31.905  1.00  0.00     0.046 C 
HETATM    3  C   UNL     1      -4.200   2.173 -32.263  1.00  0.00     0.019 C 
HETATM    4  C   UNL     1      -3.020   1.828 -33.136  1.00  0.00     0.069 C 
HETATM    5  N   UNL     1      -4.253   3.483 -31.820  1.00  0.00    -0.353 N 
HETATM    6  C   UNL     1      -5.183   3.978 -30.920  1.00  0.00     0.087 C 
HETATM    7  C   UNL     1      -6.271   3.214 -30.620  1.00  0.00     0.055 C 
HETATM    8  C   UNL     1      -7.371   3.808 -29.755  1.00  0.00     0.019 C 
HETATM    9  N   UNL     1      -8.282   4.299 -29.036  1.00  0.00    -0.096 N 
HETATM   10  H   UNL     1      -3.589   4.138 -32.229  1.00  0.00     0.166 HD
ENDROOT
BRANCH   1  11
HETATM   11  C   UNL     1      -7.652   1.830 -32.182  1.00  0.00    -0.044 A 
HETATM   12  C   UNL     1      -8.686   0.897 -32.028  1.00  0.00     0.011 A 
HETATM   13  C   UNL     1      -9.797   0.925 -32.878  1.00  0.00     0.037 A 
HETATM   14  C   UNL     1      -9.900   1.881 -33.890  1.00  0.00     0.068 A 
HETATM   15  C   UNL     1      -8.870   2.804 -34.059  1.00  0.00     0.037 A 
HETATM   16  C   UNL     1      -7.757   2.780 -33.213  1.00  0.00     0.011 A 
BRANCH  14  17
HETATM   17  O   UNL     1     -11.042   1.807 -34.639  1.00  0.00    -0.352 OA
BRANCH  17  18
HETATM   18  C   UNL     1     -12.280   1.865 -33.932  1.00  0.00     0.171 C 
HETATM   19  C   UNL     1     -13.249   0.905 -34.599  1.00  0.00     0.034 C 
ENDBRANCH  17  18
ENDBRANCH  14  17
ENDBRANCH   1  11
BRANCH   6  20
HETATM   20  S   UNL     1      -5.015   5.546 -30.124  1.00  0.00    -0.102 SA
BRANCH  20  21
HETATM   21  C   UNL     1      -3.631   6.347 -30.958  1.00  0.00     0.184 C 
BRANCH  21  22
HETATM   22  C   UNL     1      -2.832   7.165 -29.959  1.00  0.00     0.231 C 
HETATM   23  N   UNL     1      -1.829   6.424 -29.358  1.00  0.00    -0.327 N 
HETATM   24  H   UNL     1      -1.881   5.420 -29.496  1.00  0.00     0.169 HD
HETATM   25  O   UNL     1      -3.118   8.342 -29.755  1.00  0.00    -0.272 OA
BRANCH  23  26
HETATM   26  C   UNL     1      -0.834   6.867 -28.469  1.00  0.00     0.034 A 
HETATM   27  C   UNL     1      -0.816   6.569 -27.109  1.00  0.00     0.030 A 
HETATM   28  C   UNL     1       0.195   7.085 -26.288  1.00  0.00     0.009 A 
HETATM   29  C   UNL     1       1.197   7.906 -26.816  1.00  0.00    -0.062 A 
HETATM   30  C   UNL     1       2.293   8.432 -25.937  1.00  0.00     0.048 C 
HETATM   31  C   UNL     1       1.189   8.186 -28.184  1.00  0.00     0.009 A 
HETATM   32  C   UNL     1       0.177   7.678 -29.001  1.00  0.00     0.030 A 
ENDBRANCH  23  26
ENDBRANCH  21  22
ENDBRANCH  20  21
ENDBRANCH   6  20
BRANCH   2  33
HETATM   33  C   UNL     1      -5.078  -0.164 -32.103  1.00  0.00     0.255 C 
HETATM   34  N   UNL     1      -5.529  -0.557 -33.350  1.00  0.00    -0.323 N 
HETATM   35  H   UNL     1      -5.846   0.176 -33.972  1.00  0.00     0.169 HD
HETATM   36  O   UNL     1      -4.567  -0.872 -31.248  1.00  0.00    -0.268 OA
BRANCH  34  37
HETATM   37  C   UNL     1      -5.655  -1.867 -33.854  1.00  0.00     0.035 A 
HETATM   38  C   UNL     1      -6.861  -2.436 -34.260  1.00  0.00     0.029 A 
HETATM   39  C   UNL     1      -6.891  -3.739 -34.769  1.00  0.00     0.002 A 
HETATM   40  C   UNL     1      -5.715  -4.479 -34.881  1.00  0.00     0.000 A 
HETATM   41  C   UNL     1      -4.507  -3.920 -34.479  1.00  0.00     0.002 A 
HETATM   42  C   UNL     1      -4.478  -2.622 -33.963  1.00  0.00     0.029 A 
ENDBRANCH  34  37
ENDBRANCH   2  33
TORSDOF 9
ENDMDL
MODEL 9
REMARK VINA RESULT:      -7.9      2.207      7.510
REMARK  9 active torsions:
REMARK  status: ('A' for Active; 'I' for Inactive)
REMARK    1  A    between atoms: C_2  and  O_3 
REMARK    2  A    between atoms: O_3  and  C_4 
REMARK    3  A    between atoms: C_7  and  C_8 
REMARK    4  A    between atoms: C_9  and  C_10 
REMARK       I    between atoms: C_10  and  N_11 
REMARK    5  A    between atoms: N_11  and  C_12 
REMARK    6  A    between atoms: C_22  and  S_23 
REMARK    7  A    between atoms: S_23  and  C_24 
REMARK    8  A    between atoms: C_24  and  C_25 
REMARK       I    between atoms: C_25  and  N_26 
REMARK    9  A    between atoms: N_26  and  C_27 
ROOT
HETATM    1  C   UNL     1      -6.349   3.628 -32.631  1.00  0.00     0.104 C 
HETATM    2  C   UNL     1      -6.682   2.169 -32.312  1.00  0.00     0.046 C 
HETATM    3  C   UNL     1      -7.220   1.828 -31.117  1.00  0.00     0.019 C 
HETATM    4  C   UNL     1      -7.373   0.418 -30.603  1.00  0.00     0.069 C 
HETATM    5  N   UNL     1      -7.668   2.825 -30.269  1.00  0.00    -0.353 N 
HETATM    6  C   UNL     1      -7.727   4.171 -30.591  1.00  0.00     0.087 C 
HETATM    7  C   UNL     1      -7.088   4.602 -31.716  1.00  0.00     0.055 C 
HETATM    8  C   UNL     1      -7.018   6.094 -31.996  1.00  0.00     0.019 C 
HETATM    9  N   UNL     1      -6.961   7.332 -32.229  1.00  0.00    -0.096 N 
HETATM   10  H   UNL     1      -7.921   2.549 -29.323  1.00  0.00     0.166 HD
ENDROOT
BRANCH   1  11
HETATM   11  C   UNL     1      -4.844   3.898 -32.569  1.00  0.00    -0.044 A 
HETATM   12  C   UNL     1      -4.179   4.454 -33.670  1.00  0.00     0.011 A 
HETATM   13  C   UNL     1      -2.810   4.736 -33.602  1.00  0.00     0.037 A 
HETATM   14  C   UNL     1      -2.082   4.473 -32.440  1.00  0.00     0.068 A 
HETATM   15  C   UNL     1      -2.732   3.907 -31.345  1.00  0.00     0.037 A 
HETATM   16  C   UNL     1      -4.100   3.623 -31.408  1.00  0.00     0.011 A 
BRANCH  14  17
HETATM   17  O   UNL     1      -0.758   4.810 -32.501  1.00  0.00    -0.352 OA
BRANCH  17  18
HETATM   18  C   UNL     1      -0.141   5.221 -31.282  1.00  0.00     0.171 C 
HETATM   19  C   UNL     1       0.161   6.706 -31.386  1.00  0.00     0.034 C 
ENDBRANCH  17  18
ENDBRANCH  14  17
ENDBRANCH   1  11
BRANCH   6  20
HETATM   20  S   UNL     1      -8.611   5.356 -29.625  1.00  0.00    -0.102 SA
BRANCH  20  21
HETATM   21  C   UNL     1     -10.078   5.751 -30.597  1.00  0.00     0.184 C 
BRANCH  21  22
HETATM   22  C   UNL     1     -10.887   4.489 -30.844  1.00  0.00     0.231 C 
HETATM   23  N   UNL     1     -11.842   4.664 -31.831  1.00  0.00    -0.327 N 
HETATM   24  H   UNL     1     -12.017   5.624 -32.108  1.00  0.00     0.169 HD
HETATM   25  O   UNL     1     -10.664   3.475 -30.188  1.00  0.00    -0.272 OA
BRANCH  23  26
HETATM   26  C   UNL     1     -12.695   3.701 -32.395  1.00  0.00     0.034 A 
HETATM   27  C   UNL     1     -13.920   3.328 -31.847  1.00  0.00     0.030 A 
HETATM   28  C   UNL     1     -14.691   2.330 -32.457  1.00  0.00     0.009 A 
HETATM   29  C   UNL     1     -14.245   1.689 -33.617  1.00  0.00    -0.062 A 
HETATM   30  C   UNL     1     -15.088   0.641 -34.281  1.00  0.00     0.048 C 
HETATM   31  C   UNL     1     -13.026   2.079 -34.177  1.00  0.00     0.009 A 
HETATM   32  C   UNL     1     -12.254   3.069 -33.565  1.00  0.00     0.030 A 
ENDBRANCH  23  26
ENDBRANCH  21  22
ENDBRANCH  20  21
ENDBRANCH   6  20
BRANCH   2  33
HETATM   33  C   UNL     1      -6.423   1.172 -33.397  1.00  0.00     0.255 C 
HETATM   34  N   UNL     1      -6.268  -0.109 -32.901  1.00  0.00    -0.323 N 
HETATM   35  H   UNL     1      -6.365  -0.226 -31.901  1.00  0.00     0.169 HD
HETATM   36  O   UNL     1      -6.441   1.511 -34.571  1.00  0.00    -0.268 OA
BRANCH  34  37
HETATM   37  C   UNL     1      -5.934  -1.280 -33.611  1.00  0.00     0.035 A 
HETATM   38  C   UNL     1      -4.628  -1.723 -33.819  1.00  0.00     0.029 A 
HETATM   39  C   UNL     1      -4.389  -2.910 -34.520  1.00  0.00     0.002 A 
HETATM   40  C   UNL     1      -5.452  -3.665 -35.011  1.00  0.00     0.000 A 
HETATM   41  C   UNL     1      -6.758  -3.232 -34.808  1.00  0.00     0.002 A 
HETATM   42  C   UNL     1      -6.997  -2.042 -34.116  1.00  0.00     0.029 A 
ENDBRANCH  34  37
ENDBRANCH   2  33
TORSDOF 9
ENDMDL
MODEL 10
REMARK VINA RESULT:      -7.8      3.296      4.848
REMARK  9 active torsions:
REMARK  status: ('A' for Active; 'I' for Inactive)
REMARK    1  A    between atoms: C_2  and  O_3 
REMARK    2  A    between atoms: O_3  and  C_4 
REMARK    3  A    between atoms: C_7  and  C_8 
REMARK    4  A    between atoms: C_9  and  C_10 
REMARK       I    between atoms: C_10  and  N_11 
REMARK    5  A    between atoms: N_11  and  C_12 
REMARK    6  A    between atoms: C_22  and  S_23 
REMARK    7  A    between atoms: S_23  and  C_24 
REMARK    8  A    between atoms: C_24  and  C_25 
REMARK       I    between atoms: C_25  and  N_26 
REMARK    9  A    between atoms: N_26  and  C_27 
ROOT
HETATM    1  C   UNL     1      -6.534   4.299 -33.281  1.00  0.00     0.104 C 
HETATM    2  C   UNL     1      -7.578   4.611 -32.207  1.00  0.00     0.046 C 
HETATM    3  C   UNL     1      -7.199   5.017 -30.972  1.00  0.00     0.019 C 
HETATM    4  C   UNL     1      -8.111   5.128 -29.775  1.00  0.00     0.069 C 
HETATM    5  N   UNL     1      -5.877   5.357 -30.748  1.00  0.00    -0.353 N 
HETATM    6  C   UNL     1      -4.903   5.437 -31.731  1.00  0.00     0.087 C 
HETATM    7  C   UNL     1      -5.175   4.921 -32.963  1.00  0.00     0.055 C 
HETATM    8  C   UNL     1      -4.065   4.866 -33.999  1.00  0.00     0.019 C 
HETATM    9  N   UNL     1      -3.144   4.821 -34.859  1.00  0.00    -0.096 N 
HETATM   10  H   UNL     1      -5.593   5.508 -29.782  1.00  0.00     0.166 HD
ENDROOT
BRANCH   1  11
HETATM   11  C   UNL     1      -6.375   2.793 -33.504  1.00  0.00    -0.044 A 
HETATM   12  C   UNL     1      -5.744   1.997 -32.539  1.00  0.00     0.011 A 
HETATM   13  C   UNL     1      -5.631   0.615 -32.725  1.00  0.00     0.037 A 
HETATM   14  C   UNL     1      -6.148   0.002 -33.868  1.00  0.00     0.068 A 
HETATM   15  C   UNL     1      -6.765   0.787 -34.839  1.00  0.00     0.037 A 
HETATM   16  C   UNL     1      -6.880   2.169 -34.659  1.00  0.00     0.011 A 
BRANCH  14  17
HETATM   17  O   UNL     1      -5.985  -1.355 -33.917  1.00  0.00    -0.352 OA
BRANCH  17  18
HETATM   18  C   UNL     1      -6.456  -2.017 -35.089  1.00  0.00     0.171 C 
HETATM   19  C   UNL     1      -6.733  -3.467 -34.732  1.00  0.00     0.034 C 
ENDBRANCH  17  18
ENDBRANCH  14  17
ENDBRANCH   1  11
BRANCH   6  20
HETATM   20  S   UNL     1      -3.329   6.196 -31.470  1.00  0.00    -0.102 SA
BRANCH  20  21
HETATM   21  C   UNL     1      -2.165   4.824 -31.344  1.00  0.00     0.184 C 
BRANCH  21  22
HETATM   22  C   UNL     1      -0.934   5.263 -30.570  1.00  0.00     0.231 C 
HETATM   23  N   UNL     1      -1.237   6.186 -29.583  1.00  0.00    -0.327 N 
HETATM   24  H   UNL     1      -2.165   6.594 -29.633  1.00  0.00     0.169 HD
HETATM   25  O   UNL     1       0.171   4.813 -30.860  1.00  0.00    -0.272 OA
BRANCH  23  26
HETATM   26  C   UNL     1      -0.383   6.732 -28.611  1.00  0.00     0.034 A 
HETATM   27  C   UNL     1      -0.384   6.352 -27.271  1.00  0.00     0.030 A 
HETATM   28  C   UNL     1       0.477   6.978 -26.360  1.00  0.00     0.009 A 
HETATM   29  C   UNL     1       1.347   7.991 -26.777  1.00  0.00    -0.062 A 
HETATM   30  C   UNL     1       2.287   8.637 -25.802  1.00  0.00     0.048 C 
HETATM   31  C   UNL     1       1.362   8.356 -28.125  1.00  0.00     0.009 A 
HETATM   32  C   UNL     1       0.497   7.738 -29.032  1.00  0.00     0.030 A 
ENDBRANCH  23  26
ENDBRANCH  21  22
ENDBRANCH  20  21
ENDBRANCH   6  20
BRANCH   2  33
HETATM   33  C   UNL     1      -9.012   4.484 -32.612  1.00  0.00     0.255 C 
HETATM   34  N   UNL     1      -9.490   3.198 -32.443  1.00  0.00    -0.323 N 
HETATM   35  H   UNL     1      -8.846   2.519 -32.059  1.00  0.00     0.169 HD
HETATM   36  O   UNL     1      -9.648   5.467 -32.966  1.00  0.00    -0.268 OA
BRANCH  34  37
HETATM   37  C   UNL     1     -10.758   2.691 -32.793  1.00  0.00     0.035 A 
HETATM   38  C   UNL     1     -10.959   1.496 -33.483  1.00  0.00     0.029 A 
HETATM   39  C   UNL     1     -12.256   1.057 -33.770  1.00  0.00     0.002 A 
HETATM   40  C   UNL     1     -13.360   1.805 -33.364  1.00  0.00     0.000 A 
HETATM   41  C   UNL     1     -13.168   2.998 -32.674  1.00  0.00     0.002 A 
HETATM   42  C   UNL     1     -11.874   3.441 -32.395  1.00  0.00     0.029 A 
ENDBRANCH  34  37
ENDBRANCH   2  33
TORSDOF 9
ENDMDL
