MODEL 1
REMARK VINA RESULT:      -8.9      0.000      0.000
REMARK  11 active torsions:
REMARK  status: ('A' for Active; 'I' for Inactive)
REMARK    1  A    between atoms: C_3  and  C_4 
REMARK    2  A    between atoms: C_4  and  O_5 
REMARK    3  A    between atoms: C_12  and  C_13 
REMARK    4  A    between atoms: C_13  and  C_14 
REMARK    5  A    between atoms: C_15  and  C_16 
REMARK    6  A    between atoms: C_18  and  N_19 
REMARK    7  A    between atoms: N_25  and  C_26 
REMARK    8  A    between atoms: C_26  and  C_27 
REMARK    9  A    between atoms: C_27  and  C_28 
REMARK   10  A    between atoms: C_28  and  N_29 
REMARK   11  A    between atoms: C_38  and  O_39 
ROOT
HETATM    1  C   UNL     1      -6.712   2.605 -32.197  1.00  0.00     0.059 C 
HETATM    2  C   UNL     1      -5.215   2.657 -32.386  1.00  0.00     0.161 C 
HETATM    3  N   UNL     1      -4.744   1.921 -31.222  1.00  0.00    -0.333 N 
HETATM    4  C   UNL     1      -5.803   1.424 -30.494  1.00  0.00     0.278 C 
HETATM    5  O   UNL     1      -5.712   0.607 -29.589  1.00  0.00    -0.265 OA
HETATM    6  C   UNL     1      -7.052   1.998 -31.049  1.00  0.00     0.146 C 
ENDROOT
BRANCH   1   7
HETATM    7  C   UNL     1      -7.522   3.194 -33.292  1.00  0.00     0.196 C 
HETATM    8  O   UNL     1      -7.223   4.292 -33.749  1.00  0.00    -0.287 OA
BRANCH   7   9
HETATM    9  C   UNL     1      -8.658   2.436 -33.806  1.00  0.00     0.045 A 
HETATM   10  C   UNL     1     -10.040   2.841 -33.714  1.00  0.00    -0.013 A 
HETATM   11  C   UNL     1     -10.544   4.068 -33.024  1.00  0.00     0.052 C 
HETATM   12  C   UNL     1     -10.800   1.913 -34.421  1.00  0.00     0.115 A 
HETATM   13  N   UNL     1      -9.930   0.951 -34.878  1.00  0.00    -0.354 N 
HETATM   14  H   UNL     1     -10.228   0.163 -35.443  1.00  0.00     0.166 HD
HETATM   15  C   UNL     1      -8.630   1.286 -34.588  1.00  0.00     0.020 A 
HETATM   16  C   UNL     1      -7.518   0.471 -35.152  1.00  0.00     0.069 C 
BRANCH  12  17
HETATM   17  C   UNL     1     -12.210   1.829 -34.746  1.00  0.00     0.310 C 
HETATM   18  O   UNL     1     -12.674   2.142 -35.835  1.00  0.00    -0.258 OA
BRANCH  17  19
HETATM   19  O   UNL     1     -12.933   1.405 -33.678  1.00  0.00    -0.321 OA
HETATM   20  C   UNL     1     -13.255   0.014 -33.704  1.00  0.00     0.213 C 
ENDBRANCH  17  19
ENDBRANCH  12  17
ENDBRANCH   7   9
ENDBRANCH   1   7
BRANCH   2  21
HETATM   21  C   UNL     1      -4.588   4.042 -32.422  1.00  0.00    -0.028 A 
HETATM   22  C   UNL     1      -3.656   4.416 -33.407  1.00  0.00     0.045 A 
HETATM   23  C   UNL     1      -3.083   5.699 -33.385  1.00  0.00     0.103 A 
HETATM   24  C   UNL     1      -3.446   6.629 -32.405  1.00  0.00     0.036 A 
HETATM   25  C   UNL     1      -4.383   6.269 -31.439  1.00  0.00     0.003 A 
HETATM   26  C   UNL     1      -4.946   4.990 -31.446  1.00  0.00     0.010 A 
BRANCH  23  27
HETATM   27  N   UNL     1      -2.095   6.066 -34.409  1.00  0.00    -0.116 N 
HETATM   28  O   UNL     1      -1.820   5.214 -35.265  1.00  0.00    -0.532 OA
HETATM   29  O   UNL     1      -1.616   7.207 -34.369  1.00  0.00    -0.532 OA
ENDBRANCH  23  27
ENDBRANCH   2  21
BRANCH   6  30
HETATM   30  O   UNL     1      -8.256   1.805 -30.446  1.00  0.00    -0.355 OA
HETATM   31  H   UNL     1      -8.591   0.910 -30.633  1.00  0.00     0.218 HD
ENDBRANCH   6  30
BRANCH   3  32
HETATM   32  C   UNL     1      -3.399   1.379 -31.147  1.00  0.00     0.129 C 
BRANCH  32  33
HETATM   33  C   UNL     1      -3.122   0.224 -32.117  1.00  0.00     0.048 C 
BRANCH  33  34
HETATM   34  C   UNL     1      -3.400  -1.207 -31.641  1.00  0.00     0.236 C 
BRANCH  34  35
HETATM   35  N   UNL     1      -3.507  -2.213 -32.753  1.00  0.00    -0.067 N 
HETATM   36  H   UNL     1      -2.766  -1.953 -33.438  1.00  0.00     0.280 HD
HETATM   37  C   UNL     1      -3.363  -3.666 -32.340  1.00  0.00     0.261 C 
HETATM   38  C   UNL     1      -3.444  -4.568 -33.577  1.00  0.00     0.195 C 
HETATM   39  O   UNL     1      -4.671  -4.364 -34.284  1.00  0.00    -0.388 OA
HETATM   40  C   UNL     1      -4.794  -3.011 -34.742  1.00  0.00     0.195 C 
HETATM   41  C   UNL     1      -4.795  -2.033 -33.559  1.00  0.00     0.261 C 
ENDBRANCH  34  35
ENDBRANCH  33  34
ENDBRANCH  32  33
ENDBRANCH   3  32
TORSDOF 11
ENDMDL
MODEL 2
REMARK VINA RESULT:      -8.8      2.013      6.279
REMARK  11 active torsions:
REMARK  status: ('A' for Active; 'I' for Inactive)
REMARK    1  A    between atoms: C_3  and  C_4 
REMARK    2  A    between atoms: C_4  and  O_5 
REMARK    3  A    between atoms: C_12  and  C_13 
REMARK    4  A    between atoms: C_13  and  C_14 
REMARK    5  A    between atoms: C_15  and  C_16 
REMARK    6  A    between atoms: C_18  and  N_19 
REMARK    7  A    between atoms: N_25  and  C_26 
REMARK    8  A    between atoms: C_26  and  C_27 
REMARK    9  A    between atoms: C_27  and  C_28 
REMARK   10  A    between atoms: C_28  and  N_29 
REMARK   11  A    between atoms: C_38  and  O_39 
ROOT
HETATM    1  C   UNL     1      -7.136   3.517 -32.864  1.00  0.00     0.059 C 
HETATM    2  C   UNL     1      -5.895   2.668 -32.724  1.00  0.00     0.161 C 
HETATM    3  N   UNL     1      -4.888   3.507 -33.355  1.00  0.00    -0.333 N 
HETATM    4  C   UNL     1      -5.426   4.719 -33.735  1.00  0.00     0.278 C 
HETATM    5  O   UNL     1      -4.782   5.690 -34.102  1.00  0.00    -0.265 OA
HETATM    6  C   UNL     1      -6.896   4.647 -33.550  1.00  0.00     0.146 C 
ENDROOT
BRANCH   1   7
HETATM    7  C   UNL     1      -8.361   2.982 -32.220  1.00  0.00     0.196 C 
HETATM    8  O   UNL     1      -8.276   2.371 -31.161  1.00  0.00    -0.287 OA
BRANCH   7   9
HETATM    9  C   UNL     1      -9.648   3.212 -32.870  1.00  0.00     0.045 A 
HETATM   10  C   UNL     1     -10.406   2.217 -33.591  1.00  0.00    -0.013 A 
HETATM   11  C   UNL     1      -9.974   0.809 -33.846  1.00  0.00     0.052 C 
HETATM   12  C   UNL     1     -11.620   2.794 -33.954  1.00  0.00     0.115 A 
HETATM   13  N   UNL     1     -11.584   4.100 -33.527  1.00  0.00    -0.354 N 
HETATM   14  H   UNL     1     -12.360   4.742 -33.652  1.00  0.00     0.166 HD
HETATM   15  C   UNL     1     -10.443   4.350 -32.805  1.00  0.00     0.020 A 
HETATM   16  C   UNL     1     -10.292   5.653 -32.098  1.00  0.00     0.069 C 
BRANCH  12  17
HETATM   17  C   UNL     1     -12.804   2.278 -34.613  1.00  0.00     0.310 C 
HETATM   18  O   UNL     1     -12.928   2.214 -35.829  1.00  0.00    -0.258 OA
BRANCH  17  19
HETATM   19  O   UNL     1     -13.753   1.925 -33.708  1.00  0.00    -0.321 OA
HETATM   20  C   UNL     1     -14.127   0.548 -33.759  1.00  0.00     0.213 C 
ENDBRANCH  17  19
ENDBRANCH  12  17
ENDBRANCH   7   9
ENDBRANCH   1   7
BRANCH   2  21
HETATM   21  C   UNL     1      -5.935   1.302 -33.392  1.00  0.00    -0.028 A 
HETATM   22  C   UNL     1      -5.171   0.218 -32.923  1.00  0.00     0.045 A 
HETATM   23  C   UNL     1      -5.219  -1.020 -33.588  1.00  0.00     0.103 A 
HETATM   24  C   UNL     1      -6.042  -1.200 -34.704  1.00  0.00     0.036 A 
HETATM   25  C   UNL     1      -6.815  -0.135 -35.161  1.00  0.00     0.003 A 
HETATM   26  C   UNL     1      -6.761   1.103 -34.512  1.00  0.00     0.010 A 
BRANCH  23  27
HETATM   27  N   UNL     1      -4.398  -2.135 -33.098  1.00  0.00    -0.116 N 
HETATM   28  O   UNL     1      -4.406  -3.181 -33.763  1.00  0.00    -0.532 OA
HETATM   29  O   UNL     1      -3.733  -1.956 -32.070  1.00  0.00    -0.532 OA
ENDBRANCH  23  27
ENDBRANCH   2  21
BRANCH   6  30
HETATM   30  O   UNL     1      -7.718   5.643 -33.975  1.00  0.00    -0.355 OA
HETATM   31  H   UNL     1      -7.301   6.143 -34.699  1.00  0.00     0.218 HD
ENDBRANCH   6  30
BRANCH   3  32
HETATM   32  C   UNL     1      -3.468   3.297 -33.142  1.00  0.00     0.129 C 
BRANCH  32  33
HETATM   33  C   UNL     1      -3.023   3.378 -31.677  1.00  0.00     0.048 C 
BRANCH  33  34
HETATM   34  C   UNL     1      -2.039   4.483 -31.276  1.00  0.00     0.236 C 
BRANCH  34  35
HETATM   35  N   UNL     1      -2.337   5.823 -31.890  1.00  0.00    -0.067 N 
HETATM   36  H   UNL     1      -3.190   5.681 -32.470  1.00  0.00     0.280 HD
HETATM   37  C   UNL     1      -2.543   6.963 -30.911  1.00  0.00     0.261 C 
HETATM   38  C   UNL     1      -2.885   8.248 -31.674  1.00  0.00     0.195 C 
HETATM   39  O   UNL     1      -1.861   8.574 -32.619  1.00  0.00    -0.388 OA
HETATM   40  C   UNL     1      -1.698   7.536 -33.595  1.00  0.00     0.195 C 
HETATM   41  C   UNL     1      -1.283   6.219 -32.926  1.00  0.00     0.261 C 
ENDBRANCH  34  35
ENDBRANCH  33  34
ENDBRANCH  32  33
ENDBRANCH   3  32
TORSDOF 11
ENDMDL
MODEL 3
REMARK VINA RESULT:      -8.8      2.486      6.266
REMARK  11 active torsions:
REMARK  status: ('A' for Active; 'I' for Inactive)
REMARK    1  A    between atoms: C_3  and  C_4 
REMARK    2  A    between atoms: C_4  and  O_5 
REMARK    3  A    between atoms: C_12  and  C_13 
REMARK    4  A    between atoms: C_13  and  C_14 
REMARK    5  A    between atoms: C_15  and  C_16 
REMARK    6  A    between atoms: C_18  and  N_19 
REMARK    7  A    between atoms: N_25  and  C_26 
REMARK    8  A    between atoms: C_26  and  C_27 
REMARK    9  A    between atoms: C_27  and  C_28 
REMARK   10  A    between atoms: C_28  and  N_29 
REMARK   11  A    between atoms: C_38  and  O_39 
ROOT
HETATM    1  C   UNL     1      -6.983   3.160 -32.778  1.00  0.00     0.059 C 
HETATM    2  C   UNL     1      -5.594   2.636 -32.498  1.00  0.00     0.161 C 
HETATM    3  N   UNL     1      -4.773   3.531 -33.301  1.00  0.00    -0.333 N 
HETATM    4  C   UNL     1      -5.546   4.502 -33.899  1.00  0.00     0.278 C 
HETATM    5  O   UNL     1      -5.114   5.497 -34.463  1.00  0.00    -0.265 OA
HETATM    6  C   UNL     1      -6.971   4.158 -33.675  1.00  0.00     0.146 C 
ENDROOT
BRANCH   1   7
HETATM    7  C   UNL     1      -8.081   2.514 -32.018  1.00  0.00     0.196 C 
HETATM    8  O   UNL     1      -7.827   1.872 -31.005  1.00  0.00    -0.287 OA
BRANCH   7   9
HETATM    9  C   UNL     1      -9.450   2.673 -32.500  1.00  0.00     0.045 A 
HETATM   10  C   UNL     1     -10.071   1.868 -33.525  1.00  0.00    -0.013 A 
HETATM   11  C   UNL     1      -9.400   0.783 -34.306  1.00  0.00     0.052 C 
HETATM   12  C   UNL     1     -11.406   2.251 -33.612  1.00  0.00     0.115 A 
HETATM   13  N   UNL     1     -11.582   3.285 -32.722  1.00  0.00    -0.354 N 
HETATM   14  H   UNL     1     -12.478   3.739 -32.575  1.00  0.00     0.166 HD
HETATM   15  C   UNL     1     -10.442   3.501 -31.988  1.00  0.00     0.020 A 
HETATM   16  C   UNL     1     -10.475   4.455 -30.844  1.00  0.00     0.069 C 
BRANCH  12  17
HETATM   17  C   UNL     1     -12.529   1.762 -34.387  1.00  0.00     0.310 C 
HETATM   18  O   UNL     1     -12.669   1.975 -35.585  1.00  0.00    -0.258 OA
BRANCH  17  19
HETATM   19  O   UNL     1     -13.408   1.088 -33.603  1.00  0.00    -0.321 OA
HETATM   20  C   UNL     1     -13.247  -0.331 -33.630  1.00  0.00     0.213 C 
ENDBRANCH  17  19
ENDBRANCH  12  17
ENDBRANCH   7   9
ENDBRANCH   1   7
BRANCH   2  21
HETATM   21  C   UNL     1      -5.329   1.190 -32.885  1.00  0.00    -0.028 A 
HETATM   22  C   UNL     1      -4.331   0.419 -32.260  1.00  0.00     0.045 A 
HETATM   23  C   UNL     1      -4.104  -0.906 -32.668  1.00  0.00     0.103 A 
HETATM   24  C   UNL     1      -4.877  -1.487 -33.679  1.00  0.00     0.036 A 
HETATM   25  C   UNL     1      -5.879  -0.733 -34.287  1.00  0.00     0.003 A 
HETATM   26  C   UNL     1      -6.101   0.590 -33.895  1.00  0.00     0.010 A 
BRANCH  23  27
HETATM   27  N   UNL     1      -3.044  -1.690 -32.019  1.00  0.00    -0.116 N 
HETATM   28  O   UNL     1      -2.055  -1.071 -31.601  1.00  0.00    -0.532 OA
HETATM   29  O   UNL     1      -3.212  -2.911 -31.910  1.00  0.00    -0.532 OA
ENDBRANCH  23  27
ENDBRANCH   2  21
BRANCH   6  30
HETATM   30  O   UNL     1      -7.976   4.855 -34.271  1.00  0.00    -0.355 OA
HETATM   31  H   UNL     1      -7.625   5.414 -34.988  1.00  0.00     0.218 HD
ENDBRANCH   6  30
BRANCH   3  32
HETATM   32  C   UNL     1      -3.345   3.672 -33.078  1.00  0.00     0.129 C 
BRANCH  32  33
HETATM   33  C   UNL     1      -2.955   4.010 -31.635  1.00  0.00     0.048 C 
BRANCH  33  34
HETATM   34  C   UNL     1      -2.590   5.462 -31.303  1.00  0.00     0.236 C 
BRANCH  34  35
HETATM   35  N   UNL     1      -1.630   5.606 -30.155  1.00  0.00    -0.067 N 
HETATM   36  H   UNL     1      -2.025   5.028 -29.385  1.00  0.00     0.280 HD
HETATM   37  C   UNL     1      -0.196   5.199 -30.443  1.00  0.00     0.261 C 
HETATM   38  C   UNL     1       0.652   5.353 -29.175  1.00  0.00     0.195 C 
HETATM   39  O   UNL     1       0.599   6.693 -28.679  1.00  0.00    -0.388 OA
HETATM   40  C   UNL     1      -0.741   7.074 -28.337  1.00  0.00     0.195 C 
HETATM   41  C   UNL     1      -1.654   7.019 -29.569  1.00  0.00     0.261 C 
ENDBRANCH  34  35
ENDBRANCH  33  34
ENDBRANCH  32  33
ENDBRANCH   3  32
TORSDOF 11
ENDMDL
MODEL 4
REMARK VINA RESULT:      -8.7      1.636      2.484
REMARK  11 active torsions:
REMARK  status: ('A' for Active; 'I' for Inactive)
REMARK    1  A    between atoms: C_3  and  C_4 
REMARK    2  A    between atoms: C_4  and  O_5 
REMARK    3  A    between atoms: C_12  and  C_13 
REMARK    4  A    between atoms: C_13  and  C_14 
REMARK    5  A    between atoms: C_15  and  C_16 
REMARK    6  A    between atoms: C_18  and  N_19 
REMARK    7  A    between atoms: N_25  and  C_26 
REMARK    8  A    between atoms: C_26  and  C_27 
REMARK    9  A    between atoms: C_27  and  C_28 
REMARK   10  A    between atoms: C_28  and  N_29 
REMARK   11  A    between atoms: C_38  and  O_39 
ROOT
HETATM    1  C   UNL     1      -7.057   2.978 -31.493  1.00  0.00     0.059 C 
HETATM    2  C   UNL     1      -6.012   2.410 -32.424  1.00  0.00     0.161 C 
HETATM    3  N   UNL     1      -5.305   1.488 -31.548  1.00  0.00    -0.333 N 
HETATM    4  C   UNL     1      -5.896   1.442 -30.304  1.00  0.00     0.278 C 
HETATM    5  O   UNL     1      -5.646   0.618 -29.437  1.00  0.00    -0.265 OA
HETATM    6  C   UNL     1      -6.920   2.512 -30.241  1.00  0.00     0.146 C 
ENDROOT
BRANCH   1   7
HETATM    7  C   UNL     1      -8.036   3.906 -32.111  1.00  0.00     0.196 C 
HETATM    8  O   UNL     1      -7.708   5.060 -32.364  1.00  0.00    -0.287 OA
BRANCH   7   9
HETATM    9  C   UNL     1      -9.375   3.408 -32.412  1.00  0.00     0.045 A 
HETATM   10  C   UNL     1      -9.693   2.432 -33.427  1.00  0.00    -0.013 A 
HETATM   11  C   UNL     1      -8.717   1.818 -34.379  1.00  0.00     0.052 C 
HETATM   12  C   UNL     1     -11.049   2.138 -33.320  1.00  0.00     0.115 A 
HETATM   13  N   UNL     1     -11.553   2.940 -32.323  1.00  0.00    -0.354 N 
HETATM   14  H   UNL     1     -12.524   2.910 -32.030  1.00  0.00     0.166 HD
HETATM   15  C   UNL     1     -10.551   3.653 -31.711  1.00  0.00     0.020 A 
HETATM   16  C   UNL     1     -10.856   4.445 -30.488  1.00  0.00     0.069 C 
BRANCH  12  17
HETATM   17  C   UNL     1     -11.915   1.195 -34.000  1.00  0.00     0.310 C 
HETATM   18  O   UNL     1     -12.384   0.200 -33.465  1.00  0.00    -0.258 OA
BRANCH  17  19
HETATM   19  O   UNL     1     -12.090   1.543 -35.301  1.00  0.00    -0.321 OA
HETATM   20  C   UNL     1     -12.631   2.851 -35.489  1.00  0.00     0.213 C 
ENDBRANCH  17  19
ENDBRANCH  12  17
ENDBRANCH   7   9
ENDBRANCH   1   7
BRANCH   2  21
HETATM   21  C   UNL     1      -5.039   3.407 -33.034  1.00  0.00    -0.028 A 
HETATM   22  C   UNL     1      -3.863   3.805 -32.372  1.00  0.00     0.045 A 
HETATM   23  C   UNL     1      -3.006   4.749 -32.962  1.00  0.00     0.103 A 
HETATM   24  C   UNL     1      -3.292   5.287 -34.221  1.00  0.00     0.036 A 
HETATM   25  C   UNL     1      -4.446   4.882 -34.889  1.00  0.00     0.003 A 
HETATM   26  C   UNL     1      -5.310   3.953 -34.301  1.00  0.00     0.010 A 
BRANCH  23  27
HETATM   27  N   UNL     1      -1.793   5.169 -32.248  1.00  0.00    -0.116 N 
HETATM   28  O   UNL     1      -1.383   6.321 -32.452  1.00  0.00    -0.532 OA
HETATM   29  O   UNL     1      -1.269   4.360 -31.471  1.00  0.00    -0.532 OA
ENDBRANCH  23  27
ENDBRANCH   2  21
BRANCH   6  30
HETATM   30  O   UNL     1      -7.573   2.809 -29.086  1.00  0.00    -0.355 OA
HETATM   31  H   UNL     1      -7.602   3.773 -28.948  1.00  0.00     0.218 HD
ENDBRANCH   6  30
BRANCH   3  32
HETATM   32  C   UNL     1      -4.457   0.431 -32.068  1.00  0.00     0.129 C 
BRANCH  32  33
HETATM   33  C   UNL     1      -5.208  -0.827 -32.519  1.00  0.00     0.048 C 
BRANCH  33  34
HETATM   34  C   UNL     1      -5.460  -1.025 -34.019  1.00  0.00     0.236 C 
BRANCH  34  35
HETATM   35  N   UNL     1      -5.196  -2.422 -34.506  1.00  0.00    -0.067 N 
HETATM   36  H   UNL     1      -4.826  -2.316 -35.474  1.00  0.00     0.280 HD
HETATM   37  C   UNL     1      -4.242  -3.244 -33.659  1.00  0.00     0.261 C 
HETATM   38  C   UNL     1      -4.032  -4.621 -34.301  1.00  0.00     0.195 C 
HETATM   39  O   UNL     1      -5.277  -5.306 -34.469  1.00  0.00    -0.388 OA
HETATM   40  C   UNL     1      -6.168  -4.576 -35.322  1.00  0.00     0.195 C 
HETATM   41  C   UNL     1      -6.495  -3.203 -34.721  1.00  0.00     0.261 C 
ENDBRANCH  34  35
ENDBRANCH  33  34
ENDBRANCH  32  33
ENDBRANCH   3  32
TORSDOF 11
ENDMDL
MODEL 5
REMARK VINA RESULT:      -8.7      2.410      5.867
REMARK  11 active torsions:
REMARK  status: ('A' for Active; 'I' for Inactive)
REMARK    1  A    between atoms: C_3  and  C_4 
REMARK    2  A    between atoms: C_4  and  O_5 
REMARK    3  A    between atoms: C_12  and  C_13 
REMARK    4  A    between atoms: C_13  and  C_14 
REMARK    5  A    between atoms: C_15  and  C_16 
REMARK    6  A    between atoms: C_18  and  N_19 
REMARK    7  A    between atoms: N_25  and  C_26 
REMARK    8  A    between atoms: C_26  and  C_27 
REMARK    9  A    between atoms: C_27  and  C_28 
REMARK   10  A    between atoms: C_28  and  N_29 
REMARK   11  A    between atoms: C_38  and  O_39 
ROOT
HETATM    1  C   UNL     1      -8.107   4.124 -31.844  1.00  0.00     0.059 C 
HETATM    2  C   UNL     1      -6.910   3.446 -31.221  1.00  0.00     0.161 C 
HETATM    3  N   UNL     1      -5.816   4.278 -31.699  1.00  0.00    -0.333 N 
HETATM    4  C   UNL     1      -6.294   5.348 -32.425  1.00  0.00     0.278 C 
HETATM    5  O   UNL     1      -5.630   6.312 -32.776  1.00  0.00    -0.265 OA
HETATM    6  C   UNL     1      -7.748   5.149 -32.634  1.00  0.00     0.146 C 
ENDROOT
BRANCH   1   7
HETATM    7  C   UNL     1      -9.431   3.570 -31.468  1.00  0.00     0.196 C 
HETATM    8  O   UNL     1      -9.652   3.253 -30.305  1.00  0.00    -0.287 OA
BRANCH   7   9
HETATM    9  C   UNL     1     -10.447   3.425 -32.507  1.00  0.00     0.045 A 
HETATM   10  C   UNL     1     -10.729   2.210 -33.233  1.00  0.00    -0.013 A 
HETATM   11  C   UNL     1      -9.988   0.919 -33.091  1.00  0.00     0.052 C 
HETATM   12  C   UNL     1     -11.835   2.449 -34.043  1.00  0.00     0.115 A 
HETATM   13  N   UNL     1     -12.181   3.768 -33.865  1.00  0.00    -0.354 N 
HETATM   14  H   UNL     1     -12.974   4.198 -34.332  1.00  0.00     0.166 HD
HETATM   15  C   UNL     1     -11.411   4.351 -32.889  1.00  0.00     0.020 A 
HETATM   16  C   UNL     1     -11.743   5.723 -32.414  1.00  0.00     0.069 C 
BRANCH  12  17
HETATM   17  C   UNL     1     -12.617   1.607 -34.926  1.00  0.00     0.310 C 
HETATM   18  O   UNL     1     -12.648   1.744 -36.142  1.00  0.00    -0.258 OA
BRANCH  17  19
HETATM   19  O   UNL     1     -13.331   0.691 -34.222  1.00  0.00    -0.321 OA
HETATM   20  C   UNL     1     -14.746   0.877 -34.286  1.00  0.00     0.213 C 
ENDBRANCH  17  19
ENDBRANCH  12  17
ENDBRANCH   7   9
ENDBRANCH   1   7
BRANCH   2  21
HETATM   21  C   UNL     1      -6.677   1.995 -31.612  1.00  0.00    -0.028 A 
HETATM   22  C   UNL     1      -6.681   1.572 -32.954  1.00  0.00     0.045 A 
HETATM   23  C   UNL     1      -6.487   0.217 -33.268  1.00  0.00     0.103 A 
HETATM   24  C   UNL     1      -6.263  -0.726 -32.259  1.00  0.00     0.036 A 
HETATM   25  C   UNL     1      -6.240  -0.309 -30.930  1.00  0.00     0.003 A 
HETATM   26  C   UNL     1      -6.446   1.036 -30.610  1.00  0.00     0.010 A 
BRANCH  23  27
HETATM   27  N   UNL     1      -6.515  -0.211 -34.673  1.00  0.00    -0.116 N 
HETATM   28  O   UNL     1      -6.882   0.623 -35.513  1.00  0.00    -0.532 OA
HETATM   29  O   UNL     1      -6.151  -1.364 -34.934  1.00  0.00    -0.532 OA
ENDBRANCH  23  27
ENDBRANCH   2  21
BRANCH   6  30
HETATM   30  O   UNL     1      -8.473   5.970 -33.441  1.00  0.00    -0.355 OA
HETATM   31  H   UNL     1      -8.515   5.609 -34.345  1.00  0.00     0.218 HD
ENDBRANCH   6  30
BRANCH   3  32
HETATM   32  C   UNL     1      -4.505   4.259 -31.075  1.00  0.00     0.129 C 
BRANCH  32  33
HETATM   33  C   UNL     1      -3.547   3.202 -31.636  1.00  0.00     0.048 C 
BRANCH  33  34
HETATM   34  C   UNL     1      -2.624   3.599 -32.794  1.00  0.00     0.236 C 
BRANCH  34  35
HETATM   35  N   UNL     1      -2.237   5.052 -32.800  1.00  0.00    -0.067 N 
HETATM   36  H   UNL     1      -2.962   5.537 -32.232  1.00  0.00     0.280 HD
HETATM   37  C   UNL     1      -0.850   5.364 -32.269  1.00  0.00     0.261 C 
HETATM   38  C   UNL     1      -0.614   6.878 -32.290  1.00  0.00     0.195 C 
HETATM   39  O   UNL     1      -0.781   7.407 -33.609  1.00  0.00    -0.388 OA
HETATM   40  C   UNL     1      -2.108   7.182 -34.102  1.00  0.00     0.195 C 
HETATM   41  C   UNL     1      -2.410   5.680 -34.184  1.00  0.00     0.261 C 
ENDBRANCH  34  35
ENDBRANCH  33  34
ENDBRANCH  32  33
ENDBRANCH   3  32
TORSDOF 11
ENDMDL
MODEL 6
REMARK VINA RESULT:      -8.6      2.589      6.418
REMARK  11 active torsions:
REMARK  status: ('A' for Active; 'I' for Inactive)
REMARK    1  A    between atoms: C_3  and  C_4 
REMARK    2  A    between atoms: C_4  and  O_5 
REMARK    3  A    between atoms: C_12  and  C_13 
REMARK    4  A    between atoms: C_13  and  C_14 
REMARK    5  A    between atoms: C_15  and  C_16 
REMARK    6  A    between atoms: C_18  and  N_19 
REMARK    7  A    between atoms: N_25  and  C_26 
REMARK    8  A    between atoms: C_26  and  C_27 
REMARK    9  A    between atoms: C_27  and  C_28 
REMARK   10  A    between atoms: C_28  and  N_29 
REMARK   11  A    between atoms: C_38  and  O_39 
ROOT
HETATM    1  C   UNL     1      -6.560   3.087 -32.517  1.00  0.00     0.059 C 
HETATM    2  C   UNL     1      -5.124   2.758 -32.185  1.00  0.00     0.161 C 
HETATM    3  N   UNL     1      -4.403   3.543 -33.176  1.00  0.00    -0.333 N 
HETATM    4  C   UNL     1      -5.273   4.300 -33.930  1.00  0.00     0.278 C 
HETATM    5  O   UNL     1      -4.945   5.196 -34.694  1.00  0.00    -0.265 OA
HETATM    6  C   UNL     1      -6.656   3.882 -33.595  1.00  0.00     0.146 C 
ENDROOT
BRANCH   1   7
HETATM    7  C   UNL     1      -7.581   2.511 -31.607  1.00  0.00     0.196 C 
HETATM    8  O   UNL     1      -7.270   2.192 -30.465  1.00  0.00    -0.287 OA
BRANCH   7   9
HETATM    9  C   UNL     1      -8.944   2.348 -32.103  1.00  0.00     0.045 A 
HETATM   10  C   UNL     1      -9.446   1.183 -32.792  1.00  0.00    -0.013 A 
HETATM   11  C   UNL     1      -8.642  -0.020 -33.169  1.00  0.00     0.052 C 
HETATM   12  C   UNL     1     -10.811   1.367 -32.992  1.00  0.00     0.115 A 
HETATM   13  N   UNL     1     -11.122   2.613 -32.501  1.00  0.00    -0.354 N 
HETATM   14  H   UNL     1     -12.064   2.990 -32.507  1.00  0.00     0.166 HD
HETATM   15  C   UNL     1     -10.032   3.187 -31.891  1.00  0.00     0.020 A 
HETATM   16  C   UNL     1     -10.199   4.459 -31.135  1.00  0.00     0.069 C 
BRANCH  12  17
HETATM   17  C   UNL     1     -11.853   0.527 -33.549  1.00  0.00     0.310 C 
HETATM   18  O   UNL     1     -12.129  -0.584 -33.117  1.00  0.00    -0.258 OA
BRANCH  17  19
HETATM   19  O   UNL     1     -12.436   1.118 -34.623  1.00  0.00    -0.321 OA
HETATM   20  C   UNL     1     -13.855   1.250 -34.520  1.00  0.00     0.213 C 
ENDBRANCH  17  19
ENDBRANCH  12  17
ENDBRANCH   7   9
ENDBRANCH   1   7
BRANCH   2  21
HETATM   21  C   UNL     1      -4.728   1.293 -32.285  1.00  0.00    -0.028 A 
HETATM   22  C   UNL     1      -5.208   0.456 -33.309  1.00  0.00     0.045 A 
HETATM   23  C   UNL     1      -4.835  -0.898 -33.347  1.00  0.00     0.103 A 
HETATM   24  C   UNL     1      -3.966  -1.429 -32.388  1.00  0.00     0.036 A 
HETATM   25  C   UNL     1      -3.473  -0.599 -31.383  1.00  0.00     0.003 A 
HETATM   26  C   UNL     1      -3.851   0.746 -31.331  1.00  0.00     0.010 A 
BRANCH  23  27
HETATM   27  N   UNL     1      -5.363  -1.763 -34.411  1.00  0.00    -0.116 N 
HETATM   28  O   UNL     1      -6.287  -1.313 -35.103  1.00  0.00    -0.532 OA
HETATM   29  O   UNL     1      -4.840  -2.874 -34.567  1.00  0.00    -0.532 OA
ENDBRANCH  23  27
ENDBRANCH   2  21
BRANCH   6  30
HETATM   30  O   UNL     1      -7.731   4.351 -34.284  1.00  0.00    -0.355 OA
HETATM   31  H   UNL     1      -8.214   3.616 -34.703  1.00  0.00     0.218 HD
ENDBRANCH   6  30
BRANCH   3  32
HETATM   32  C   UNL     1      -2.992   3.853 -33.034  1.00  0.00     0.129 C 
BRANCH  32  33
HETATM   33  C   UNL     1      -2.559   4.219 -31.610  1.00  0.00     0.048 C 
BRANCH  33  34
HETATM   34  C   UNL     1      -1.473   5.287 -31.432  1.00  0.00     0.236 C 
BRANCH  34  35
HETATM   35  N   UNL     1      -1.233   5.685 -30.002  1.00  0.00    -0.067 N 
HETATM   36  H   UNL     1      -1.835   5.056 -29.431  1.00  0.00     0.280 HD
HETATM   37  C   UNL     1       0.208   5.611 -29.533  1.00  0.00     0.261 C 
HETATM   38  C   UNL     1       0.293   5.997 -28.052  1.00  0.00     0.195 C 
HETATM   39  O   UNL     1      -0.244   7.304 -27.828  1.00  0.00    -0.388 OA
HETATM   40  C   UNL     1      -1.626   7.375 -28.203  1.00  0.00     0.195 C 
HETATM   41  C   UNL     1      -1.802   7.072 -29.696  1.00  0.00     0.261 C 
ENDBRANCH  34  35
ENDBRANCH  33  34
ENDBRANCH  32  33
ENDBRANCH   3  32
TORSDOF 11
ENDMDL
MODEL 7
REMARK VINA RESULT:      -8.6      2.153      7.177
REMARK  11 active torsions:
REMARK  status: ('A' for Active; 'I' for Inactive)
REMARK    1  A    between atoms: C_3  and  C_4 
REMARK    2  A    between atoms: C_4  and  O_5 
REMARK    3  A    between atoms: C_12  and  C_13 
REMARK    4  A    between atoms: C_13  and  C_14 
REMARK    5  A    between atoms: C_15  and  C_16 
REMARK    6  A    between atoms: C_18  and  N_19 
REMARK    7  A    between atoms: N_25  and  C_26 
REMARK    8  A    between atoms: C_26  and  C_27 
REMARK    9  A    between atoms: C_27  and  C_28 
REMARK   10  A    between atoms: C_28  and  N_29 
REMARK   11  A    between atoms: C_38  and  O_39 
ROOT
HETATM    1  C   UNL     1      -6.217   2.167 -31.398  1.00  0.00     0.059 C 
HETATM    2  C   UNL     1      -6.643   2.734 -32.731  1.00  0.00     0.161 C 
HETATM    3  N   UNL     1      -6.126   4.092 -32.654  1.00  0.00    -0.333 N 
HETATM    4  C   UNL     1      -5.417   4.282 -31.487  1.00  0.00     0.278 C 
HETATM    5  O   UNL     1      -4.709   5.248 -31.244  1.00  0.00    -0.265 OA
HETATM    6  C   UNL     1      -5.614   3.089 -30.630  1.00  0.00     0.146 C 
ENDROOT
BRANCH   1   7
HETATM    7  C   UNL     1      -6.509   0.727 -31.186  1.00  0.00     0.196 C 
HETATM    8  O   UNL     1      -7.399   0.393 -30.411  1.00  0.00    -0.287 OA
BRANCH   7   9
HETATM    9  C   UNL     1      -5.725  -0.260 -31.922  1.00  0.00     0.045 A 
HETATM   10  C   UNL     1      -6.221  -1.079 -33.003  1.00  0.00    -0.013 A 
HETATM   11  C   UNL     1      -7.630  -1.100 -33.504  1.00  0.00     0.052 C 
HETATM   12  C   UNL     1      -5.145  -1.798 -33.515  1.00  0.00     0.115 A 
HETATM   13  N   UNL     1      -4.050  -1.478 -32.747  1.00  0.00    -0.354 N 
HETATM   14  H   UNL     1      -3.125  -1.856 -32.922  1.00  0.00     0.166 HD
HETATM   15  C   UNL     1      -4.359  -0.497 -31.836  1.00  0.00     0.020 A 
HETATM   16  C   UNL     1      -3.271   0.122 -31.028  1.00  0.00     0.069 C 
BRANCH  12  17
HETATM   17  C   UNL     1      -5.005  -2.709 -34.634  1.00  0.00     0.310 C 
HETATM   18  O   UNL     1      -3.925  -3.091 -35.065  1.00  0.00    -0.258 OA
BRANCH  17  19
HETATM   19  O   UNL     1      -6.216  -3.035 -35.153  1.00  0.00    -0.321 OA
HETATM   20  C   UNL     1      -6.538  -4.423 -35.059  1.00  0.00     0.213 C 
ENDBRANCH  17  19
ENDBRANCH  12  17
ENDBRANCH   7   9
ENDBRANCH   1   7
BRANCH   2  21
HETATM   21  C   UNL     1      -8.138   2.754 -33.008  1.00  0.00    -0.028 A 
HETATM   22  C   UNL     1      -9.053   3.366 -32.132  1.00  0.00     0.045 A 
HETATM   23  C   UNL     1     -10.429   3.339 -32.416  1.00  0.00     0.103 A 
HETATM   24  C   UNL     1     -10.907   2.728 -33.580  1.00  0.00     0.036 A 
HETATM   25  C   UNL     1     -10.003   2.137 -34.460  1.00  0.00     0.003 A 
HETATM   26  C   UNL     1      -8.634   2.149 -34.177  1.00  0.00     0.010 A 
BRANCH  23  27
HETATM   27  N   UNL     1     -11.372   3.964 -31.480  1.00  0.00    -0.116 N 
HETATM   28  O   UNL     1     -12.393   4.477 -31.959  1.00  0.00    -0.532 OA
HETATM   29  O   UNL     1     -11.104   3.920 -30.272  1.00  0.00    -0.532 OA
ENDBRANCH  23  27
ENDBRANCH   2  21
BRANCH   6  30
HETATM   30  O   UNL     1      -5.154   3.044 -29.351  1.00  0.00    -0.355 OA
HETATM   31  H   UNL     1      -5.792   2.586 -28.775  1.00  0.00     0.218 HD
ENDBRANCH   6  30
BRANCH   3  32
HETATM   32  C   UNL     1      -5.956   4.919 -33.835  1.00  0.00     0.129 C 
BRANCH  32  33
HETATM   33  C   UNL     1      -4.800   4.495 -34.749  1.00  0.00     0.048 C 
BRANCH  33  34
HETATM   34  C   UNL     1      -3.650   5.485 -34.972  1.00  0.00     0.236 C 
BRANCH  34  35
HETATM   35  N   UNL     1      -2.846   5.780 -33.737  1.00  0.00    -0.067 N 
HETATM   36  H   UNL     1      -3.542   6.025 -33.002  1.00  0.00     0.280 HD
HETATM   37  C   UNL     1      -1.940   4.661 -33.259  1.00  0.00     0.261 C 
HETATM   38  C   UNL     1      -1.224   5.084 -31.972  1.00  0.00     0.195 C 
HETATM   39  O   UNL     1      -0.477   6.288 -32.171  1.00  0.00    -0.388 OA
HETATM   40  C   UNL     1      -1.326   7.376 -32.557  1.00  0.00     0.195 C 
HETATM   41  C   UNL     1      -2.035   7.070 -33.883  1.00  0.00     0.261 C 
ENDBRANCH  34  35
ENDBRANCH  33  34
ENDBRANCH  32  33
ENDBRANCH   3  32
TORSDOF 11
ENDMDL
MODEL 8
REMARK VINA RESULT:      -8.6      2.058      7.182
REMARK  11 active torsions:
REMARK  status: ('A' for Active; 'I' for Inactive)
REMARK    1  A    between atoms: C_3  and  C_4 
REMARK    2  A    between atoms: C_4  and  O_5 
REMARK    3  A    between atoms: C_12  and  C_13 
REMARK    4  A    between atoms: C_13  and  C_14 
REMARK    5  A    between atoms: C_15  and  C_16 
REMARK    6  A    between atoms: C_18  and  N_19 
REMARK    7  A    between atoms: N_25  and  C_26 
REMARK    8  A    between atoms: C_26  and  C_27 
REMARK    9  A    between atoms: C_27  and  C_28 
REMARK   10  A    between atoms: C_28  and  N_29 
REMARK   11  A    between atoms: C_38  and  O_39 
ROOT
HETATM    1  C   UNL     1      -7.809   2.157 -31.565  1.00  0.00     0.059 C 
HETATM    2  C   UNL     1      -8.207   3.229 -32.553  1.00  0.00     0.161 C 
HETATM    3  N   UNL     1      -7.699   4.430 -31.907  1.00  0.00    -0.333 N 
HETATM    4  C   UNL     1      -7.017   4.115 -30.751  1.00  0.00     0.278 C 
HETATM    5  O   UNL     1      -6.319   4.890 -30.114  1.00  0.00    -0.265 OA
HETATM    6  C   UNL     1      -7.228   2.674 -30.471  1.00  0.00     0.146 C 
ENDROOT
BRANCH   1   7
HETATM    7  C   UNL     1      -8.099   0.761 -31.976  1.00  0.00     0.196 C 
HETATM    8  O   UNL     1      -9.149   0.230 -31.631  1.00  0.00    -0.287 OA
BRANCH   7   9
HETATM    9  C   UNL     1      -7.119   0.057 -32.796  1.00  0.00     0.045 A 
HETATM   10  C   UNL     1      -5.968  -0.654 -32.292  1.00  0.00    -0.013 A 
HETATM   11  C   UNL     1      -5.554  -0.735 -30.857  1.00  0.00     0.052 C 
HETATM   12  C   UNL     1      -5.354  -1.283 -33.372  1.00  0.00     0.115 A 
HETATM   13  N   UNL     1      -6.062  -0.927 -34.495  1.00  0.00    -0.354 N 
HETATM   14  H   UNL     1      -5.832  -1.268 -35.423  1.00  0.00     0.166 HD
HETATM   15  C   UNL     1      -7.171  -0.188 -34.164  1.00  0.00     0.020 A 
HETATM   16  C   UNL     1      -8.172   0.146 -35.215  1.00  0.00     0.069 C 
BRANCH  12  17
HETATM   17  C   UNL     1      -4.226  -2.186 -33.481  1.00  0.00     0.310 C 
HETATM   18  O   UNL     1      -4.096  -3.002 -34.384  1.00  0.00    -0.258 OA
BRANCH  17  19
HETATM   19  O   UNL     1      -3.372  -2.031 -32.436  1.00  0.00    -0.321 OA
HETATM   20  C   UNL     1      -2.964  -3.257 -31.828  1.00  0.00     0.213 C 
ENDBRANCH  17  19
ENDBRANCH  12  17
ENDBRANCH   7   9
ENDBRANCH   1   7
BRANCH   2  21
HETATM   21  C   UNL     1      -9.696   3.370 -32.830  1.00  0.00    -0.028 A 
HETATM   22  C   UNL     1     -10.271   2.969 -34.049  1.00  0.00     0.045 A 
HETATM   23  C   UNL     1     -11.648   3.143 -34.270  1.00  0.00     0.103 A 
HETATM   24  C   UNL     1     -12.469   3.691 -33.279  1.00  0.00     0.036 A 
HETATM   25  C   UNL     1     -11.906   4.072 -32.063  1.00  0.00     0.003 A 
HETATM   26  C   UNL     1     -10.535   3.915 -31.841  1.00  0.00     0.010 A 
BRANCH  23  27
HETATM   27  N   UNL     1     -12.229   2.739 -35.558  1.00  0.00    -0.116 N 
HETATM   28  O   UNL     1     -12.618   1.567 -35.663  1.00  0.00    -0.532 OA
HETATM   29  O   UNL     1     -12.316   3.594 -36.448  1.00  0.00    -0.532 OA
ENDBRANCH  23  27
ENDBRANCH   2  21
BRANCH   6  30
HETATM   30  O   UNL     1      -6.796   2.101 -29.316  1.00  0.00    -0.355 OA
HETATM   31  H   UNL     1      -6.503   1.187 -29.477  1.00  0.00     0.218 HD
ENDBRANCH   6  30
BRANCH   3  32
HETATM   32  C   UNL     1      -7.505   5.671 -32.635  1.00  0.00     0.129 C 
BRANCH  32  33
HETATM   33  C   UNL     1      -6.086   5.878 -33.176  1.00  0.00     0.048 C 
BRANCH  33  34
HETATM   34  C   UNL     1      -5.525   4.843 -34.159  1.00  0.00     0.236 C 
BRANCH  34  35
HETATM   35  N   UNL     1      -4.040   4.632 -34.046  1.00  0.00    -0.067 N 
HETATM   36  H   UNL     1      -3.887   3.619 -34.233  1.00  0.00     0.280 HD
HETATM   37  C   UNL     1      -3.184   5.479 -34.968  1.00  0.00     0.261 C 
HETATM   38  C   UNL     1      -1.705   5.123 -34.777  1.00  0.00     0.195 C 
HETATM   39  O   UNL     1      -1.305   5.298 -33.415  1.00  0.00    -0.388 OA
HETATM   40  C   UNL     1      -2.058   4.455 -32.534  1.00  0.00     0.195 C 
HETATM   41  C   UNL     1      -3.553   4.790 -32.604  1.00  0.00     0.261 C 
ENDBRANCH  34  35
ENDBRANCH  33  34
ENDBRANCH  32  33
ENDBRANCH   3  32
TORSDOF 11
ENDMDL
MODEL 9
REMARK VINA RESULT:      -8.4      2.280      8.225
REMARK  11 active torsions:
REMARK  status: ('A' for Active; 'I' for Inactive)
REMARK    1  A    between atoms: C_3  and  C_4 
REMARK    2  A    between atoms: C_4  and  O_5 
REMARK    3  A    between atoms: C_12  and  C_13 
REMARK    4  A    between atoms: C_13  and  C_14 
REMARK    5  A    between atoms: C_15  and  C_16 
REMARK    6  A    between atoms: C_18  and  N_19 
REMARK    7  A    between atoms: N_25  and  C_26 
REMARK    8  A    between atoms: C_26  and  C_27 
REMARK    9  A    between atoms: C_27  and  C_28 
REMARK   10  A    between atoms: C_28  and  N_29 
REMARK   11  A    between atoms: C_38  and  O_39 
ROOT
HETATM    1  C   UNL     1      -6.822   2.888 -32.509  1.00  0.00     0.059 C 
HETATM    2  C   UNL     1      -7.589   1.836 -33.274  1.00  0.00     0.161 C 
HETATM    3  N   UNL     1      -8.691   1.553 -32.366  1.00  0.00    -0.333 N 
HETATM    4  C   UNL     1      -8.642   2.378 -31.263  1.00  0.00     0.278 C 
HETATM    5  O   UNL     1      -9.537   2.505 -30.440  1.00  0.00    -0.265 OA
HETATM    6  C   UNL     1      -7.358   3.119 -31.300  1.00  0.00     0.146 C 
ENDROOT
BRANCH   1   7
HETATM    7  C   UNL     1      -5.660   3.481 -33.215  1.00  0.00     0.196 C 
HETATM    8  O   UNL     1      -5.593   3.421 -34.437  1.00  0.00    -0.287 OA
BRANCH   7   9
HETATM    9  C   UNL     1      -4.621   4.134 -32.423  1.00  0.00     0.045 A 
HETATM   10  C   UNL     1      -4.566   5.545 -32.123  1.00  0.00    -0.013 A 
HETATM   11  C   UNL     1      -5.523   6.580 -32.624  1.00  0.00     0.052 C 
HETATM   12  C   UNL     1      -3.500   5.750 -31.252  1.00  0.00     0.115 A 
HETATM   13  N   UNL     1      -2.893   4.529 -31.071  1.00  0.00    -0.354 N 
HETATM   14  H   UNL     1      -2.093   4.397 -30.461  1.00  0.00     0.166 HD
HETATM   15  C   UNL     1      -3.597   3.532 -31.702  1.00  0.00     0.020 A 
HETATM   16  C   UNL     1      -3.211   2.110 -31.482  1.00  0.00     0.069 C 
BRANCH  12  17
HETATM   17  C   UNL     1      -3.002   6.918 -30.554  1.00  0.00     0.310 C 
HETATM   18  O   UNL     1      -2.359   7.808 -31.094  1.00  0.00    -0.258 OA
BRANCH  17  19
HETATM   19  O   UNL     1      -3.307   6.864 -29.231  1.00  0.00    -0.321 OA
HETATM   20  C   UNL     1      -2.338   7.480 -28.382  1.00  0.00     0.213 C 
ENDBRANCH  17  19
ENDBRANCH  12  17
ENDBRANCH   7   9
ENDBRANCH   1   7
BRANCH   2  21
HETATM   21  C   UNL     1      -6.835   0.556 -33.601  1.00  0.00    -0.028 A 
HETATM   22  C   UNL     1      -5.842   0.035 -32.751  1.00  0.00     0.045 A 
HETATM   23  C   UNL     1      -5.153  -1.137 -33.105  1.00  0.00     0.103 A 
HETATM   24  C   UNL     1      -5.457  -1.815 -34.290  1.00  0.00     0.036 A 
HETATM   25  C   UNL     1      -6.453  -1.313 -35.126  1.00  0.00     0.003 A 
HETATM   26  C   UNL     1      -7.133  -0.140 -34.786  1.00  0.00     0.010 A 
BRANCH  23  27
HETATM   27  N   UNL     1      -4.105  -1.655 -32.217  1.00  0.00    -0.116 N 
HETATM   28  O   UNL     1      -3.544  -2.708 -32.553  1.00  0.00    -0.532 OA
HETATM   29  O   UNL     1      -3.830  -1.001 -31.203  1.00  0.00    -0.532 OA
ENDBRANCH  23  27
ENDBRANCH   2  21
BRANCH   6  30
HETATM   30  O   UNL     1      -6.959   3.906 -30.265  1.00  0.00    -0.355 OA
HETATM   31  H   UNL     1      -7.390   3.627 -29.437  1.00  0.00     0.218 HD
ENDBRANCH   6  30
BRANCH   3  32
HETATM   32  C   UNL     1      -9.900   0.884 -32.809  1.00  0.00     0.129 C 
BRANCH  32  33
HETATM   33  C   UNL     1     -10.770   1.706 -33.767  1.00  0.00     0.048 C 
BRANCH  33  34
HETATM   34  C   UNL     1     -11.866   2.597 -33.169  1.00  0.00     0.236 C 
BRANCH  34  35
HETATM   35  N   UNL     1     -13.204   1.925 -33.045  1.00  0.00    -0.067 N 
HETATM   36  H   UNL     1     -13.030   1.050 -32.509  1.00  0.00     0.280 HD
HETATM   37  C   UNL     1     -14.293   2.747 -32.381  1.00  0.00     0.261 C 
HETATM   38  C   UNL     1     -15.581   1.920 -32.281  1.00  0.00     0.195 C 
HETATM   39  O   UNL     1     -16.005   1.470 -33.571  1.00  0.00    -0.388 OA
HETATM   40  C   UNL     1     -15.016   0.635 -34.187  1.00  0.00     0.195 C 
HETATM   41  C   UNL     1     -13.705   1.405 -34.394  1.00  0.00     0.261 C 
ENDBRANCH  34  35
ENDBRANCH  33  34
ENDBRANCH  32  33
ENDBRANCH   3  32
TORSDOF 11
ENDMDL
MODEL 10
REMARK VINA RESULT:      -8.3      3.035      8.423
REMARK  11 active torsions:
REMARK  status: ('A' for Active; 'I' for Inactive)
REMARK    1  A    between atoms: C_3  and  C_4 
REMARK    2  A    between atoms: C_4  and  O_5 
REMARK    3  A    between atoms: C_12  and  C_13 
REMARK    4  A    between atoms: C_13  and  C_14 
REMARK    5  A    between atoms: C_15  and  C_16 
REMARK    6  A    between atoms: C_18  and  N_19 
REMARK    7  A    between atoms: N_25  and  C_26 
REMARK    8  A    between atoms: C_26  and  C_27 
REMARK    9  A    between atoms: C_27  and  C_28 
REMARK   10  A    between atoms: C_28  and  N_29 
REMARK   11  A    between atoms: C_38  and  O_39 
ROOT
HETATM    1  C   UNL     1      -5.880   5.620 -33.251  1.00  0.00     0.059 C 
HETATM    2  C   UNL     1      -7.159   4.910 -33.628  1.00  0.00     0.161 C 
HETATM    3  N   UNL     1      -8.159   5.722 -32.953  1.00  0.00    -0.333 N 
HETATM    4  C   UNL     1      -7.576   6.810 -32.339  1.00  0.00     0.278 C 
HETATM    5  O   UNL     1      -8.182   7.762 -31.871  1.00  0.00    -0.265 OA
HETATM    6  C   UNL     1      -6.104   6.645 -32.413  1.00  0.00     0.146 C 
ENDROOT
BRANCH   1   7
HETATM    7  C   UNL     1      -4.641   5.091 -33.872  1.00  0.00     0.196 C 
HETATM    8  O   UNL     1      -4.614   4.855 -35.075  1.00  0.00    -0.287 OA
BRANCH   7   9
HETATM    9  C   UNL     1      -3.473   4.875 -33.024  1.00  0.00     0.045 A 
HETATM   10  C   UNL     1      -2.310   5.729 -32.974  1.00  0.00    -0.013 A 
HETATM   11  C   UNL     1      -2.079   6.937 -33.824  1.00  0.00     0.052 C 
HETATM   12  C   UNL     1      -1.479   5.252 -31.964  1.00  0.00     0.115 A 
HETATM   13  N   UNL     1      -2.077   4.122 -31.457  1.00  0.00    -0.354 N 
HETATM   14  H   UNL     1      -1.682   3.586 -30.691  1.00  0.00     0.166 HD
HETATM   15  C   UNL     1      -3.312   3.923 -32.024  1.00  0.00     0.020 A 
HETATM   16  C   UNL     1      -4.204   2.858 -31.486  1.00  0.00     0.069 C 
BRANCH  12  17
HETATM   17  C   UNL     1      -0.231   5.727 -31.400  1.00  0.00     0.310 C 
HETATM   18  O   UNL     1       0.152   6.886 -31.485  1.00  0.00    -0.258 OA
BRANCH  17  19
HETATM   19  O   UNL     1       0.459   4.714 -30.816  1.00  0.00    -0.321 OA
HETATM   20  C   UNL     1       0.834   4.967 -29.462  1.00  0.00     0.213 C 
ENDBRANCH  17  19
ENDBRANCH  12  17
ENDBRANCH   7   9
ENDBRANCH   1   7
BRANCH   2  21
HETATM   21  C   UNL     1      -7.277   3.458 -33.191  1.00  0.00    -0.028 A 
HETATM   22  C   UNL     1      -6.983   2.389 -34.056  1.00  0.00     0.045 A 
HETATM   23  C   UNL     1      -7.131   1.063 -33.617  1.00  0.00     0.103 A 
HETATM   24  C   UNL     1      -7.548   0.784 -32.311  1.00  0.00     0.036 A 
HETATM   25  C   UNL     1      -7.823   1.840 -31.444  1.00  0.00     0.003 A 
HETATM   26  C   UNL     1      -7.690   3.162 -31.879  1.00  0.00     0.010 A 
BRANCH  23  27
HETATM   27  N   UNL     1      -6.840  -0.041 -34.541  1.00  0.00    -0.116 N 
HETATM   28  O   UNL     1      -5.807  -0.696 -34.337  1.00  0.00    -0.532 OA
HETATM   29  O   UNL     1      -7.650  -0.265 -35.449  1.00  0.00    -0.532 OA
ENDBRANCH  23  27
ENDBRANCH   2  21
BRANCH   6  30
HETATM   30  O   UNL     1      -5.257   7.490 -31.766  1.00  0.00    -0.355 OA
HETATM   31  H   UNL     1      -5.260   7.308 -30.809  1.00  0.00     0.218 HD
ENDBRANCH   6  30
BRANCH   3  32
HETATM   32  C   UNL     1      -9.565   5.668 -33.311  1.00  0.00     0.129 C 
BRANCH  32  33
HETATM   33  C   UNL     1      -9.838   5.632 -34.820  1.00  0.00     0.048 C 
BRANCH  33  34
HETATM   34  C   UNL     1     -10.978   4.743 -35.331  1.00  0.00     0.236 C 
BRANCH  34  35
HETATM   35  N   UNL     1     -11.412   3.682 -34.359  1.00  0.00    -0.067 N 
HETATM   36  H   UNL     1     -11.097   4.013 -33.423  1.00  0.00     0.280 HD
HETATM   37  C   UNL     1     -12.898   3.376 -34.341  1.00  0.00     0.261 C 
HETATM   38  C   UNL     1     -13.198   2.317 -33.275  1.00  0.00     0.195 C 
HETATM   39  O   UNL     1     -12.440   1.125 -33.505  1.00  0.00    -0.388 OA
HETATM   40  C   UNL     1     -11.031   1.382 -33.458  1.00  0.00     0.195 C 
HETATM   41  C   UNL     1     -10.623   2.385 -34.545  1.00  0.00     0.261 C 
ENDBRANCH  34  35
ENDBRANCH  33  34
ENDBRANCH  32  33
ENDBRANCH   3  32
TORSDOF 11
ENDMDL
