MODEL 1
REMARK VINA RESULT:      -8.8      0.000      0.000
REMARK  10 active torsions:
REMARK  status: ('A' for Active; 'I' for Inactive)
REMARK    1  A    between atoms: C_9  and  S_10 
REMARK    2  A    between atoms: S_10  and  C_11 
REMARK    3  A    between atoms: C_11  and  C_12 
REMARK       I    between atoms: C_12  and  N_13 
REMARK    4  A    between atoms: N_13  and  C_14 
REMARK    5  A    between atoms: C_14  and  C_15 
REMARK    6  A    between atoms: C_15  and  C_16 
REMARK    7  A    between atoms: C_19  and  S_20 
REMARK    8  A    between atoms: S_20  and  N_21 
REMARK    9  A    between atoms: N_27  and  C_28 
REMARK   10  A    between atoms: C_35  and  N_36 
ROOT
HETATM    1  C   UNL     1     -13.082   0.637 -33.487  1.00  0.00     0.073 C 
HETATM    2  C   UNL     1     -12.125   1.744 -33.747  1.00  0.00     0.068 A 
HETATM    3  N   UNL     1     -12.596   2.928 -34.157  1.00  0.00    -0.177 NA
HETATM    4  N   UNL     1     -11.499   3.679 -34.332  1.00  0.00    -0.260 N 
HETATM    5  H   UNL     1     -11.604   4.635 -34.656  1.00  0.00     0.191 HD
HETATM    6  C   UNL     1     -10.342   3.009 -34.055  1.00  0.00     0.162 A 
HETATM    7  C   UNL     1     -10.701   1.742 -33.641  1.00  0.00     0.081 A 
HETATM    8  N   UNL     1      -9.106   3.489 -34.181  1.00  0.00    -0.204 NA
HETATM    9  C   UNL     1      -8.169   2.571 -33.852  1.00  0.00     0.177 A 
HETATM   10  N   UNL     1      -8.432   1.304 -33.422  1.00  0.00    -0.276 N 
HETATM   11  C   UNL     1      -9.700   0.830 -33.266  1.00  0.00     0.124 A 
ENDROOT
BRANCH   9  12
HETATM   12  S   UNL     1      -6.493   3.126 -34.211  1.00  0.00    -0.082 SA
BRANCH  12  13
HETATM   13  C   UNL     1      -6.485   4.683 -33.261  1.00  0.00     0.185 C 
BRANCH  13  14
HETATM   14  C   UNL     1      -5.246   5.506 -33.588  1.00  0.00     0.227 C 
HETATM   15  N   UNL     1      -4.420   4.930 -34.529  1.00  0.00    -0.360 N 
HETATM   16  H   UNL     1      -4.786   4.165 -35.086  1.00  0.00     0.162 HD
HETATM   17  O   UNL     1      -5.010   6.584 -33.042  1.00  0.00    -0.273 OA
BRANCH  15  18
HETATM   18  C   UNL     1      -3.251   5.617 -35.057  1.00  0.00     0.127 C 
BRANCH  18  19
HETATM   19  C   UNL     1      -1.953   5.017 -34.511  1.00  0.00     0.058 C 
BRANCH  19  20
HETATM   20  C   UNL     1      -1.595   5.568 -33.154  1.00  0.00    -0.057 A 
HETATM   21  C   UNL     1      -1.439   6.949 -32.964  1.00  0.00     0.009 A 
HETATM   22  C   UNL     1      -1.088   7.455 -31.710  1.00  0.00     0.025 A 
HETATM   23  C   UNL     1      -0.898   6.577 -30.641  1.00  0.00     0.074 A 
HETATM   24  C   UNL     1      -1.037   5.199 -30.818  1.00  0.00     0.025 A 
HETATM   25  C   UNL     1      -1.389   4.699 -32.073  1.00  0.00     0.009 A 
BRANCH  23  26
HETATM   26  S   UNL     1      -0.398   7.209 -29.065  1.00  0.00     0.239 S 
HETATM   27  O   UNL     1       0.943   7.733 -29.173  1.00  0.00    -0.206 OA
HETATM   28  O   UNL     1      -1.487   7.972 -28.499  1.00  0.00    -0.206 OA
BRANCH  26  29
HETATM   29  N   UNL     1      -0.283   5.808 -28.148  1.00  0.00    -0.225 NA
HETATM   30  H   UNL     1       0.631   5.764 -27.696  1.00  0.00     0.136 HD
HETATM   31  H   UNL     1      -1.062   5.758 -27.490  1.00  0.00     0.136 HD
ENDBRANCH  26  29
ENDBRANCH  23  26
ENDBRANCH  19  20
ENDBRANCH  18  19
ENDBRANCH  15  18
ENDBRANCH  13  14
ENDBRANCH  12  13
ENDBRANCH   9  12
BRANCH  10  32
HETATM   32  C   UNL     1      -7.339   0.411 -33.163  1.00  0.00     0.043 A 
HETATM   33  C   UNL     1      -6.837  -0.371 -34.205  1.00  0.00     0.031 A 
HETATM   34  C   UNL     1      -5.754  -1.213 -33.948  1.00  0.00     0.021 A 
HETATM   35  C   UNL     1      -5.188  -1.249 -32.671  1.00  0.00     0.011 A 
HETATM   36 BR   UNL     1      -3.721  -2.390 -32.333  1.00  0.00    -0.051 Br
HETATM   37  C   UNL     1      -5.688  -0.444 -31.642  1.00  0.00     0.021 A 
HETATM   38  C   UNL     1      -6.772   0.398 -31.885  1.00  0.00     0.031 A 
ENDBRANCH  10  32
BRANCH  11  39
HETATM   39  N   UNL     1      -9.981  -0.455 -32.811  1.00  0.00    -0.384 N 
HETATM   40  H   UNL     1     -10.808  -0.633 -32.252  1.00  0.00     0.157 HD
HETATM   41  H   UNL     1      -9.722  -1.233 -33.411  1.00  0.00     0.157 HD
ENDBRANCH  11  39
TORSDOF 10
ENDMDL
MODEL 2
REMARK VINA RESULT:      -8.7      2.852      4.953
REMARK  10 active torsions:
REMARK  status: ('A' for Active; 'I' for Inactive)
REMARK    1  A    between atoms: C_9  and  S_10 
REMARK    2  A    between atoms: S_10  and  C_11 
REMARK    3  A    between atoms: C_11  and  C_12 
REMARK       I    between atoms: C_12  and  N_13 
REMARK    4  A    between atoms: N_13  and  C_14 
REMARK    5  A    between atoms: C_14  and  C_15 
REMARK    6  A    between atoms: C_15  and  C_16 
REMARK    7  A    between atoms: C_19  and  S_20 
REMARK    8  A    between atoms: S_20  and  N_21 
REMARK    9  A    between atoms: N_27  and  C_28 
REMARK   10  A    between atoms: C_35  and  N_36 
ROOT
HETATM    1  C   UNL     1      -4.529  -2.942 -34.558  1.00  0.00     0.073 C 
HETATM    2  C   UNL     1      -4.561  -1.976 -33.429  1.00  0.00     0.068 A 
HETATM    3  N   UNL     1      -3.564  -1.986 -32.536  1.00  0.00    -0.177 NA
HETATM    4  N   UNL     1      -3.905  -1.041 -31.648  1.00  0.00    -0.260 N 
HETATM    5  H   UNL     1      -3.295  -0.867 -30.856  1.00  0.00     0.191 HD
HETATM    6  C   UNL     1      -5.092  -0.434 -31.941  1.00  0.00     0.162 A 
HETATM    7  C   UNL     1      -5.550  -0.994 -33.116  1.00  0.00     0.081 A 
HETATM    8  N   UNL     1      -5.695   0.506 -31.215  1.00  0.00    -0.204 NA
HETATM    9  C   UNL     1      -6.873   0.888 -31.758  1.00  0.00     0.177 A 
HETATM   10  N   UNL     1      -7.395   0.400 -32.919  1.00  0.00    -0.276 N 
HETATM   11  C   UNL     1      -6.757  -0.540 -33.672  1.00  0.00     0.124 A 
ENDROOT
BRANCH   9  12
HETATM   12  S   UNL     1      -7.803   2.004 -30.691  1.00  0.00    -0.082 SA
BRANCH  12  13
HETATM   13  C   UNL     1      -6.582   3.349 -30.530  1.00  0.00     0.185 C 
BRANCH  13  14
HETATM   14  C   UNL     1      -6.711   4.333 -31.685  1.00  0.00     0.227 C 
HETATM   15  N   UNL     1      -5.900   4.046 -32.762  1.00  0.00    -0.360 N 
HETATM   16  H   UNL     1      -5.478   3.125 -32.813  1.00  0.00     0.162 HD
HETATM   17  O   UNL     1      -7.470   5.302 -31.643  1.00  0.00    -0.273 OA
BRANCH  15  18
HETATM   18  C   UNL     1      -5.967   4.801 -34.004  1.00  0.00     0.127 C 
BRANCH  18  19
HETATM   19  C   UNL     1      -4.576   5.016 -34.605  1.00  0.00     0.058 C 
BRANCH  19  20
HETATM   20  C   UNL     1      -3.539   5.316 -33.552  1.00  0.00    -0.057 A 
HETATM   21  C   UNL     1      -2.474   4.432 -33.329  1.00  0.00     0.009 A 
HETATM   22  C   UNL     1      -1.526   4.702 -32.339  1.00  0.00     0.025 A 
HETATM   23  C   UNL     1      -1.640   5.865 -31.574  1.00  0.00     0.074 A 
HETATM   24  C   UNL     1      -2.703   6.749 -31.776  1.00  0.00     0.025 A 
HETATM   25  C   UNL     1      -3.647   6.474 -32.767  1.00  0.00     0.009 A 
BRANCH  23  26
HETATM   26  S   UNL     1      -0.474   6.184 -30.281  1.00  0.00     0.239 S 
HETATM   27  O   UNL     1       0.673   6.861 -30.839  1.00  0.00    -0.206 OA
HETATM   28  O   UNL     1      -1.181   6.681 -29.124  1.00  0.00    -0.206 OA
BRANCH  26  29
HETATM   29  N   UNL     1       0.041   4.637 -29.886  1.00  0.00    -0.225 NA
HETATM   30  H   UNL     1       0.924   4.435 -30.356  1.00  0.00     0.136 HD
HETATM   31  H   UNL     1       0.091   4.536 -28.871  1.00  0.00     0.136 HD
ENDBRANCH  26  29
ENDBRANCH  23  26
ENDBRANCH  19  20
ENDBRANCH  18  19
ENDBRANCH  15  18
ENDBRANCH  13  14
ENDBRANCH  12  13
ENDBRANCH   9  12
BRANCH  10  32
HETATM   32  C   UNL     1      -8.687   0.851 -33.351  1.00  0.00     0.043 A 
HETATM   33  C   UNL     1      -9.823   0.134 -32.970  1.00  0.00     0.031 A 
HETATM   34  C   UNL     1     -11.075   0.601 -33.371  1.00  0.00     0.021 A 
HETATM   35  C   UNL     1     -11.172   1.773 -34.126  1.00  0.00     0.011 A 
HETATM   36 BR   UNL     1     -12.872   2.398 -34.663  1.00  0.00    -0.051 Br
HETATM   37  C   UNL     1     -10.028   2.493 -34.483  1.00  0.00     0.021 A 
HETATM   38  C   UNL     1      -8.770   2.034 -34.092  1.00  0.00     0.031 A 
ENDBRANCH  10  32
BRANCH  11  39
HETATM   39  N   UNL     1      -7.273  -1.033 -34.867  1.00  0.00    -0.384 N 
HETATM   40  H   UNL     1      -6.829  -1.817 -35.333  1.00  0.00     0.157 HD
HETATM   41  H   UNL     1      -8.280  -1.005 -34.992  1.00  0.00     0.157 HD
ENDBRANCH  11  39
TORSDOF 10
ENDMDL
MODEL 3
REMARK VINA RESULT:      -8.6      2.999      5.118
REMARK  10 active torsions:
REMARK  status: ('A' for Active; 'I' for Inactive)
REMARK    1  A    between atoms: C_9  and  S_10 
REMARK    2  A    between atoms: S_10  and  C_11 
REMARK    3  A    between atoms: C_11  and  C_12 
REMARK       I    between atoms: C_12  and  N_13 
REMARK    4  A    between atoms: N_13  and  C_14 
REMARK    5  A    between atoms: C_14  and  C_15 
REMARK    6  A    between atoms: C_15  and  C_16 
REMARK    7  A    between atoms: C_19  and  S_20 
REMARK    8  A    between atoms: S_20  and  N_21 
REMARK    9  A    between atoms: N_27  and  C_28 
REMARK   10  A    between atoms: C_35  and  N_36 
ROOT
HETATM    1  C   UNL     1      -3.747  -3.582 -33.319  1.00  0.00     0.073 C 
HETATM    2  C   UNL     1      -3.686  -2.299 -32.570  1.00  0.00     0.068 A 
HETATM    3  N   UNL     1      -2.614  -2.039 -31.811  1.00  0.00    -0.177 NA
HETATM    4  N   UNL     1      -2.882  -0.849 -31.255  1.00  0.00    -0.260 N 
HETATM    5  H   UNL     1      -2.206  -0.440 -30.619  1.00  0.00     0.191 HD
HETATM    6  C   UNL     1      -4.095  -0.345 -31.629  1.00  0.00     0.162 A 
HETATM    7  C   UNL     1      -4.650  -1.247 -32.512  1.00  0.00     0.081 A 
HETATM    8  N   UNL     1      -4.638   0.795 -31.201  1.00  0.00    -0.204 NA
HETATM    9  C   UNL     1      -5.862   1.004 -31.737  1.00  0.00     0.177 A 
HETATM   10  N   UNL     1      -6.481   0.175 -32.625  1.00  0.00    -0.276 N 
HETATM   11  C   UNL     1      -5.905  -0.973 -33.081  1.00  0.00     0.124 A 
ENDROOT
BRANCH   9  12
HETATM   12  S   UNL     1      -6.702   2.428 -31.018  1.00  0.00    -0.082 SA
BRANCH  12  13
HETATM   13  C   UNL     1      -5.299   3.187 -30.135  1.00  0.00     0.185 C 
BRANCH  13  14
HETATM   14  C   UNL     1      -4.693   4.316 -30.957  1.00  0.00     0.227 C 
HETATM   15  N   UNL     1      -3.657   3.922 -31.776  1.00  0.00    -0.360 N 
HETATM   16  H   UNL     1      -3.532   2.931 -31.950  1.00  0.00     0.162 HD
HETATM   17  O   UNL     1      -5.097   5.477 -30.880  1.00  0.00    -0.273 OA
BRANCH  15  18
HETATM   18  C   UNL     1      -3.030   4.833 -32.723  1.00  0.00     0.127 C 
BRANCH  18  19
HETATM   19  C   UNL     1      -1.506   4.826 -32.582  1.00  0.00     0.058 C 
BRANCH  19  20
HETATM   20  C   UNL     1      -1.035   5.668 -31.423  1.00  0.00    -0.057 A 
HETATM   21  C   UNL     1      -0.028   5.202 -30.566  1.00  0.00     0.009 A 
HETATM   22  C   UNL     1       0.392   5.976 -29.482  1.00  0.00     0.025 A 
HETATM   23  C   UNL     1      -0.193   7.225 -29.258  1.00  0.00     0.074 A 
HETATM   24  C   UNL     1      -1.206   7.696 -30.096  1.00  0.00     0.025 A 
HETATM   25  C   UNL     1      -1.622   6.919 -31.178  1.00  0.00     0.009 A 
BRANCH  23  26
HETATM   26  S   UNL     1       0.296   8.184 -27.853  1.00  0.00     0.239 S 
HETATM   27  O   UNL     1       1.686   8.547 -27.993  1.00  0.00    -0.206 OA
HETATM   28  O   UNL     1      -0.735   9.155 -27.568  1.00  0.00    -0.206 OA
BRANCH  26  29
HETATM   29  N   UNL     1       0.228   7.053 -26.616  1.00  0.00    -0.225 NA
HETATM   30  H   UNL     1       1.161   6.682 -26.434  1.00  0.00     0.136 HD
HETATM   31  H   UNL     1      -0.213   7.464 -25.792  1.00  0.00     0.136 HD
ENDBRANCH  26  29
ENDBRANCH  23  26
ENDBRANCH  19  20
ENDBRANCH  18  19
ENDBRANCH  15  18
ENDBRANCH  13  14
ENDBRANCH  12  13
ENDBRANCH   9  12
BRANCH  10  32
HETATM   32  C   UNL     1      -7.809   0.490 -33.069  1.00  0.00     0.043 A 
HETATM   33  C   UNL     1      -8.901  -0.033 -32.375  1.00  0.00     0.031 A 
HETATM   34  C   UNL     1     -10.187   0.305 -32.799  1.00  0.00     0.021 A 
HETATM   35  C   UNL     1     -10.358   1.162 -33.889  1.00  0.00     0.011 A 
HETATM   36 BR   UNL     1     -12.103   1.615 -34.454  1.00  0.00    -0.051 Br
HETATM   37  C   UNL     1      -9.254   1.695 -34.562  1.00  0.00     0.021 A 
HETATM   38  C   UNL     1      -7.964   1.361 -34.151  1.00  0.00     0.031 A 
ENDBRANCH  10  32
BRANCH  11  39
HETATM   39  N   UNL     1      -6.520  -1.818 -34.001  1.00  0.00    -0.384 N 
HETATM   40  H   UNL     1      -5.962  -2.397 -34.618  1.00  0.00     0.157 HD
HETATM   41  H   UNL     1      -7.401  -2.244 -33.731  1.00  0.00     0.157 HD
ENDBRANCH  11  39
TORSDOF 10
ENDMDL
MODEL 4
REMARK VINA RESULT:      -8.6      3.062      4.796
REMARK  10 active torsions:
REMARK  status: ('A' for Active; 'I' for Inactive)
REMARK    1  A    between atoms: C_9  and  S_10 
REMARK    2  A    between atoms: S_10  and  C_11 
REMARK    3  A    between atoms: C_11  and  C_12 
REMARK       I    between atoms: C_12  and  N_13 
REMARK    4  A    between atoms: N_13  and  C_14 
REMARK    5  A    between atoms: C_14  and  C_15 
REMARK    6  A    between atoms: C_15  and  C_16 
REMARK    7  A    between atoms: C_19  and  S_20 
REMARK    8  A    between atoms: S_20  and  N_21 
REMARK    9  A    between atoms: N_27  and  C_28 
REMARK   10  A    between atoms: C_35  and  N_36 
ROOT
HETATM    1  C   UNL     1      -6.743  -3.257 -34.768  1.00  0.00     0.073 C 
HETATM    2  C   UNL     1      -5.718  -2.336 -34.211  1.00  0.00     0.068 A 
HETATM    3  N   UNL     1      -4.441  -2.735 -34.165  1.00  0.00    -0.177 NA
HETATM    4  N   UNL     1      -3.795  -1.713 -33.588  1.00  0.00    -0.260 N 
HETATM    5  H   UNL     1      -2.794  -1.788 -33.434  1.00  0.00     0.191 HD
HETATM    6  C   UNL     1      -4.620  -0.677 -33.255  1.00  0.00     0.162 A 
HETATM    7  C   UNL     1      -5.889  -1.027 -33.667  1.00  0.00     0.081 A 
HETATM    8  N   UNL     1      -4.261   0.445 -32.633  1.00  0.00    -0.204 NA
HETATM    9  C   UNL     1      -5.314   1.266 -32.421  1.00  0.00     0.177 A 
HETATM   10  N   UNL     1      -6.597   1.009 -32.805  1.00  0.00    -0.276 N 
HETATM   11  C   UNL     1      -6.950  -0.128 -33.468  1.00  0.00     0.124 A 
ENDROOT
BRANCH   9  12
HETATM   12  S   UNL     1      -4.893   2.691 -31.402  1.00  0.00    -0.082 SA
BRANCH  12  13
HETATM   13  C   UNL     1      -4.371   3.850 -32.710  1.00  0.00     0.185 C 
BRANCH  13  14
HETATM   14  C   UNL     1      -2.885   4.162 -32.592  1.00  0.00     0.227 C 
HETATM   15  N   UNL     1      -2.413   5.023 -33.559  1.00  0.00    -0.360 N 
HETATM   16  H   UNL     1      -3.087   5.551 -34.103  1.00  0.00     0.162 HD
HETATM   17  O   UNL     1      -2.178   3.671 -31.711  1.00  0.00    -0.273 OA
BRANCH  15  18
HETATM   18  C   UNL     1      -1.049   5.531 -33.542  1.00  0.00     0.127 C 
BRANCH  18  19
HETATM   19  C   UNL     1      -0.992   6.965 -33.010  1.00  0.00     0.058 C 
BRANCH  19  20
HETATM   20  C   UNL     1      -0.721   7.014 -31.528  1.00  0.00    -0.057 A 
HETATM   21  C   UNL     1       0.216   6.148 -30.945  1.00  0.00     0.009 A 
HETATM   22  C   UNL     1       0.450   6.182 -29.569  1.00  0.00     0.025 A 
HETATM   23  C   UNL     1      -0.250   7.091 -28.772  1.00  0.00     0.074 A 
HETATM   24  C   UNL     1      -1.196   7.951 -29.336  1.00  0.00     0.025 A 
HETATM   25  C   UNL     1      -1.425   7.913 -30.712  1.00  0.00     0.009 A 
BRANCH  23  26
HETATM   26  S   UNL     1       0.002   7.099 -27.020  1.00  0.00     0.239 S 
HETATM   27  O   UNL     1       1.414   7.233 -26.750  1.00  0.00    -0.206 OA
HETATM   28  O   UNL     1      -0.989   7.953 -26.408  1.00  0.00    -0.206 OA
BRANCH  26  29
HETATM   29  N   UNL     1      -0.409   5.528 -26.600  1.00  0.00    -0.225 NA
HETATM   30  H   UNL     1       0.378   4.904 -26.779  1.00  0.00     0.136 HD
HETATM   31  H   UNL     1      -0.736   5.501 -25.634  1.00  0.00     0.136 HD
ENDBRANCH  26  29
ENDBRANCH  23  26
ENDBRANCH  19  20
ENDBRANCH  18  19
ENDBRANCH  15  18
ENDBRANCH  13  14
ENDBRANCH  12  13
ENDBRANCH   9  12
BRANCH  10  32
HETATM   32  C   UNL     1      -7.632   1.943 -32.463  1.00  0.00     0.043 A 
HETATM   33  C   UNL     1      -7.963   2.954 -33.367  1.00  0.00     0.031 A 
HETATM   34  C   UNL     1      -8.992   3.837 -33.036  1.00  0.00     0.021 A 
HETATM   35  C   UNL     1      -9.675   3.687 -31.826  1.00  0.00     0.011 A 
HETATM   36 BR   UNL     1     -11.067   4.887 -31.387  1.00  0.00    -0.051 Br
HETATM   37  C   UNL     1      -9.346   2.657 -30.940  1.00  0.00     0.021 A 
HETATM   38  C   UNL     1      -8.317   1.771 -31.257  1.00  0.00     0.031 A 
ENDBRANCH  10  32
BRANCH  11  39
HETATM   39  N   UNL     1      -8.253  -0.394 -33.880  1.00  0.00    -0.384 N 
HETATM   40  H   UNL     1      -8.521  -0.271 -34.850  1.00  0.00     0.157 HD
HETATM   41  H   UNL     1      -8.748  -1.150 -33.416  1.00  0.00     0.157 HD
ENDBRANCH  11  39
TORSDOF 10
ENDMDL
MODEL 5
REMARK VINA RESULT:      -8.5      1.508      1.877
REMARK  10 active torsions:
REMARK  status: ('A' for Active; 'I' for Inactive)
REMARK    1  A    between atoms: C_9  and  S_10 
REMARK    2  A    between atoms: S_10  and  C_11 
REMARK    3  A    between atoms: C_11  and  C_12 
REMARK       I    between atoms: C_12  and  N_13 
REMARK    4  A    between atoms: N_13  and  C_14 
REMARK    5  A    between atoms: C_14  and  C_15 
REMARK    6  A    between atoms: C_15  and  C_16 
REMARK    7  A    between atoms: C_19  and  S_20 
REMARK    8  A    between atoms: S_20  and  N_21 
REMARK    9  A    between atoms: N_27  and  C_28 
REMARK   10  A    between atoms: C_35  and  N_36 
ROOT
HETATM    1  C   UNL     1     -12.882   2.881 -32.956  1.00  0.00     0.073 C 
HETATM    2  C   UNL     1     -11.604   3.607 -32.737  1.00  0.00     0.068 A 
HETATM    3  N   UNL     1     -11.639   4.911 -32.437  1.00  0.00    -0.177 NA
HETATM    4  N   UNL     1     -10.350   5.265 -32.342  1.00  0.00    -0.260 N 
HETATM    5  H   UNL     1     -10.119   6.229 -32.126  1.00  0.00     0.191 HD
HETATM    6  C   UNL     1      -9.492   4.230 -32.581  1.00  0.00     0.162 A 
HETATM    7  C   UNL     1     -10.266   3.113 -32.820  1.00  0.00     0.081 A 
HETATM    8  N   UNL     1      -8.161   4.299 -32.597  1.00  0.00    -0.204 NA
HETATM    9  C   UNL     1      -7.595   3.107 -32.891  1.00  0.00     0.177 A 
HETATM   10  N   UNL     1      -8.280   1.952 -33.128  1.00  0.00    -0.276 N 
HETATM   11  C   UNL     1      -9.640   1.883 -33.079  1.00  0.00     0.124 A 
ENDROOT
BRANCH   9  12
HETATM   12  S   UNL     1      -5.811   3.221 -33.123  1.00  0.00    -0.082 SA
BRANCH  12  13
HETATM   13  C   UNL     1      -5.717   4.863 -33.909  1.00  0.00     0.185 C 
BRANCH  13  14
HETATM   14  C   UNL     1      -4.325   5.110 -34.474  1.00  0.00     0.227 C 
HETATM   15  N   UNL     1      -3.321   5.070 -33.531  1.00  0.00    -0.360 N 
HETATM   16  H   UNL     1      -3.528   4.665 -32.624  1.00  0.00     0.162 HD
HETATM   17  O   UNL     1      -4.130   5.336 -35.668  1.00  0.00    -0.273 OA
BRANCH  15  18
HETATM   18  C   UNL     1      -1.914   5.165 -33.894  1.00  0.00     0.127 C 
BRANCH  18  19
HETATM   19  C   UNL     1      -1.363   6.570 -33.638  1.00  0.00     0.058 C 
BRANCH  19  20
HETATM   20  C   UNL     1      -1.024   6.794 -32.185  1.00  0.00    -0.057 A 
HETATM   21  C   UNL     1      -0.054   6.005 -31.550  1.00  0.00     0.009 A 
HETATM   22  C   UNL     1       0.244   6.202 -30.199  1.00  0.00     0.025 A 
HETATM   23  C   UNL     1      -0.426   7.196 -29.483  1.00  0.00     0.074 A 
HETATM   24  C   UNL     1      -1.404   7.981 -30.099  1.00  0.00     0.025 A 
HETATM   25  C   UNL     1      -1.697   7.780 -31.449  1.00  0.00     0.009 A 
BRANCH  23  26
HETATM   26  S   UNL     1      -0.092   7.412 -27.758  1.00  0.00     0.239 S 
HETATM   27  O   UNL     1       1.317   7.673 -27.581  1.00  0.00    -0.206 OA
HETATM   28  O   UNL     1      -1.116   8.254 -27.185  1.00  0.00    -0.206 OA
BRANCH  26  29
HETATM   29  N   UNL     1      -0.363   5.870 -27.155  1.00  0.00    -0.225 NA
HETATM   30  H   UNL     1      -0.237   5.180 -27.897  1.00  0.00     0.136 HD
HETATM   31  H   UNL     1       0.234   5.704 -26.343  1.00  0.00     0.136 HD
ENDBRANCH  26  29
ENDBRANCH  23  26
ENDBRANCH  19  20
ENDBRANCH  18  19
ENDBRANCH  15  18
ENDBRANCH  13  14
ENDBRANCH  12  13
ENDBRANCH   9  12
BRANCH  10  32
HETATM   32  C   UNL     1      -7.554   0.768 -33.488  1.00  0.00     0.043 A 
HETATM   33  C   UNL     1      -7.451   0.414 -34.834  1.00  0.00     0.031 A 
HETATM   34  C   UNL     1      -6.717  -0.723 -35.174  1.00  0.00     0.021 A 
HETATM   35  C   UNL     1      -6.092  -1.472 -34.173  1.00  0.00     0.011 A 
HETATM   36 BR   UNL     1      -5.098  -3.009 -34.643  1.00  0.00    -0.051 Br
HETATM   37  C   UNL     1      -6.186  -1.095 -32.830  1.00  0.00     0.021 A 
HETATM   38  C   UNL     1      -6.921   0.037 -32.478  1.00  0.00     0.031 A 
ENDBRANCH  10  32
BRANCH  11  39
HETATM   39  N   UNL     1     -10.350   0.705 -33.302  1.00  0.00    -0.384 N 
HETATM   40  H   UNL     1     -10.035   0.040 -33.999  1.00  0.00     0.157 HD
HETATM   41  H   UNL     1     -10.803   0.272 -32.503  1.00  0.00     0.157 HD
ENDBRANCH  11  39
TORSDOF 10
ENDMDL
MODEL 6
REMARK VINA RESULT:      -8.3      3.614      5.836
REMARK  10 active torsions:
REMARK  status: ('A' for Active; 'I' for Inactive)
REMARK    1  A    between atoms: C_9  and  S_10 
REMARK    2  A    between atoms: S_10  and  C_11 
REMARK    3  A    between atoms: C_11  and  C_12 
REMARK       I    between atoms: C_12  and  N_13 
REMARK    4  A    between atoms: N_13  and  C_14 
REMARK    5  A    between atoms: C_14  and  C_15 
REMARK    6  A    between atoms: C_15  and  C_16 
REMARK    7  A    between atoms: C_19  and  S_20 
REMARK    8  A    between atoms: S_20  and  N_21 
REMARK    9  A    between atoms: N_27  and  C_28 
REMARK   10  A    between atoms: C_35  and  N_36 
ROOT
HETATM    1  C   UNL     1      -4.621  -2.923 -34.618  1.00  0.00     0.073 C 
HETATM    2  C   UNL     1      -4.601  -1.909 -33.532  1.00  0.00     0.068 A 
HETATM    3  N   UNL     1      -3.573  -1.893 -32.675  1.00  0.00    -0.177 NA
HETATM    4  N   UNL     1      -3.871  -0.907 -31.817  1.00  0.00    -0.260 N 
HETATM    5  H   UNL     1      -3.230  -0.707 -31.056  1.00  0.00     0.191 HD
HETATM    6  C   UNL     1      -5.061  -0.298 -32.094  1.00  0.00     0.162 A 
HETATM    7  C   UNL     1      -5.567  -0.902 -33.227  1.00  0.00     0.081 A 
HETATM    8  N   UNL     1      -5.627   0.681 -31.389  1.00  0.00    -0.204 NA
HETATM    9  C   UNL     1      -6.819   1.054 -31.905  1.00  0.00     0.177 A 
HETATM   10  N   UNL     1      -7.389   0.523 -33.024  1.00  0.00    -0.276 N 
HETATM   11  C   UNL     1      -6.789  -0.457 -33.758  1.00  0.00     0.124 A 
ENDROOT
BRANCH   9  12
HETATM   12  S   UNL     1      -7.697   2.226 -30.855  1.00  0.00    -0.082 SA
BRANCH  12  13
HETATM   13  C   UNL     1      -6.303   2.819 -29.840  1.00  0.00     0.185 C 
BRANCH  13  14
HETATM   14  C   UNL     1      -6.652   4.139 -29.165  1.00  0.00     0.227 C 
HETATM   15  N   UNL     1      -5.570   4.791 -28.613  1.00  0.00    -0.360 N 
HETATM   16  H   UNL     1      -4.639   4.494 -28.885  1.00  0.00     0.162 HD
HETATM   17  O   UNL     1      -7.805   4.568 -29.114  1.00  0.00    -0.273 OA
BRANCH  15  18
HETATM   18  C   UNL     1      -5.684   6.120 -28.030  1.00  0.00     0.127 C 
BRANCH  18  19
HETATM   19  C   UNL     1      -5.834   7.195 -29.108  1.00  0.00     0.058 C 
BRANCH  19  20
HETATM   20  C   UNL     1      -4.907   6.966 -30.276  1.00  0.00    -0.057 A 
HETATM   21  C   UNL     1      -3.524   7.149 -30.134  1.00  0.00     0.009 A 
HETATM   22  C   UNL     1      -2.670   6.955 -31.223  1.00  0.00     0.025 A 
HETATM   23  C   UNL     1      -3.201   6.571 -32.456  1.00  0.00     0.074 A 
HETATM   24  C   UNL     1      -4.578   6.398 -32.615  1.00  0.00     0.025 A 
HETATM   25  C   UNL     1      -5.426   6.592 -31.524  1.00  0.00     0.009 A 
BRANCH  23  26
HETATM   26  S   UNL     1      -2.130   6.379 -33.852  1.00  0.00     0.239 S 
HETATM   27  O   UNL     1      -1.545   7.659 -34.174  1.00  0.00    -0.206 OA
HETATM   28  O   UNL     1      -1.337   5.185 -33.673  1.00  0.00    -0.206 OA
BRANCH  26  29
HETATM   29  N   UNL     1      -3.218   6.037 -35.083  1.00  0.00    -0.225 NA
HETATM   30  H   UNL     1      -2.737   5.565 -35.849  1.00  0.00     0.136 HD
HETATM   31  H   UNL     1      -4.007   5.507 -34.712  1.00  0.00     0.136 HD
ENDBRANCH  26  29
ENDBRANCH  23  26
ENDBRANCH  19  20
ENDBRANCH  18  19
ENDBRANCH  15  18
ENDBRANCH  13  14
ENDBRANCH  12  13
ENDBRANCH   9  12
BRANCH  10  32
HETATM   32  C   UNL     1      -8.690   0.972 -33.429  1.00  0.00     0.043 A 
HETATM   33  C   UNL     1      -9.816   0.252 -33.024  1.00  0.00     0.031 A 
HETATM   34  C   UNL     1     -11.077   0.716 -33.399  1.00  0.00     0.021 A 
HETATM   35  C   UNL     1     -11.192   1.888 -34.153  1.00  0.00     0.011 A 
HETATM   36 BR   UNL     1     -12.905   2.509 -34.654  1.00  0.00    -0.051 Br
HETATM   37  C   UNL     1     -10.057   2.610 -34.534  1.00  0.00     0.021 A 
HETATM   38  C   UNL     1      -8.790   2.154 -34.169  1.00  0.00     0.031 A 
ENDBRANCH  10  32
BRANCH  11  39
HETATM   39  N   UNL     1      -7.353  -0.995 -34.912  1.00  0.00    -0.384 N 
HETATM   40  H   UNL     1      -8.087  -1.691 -34.848  1.00  0.00     0.157 HD
HETATM   41  H   UNL     1      -7.440  -0.386 -35.720  1.00  0.00     0.157 HD
ENDBRANCH  11  39
TORSDOF 10
ENDMDL
MODEL 7
REMARK VINA RESULT:      -8.1      2.310      3.146
REMARK  10 active torsions:
REMARK  status: ('A' for Active; 'I' for Inactive)
REMARK    1  A    between atoms: C_9  and  S_10 
REMARK    2  A    between atoms: S_10  and  C_11 
REMARK    3  A    between atoms: C_11  and  C_12 
REMARK       I    between atoms: C_12  and  N_13 
REMARK    4  A    between atoms: N_13  and  C_14 
REMARK    5  A    between atoms: C_14  and  C_15 
REMARK    6  A    between atoms: C_15  and  C_16 
REMARK    7  A    between atoms: C_19  and  S_20 
REMARK    8  A    between atoms: S_20  and  N_21 
REMARK    9  A    between atoms: N_27  and  C_28 
REMARK   10  A    between atoms: C_35  and  N_36 
ROOT
HETATM    1  C   UNL     1     -13.689  -0.588 -33.640  1.00  0.00     0.073 C 
HETATM    2  C   UNL     1     -13.058   0.711 -33.992  1.00  0.00     0.068 A 
HETATM    3  N   UNL     1     -13.790   1.642 -34.616  1.00  0.00    -0.177 NA
HETATM    4  N   UNL     1     -12.935   2.655 -34.818  1.00  0.00    -0.260 N 
HETATM    5  H   UNL     1     -13.265   3.489 -35.293  1.00  0.00     0.191 HD
HETATM    6  C   UNL     1     -11.678   2.396 -34.352  1.00  0.00     0.162 A 
HETATM    7  C   UNL     1     -11.713   1.143 -33.777  1.00  0.00     0.081 A 
HETATM    8  N   UNL     1     -10.621   3.200 -34.454  1.00  0.00    -0.204 NA
HETATM    9  C   UNL     1      -9.510   2.648 -33.916  1.00  0.00     0.177 A 
HETATM   10  N   UNL     1      -9.456   1.424 -33.317  1.00  0.00    -0.276 N 
HETATM   11  C   UNL     1     -10.549   0.621 -33.189  1.00  0.00     0.124 A 
ENDROOT
BRANCH   9  12
HETATM   12  S   UNL     1      -8.027   3.623 -34.225  1.00  0.00    -0.082 SA
BRANCH  12  13
HETATM   13  C   UNL     1      -8.633   5.261 -33.701  1.00  0.00     0.185 C 
BRANCH  13  14
HETATM   14  C   UNL     1      -8.504   5.425 -32.192  1.00  0.00     0.227 C 
HETATM   15  N   UNL     1      -7.505   4.663 -31.627  1.00  0.00    -0.360 N 
HETATM   16  H   UNL     1      -6.806   4.256 -32.240  1.00  0.00     0.162 HD
HETATM   17  O   UNL     1      -9.243   6.168 -31.546  1.00  0.00    -0.273 OA
BRANCH  15  18
HETATM   18  C   UNL     1      -7.151   4.772 -30.219  1.00  0.00     0.127 C 
BRANCH  18  19
HETATM   19  C   UNL     1      -5.769   4.176 -29.941  1.00  0.00     0.058 C 
BRANCH  19  20
HETATM   20  C   UNL     1      -4.688   4.831 -30.763  1.00  0.00    -0.057 A 
HETATM   21  C   UNL     1      -3.898   4.070 -31.638  1.00  0.00     0.009 A 
HETATM   22  C   UNL     1      -2.885   4.676 -32.384  1.00  0.00     0.025 A 
HETATM   23  C   UNL     1      -2.664   6.050 -32.260  1.00  0.00     0.074 A 
HETATM   24  C   UNL     1      -3.434   6.818 -31.383  1.00  0.00     0.025 A 
HETATM   25  C   UNL     1      -4.446   6.207 -30.641  1.00  0.00     0.009 A 
BRANCH  23  26
HETATM   26  S   UNL     1      -1.345   6.812 -33.160  1.00  0.00     0.239 S 
HETATM   27  O   UNL     1      -1.840   8.010 -33.796  1.00  0.00    -0.206 OA
HETATM   28  O   UNL     1      -0.153   6.803 -32.343  1.00  0.00    -0.206 OA
BRANCH  26  29
HETATM   29  N   UNL     1      -1.075   5.704 -34.391  1.00  0.00    -0.225 NA
HETATM   30  H   UNL     1      -1.579   4.838 -34.194  1.00  0.00     0.136 HD
HETATM   31  H   UNL     1      -1.319   6.118 -35.291  1.00  0.00     0.136 HD
ENDBRANCH  26  29
ENDBRANCH  23  26
ENDBRANCH  19  20
ENDBRANCH  18  19
ENDBRANCH  15  18
ENDBRANCH  13  14
ENDBRANCH  12  13
ENDBRANCH   9  12
BRANCH  10  32
HETATM   32  C   UNL     1      -8.195   0.932 -32.839  1.00  0.00     0.043 A 
HETATM   33  C   UNL     1      -7.341   0.272 -33.725  1.00  0.00     0.031 A 
HETATM   34  C   UNL     1      -6.105  -0.174 -33.256  1.00  0.00     0.021 A 
HETATM   35  C   UNL     1      -5.740   0.058 -31.927  1.00  0.00     0.011 A 
HETATM   36 BR   UNL     1      -4.063  -0.548 -31.302  1.00  0.00    -0.051 Br
HETATM   37  C   UNL     1      -6.596   0.739 -31.057  1.00  0.00     0.021 A 
HETATM   38  C   UNL     1      -7.836   1.186 -31.512  1.00  0.00     0.031 A 
ENDBRANCH  10  32
BRANCH  11  39
HETATM   39  N   UNL     1     -10.509  -0.623 -32.565  1.00  0.00    -0.384 N 
HETATM   40  H   UNL     1      -9.676  -1.198 -32.617  1.00  0.00     0.157 HD
HETATM   41  H   UNL     1     -11.020  -0.728 -31.693  1.00  0.00     0.157 HD
ENDBRANCH  11  39
TORSDOF 10
ENDMDL
MODEL 8
REMARK VINA RESULT:      -7.9      2.229      2.729
REMARK  10 active torsions:
REMARK  status: ('A' for Active; 'I' for Inactive)
REMARK    1  A    between atoms: C_9  and  S_10 
REMARK    2  A    between atoms: S_10  and  C_11 
REMARK    3  A    between atoms: C_11  and  C_12 
REMARK       I    between atoms: C_12  and  N_13 
REMARK    4  A    between atoms: N_13  and  C_14 
REMARK    5  A    between atoms: C_14  and  C_15 
REMARK    6  A    between atoms: C_15  and  C_16 
REMARK    7  A    between atoms: C_19  and  S_20 
REMARK    8  A    between atoms: S_20  and  N_21 
REMARK    9  A    between atoms: N_27  and  C_28 
REMARK   10  A    between atoms: C_35  and  N_36 
ROOT
HETATM    1  C   UNL     1     -12.446   1.831 -35.723  1.00  0.00     0.073 C 
HETATM    2  C   UNL     1     -12.240   2.478 -34.401  1.00  0.00     0.068 A 
HETATM    3  N   UNL     1     -13.205   3.259 -33.901  1.00  0.00    -0.177 NA
HETATM    4  N   UNL     1     -12.701   3.707 -32.741  1.00  0.00    -0.260 N 
HETATM    5  H   UNL     1     -13.259   4.337 -32.174  1.00  0.00     0.191 HD
HETATM    6  C   UNL     1     -11.442   3.242 -32.490  1.00  0.00     0.162 A 
HETATM    7  C   UNL     1     -11.104   2.410 -33.537  1.00  0.00     0.081 A 
HETATM    8  N   UNL     1     -10.685   3.554 -31.438  1.00  0.00    -0.204 NA
HETATM    9  C   UNL     1      -9.476   2.951 -31.489  1.00  0.00     0.177 A 
HETATM   10  N   UNL     1      -9.063   2.105 -32.475  1.00  0.00    -0.276 N 
HETATM   11  C   UNL     1      -9.855   1.767 -33.531  1.00  0.00     0.124 A 
ENDROOT
BRANCH   9  12
HETATM   12  S   UNL     1      -8.361   3.517 -30.191  1.00  0.00    -0.082 SA
BRANCH  12  13
HETATM   13  C   UNL     1      -8.891   5.259 -30.081  1.00  0.00     0.185 C 
BRANCH  13  14
HETATM   14  C   UNL     1      -8.322   6.068 -31.238  1.00  0.00     0.227 C 
HETATM   15  N   UNL     1      -6.948   6.179 -31.225  1.00  0.00    -0.360 N 
HETATM   16  H   UNL     1      -6.421   5.552 -30.626  1.00  0.00     0.162 HD
HETATM   17  O   UNL     1      -9.039   6.583 -32.097  1.00  0.00    -0.273 OA
BRANCH  15  18
HETATM   18  C   UNL     1      -6.213   6.813 -32.309  1.00  0.00     0.127 C 
BRANCH  18  19
HETATM   19  C   UNL     1      -5.305   5.813 -33.031  1.00  0.00     0.058 C 
BRANCH  19  20
HETATM   20  C   UNL     1      -3.911   5.790 -32.456  1.00  0.00    -0.057 A 
HETATM   21  C   UNL     1      -3.191   4.588 -32.382  1.00  0.00     0.009 A 
HETATM   22  C   UNL     1      -1.908   4.566 -31.831  1.00  0.00     0.025 A 
HETATM   23  C   UNL     1      -1.340   5.751 -31.358  1.00  0.00     0.074 A 
HETATM   24  C   UNL     1      -2.050   6.952 -31.412  1.00  0.00     0.025 A 
HETATM   25  C   UNL     1      -3.332   6.969 -31.965  1.00  0.00     0.009 A 
BRANCH  23  26
HETATM   26  S   UNL     1       0.263   5.718 -30.607  1.00  0.00     0.239 S 
HETATM   27  O   UNL     1       0.996   4.582 -31.115  1.00  0.00    -0.206 OA
HETATM   28  O   UNL     1       0.807   7.056 -30.606  1.00  0.00    -0.206 OA
BRANCH  26  29
HETATM   29  N   UNL     1      -0.106   5.361 -29.010  1.00  0.00    -0.225 NA
HETATM   30  H   UNL     1      -0.711   6.087 -28.624  1.00  0.00     0.136 HD
HETATM   31  H   UNL     1      -0.507   4.424 -28.946  1.00  0.00     0.136 HD
ENDBRANCH  26  29
ENDBRANCH  23  26
ENDBRANCH  19  20
ENDBRANCH  18  19
ENDBRANCH  15  18
ENDBRANCH  13  14
ENDBRANCH  12  13
ENDBRANCH   9  12
BRANCH  10  32
HETATM   32  C   UNL     1      -7.728   1.580 -32.435  1.00  0.00     0.043 A 
HETATM   33  C   UNL     1      -6.698   2.289 -33.057  1.00  0.00     0.031 A 
HETATM   34  C   UNL     1      -5.399   1.783 -32.984  1.00  0.00     0.021 A 
HETATM   35  C   UNL     1      -5.152   0.598 -32.287  1.00  0.00     0.011 A 
HETATM   36 BR   UNL     1      -3.390  -0.077 -32.193  1.00  0.00    -0.051 Br
HETATM   37  C   UNL     1      -6.190  -0.090 -31.652  1.00  0.00     0.021 A 
HETATM   38  C   UNL     1      -7.493   0.402 -31.720  1.00  0.00     0.031 A 
ENDBRANCH  10  32
BRANCH  11  39
HETATM   39  N   UNL     1      -9.451   0.892 -34.535  1.00  0.00    -0.384 N 
HETATM   40  H   UNL     1      -9.474   1.179 -35.507  1.00  0.00     0.157 HD
HETATM   41  H   UNL     1      -8.696   0.248 -34.321  1.00  0.00     0.157 HD
ENDBRANCH  11  39
TORSDOF 10
ENDMDL
MODEL 9
REMARK VINA RESULT:      -7.8      5.155      8.696
REMARK  10 active torsions:
REMARK  status: ('A' for Active; 'I' for Inactive)
REMARK    1  A    between atoms: C_9  and  S_10 
REMARK    2  A    between atoms: S_10  and  C_11 
REMARK    3  A    between atoms: C_11  and  C_12 
REMARK       I    between atoms: C_12  and  N_13 
REMARK    4  A    between atoms: N_13  and  C_14 
REMARK    5  A    between atoms: C_14  and  C_15 
REMARK    6  A    between atoms: C_15  and  C_16 
REMARK    7  A    between atoms: C_19  and  S_20 
REMARK    8  A    between atoms: S_20  and  N_21 
REMARK    9  A    between atoms: N_27  and  C_28 
REMARK   10  A    between atoms: C_35  and  N_36 
ROOT
HETATM    1  C   UNL     1      -3.386  -4.595 -33.835  1.00  0.00     0.073 C 
HETATM    2  C   UNL     1      -4.742  -4.143 -34.244  1.00  0.00     0.068 A 
HETATM    3  N   UNL     1      -5.471  -4.921 -35.053  1.00  0.00    -0.177 NA
HETATM    4  N   UNL     1      -6.599  -4.225 -35.255  1.00  0.00    -0.260 N 
HETATM    5  H   UNL     1      -7.318  -4.615 -35.855  1.00  0.00     0.191 HD
HETATM    6  C   UNL     1      -6.609  -3.022 -34.608  1.00  0.00     0.162 A 
HETATM    7  C   UNL     1      -5.423  -2.933 -33.909  1.00  0.00     0.081 A 
HETATM    8  N   UNL     1      -7.576  -2.108 -34.662  1.00  0.00    -0.204 NA
HETATM    9  C   UNL     1      -7.278  -1.010 -33.931  1.00  0.00     0.177 A 
HETATM   10  N   UNL     1      -6.139  -0.842 -33.201  1.00  0.00    -0.276 N 
HETATM   11  C   UNL     1      -5.168  -1.795 -33.126  1.00  0.00     0.124 A 
ENDROOT
BRANCH   9  12
HETATM   12  S   UNL     1      -8.472   0.321 -34.154  1.00  0.00    -0.082 SA
BRANCH  12  13
HETATM   13  C   UNL     1      -9.651  -0.111 -32.832  1.00  0.00     0.185 C 
BRANCH  13  14
HETATM   14  C   UNL     1     -11.042   0.417 -33.158  1.00  0.00     0.227 C 
HETATM   15  N   UNL     1     -11.110   1.789 -33.268  1.00  0.00    -0.360 N 
HETATM   16  H   UNL     1     -10.244   2.308 -33.361  1.00  0.00     0.162 HD
HETATM   17  O   UNL     1     -12.013  -0.327 -33.297  1.00  0.00    -0.273 OA
BRANCH  15  18
HETATM   18  C   UNL     1     -12.325   2.472 -33.689  1.00  0.00     0.127 C 
BRANCH  18  19
HETATM   19  C   UNL     1     -12.247   2.900 -35.156  1.00  0.00     0.058 C 
BRANCH  19  20
HETATM   20  C   UNL     1     -11.941   4.368 -35.308  1.00  0.00    -0.057 A 
HETATM   21  C   UNL     1     -12.978   5.303 -35.442  1.00  0.00     0.009 A 
HETATM   22  C   UNL     1     -12.690   6.660 -35.602  1.00  0.00     0.025 A 
HETATM   23  C   UNL     1     -11.359   7.086 -35.621  1.00  0.00     0.074 A 
HETATM   24  C   UNL     1     -10.316   6.165 -35.501  1.00  0.00     0.025 A 
HETATM   25  C   UNL     1     -10.609   4.810 -35.341  1.00  0.00     0.009 A 
BRANCH  23  26
HETATM   26  S   UNL     1     -10.988   8.797 -35.879  1.00  0.00     0.239 S 
HETATM   27  O   UNL     1     -12.130   9.438 -36.488  1.00  0.00    -0.206 OA
HETATM   28  O   UNL     1     -10.343   9.320 -34.698  1.00  0.00    -0.206 OA
BRANCH  26  29
HETATM   29  N   UNL     1      -9.804   8.722 -37.065  1.00  0.00    -0.225 NA
HETATM   30  H   UNL     1      -9.903   9.512 -37.704  1.00  0.00     0.136 HD
HETATM   31  H   UNL     1      -8.881   8.665 -36.632  1.00  0.00     0.136 HD
ENDBRANCH  26  29
ENDBRANCH  23  26
ENDBRANCH  19  20
ENDBRANCH  18  19
ENDBRANCH  15  18
ENDBRANCH  13  14
ENDBRANCH  12  13
ENDBRANCH   9  12
BRANCH  10  32
HETATM   32  C   UNL     1      -5.922   0.401 -32.517  1.00  0.00     0.043 A 
HETATM   33  C   UNL     1      -6.321   0.525 -31.185  1.00  0.00     0.031 A 
HETATM   34  C   UNL     1      -6.077   1.729 -30.523  1.00  0.00     0.021 A 
HETATM   35  C   UNL     1      -5.432   2.773 -31.191  1.00  0.00     0.011 A 
HETATM   36 BR   UNL     1      -5.104   4.399 -30.286  1.00  0.00    -0.051 Br
HETATM   37  C   UNL     1      -5.019   2.628 -32.519  1.00  0.00     0.021 A 
HETATM   38  C   UNL     1      -5.261   1.431 -33.194  1.00  0.00     0.031 A 
ENDBRANCH  10  32
BRANCH  11  39
HETATM   39  N   UNL     1      -4.009  -1.641 -32.370  1.00  0.00    -0.384 N 
HETATM   40  H   UNL     1      -3.097  -1.710 -32.808  1.00  0.00     0.157 HD
HETATM   41  H   UNL     1      -4.037  -0.986 -31.594  1.00  0.00     0.157 HD
ENDBRANCH  11  39
TORSDOF 10
ENDMDL
MODEL 10
REMARK VINA RESULT:      -7.8      5.152      9.304
REMARK  10 active torsions:
REMARK  status: ('A' for Active; 'I' for Inactive)
REMARK    1  A    between atoms: C_9  and  S_10 
REMARK    2  A    between atoms: S_10  and  C_11 
REMARK    3  A    between atoms: C_11  and  C_12 
REMARK       I    between atoms: C_12  and  N_13 
REMARK    4  A    between atoms: N_13  and  C_14 
REMARK    5  A    between atoms: C_14  and  C_15 
REMARK    6  A    between atoms: C_15  and  C_16 
REMARK    7  A    between atoms: C_19  and  S_20 
REMARK    8  A    between atoms: S_20  and  N_21 
REMARK    9  A    between atoms: N_27  and  C_28 
REMARK   10  A    between atoms: C_35  and  N_36 
ROOT
HETATM    1  C   UNL     1      -1.160   5.976 -34.178  1.00  0.00     0.073 C 
HETATM    2  C   UNL     1      -2.275   6.246 -33.234  1.00  0.00     0.068 A 
HETATM    3  N   UNL     1      -3.535   6.199 -33.684  1.00  0.00    -0.177 NA
HETATM    4  N   UNL     1      -4.281   6.518 -32.618  1.00  0.00    -0.260 N 
HETATM    5  H   UNL     1      -5.290   6.558 -32.717  1.00  0.00     0.191 HD
HETATM    6  C   UNL     1      -3.537   6.777 -31.502  1.00  0.00     0.162 A 
HETATM    7  C   UNL     1      -2.215   6.586 -31.848  1.00  0.00     0.081 A 
HETATM    8  N   UNL     1      -4.007   7.159 -30.315  1.00  0.00    -0.204 NA
HETATM    9  C   UNL     1      -3.015   7.361 -29.419  1.00  0.00     0.177 A 
HETATM   10  N   UNL     1      -1.686   7.185 -29.669  1.00  0.00    -0.276 N 
HETATM   11  C   UNL     1      -1.216   6.764 -30.877  1.00  0.00     0.124 A 
ENDROOT
BRANCH   9  12
HETATM   12  S   UNL     1      -3.607   8.075 -27.874  1.00  0.00    -0.082 SA
BRANCH  12  13
HETATM   13  C   UNL     1      -4.249   6.567 -27.075  1.00  0.00     0.185 C 
BRANCH  13  14
HETATM   14  C   UNL     1      -5.599   6.180 -27.664  1.00  0.00     0.227 C 
HETATM   15  N   UNL     1      -5.573   5.026 -28.418  1.00  0.00    -0.360 N 
HETATM   16  H   UNL     1      -4.766   4.416 -28.336  1.00  0.00     0.162 HD
HETATM   17  O   UNL     1      -6.614   6.853 -27.484  1.00  0.00    -0.273 OA
BRANCH  15  18
HETATM   18  C   UNL     1      -6.784   4.431 -28.964  1.00  0.00     0.127 C 
BRANCH  18  19
HETATM   19  C   UNL     1      -6.704   4.295 -30.486  1.00  0.00     0.058 C 
BRANCH  19  20
HETATM   20  C   UNL     1      -5.900   3.092 -30.911  1.00  0.00    -0.057 A 
HETATM   21  C   UNL     1      -6.376   1.795 -30.670  1.00  0.00     0.009 A 
HETATM   22  C   UNL     1      -5.619   0.683 -31.047  1.00  0.00     0.025 A 
HETATM   23  C   UNL     1      -4.384   0.869 -31.673  1.00  0.00     0.074 A 
HETATM   24  C   UNL     1      -3.891   2.155 -31.907  1.00  0.00     0.025 A 
HETATM   25  C   UNL     1      -4.652   3.262 -31.529  1.00  0.00     0.009 A 
BRANCH  23  26
HETATM   26  S   UNL     1      -3.397  -0.536 -32.100  1.00  0.00     0.239 S 
HETATM   27  O   UNL     1      -4.096  -1.738 -31.711  1.00  0.00    -0.206 OA
HETATM   28  O   UNL     1      -2.861  -0.345 -33.428  1.00  0.00    -0.206 OA
BRANCH  26  29
HETATM   29  N   UNL     1      -2.100  -0.386 -31.047  1.00  0.00    -0.225 NA
HETATM   30  H   UNL     1      -1.223  -0.473 -31.562  1.00  0.00     0.136 HD
HETATM   31  H   UNL     1      -2.176   0.488 -30.524  1.00  0.00     0.136 HD
ENDBRANCH  26  29
ENDBRANCH  23  26
ENDBRANCH  19  20
ENDBRANCH  18  19
ENDBRANCH  15  18
ENDBRANCH  13  14
ENDBRANCH  12  13
ENDBRANCH   9  12
BRANCH  10  32
HETATM   32  C   UNL     1      -0.733   7.494 -28.642  1.00  0.00     0.043 A 
HETATM   33  C   UNL     1      -0.309   8.815 -28.480  1.00  0.00     0.031 A 
HETATM   34  C   UNL     1       0.595   9.108 -27.458  1.00  0.00     0.021 A 
HETATM   35  C   UNL     1       1.045   8.089 -26.614  1.00  0.00     0.011 A 
HETATM   36 BR   UNL     1       2.268   8.495 -25.232  1.00  0.00    -0.051 Br
HETATM   37  C   UNL     1       0.597   6.774 -26.774  1.00  0.00     0.021 A 
HETATM   38  C   UNL     1      -0.304   6.468 -27.795  1.00  0.00     0.031 A 
ENDBRANCH  10  32
BRANCH  11  39
HETATM   39  N   UNL     1       0.137   6.564 -31.138  1.00  0.00    -0.384 N 
HETATM   40  H   UNL     1       0.815   6.597 -30.386  1.00  0.00     0.157 HD
HETATM   41  H   UNL     1       0.381   5.912 -31.877  1.00  0.00     0.157 HD
ENDBRANCH  11  39
TORSDOF 10
ENDMDL
