MODEL 1
REMARK VINA RESULT:      -9.7      0.000      0.000
REMARK  3 active torsions:
REMARK  status: ('A' for Active; 'I' for Inactive)
REMARK    1  A    between atoms: C_5  and  C_6 
REMARK    2  A    between atoms: C_6  and  N_7 
REMARK    3  A    between atoms: C_11  and  C_12 
ROOT
HETATM    1  N   UNL     1      -7.752   2.151 -33.124  1.00  0.00    -0.066 N 
HETATM    2  H   UNL     1      -8.656   2.413 -33.533  1.00  0.00     0.280 HD
HETATM    3  C   UNL     1      -6.771   1.963 -34.261  1.00  0.00     0.236 C 
HETATM    4  C   UNL     1      -7.303   0.895 -35.204  1.00  0.00     0.037 C 
HETATM    5  C   UNL     1      -7.516  -0.453 -34.495  1.00  0.00     0.024 C 
HETATM    6  C   UNL     1      -8.422  -0.246 -33.273  1.00  0.00     0.037 C 
HETATM    7  C   UNL     1      -7.958   0.875 -32.349  1.00  0.00     0.236 C 
ENDROOT
BRANCH   1   8
HETATM    8  C   UNL     1      -7.355   3.288 -32.203  1.00  0.00     0.293 C 
BRANCH   8   9
HETATM    9  C   UNL     1      -6.312   4.165 -32.772  1.00  0.00     0.061 A 
HETATM   10  N   UNL     1      -4.955   4.042 -32.507  1.00  0.00    -0.307 N 
HETATM   11  C   UNL     1      -4.317   5.052 -33.227  1.00  0.00     0.139 A 
HETATM   12  C   UNL     1      -4.264   3.136 -31.704  1.00  0.00     0.099 A 
HETATM   13  C   UNL     1      -2.886   5.156 -33.144  1.00  0.00    -0.016 A 
HETATM   14  N   UNL     1      -5.187   5.786 -33.889  1.00  0.00    -0.240 NA
HETATM   15  C   UNL     1      -2.109   6.215 -33.883  1.00  0.00     0.052 C 
HETATM   16  C   UNL     1      -2.235   4.263 -32.360  1.00  0.00     0.012 A 
HETATM   17  C   UNL     1      -2.927   3.225 -31.616  1.00  0.00     0.018 A 
HETATM   18  C   UNL     1      -6.412   5.273 -33.591  1.00  0.00     0.146 A 
ENDBRANCH   8   9
ENDBRANCH   1   8
BRANCH   5  19
HETATM   19  C   UNL     1      -6.209  -1.159 -34.205  1.00  0.00    -0.024 A 
HETATM   20  C   UNL     1      -5.960  -2.564 -34.407  1.00  0.00     0.018 A 
HETATM   21  C   UNL     1      -4.645  -2.812 -34.033  1.00  0.00     0.138 A 
HETATM   22  C   UNL     1      -6.703  -3.668 -34.863  1.00  0.00     0.017 A 
HETATM   23  N   UNL     1      -3.979  -3.978 -34.078  1.00  0.00    -0.242 NA
HETATM   24  N   UNL     1      -4.109  -1.647 -33.575  1.00  0.00    -0.350 N 
HETATM   25  C   UNL     1      -4.736  -5.002 -34.531  1.00  0.00     0.119 A 
HETATM   26  C   UNL     1      -6.064  -4.908 -34.923  1.00  0.00     0.020 A 
HETATM   27  H   UNL     1      -3.171  -1.577 -33.205  1.00  0.00     0.166 HD
HETATM   28  C   UNL     1      -5.041  -0.641 -33.661  1.00  0.00     0.098 A 
ENDBRANCH   5  19
TORSDOF 3
ENDMDL
MODEL 2
REMARK VINA RESULT:      -9.3      1.237      1.962
REMARK  3 active torsions:
REMARK  status: ('A' for Active; 'I' for Inactive)
REMARK    1  A    between atoms: C_5  and  C_6 
REMARK    2  A    between atoms: C_6  and  N_7 
REMARK    3  A    between atoms: C_11  and  C_12 
ROOT
HETATM    1  N   UNL     1      -6.963   2.411 -32.259  1.00  0.00    -0.066 N 
HETATM    2  H   UNL     1      -7.832   2.858 -32.572  1.00  0.00     0.280 HD
HETATM    3  C   UNL     1      -6.056   2.279 -33.463  1.00  0.00     0.236 C 
HETATM    4  C   UNL     1      -6.766   1.464 -34.533  1.00  0.00     0.037 C 
HETATM    5  C   UNL     1      -7.149   0.061 -34.036  1.00  0.00     0.024 C 
HETATM    6  C   UNL     1      -7.978   0.186 -32.749  1.00  0.00     0.037 C 
HETATM    7  C   UNL     1      -7.328   1.065 -31.685  1.00  0.00     0.236 C 
ENDROOT
BRANCH   1   8
HETATM    8  C   UNL     1      -6.377   3.315 -31.193  1.00  0.00     0.293 C 
BRANCH   8   9
HETATM    9  C   UNL     1      -4.912   3.463 -31.291  1.00  0.00     0.061 A 
HETATM   10  N   UNL     1      -4.261   4.661 -31.556  1.00  0.00    -0.307 N 
HETATM   11  C   UNL     1      -2.896   4.376 -31.567  1.00  0.00     0.139 A 
HETATM   12  C   UNL     1      -4.767   5.939 -31.783  1.00  0.00     0.099 A 
HETATM   13  C   UNL     1      -1.973   5.450 -31.813  1.00  0.00    -0.016 A 
HETATM   14  N   UNL     1      -2.675   3.096 -31.348  1.00  0.00    -0.240 NA
HETATM   15  C   UNL     1      -0.481   5.240 -31.848  1.00  0.00     0.052 C 
HETATM   16  C   UNL     1      -2.487   6.684 -32.028  1.00  0.00     0.012 A 
HETATM   17  C   UNL     1      -3.915   6.950 -32.017  1.00  0.00     0.018 A 
HETATM   18  C   UNL     1      -3.902   2.524 -31.211  1.00  0.00     0.146 A 
ENDBRANCH   8   9
ENDBRANCH   1   8
BRANCH   5  19
HETATM   19  C   UNL     1      -5.949  -0.857 -33.933  1.00  0.00    -0.024 A 
HETATM   20  C   UNL     1      -5.947  -2.262 -34.252  1.00  0.00     0.018 A 
HETATM   21  C   UNL     1      -4.659  -2.737 -34.037  1.00  0.00     0.138 A 
HETATM   22  C   UNL     1      -6.896  -3.200 -34.701  1.00  0.00     0.017 A 
HETATM   23  N   UNL     1      -4.194  -3.982 -34.229  1.00  0.00    -0.242 NA
HETATM   24  N   UNL     1      -3.904  -1.708 -33.560  1.00  0.00    -0.350 N 
HETATM   25  C   UNL     1      -5.143  -4.839 -34.667  1.00  0.00     0.119 A 
HETATM   26  C   UNL     1      -6.471  -4.513 -34.909  1.00  0.00     0.020 A 
HETATM   27  H   UNL     1      -2.937  -1.811 -33.287  1.00  0.00     0.166 HD
HETATM   28  C   UNL     1      -4.669  -0.568 -33.481  1.00  0.00     0.098 A 
ENDBRANCH   5  19
TORSDOF 3
ENDMDL
MODEL 3
REMARK VINA RESULT:      -9.2      1.453      2.301
REMARK  3 active torsions:
REMARK  status: ('A' for Active; 'I' for Inactive)
REMARK    1  A    between atoms: C_5  and  C_6 
REMARK    2  A    between atoms: C_6  and  N_7 
REMARK    3  A    between atoms: C_11  and  C_12 
ROOT
HETATM    1  N   UNL     1      -6.205   3.121 -33.564  1.00  0.00    -0.066 N 
HETATM    2  H   UNL     1      -7.037   3.560 -33.150  1.00  0.00     0.280 HD
HETATM    3  C   UNL     1      -6.670   1.931 -34.375  1.00  0.00     0.236 C 
HETATM    4  C   UNL     1      -7.428   0.976 -33.466  1.00  0.00     0.037 C 
HETATM    5  C   UNL     1      -6.565   0.480 -32.295  1.00  0.00     0.024 C 
HETATM    6  C   UNL     1      -5.999   1.688 -31.533  1.00  0.00     0.037 C 
HETATM    7  C   UNL     1      -5.302   2.705 -32.431  1.00  0.00     0.236 C 
ENDROOT
BRANCH   1   8
HETATM    8  C   UNL     1      -5.546   4.182 -34.423  1.00  0.00     0.293 C 
BRANCH   8   9
HETATM    9  C   UNL     1      -4.922   5.266 -33.639  1.00  0.00     0.061 A 
HETATM   10  N   UNL     1      -3.594   5.655 -33.758  1.00  0.00    -0.307 N 
HETATM   11  C   UNL     1      -3.404   6.697 -32.851  1.00  0.00     0.139 A 
HETATM   12  C   UNL     1      -2.576   5.172 -34.579  1.00  0.00     0.099 A 
HETATM   13  C   UNL     1      -2.103   7.304 -32.767  1.00  0.00    -0.016 A 
HETATM   14  N   UNL     1      -4.508   6.952 -32.181  1.00  0.00    -0.240 NA
HETATM   15  C   UNL     1      -1.801   8.434 -31.816  1.00  0.00     0.052 C 
HETATM   16  C   UNL     1      -1.131   6.822 -33.576  1.00  0.00     0.012 A 
HETATM   17  C   UNL     1      -1.357   5.730 -34.507  1.00  0.00     0.018 A 
HETATM   18  C   UNL     1      -5.433   6.061 -32.631  1.00  0.00     0.146 A 
ENDBRANCH   8   9
ENDBRANCH   1   8
BRANCH   5  19
HETATM   19  C   UNL     1      -5.532  -0.535 -32.735  1.00  0.00    -0.024 A 
HETATM   20  C   UNL     1      -5.798  -1.690 -33.556  1.00  0.00     0.018 A 
HETATM   21  C   UNL     1      -4.592  -2.355 -33.741  1.00  0.00     0.138 A 
HETATM   22  C   UNL     1      -6.930  -2.258 -34.167  1.00  0.00     0.017 A 
HETATM   23  N   UNL     1      -4.364  -3.468 -34.459  1.00  0.00    -0.242 NA
HETATM   24  N   UNL     1      -3.631  -1.692 -33.039  1.00  0.00    -0.350 N 
HETATM   25  C   UNL     1      -5.482  -3.967 -35.030  1.00  0.00     0.119 A 
HETATM   26  C   UNL     1      -6.754  -3.422 -34.918  1.00  0.00     0.020 A 
HETATM   27  H   UNL     1      -2.672  -2.006 -32.983  1.00  0.00     0.166 HD
HETATM   28  C   UNL     1      -4.182  -0.597 -32.418  1.00  0.00     0.098 A 
ENDBRANCH   5  19
TORSDOF 3
ENDMDL
MODEL 4
REMARK VINA RESULT:      -9.0      3.137      5.325
REMARK  3 active torsions:
REMARK  status: ('A' for Active; 'I' for Inactive)
REMARK    1  A    between atoms: C_5  and  C_6 
REMARK    2  A    between atoms: C_6  and  N_7 
REMARK    3  A    between atoms: C_11  and  C_12 
ROOT
HETATM    1  N   UNL     1      -7.719   1.336 -32.168  1.00  0.00    -0.066 N 
HETATM    2  H   UNL     1      -7.175   2.147 -31.850  1.00  0.00     0.280 HD
HETATM    3  C   UNL     1      -7.108   0.101 -31.541  1.00  0.00     0.236 C 
HETATM    4  C   UNL     1      -5.647   0.007 -31.952  1.00  0.00     0.037 C 
HETATM    5  C   UNL     1      -5.475  -0.067 -33.478  1.00  0.00     0.024 C 
HETATM    6  C   UNL     1      -6.190   1.127 -34.128  1.00  0.00     0.037 C 
HETATM    7  C   UNL     1      -7.636   1.297 -33.673  1.00  0.00     0.236 C 
ENDROOT
BRANCH   1   8
HETATM    8  C   UNL     1      -9.144   1.571 -31.708  1.00  0.00     0.293 C 
BRANCH   8   9
HETATM    9  C   UNL     1      -9.831   2.644 -32.454  1.00  0.00     0.061 A 
HETATM   10  N   UNL     1     -10.853   2.431 -33.369  1.00  0.00    -0.307 N 
HETATM   11  C   UNL     1     -11.223   3.687 -33.849  1.00  0.00     0.139 A 
HETATM   12  C   UNL     1     -11.460   1.251 -33.795  1.00  0.00     0.099 A 
HETATM   13  C   UNL     1     -12.282   3.767 -34.818  1.00  0.00    -0.016 A 
HETATM   14  N   UNL     1     -10.489   4.638 -33.309  1.00  0.00    -0.240 NA
HETATM   15  C   UNL     1     -12.749   5.078 -35.396  1.00  0.00     0.052 C 
HETATM   16  C   UNL     1     -12.859   2.608 -35.215  1.00  0.00     0.012 A 
HETATM   17  C   UNL     1     -12.448   1.312 -34.702  1.00  0.00     0.018 A 
HETATM   18  C   UNL     1      -9.613   4.008 -32.480  1.00  0.00     0.146 A 
ENDBRANCH   8   9
ENDBRANCH   1   8
BRANCH   5  19
HETATM   19  C   UNL     1      -5.866  -1.420 -34.032  1.00  0.00    -0.024 A 
HETATM   20  C   UNL     1      -5.092  -2.629 -33.897  1.00  0.00     0.018 A 
HETATM   21  C   UNL     1      -5.795  -3.646 -34.532  1.00  0.00     0.138 A 
HETATM   22  C   UNL     1      -3.865  -2.985 -33.309  1.00  0.00     0.017 A 
HETATM   23  N   UNL     1      -5.461  -4.943 -34.632  1.00  0.00    -0.242 NA
HETATM   24  N   UNL     1      -6.919  -3.105 -35.080  1.00  0.00    -0.350 N 
HETATM   25  C   UNL     1      -4.279  -5.232 -34.044  1.00  0.00     0.119 A 
HETATM   26  C   UNL     1      -3.462  -4.319 -33.390  1.00  0.00     0.020 A 
HETATM   27  H   UNL     1      -7.577  -3.638 -35.631  1.00  0.00     0.166 HD
HETATM   28  C   UNL     1      -6.973  -1.761 -34.797  1.00  0.00     0.098 A 
ENDBRANCH   5  19
TORSDOF 3
ENDMDL
MODEL 5
REMARK VINA RESULT:      -8.9      2.554      3.492
REMARK  3 active torsions:
REMARK  status: ('A' for Active; 'I' for Inactive)
REMARK    1  A    between atoms: C_5  and  C_6 
REMARK    2  A    between atoms: C_6  and  N_7 
REMARK    3  A    between atoms: C_11  and  C_12 
ROOT
HETATM    1  N   UNL     1      -4.798   3.545 -32.003  1.00  0.00    -0.066 N 
HETATM    2  H   UNL     1      -5.562   4.076 -31.567  1.00  0.00     0.280 HD
HETATM    3  C   UNL     1      -5.399   2.700 -33.106  1.00  0.00     0.236 C 
HETATM    4  C   UNL     1      -6.461   1.789 -32.510  1.00  0.00     0.037 C 
HETATM    5  C   UNL     1      -5.892   0.865 -31.422  1.00  0.00     0.024 C 
HETATM    6  C   UNL     1      -5.183   1.713 -30.355  1.00  0.00     0.037 C 
HETATM    7  C   UNL     1      -4.167   2.695 -30.930  1.00  0.00     0.236 C 
ENDROOT
BRANCH   1   8
HETATM    8  C   UNL     1      -3.815   4.570 -32.533  1.00  0.00     0.293 C 
BRANCH   8   9
HETATM    9  C   UNL     1      -3.380   5.546 -31.514  1.00  0.00     0.061 A 
HETATM   10  N   UNL     1      -2.055   5.802 -31.189  1.00  0.00    -0.307 N 
HETATM   11  C   UNL     1      -2.073   6.776 -30.190  1.00  0.00     0.139 A 
HETATM   12  C   UNL     1      -0.875   5.258 -31.692  1.00  0.00     0.099 A 
HETATM   13  C   UNL     1      -0.819   7.243 -29.665  1.00  0.00    -0.016 A 
HETATM   14  N   UNL     1      -3.307   7.111 -29.876  1.00  0.00    -0.240 NA
HETATM   15  C   UNL     1      -0.738   8.289 -28.583  1.00  0.00     0.052 C 
HETATM   16  C   UNL     1       0.315   6.701 -30.170  1.00  0.00     0.012 A 
HETATM   17  C   UNL     1       0.302   5.683 -31.206  1.00  0.00     0.018 A 
HETATM   18  C   UNL     1      -4.114   6.341 -30.655  1.00  0.00     0.146 A 
ENDBRANCH   8   9
ENDBRANCH   1   8
BRANCH   5  19
HETATM   19  C   UNL     1      -5.055  -0.255 -32.003  1.00  0.00    -0.024 A 
HETATM   20  C   UNL     1      -5.487  -1.169 -33.030  1.00  0.00     0.018 A 
HETATM   21  C   UNL     1      -4.431  -2.033 -33.290  1.00  0.00     0.138 A 
HETATM   22  C   UNL     1      -6.663  -1.370 -33.776  1.00  0.00     0.017 A 
HETATM   23  N   UNL     1      -4.380  -3.029 -34.190  1.00  0.00    -0.242 NA
HETATM   24  N   UNL     1      -3.410  -1.719 -32.444  1.00  0.00    -0.350 N 
HETATM   25  C   UNL     1      -5.531  -3.173 -34.884  1.00  0.00     0.119 A 
HETATM   26  C   UNL     1      -6.671  -2.398 -34.721  1.00  0.00     0.020 A 
HETATM   27  H   UNL     1      -2.542  -2.234 -32.411  1.00  0.00     0.166 HD
HETATM   28  C   UNL     1      -3.773  -0.655 -31.653  1.00  0.00     0.098 A 
ENDBRANCH   5  19
TORSDOF 3
ENDMDL
MODEL 6
REMARK VINA RESULT:      -8.8      2.547      8.397
REMARK  3 active torsions:
REMARK  status: ('A' for Active; 'I' for Inactive)
REMARK    1  A    between atoms: C_5  and  C_6 
REMARK    2  A    between atoms: C_6  and  N_7 
REMARK    3  A    between atoms: C_11  and  C_12 
ROOT
HETATM    1  N   UNL     1      -4.800   2.476 -32.304  1.00  0.00    -0.066 N 
HETATM    2  H   UNL     1      -4.992   2.287 -33.294  1.00  0.00     0.280 HD
HETATM    3  C   UNL     1      -5.504   3.765 -31.938  1.00  0.00     0.236 C 
HETATM    4  C   UNL     1      -5.000   4.880 -32.841  1.00  0.00     0.037 C 
HETATM    5  C   UNL     1      -3.482   5.085 -32.720  1.00  0.00     0.024 C 
HETATM    6  C   UNL     1      -2.766   3.751 -32.982  1.00  0.00     0.037 C 
HETATM    7  C   UNL     1      -3.305   2.594 -32.147  1.00  0.00     0.236 C 
ENDROOT
BRANCH   1   8
HETATM    8  C   UNL     1      -5.335   1.287 -31.531  1.00  0.00     0.293 C 
BRANCH   8   9
HETATM    9  C   UNL     1      -4.727   0.004 -31.936  1.00  0.00     0.061 A 
HETATM   10  N   UNL     1      -5.201  -0.797 -32.966  1.00  0.00    -0.307 N 
HETATM   11  C   UNL     1      -4.359  -1.907 -33.024  1.00  0.00     0.139 A 
HETATM   12  C   UNL     1      -6.283  -0.624 -33.827  1.00  0.00     0.099 A 
HETATM   13  C   UNL     1      -4.615  -2.911 -34.021  1.00  0.00    -0.016 A 
HETATM   14  N   UNL     1      -3.428  -1.847 -32.095  1.00  0.00    -0.240 NA
HETATM   15  C   UNL     1      -3.763  -4.147 -34.158  1.00  0.00     0.052 C 
HETATM   16  C   UNL     1      -5.670  -2.721 -34.848  1.00  0.00     0.012 A 
HETATM   17  C   UNL     1      -6.534  -1.557 -34.760  1.00  0.00     0.018 A 
HETATM   18  C   UNL     1      -3.664  -0.699 -31.403  1.00  0.00     0.146 A 
ENDBRANCH   8   9
ENDBRANCH   1   8
BRANCH   5  19
HETATM   19  C   UNL     1      -3.099   5.769 -31.426  1.00  0.00    -0.024 A 
HETATM   20  C   UNL     1      -1.767   6.195 -31.073  1.00  0.00     0.018 A 
HETATM   21  C   UNL     1      -1.838   6.784 -29.816  1.00  0.00     0.138 A 
HETATM   22  C   UNL     1      -0.497   6.147 -31.675  1.00  0.00     0.017 A 
HETATM   23  N   UNL     1      -0.842   7.343 -29.108  1.00  0.00    -0.242 NA
HETATM   24  N   UNL     1      -3.124   6.691 -29.377  1.00  0.00    -0.350 N 
HETATM   25  C   UNL     1       0.353   7.277 -29.735  1.00  0.00     0.119 A 
HETATM   26  C   UNL     1       0.578   6.705 -30.980  1.00  0.00     0.020 A 
HETATM   27  H   UNL     1      -3.423   7.013 -28.467  1.00  0.00     0.166 HD
HETATM   28  C   UNL     1      -3.897   6.072 -30.331  1.00  0.00     0.098 A 
ENDBRANCH   5  19
TORSDOF 3
ENDMDL
MODEL 7
REMARK VINA RESULT:      -8.6      3.191      5.357
REMARK  3 active torsions:
REMARK  status: ('A' for Active; 'I' for Inactive)
REMARK    1  A    between atoms: C_5  and  C_6 
REMARK    2  A    between atoms: C_6  and  N_7 
REMARK    3  A    between atoms: C_11  and  C_12 
ROOT
HETATM    1  N   UNL     1      -6.099   2.883 -32.954  1.00  0.00    -0.066 N 
HETATM    2  H   UNL     1      -5.610   2.447 -32.163  1.00  0.00     0.280 HD
HETATM    3  C   UNL     1      -7.305   3.612 -32.402  1.00  0.00     0.236 C 
HETATM    4  C   UNL     1      -8.188   2.620 -31.661  1.00  0.00     0.037 C 
HETATM    5  C   UNL     1      -8.665   1.475 -32.568  1.00  0.00     0.024 C 
HETATM    6  C   UNL     1      -7.447   0.802 -33.220  1.00  0.00     0.037 C 
HETATM    7  C   UNL     1      -6.499   1.782 -33.903  1.00  0.00     0.236 C 
ENDROOT
BRANCH   1   8
HETATM    8  C   UNL     1      -5.104   3.825 -33.603  1.00  0.00     0.293 C 
BRANCH   8   9
HETATM    9  C   UNL     1      -3.853   3.977 -32.833  1.00  0.00     0.061 A 
HETATM   10  N   UNL     1      -2.955   5.022 -32.995  1.00  0.00    -0.307 N 
HETATM   11  C   UNL     1      -1.916   4.797 -32.092  1.00  0.00     0.139 A 
HETATM   12  C   UNL     1      -2.984   6.121 -33.853  1.00  0.00     0.099 A 
HETATM   13  C   UNL     1      -0.836   5.743 -32.038  1.00  0.00    -0.016 A 
HETATM   14  N   UNL     1      -2.111   3.686 -31.413  1.00  0.00    -0.240 NA
HETATM   15  C   UNL     1       0.331   5.583 -31.098  1.00  0.00     0.052 C 
HETATM   16  C   UNL     1      -0.887   6.804 -32.879  1.00  0.00     0.012 A 
HETATM   17  C   UNL     1      -1.979   7.010 -33.814  1.00  0.00     0.018 A 
HETATM   18  C   UNL     1      -3.275   3.159 -31.881  1.00  0.00     0.146 A 
ENDBRANCH   8   9
ENDBRANCH   1   8
BRANCH   5  19
HETATM   19  C   UNL     1      -9.738   1.922 -33.538  1.00  0.00    -0.024 A 
HETATM   20  C   UNL     1     -11.003   1.261 -33.741  1.00  0.00     0.018 A 
HETATM   21  C   UNL     1     -11.701   1.985 -34.700  1.00  0.00     0.138 A 
HETATM   22  C   UNL     1     -11.644   0.121 -33.223  1.00  0.00     0.017 A 
HETATM   23  N   UNL     1     -12.933   1.747 -35.180  1.00  0.00    -0.242 NA
HETATM   24  N   UNL     1     -10.908   3.011 -35.116  1.00  0.00    -0.350 N 
HETATM   25  C   UNL     1     -13.506   0.647 -34.643  1.00  0.00     0.119 A 
HETATM   26  C   UNL     1     -12.924  -0.181 -33.693  1.00  0.00     0.020 A 
HETATM   27  H   UNL     1     -11.178   3.660 -35.842  1.00  0.00     0.166 HD
HETATM   28  C   UNL     1      -9.715   2.983 -34.433  1.00  0.00     0.098 A 
ENDBRANCH   5  19
TORSDOF 3
ENDMDL
MODEL 8
REMARK VINA RESULT:      -8.6      3.772      8.907
REMARK  3 active torsions:
REMARK  status: ('A' for Active; 'I' for Inactive)
REMARK    1  A    between atoms: C_5  and  C_6 
REMARK    2  A    between atoms: C_6  and  N_7 
REMARK    3  A    between atoms: C_11  and  C_12 
ROOT
HETATM    1  N   UNL     1      -3.742   4.868 -31.714  1.00  0.00    -0.066 N 
HETATM    2  H   UNL     1      -4.058   5.260 -32.609  1.00  0.00     0.280 HD
HETATM    3  C   UNL     1      -3.506   6.023 -30.765  1.00  0.00     0.236 C 
HETATM    4  C   UNL     1      -2.476   6.962 -31.374  1.00  0.00     0.037 C 
HETATM    5  C   UNL     1      -1.138   6.258 -31.651  1.00  0.00     0.024 C 
HETATM    6  C   UNL     1      -1.388   5.018 -32.524  1.00  0.00     0.037 C 
HETATM    7  C   UNL     1      -2.474   4.096 -31.980  1.00  0.00     0.236 C 
ENDROOT
BRANCH   1   8
HETATM    8  C   UNL     1      -4.848   3.948 -31.237  1.00  0.00     0.293 C 
BRANCH   8   9
HETATM    9  C   UNL     1      -5.446   3.140 -32.319  1.00  0.00     0.061 A 
HETATM   10  N   UNL     1      -5.442   1.753 -32.356  1.00  0.00    -0.307 N 
HETATM   11  C   UNL     1      -6.096   1.385 -33.531  1.00  0.00     0.139 A 
HETATM   12  C   UNL     1      -4.919   0.822 -31.460  1.00  0.00     0.099 A 
HETATM   13  C   UNL     1      -6.246  -0.014 -33.824  1.00  0.00    -0.016 A 
HETATM   14  N   UNL     1      -6.477   2.444 -34.214  1.00  0.00    -0.240 NA
HETATM   15  C   UNL     1      -6.936  -0.508 -35.070  1.00  0.00     0.052 C 
HETATM   16  C   UNL     1      -5.733  -0.901 -32.938  1.00  0.00     0.012 A 
HETATM   17  C   UNL     1      -5.050  -0.488 -31.724  1.00  0.00     0.018 A 
HETATM   18  C   UNL     1      -6.055   3.523 -33.499  1.00  0.00     0.146 A 
ENDBRANCH   8   9
ENDBRANCH   1   8
BRANCH   5  19
HETATM   19  C   UNL     1      -0.356   5.995 -30.382  1.00  0.00    -0.024 A 
HETATM   20  C   UNL     1      -0.182   6.934 -29.303  1.00  0.00     0.018 A 
HETATM   21  C   UNL     1       0.584   6.309 -28.327  1.00  0.00     0.138 A 
HETATM   22  C   UNL     1      -0.585   8.255 -29.036  1.00  0.00     0.017 A 
HETATM   23  N   UNL     1       0.971   6.801 -27.138  1.00  0.00    -0.242 NA
HETATM   24  N   UNL     1       0.919   5.069 -28.782  1.00  0.00    -0.350 N 
HETATM   25  C   UNL     1       0.550   8.069 -26.930  1.00  0.00     0.119 A 
HETATM   26  C   UNL     1      -0.205   8.822 -27.818  1.00  0.00     0.020 A 
HETATM   27  H   UNL     1       1.511   4.432 -28.267  1.00  0.00     0.166 HD
HETATM   28  C   UNL     1       0.369   4.866 -30.025  1.00  0.00     0.098 A 
ENDBRANCH   5  19
TORSDOF 3
ENDMDL
MODEL 9
REMARK VINA RESULT:      -8.3      1.889      2.537
REMARK  3 active torsions:
REMARK  status: ('A' for Active; 'I' for Inactive)
REMARK    1  A    between atoms: C_5  and  C_6 
REMARK    2  A    between atoms: C_6  and  N_7 
REMARK    3  A    between atoms: C_11  and  C_12 
ROOT
HETATM    1  N   UNL     1      -8.011   1.788 -32.460  1.00  0.00    -0.066 N 
HETATM    2  H   UNL     1      -8.761   2.252 -32.986  1.00  0.00     0.280 HD
HETATM    3  C   UNL     1      -6.718   2.004 -33.215  1.00  0.00     0.236 C 
HETATM    4  C   UNL     1      -6.864   1.440 -34.620  1.00  0.00     0.037 C 
HETATM    5  C   UNL     1      -7.197  -0.061 -34.613  1.00  0.00     0.024 C 
HETATM    6  C   UNL     1      -8.448  -0.299 -33.753  1.00  0.00     0.037 C 
HETATM    7  C   UNL     1      -8.364   0.325 -32.364  1.00  0.00     0.236 C 
ENDROOT
BRANCH   1   8
HETATM    8  C   UNL     1      -7.991   2.433 -31.088  1.00  0.00     0.293 C 
BRANCH   8   9
HETATM    9  C   UNL     1      -6.939   3.458 -30.938  1.00  0.00     0.061 A 
HETATM   10  N   UNL     1      -7.044   4.762 -31.403  1.00  0.00    -0.307 N 
HETATM   11  C   UNL     1      -5.849   5.399 -31.067  1.00  0.00     0.139 A 
HETATM   12  C   UNL     1      -8.079   5.406 -32.078  1.00  0.00     0.099 A 
HETATM   13  C   UNL     1      -5.685   6.782 -31.426  1.00  0.00    -0.016 A 
HETATM   14  N   UNL     1      -5.027   4.574 -30.453  1.00  0.00    -0.240 NA
HETATM   15  C   UNL     1      -4.430   7.553 -31.108  1.00  0.00     0.052 C 
HETATM   16  C   UNL     1      -6.705   7.388 -32.079  1.00  0.00     0.012 A 
HETATM   17  C   UNL     1      -7.935   6.696 -32.421  1.00  0.00     0.018 A 
HETATM   18  C   UNL     1      -5.670   3.376 -30.399  1.00  0.00     0.146 A 
ENDBRANCH   8   9
ENDBRANCH   1   8
BRANCH   5  19
HETATM   19  C   UNL     1      -6.001  -0.911 -34.243  1.00  0.00    -0.024 A 
HETATM   20  C   UNL     1      -5.907  -2.338 -34.422  1.00  0.00     0.018 A 
HETATM   21  C   UNL     1      -4.654  -2.733 -33.971  1.00  0.00     0.138 A 
HETATM   22  C   UNL     1      -6.747  -3.353 -34.915  1.00  0.00     0.017 A 
HETATM   23  N   UNL     1      -4.127  -3.969 -33.970  1.00  0.00    -0.242 NA
HETATM   24  N   UNL     1      -4.012  -1.633 -33.488  1.00  0.00    -0.350 N 
HETATM   25  C   UNL     1      -4.972  -4.903 -34.461  1.00  0.00     0.119 A 
HETATM   26  C   UNL     1      -6.256  -4.660 -34.930  1.00  0.00     0.020 A 
HETATM   27  H   UNL     1      -3.095  -1.668 -33.064  1.00  0.00     0.166 HD
HETATM   28  C   UNL     1      -4.814  -0.526 -33.635  1.00  0.00     0.098 A 
ENDBRANCH   5  19
TORSDOF 3
ENDMDL
MODEL 10
REMARK VINA RESULT:      -8.3      2.060      6.830
REMARK  3 active torsions:
REMARK  status: ('A' for Active; 'I' for Inactive)
REMARK    1  A    between atoms: C_5  and  C_6 
REMARK    2  A    between atoms: C_6  and  N_7 
REMARK    3  A    between atoms: C_11  and  C_12 
ROOT
HETATM    1  N   UNL     1      -8.328   3.411 -31.587  1.00  0.00    -0.066 N 
HETATM    2  H   UNL     1      -9.202   3.948 -31.632  1.00  0.00     0.280 HD
HETATM    3  C   UNL     1      -7.539   3.920 -30.400  1.00  0.00     0.236 C 
HETATM    4  C   UNL     1      -7.286   5.409 -30.574  1.00  0.00     0.037 C 
HETATM    5  C   UNL     1      -6.512   5.721 -31.864  1.00  0.00     0.024 C 
HETATM    6  C   UNL     1      -7.253   5.109 -33.063  1.00  0.00     0.037 C 
HETATM    7  C   UNL     1      -7.592   3.633 -32.884  1.00  0.00     0.236 C 
ENDROOT
BRANCH   1   8
HETATM    8  C   UNL     1      -8.729   1.957 -31.432  1.00  0.00     0.293 C 
BRANCH   8   9
HETATM    9  C   UNL     1      -7.617   1.015 -31.667  1.00  0.00     0.061 A 
HETATM   10  N   UNL     1      -7.399   0.342 -32.862  1.00  0.00    -0.307 N 
HETATM   11  C   UNL     1      -6.262  -0.443 -32.674  1.00  0.00     0.139 A 
HETATM   12  C   UNL     1      -8.107   0.370 -34.063  1.00  0.00     0.099 A 
HETATM   13  C   UNL     1      -5.796  -1.250 -33.769  1.00  0.00    -0.016 A 
HETATM   14  N   UNL     1      -5.789  -0.310 -31.452  1.00  0.00    -0.240 NA
HETATM   15  C   UNL     1      -4.579  -2.132 -33.659  1.00  0.00     0.052 C 
HETATM   16  C   UNL     1      -6.497  -1.204 -34.926  1.00  0.00     0.012 A 
HETATM   17  C   UNL     1      -7.683  -0.382 -35.091  1.00  0.00     0.018 A 
HETATM   18  C   UNL     1      -6.630   0.553 -30.818  1.00  0.00     0.146 A 
ENDBRANCH   8   9
ENDBRANCH   1   8
BRANCH   5  19
HETATM   19  C   UNL     1      -5.050   5.342 -31.760  1.00  0.00    -0.024 A 
HETATM   20  C   UNL     1      -4.131   5.261 -32.867  1.00  0.00     0.018 A 
HETATM   21  C   UNL     1      -2.893   4.893 -32.354  1.00  0.00     0.138 A 
HETATM   22  C   UNL     1      -4.203   5.455 -34.259  1.00  0.00     0.017 A 
HETATM   23  N   UNL     1      -1.739   4.724 -33.022  1.00  0.00    -0.242 NA
HETATM   24  N   UNL     1      -3.030   4.703 -31.013  1.00  0.00    -0.350 N 
HETATM   25  C   UNL     1      -1.863   4.930 -34.352  1.00  0.00     0.119 A 
HETATM   26  C   UNL     1      -3.036   5.283 -35.005  1.00  0.00     0.020 A 
HETATM   27  H   UNL     1      -2.276   4.390 -30.418  1.00  0.00     0.166 HD
HETATM   28  C   UNL     1      -4.328   4.959 -30.638  1.00  0.00     0.098 A 
ENDBRANCH   5  19
TORSDOF 3
ENDMDL
